REMARK  8 active torsions:
REMARK  status: ('A' for Active; 'I' for Inactive)
REMARK    1  A    between atoms: C_8  and  C_5 
REMARK    2  A    between atoms: C_10  and  C_6 
REMARK    3  A    between atoms: O_20  and  C_8 
REMARK    4  A    between atoms: O_21  and  C_12 
REMARK    5  A    between atoms: O_22  and  C_15 
REMARK    6  A    between atoms: C_24  and  C_17 
REMARK    7  A    between atoms: C_27  and  C_24 
REMARK    8  A    between atoms: C_28  and  C_27 
ROOT
ATOM      1  N   UNL d   1      -1.075   1.283  -0.021  0.00  0.00    -0.354 N 
ATOM      2  HN  UNL d   1      -0.859   2.278  -0.080  1.00  0.00     0.166 HD
ATOM      3  C   UNL d   1      -0.310  -1.001   0.075  0.00  0.00     0.009 A 
ATOM      4  C   UNL d   1      -0.070   0.391   0.015  0.00  0.00     0.050 A 
ATOM      5  C   UNL d   1      -1.671  -1.404   0.088  0.00  0.00     0.052 A 
ATOM      6  C   UNL d   1      -2.364   0.888   0.020  0.00  0.00     0.044 A 
ATOM      7  C   UNL d   1      -2.692  -0.453   0.061  0.00  0.00     0.049 A 
ATOM      8  C   UNL d   1       1.246   0.866  -0.003  0.00  0.00    -0.034 A 
ATOM      9  C   UNL d   1       0.809  -1.873   0.135  0.00  0.00     0.022 A 
ATOM     10  C   UNL d   1       2.331  -0.025   0.001  0.00  0.00     0.016 A 
ATOM     11  C   UNL d   1       2.124  -1.399   0.055  0.00  0.00    -0.057 A 
ATOM     12  C   UNL d   1       1.560   2.342  -0.014  0.00  0.00     0.050 C 
ENDROOT
BRANCH   6  13
ATOM     13  C   UNL d   1      -3.375   1.960  -0.018  0.00  0.00    -0.007 A 
ATOM     14  C   UNL d   1      -3.113   3.169  -0.695  0.00  0.00     0.053 A 
ATOM     15  C   UNL d   1      -4.072   4.190  -0.813  0.00  0.00     0.102 A 
ATOM     16  C   UNL d   1      -5.326   4.010  -0.208  0.00  0.00     0.101 A 
ATOM     17  C   UNL d   1      -5.584   2.828   0.496  0.00  0.00     0.040 A 
ATOM     18  C   UNL d   1      -4.626   1.819   0.593  0.00  0.00     0.016 A 
BRANCH  15  19
ATOM     19  O   UNL d   1      -3.837   5.348  -1.504  0.00  0.00    -0.353 OA
ATOM     20  C   UNL d   1      -2.569   5.524  -2.124  0.00  0.00     0.210 C 
ENDBRANCH  15  19
BRANCH  16  21
ATOM     21  O   UNL d   1      -6.404   4.856  -0.191  0.00  0.00    -0.353 OA
ATOM     22  C   UNL d   1      -6.321   6.091  -0.889  0.00  0.00     0.210 C 
ENDBRANCH  16  21
ENDBRANCH   6  13
BRANCH   5  23
ATOM     23  C   UNL d   1      -2.163  -2.803   0.170  0.00  0.00     0.177 C 
ATOM     24  O   UNL d   1      -3.163  -3.097   0.809  0.00  0.00    -0.646 OA
BRANCH  23  25
ATOM     25  O   UNL d   1      -1.509  -3.701  -0.588  0.00  0.00    -0.773 OA
ATOM     26  H   UNL d   1      -0.863  -3.319  -1.212  0.00  0.00     0.167 HD
ENDBRANCH  23  25
ENDBRANCH   5  23
BRANCH  11  27
ATOM     27  C   UNL d   1       3.298  -2.347   0.025  0.00  0.00     0.038 C 
BRANCH  27  28
ATOM     28  C   UNL d   1       3.284  -3.310  -1.170  0.00  0.00     0.004 C 
BRANCH  28  29
ATOM     29  C   UNL d   1       3.390  -2.601  -2.523  0.00  0.00    -0.004 C 
ATOM     30  C   UNL d   1       3.374  -3.605  -3.667  0.00  0.00     0.005 C 
ENDBRANCH  28  29
ENDBRANCH  27  28
ENDBRANCH  11  27
TORSDOF 8
