REMARK  5 active torsions:
REMARK  status: ('A' for Active; 'I' for Inactive)
REMARK    1  A    between atoms: N_2  and  C_1 
REMARK    2  A    between atoms: N_3  and  C_1 
REMARK    3  A    between atoms: C_12  and  N_3 
REMARK    4  A    between atoms: C_5  and  C_8 
REMARK    5  A    between atoms: O_19  and  C_9 
ROOT
ATOM      1  N   UNL d   1      -0.115  -1.067   0.032  0.00  0.00    -0.358 N 
ATOM      2  C   UNL d   1       0.442  -2.406  -0.160  0.00  0.00     0.126 C 
ATOM      3  C   UNL d   1      -1.030  -0.670  -1.034  0.00  0.00     0.126 C 
ATOM      4  C   UNL d   1      -1.737  -3.153  -1.264  0.00  0.00     0.024 C 
ATOM      5  C   UNL d   1      -2.172  -1.672  -1.211  0.00  0.00     0.029 C 
ATOM      6  C   UNL d   1      -0.658  -3.456  -0.204  0.00  0.00     0.029 C 
ENDROOT
BRANCH   1   7
ATOM      7  C   UNL d   1       0.762  -0.108   0.502  0.00  0.00     0.174 C 
ATOM      8  S   UNL d   1       2.029   0.537  -0.395  0.00  0.00    -0.041 SA
BRANCH   7   9
ATOM      9  N   UNL d   1       0.638   0.302   1.800  0.00  0.00    -0.333 N 
ATOM     10  H   UNL d   1       1.419   0.885   2.082  0.00  0.00     0.168 HD
BRANCH   9  11
ATOM     11  C   UNL d   1      -0.406   0.200   2.742  0.00  0.00     0.034 A 
ATOM     12  C   UNL d   1      -1.655  -0.365   2.493  0.00  0.00     0.031 A 
ATOM     13  C   UNL d   1      -2.680  -0.301   3.442  0.00  0.00     0.021 A 
ATOM     14  C   UNL d   1      -2.452   0.317   4.666  0.00  0.00     0.011 A 
ATOM     15  C   UNL d   1      -1.200   0.849   4.955  0.00  0.00     0.021 A 
ATOM     16 BR   UNL d   1      -3.854   0.458   5.923  0.00  0.00    -0.051 Br
ATOM     17  C   UNL d   1      -0.183   0.789   3.996  0.00  0.00     0.031 A 
ENDBRANCH   9  11
ENDBRANCH   7   9
ENDBRANCH   1   7
BRANCH   4  18
ATOM     18  C   UNL d   1      -1.376  -3.703  -2.647  0.00  0.00    -0.021 A 
ATOM     19  C   UNL d   1      -1.555  -5.077  -2.929  0.00  0.00     0.074 A 
ATOM     20  C   UNL d   1      -1.232  -5.588  -4.195  0.00  0.00     0.037 A 
ATOM     21  C   UNL d   1      -0.767  -4.744  -5.199  0.00  0.00     0.003 A 
ATOM     22  C   UNL d   1      -0.606  -3.390  -4.943  0.00  0.00     0.001 A 
ATOM     23  C   UNL d   1      -0.901  -2.877  -3.677  0.00  0.00     0.010 A 
BRANCH  19  24
ATOM     24  O   UNL d   1      -2.030  -5.862  -1.907  0.00  0.00    -0.355 OA
ATOM     25  C   UNL d   1      -2.696  -7.060  -2.290  0.00  0.00     0.210 C 
ENDBRANCH  19  24
ENDBRANCH   4  18
TORSDOF 5
