REMARK  7 active torsions:
REMARK  status: ('A' for Active; 'I' for Inactive)
REMARK    1  A    between atoms: C_9  and  C_1 
REMARK    2  A    between atoms: N_13  and  C_4 
REMARK    3  A    between atoms: S_15  and  C_8 
REMARK    4  A    between atoms: C_11  and  C_9 
REMARK    5  A    between atoms: N_12  and  C_23 
REMARK    6  A    between atoms: C_22  and  S_15 
REMARK    7  A    between atoms: C_23  and  C_22 
ROOT
ATOM      1  C   UNL d   1      -2.080   0.302  -0.013  0.00  0.00     0.085 C 
ATOM      2  C   UNL d   1       0.283   0.710   0.029  0.00  0.00     0.051 A 
ATOM      3  C   UNL d   1       0.090  -0.665  -0.119  0.00  0.00     0.095 A 
ATOM      4  C   UNL d   1      -1.048   1.270   0.049  0.00  0.00     0.062 C 
ATOM      5  S   UNL d   1      -1.512  -1.349  -0.301  0.00  0.00    -0.065 SA
ATOM      6  N   UNL d   1       1.076  -1.512  -0.149  0.00  0.00    -0.319 N 
ATOM      7  HN  UNL d   1       1.027  -2.528  -0.234  1.00  0.00     0.175 HD
ATOM      8  C   UNL d   1       1.619   1.001   0.057  0.00  0.00     0.073 A 
ATOM      9  S   UNL d   1       2.452  -0.551  -0.014  0.00  0.00    -0.006 SA
ENDROOT
BRANCH   1  10
ATOM     10  C   UNL d   1      -3.529   0.558   0.028  0.00  0.00     0.201 C 
ATOM     11  O   UNL d   1      -4.020   1.626  -0.322  0.00  0.00    -0.286 OA
BRANCH  10  12
ATOM     12  C   UNL d   1      -4.474  -0.494   0.535  0.00  0.00     0.015 A 
ATOM     13  C   UNL d   1      -5.737  -0.622  -0.064  0.00  0.00     0.017 A 
ATOM     14  C   UNL d   1      -6.620  -1.625   0.358  0.00  0.00     0.025 A 
ATOM     15  C   UNL d   1      -6.243  -2.497   1.379  0.00  0.00     0.034 A 
ATOM     16  C   UNL d   1      -5.010  -2.353   2.008  0.00  0.00     0.025 A 
ATOM     17 CL   UNL d   1      -7.308  -3.755   1.867  0.00  0.00    -0.084 Cl
ATOM     18  C   UNL d   1      -4.136  -1.339   1.603  0.00  0.00     0.017 A 
ENDBRANCH  10  12
ENDBRANCH   1  10
BRANCH   4  19
ATOM     19  N   UNL d   1      -1.341   2.589   0.147  0.00  0.00    -0.397 N 
ATOM     20  H   UNL d   1      -0.706   3.284  -0.238  0.00  0.00     0.156 HD
ATOM     21  H   UNL d   1      -2.313   2.880  -0.012  0.00  0.00     0.156 HD
ENDBRANCH   4  19
BRANCH   8  22
ATOM     22  S   UNL d   1       2.601   2.449   0.048  0.00  0.00    -0.118 SA
BRANCH  22  23
ATOM     23  C   UNL d   1       1.792   3.561   1.212  0.00  0.00     0.110 C 
BRANCH  23  24
ATOM     24  C   UNL d   1       2.623   4.844   1.423  0.00  0.00     0.283 C 
BRANCH  24  25
ATOM     25  N   UNL d   1       1.914   5.866   2.227  0.00  0.00     0.089 N 
ATOM     26  C   UNL d   1       0.685   6.338   1.567  0.00  0.00     0.272 C 
ATOM     27  C   UNL d   1      -0.074   7.321   2.455  0.00  0.00     0.030 C 
ATOM     28  C   UNL d   1       0.795   8.511   2.823  0.00  0.00     0.003 C 
ATOM     29  C   UNL d   1       2.122   8.040   3.407  0.00  0.00     0.030 C 
ATOM     30  C   UNL d   1       2.805   7.008   2.505  0.00  0.00     0.272 C 
ENDBRANCH  24  25
ENDBRANCH  23  24
ENDBRANCH  22  23
ENDBRANCH   8  22
TORSDOF 7
