REMARK  2 active torsions:
REMARK  status: ('A' for Active; 'I' for Inactive)
REMARK    1  A    between atoms: N_2  and  C_3 
REMARK    2  A    between atoms: C_16  and  C_7 
ROOT
ATOM      1  C   UNL d   1       0.117   0.973  -0.021  0.00  0.00     0.043 A 
ATOM      2  C   UNL d   1       1.462   1.403  -0.087  0.00  0.00     0.122 A 
ATOM      3  C   UNL d   1      -0.099  -0.385   0.138  0.00  0.00     0.089 A 
ATOM      4  C   UNL d   1      -1.137   1.661  -0.142  0.00  0.00     0.038 A 
ATOM      5  S   UNL d   1      -1.756  -0.784   0.236  0.00  0.00    -0.071 SA
ATOM      6  C   UNL d   1      -2.239   0.845   0.027  0.00  0.00     0.018 A 
ATOM      7  N   UNL d   1       2.428   0.449  -0.041  0.00  0.00    -0.338 N 
ATOM      8  HN  UNL d   1       3.412   0.707  -0.116  1.00  0.00     0.168 HD
ATOM      9  N   UNL d   1       0.841  -1.339   0.217  0.00  0.00    -0.346 N 
ATOM     10  HN  UNL d   1       0.638  -2.331   0.345  1.00  0.00     0.167 HD
ATOM     11  C   UNL d   1       2.074  -0.838   0.106  0.00  0.00     0.182 A 
ENDROOT
BRANCH   2  12
ATOM     12  N   UNL d   1       1.794   2.748  -0.264  0.00  0.00    -0.332 N 
ATOM     13  C   UNL d   1       2.960   3.334  -0.812  0.00  0.00     0.042 A 
ATOM     14  C   UNL d   1       3.007   4.713  -0.573  0.00  0.00    -0.030 A 
ATOM     15  C   UNL d   1       3.944   2.733  -1.576  0.00  0.00     0.030 A 
ATOM     16  C   UNL d   1       3.995   5.520  -1.111  0.00  0.00     0.009 A 
ATOM     17  C   UNL d   1       1.823   5.112   0.240  0.00  0.00     0.061 C 
ATOM     18  C   UNL d   1       4.985   4.914  -1.883  0.00  0.00     0.001 A 
ATOM     19  C   UNL d   1       4.967   3.528  -2.104  0.00  0.00     0.002 A 
ATOM     20  C   UNL d   1       1.352   3.733   0.740  0.00  0.00     0.135 C 
ENDBRANCH   2  12
BRANCH   6  21
ATOM     21  C   UNL d   1      -3.651   1.249   0.066  0.00  0.00    -0.019 A 
ATOM     22  C   UNL d   1      -4.660   0.501  -0.559  0.00  0.00     0.013 A 
ATOM     23  C   UNL d   1      -5.989   0.931  -0.520  0.00  0.00     0.001 A 
ATOM     24  C   UNL d   1      -6.328   2.110   0.137  0.00  0.00     0.000 A 
ATOM     25  C   UNL d   1      -5.340   2.867   0.760  0.00  0.00     0.001 A 
ATOM     26  C   UNL d   1      -4.011   2.437   0.722  0.00  0.00     0.013 A 
ENDBRANCH   6  21
TORSDOF 2
