REMARK  3 active torsions:
REMARK  status: ('A' for Active; 'I' for Inactive)
REMARK    1  A    between atoms: C_8  and  N_1 
REMARK    2  A    between atoms: C_10  and  C_2 
REMARK    3  A    between atoms: C_9  and  C_7 
ROOT
ATOM      1  N   UNL d   1      -0.146  -1.287  -0.081  0.00  0.00    -0.223 N 
ATOM      2  C   UNL d   1       1.086  -0.628  -0.098  0.00  0.00     0.148 A 
ATOM      3  N   UNL d   1      -1.126  -0.358  -0.049  0.00  0.00     0.001 NA
ATOM      4  N   UNL d   1      -0.518   0.817  -0.013  0.00  0.00    -0.007 NA
ATOM      5  N   UNL d   1       0.840   0.669  -0.027  0.00  0.00    -0.269 N 
ATOM      6  HN  UNL d   1       1.532   1.417   0.011  1.00  0.00     0.185 HD
ENDROOT
BRANCH   1   7
ATOM      7  C   UNL d   1      -0.452  -2.667   0.066  0.00  0.00     0.071 A 
ATOM      8  C   UNL d   1      -1.547  -3.271  -0.588  0.00  0.00     0.076 A 
ATOM      9  C   UNL d   1      -1.775  -4.648  -0.359  0.00  0.00     0.018 A 
ATOM     10  C   UNL d   1      -0.939  -5.406   0.459  0.00  0.00     0.001 A 
ATOM     11  C   UNL d   1       0.135  -4.801   1.094  0.00  0.00     0.002 A 
ATOM     12  C   UNL d   1       0.369  -3.439   0.914  0.00  0.00     0.032 A 
BRANCH   8  13
ATOM     13  C   UNL d   1      -2.477  -2.605  -1.585  0.00  0.00     0.419 C 
ATOM     14  F   UNL d   1      -2.034  -1.444  -2.127  0.00  0.00    -0.166 F 
ATOM     15  F   UNL d   1      -2.697  -3.416  -2.666  0.00  0.00    -0.166 F 
ATOM     16  F   UNL d   1      -3.709  -2.361  -1.063  0.00  0.00    -0.166 F 
ENDBRANCH   8  13
ENDBRANCH   1   7
BRANCH   2  17
ATOM     17  C   UNL d   1       2.423  -1.227  -0.190  0.00  0.00     0.011 A 
ATOM     18  C   UNL d   1       2.683  -2.377  -0.946  0.00  0.00     0.016 A 
ATOM     19  C   UNL d   1       3.945  -2.983  -0.915  0.00  0.00     0.007 A 
ATOM     20  C   UNL d   1       4.984  -2.423  -0.168  0.00  0.00    -0.062 A 
ATOM     21  C   UNL d   1       4.748  -1.237   0.529  0.00  0.00     0.007 A 
ATOM     22  C   UNL d   1       6.319  -3.106  -0.119  0.00  0.00     0.048 C 
ATOM     23  C   UNL d   1       3.485  -0.643   0.517  0.00  0.00     0.016 A 
ENDBRANCH   2  17
TORSDOF 3
