REMARK  6 active torsions:
REMARK  status: ('A' for Active; 'I' for Inactive)
REMARK    1  A    between atoms: N_2  and  C_1 
REMARK       I    between atoms: C_3  and  N_2 
REMARK    2  A    between atoms: C_8  and  C_3 
REMARK    3  A    between atoms: C_5  and  C_8 
REMARK    4  A    between atoms: C_10  and  C_5 
REMARK    5  A    between atoms: C_6  and  C_10 
REMARK    6  A    between atoms: O_15  and  C_6 
ROOT
ATOM      1  N   UNL d   1      -0.838   5.575  -1.724  0.00  0.00    -0.326 N 
ATOM      2  C   UNL d   1      -1.589   4.412  -1.706  0.00  0.00     0.223 C 
ATOM      3  O   UNL d   1      -2.224   3.962  -2.651  0.00  0.00    -0.273 OA
ATOM      4  H   UNL d   1      -0.178   5.713  -0.963  0.00  0.00     0.169 HD
ENDROOT
BRANCH   2   5
ATOM      5  C   UNL d   1      -1.635   3.791  -0.314  0.00  0.00     0.113 C 
BRANCH   5   6
ATOM      6  C   UNL d   1      -1.945   2.266  -0.210  0.00  0.00    -0.023 C 
ATOM      7  C   UNL d   1      -1.878   1.912   1.301  0.00  0.00     0.010 C 
ATOM      8  C   UNL d   1      -2.343   0.504   1.671  0.00  0.00     0.001 C 
ATOM      9  C   UNL d   1      -3.620   0.034   0.979  0.00  0.00     0.000 C 
ATOM     10  C   UNL d   1      -3.781   0.490  -0.465  0.00  0.00     0.001 C 
ATOM     11  C   UNL d   1      -3.396   1.955  -0.671  0.00  0.00     0.010 C 
BRANCH   6  12
ATOM     12  C   UNL d   1      -0.953   1.417  -1.053  0.00  0.00     0.119 C 
BRANCH  12  13
ATOM     13  C   UNL d   1       0.512   1.690  -0.841  0.00  0.00     0.140 C 
ATOM     14  O   UNL d   1       1.080   2.767  -0.961  0.00  0.00    -0.650 OA
BRANCH  13  15
ATOM     15  O   UNL d   1       1.208   0.583  -0.532  0.00  0.00    -0.776 OA
ATOM     16  H   UNL d   1       2.143   0.877  -0.501  0.00  0.00     0.167 HD
ENDBRANCH  13  15
ENDBRANCH  12  13
ENDBRANCH   6  12
ENDBRANCH   5   6
ENDBRANCH   2   5
BRANCH   1  17
ATOM     17  C   UNL d   1      -0.830   6.589  -2.713  0.00  0.00     0.059 A 
ATOM     18  C   UNL d   1      -1.717   6.599  -3.793  0.00  0.00     0.073 A 
ATOM     19  C   UNL d   1      -1.721   7.673  -4.680  0.00  0.00     0.118 A 
ATOM     20  F   UNL d   1      -2.592   7.682  -5.697  0.00  0.00    -0.206 F 
ATOM     21  C   UNL d   1      -0.851   8.746  -4.522  0.00  0.00     0.044 A 
ATOM     22  C   UNL d   1       0.051   8.741  -3.462  0.00  0.00     0.029 A 
ATOM     23  C   UNL d   1       0.062   7.668  -2.565  0.00  0.00     0.060 A 
ATOM     24 CL   UNL d   1       1.195   7.718  -1.254  0.00  0.00    -0.082 Cl
ENDBRANCH   1  17
TORSDOF 6
