REMARK  7 active torsions:
REMARK  status: ('A' for Active; 'I' for Inactive)
REMARK    1  A    between atoms: C_6  and  C_1 
REMARK    2  A    between atoms: C_10  and  C_2 
REMARK    3  A    between atoms: C_12  and  N_3 
REMARK    4  A    between atoms: C_8  and  C_9 
REMARK       I    between atoms: C_9  and  N_11 
REMARK    5  A    between atoms: O_24  and  C_10 
REMARK    6  A    between atoms: N_11  and  C_23 
REMARK    7  A    between atoms: C_27  and  O_24 
ROOT
ATOM      1  C   UNL d   1       0.994  -0.870   0.127  0.00  0.00     0.158 A 
ATOM      2  C   UNL d   1      -0.336  -1.291   0.122  0.00  0.00     0.089 A 
ATOM      3  N   UNL d   1       0.973   0.522   0.163  0.00  0.00    -0.251 N 
ATOM      4  N   UNL d   1      -0.310   0.983   0.169  0.00  0.00    -0.303 N 
ATOM      5  HN  UNL d   1      -0.616   1.956   0.173  1.00  0.00     0.186 HD
ATOM      6  C   UNL d   1      -1.076  -0.100   0.167  0.00  0.00     0.127 A 
ENDROOT
BRANCH   3   7
ATOM      7  C   UNL d   1       2.023   1.498   0.113  0.00  0.00     0.057 A 
ATOM      8  C   UNL d   1       1.726   2.798  -0.331  0.00  0.00     0.034 A 
ATOM      9  C   UNL d   1       2.748   3.735  -0.550  0.00  0.00     0.032 A 
ATOM     10  C   UNL d   1       4.084   3.397  -0.320  0.00  0.00     0.035 A 
ATOM     11  C   UNL d   1       4.363   2.146   0.222  0.00  0.00     0.032 A 
ATOM     12  C   UNL d   1       3.345   1.212   0.451  0.00  0.00     0.034 A 
BRANCH  10  13
ATOM     13  N   UNL d   1       5.076   4.335  -0.671  0.00  0.00    -0.320 N 
ATOM     14  C   UNL d   1       6.462   4.136  -0.670  0.00  0.00     0.330 C 
ATOM     15  O   UNL d   1       7.033   3.108  -0.304  0.00  0.00    -0.263 OA
ATOM     16  H   UNL d   1       4.751   5.222  -1.049  0.00  0.00     0.169 HD
BRANCH  14  17
ATOM     17  C   UNL d   1       7.245   5.353  -1.198  0.00  0.00     0.472 C 
ATOM     18  F   UNL d   1       6.408   6.350  -1.616  0.00  0.00    -0.162 F 
ATOM     19  F   UNL d   1       8.052   5.905  -0.253  0.00  0.00    -0.162 F 
ATOM     20  F   UNL d   1       8.034   5.048  -2.264  0.00  0.00    -0.162 F 
ENDBRANCH  14  17
ENDBRANCH  10  13
ENDBRANCH   3   7
BRANCH   1  21
ATOM     21  C   UNL d   1       2.238  -1.655   0.006  0.00  0.00     0.435 C 
ATOM     22  F   UNL d   1       2.054  -2.929  -0.407  0.00  0.00    -0.165 F 
ATOM     23  F   UNL d   1       3.097  -1.118  -0.898  0.00  0.00    -0.165 F 
ATOM     24  F   UNL d   1       2.889  -1.728   1.194  0.00  0.00    -0.165 F 
ENDBRANCH   1  21
BRANCH   2  25
ATOM     25  C   UNL d   1      -0.867  -2.639   0.009  0.00  0.00     0.297 C 
ATOM     26  O   UNL d   1      -0.193  -3.652   0.085  0.00  0.00    -0.259 OA
BRANCH  25  27
ATOM     27  O   UNL d   1      -2.204  -2.625  -0.270  0.00  0.00    -0.318 OA
BRANCH  27  28
ATOM     28  C   UNL d   1      -2.746  -3.840  -0.807  0.00  0.00     0.174 C 
ATOM     29  C   UNL d   1      -2.772  -3.704  -2.319  0.00  0.00     0.034 C 
ENDBRANCH  27  28
ENDBRANCH  25  27
ENDBRANCH   2  25
TORSDOF 7
