REMARK  3 active torsions:
REMARK  status: ('A' for Active; 'I' for Inactive)
REMARK    1  A    between atoms: C_8  and  C_3 
REMARK    2  A    between atoms: C_16  and  C_4 
REMARK    3  A    between atoms: O_17  and  C_16 
ROOT
ATOM      1  N   UNL d   1       0.940   0.039   0.827  0.00  0.00    -0.321 N 
ATOM      2  HN  UNL d   1       1.552   0.054   1.643  1.00  0.00     0.169 HD
ATOM      3  C   UNL d   1       0.667  -0.960   0.014  0.00  0.00     0.182 A 
ATOM      4  C   UNL d   1       0.186   1.059   0.291  0.00  0.00     0.127 A 
ATOM      5  N   UNL d   1      -0.542   0.723  -0.780  0.00  0.00    -0.245 N 
ATOM      6  HN  UNL d   1      -1.177   1.307  -1.325  1.00  0.00     0.196 HD
ATOM      7  O   UNL d   1      -0.220  -0.622  -0.971  0.00  0.00    -0.217 OA
ENDROOT
BRANCH   3   8
ATOM      8  C   UNL d   1       1.177  -2.327   0.013  0.00  0.00     0.019 A 
ATOM      9  C   UNL d   1       2.019  -2.752   1.053  0.00  0.00     0.041 A 
ATOM     10  C   UNL d   1       2.549  -4.048   1.067  0.00  0.00     0.056 A 
ATOM     11 CL   UNL d   1       3.578  -4.480   2.385  0.00  0.00    -0.083 Cl
ATOM     12  C   UNL d   1       2.241  -4.939   0.034  0.00  0.00     0.055 A 
ATOM     13  C   UNL d   1       1.399  -4.530  -1.002  0.00  0.00     0.026 A 
ATOM     14 CL   UNL d   1       2.868  -6.546  -0.025  0.00  0.00    -0.083 Cl
ATOM     15  C   UNL d   1       0.869  -3.234  -1.012  0.00  0.00     0.017 A 
ENDBRANCH   3   8
BRANCH   4  16
ATOM     16  C   UNL d   1       0.197   2.430   0.872  0.00  0.00     0.242 C 
BRANCH  16  17
ATOM     17  O   UNL d   1       1.410   2.716   1.579  0.00  0.00    -0.393 OA
ATOM     18  H   UNL d   1       1.734   1.855   1.907  0.00  0.00     0.209 HD
ENDBRANCH  16  17
ENDBRANCH   4  16
TORSDOF 3
