REMARK  5 active torsions:
REMARK  status: ('A' for Active; 'I' for Inactive)
REMARK    1  A    between atoms: C_2  and  C_1 
REMARK    2  A    between atoms: N_7  and  C_3 
REMARK       I    between atoms: C_6  and  N_7 
REMARK    3  A    between atoms: O_17  and  C_6 
REMARK    4  A    between atoms: O_18  and  C_8 
REMARK    5  A    between atoms: C_19  and  O_17 
ROOT
ATOM      1  C   UNL d   1       3.359  -6.639  -1.606  0.00  0.00    -0.091 C 
ATOM      2  C   UNL d   1       4.540  -6.353  -1.788  0.00  0.00     0.014 C 
ATOM      3  C   UNL d   1       1.896  -6.951  -1.414  0.00  0.00     0.273 C 
ENDROOT
BRANCH   3   4
ATOM      4  O   UNL d   1       1.133  -6.122  -2.332  0.00  0.00    -0.292 OA
BRANCH   4   5
ATOM      5  C   UNL d   1       0.830  -4.886  -1.848  0.00  0.00     0.366 C 
ATOM      6  N   UNL d   1       0.581  -3.970  -2.868  0.00  0.00    -0.299 N 
ATOM      7  H   UNL d   1       0.517  -4.337  -3.812  0.00  0.00     0.171 HD
ATOM      8  O   UNL d   1       0.805  -4.643  -0.650  0.00  0.00    -0.238 OA
BRANCH   6   9
ATOM      9  C   UNL d   1       0.408  -2.562  -2.690  0.00  0.00     0.088 A 
ATOM     10  C   UNL d   1       0.786  -1.954  -1.488  0.00  0.00     0.051 A 
ATOM     11  C   UNL d   1       0.644  -0.581  -1.272  0.00  0.00     0.065 A 
ATOM     12  C   UNL d   1       0.104   0.171  -2.294  0.00  0.00     0.106 A 
ATOM     13  N   UNL d   1      -0.244  -0.352  -3.485  0.00  0.00    -0.344 N 
ATOM     14  C   UNL d   1      -0.090  -1.692  -3.677  0.00  0.00     0.169 A 
ATOM     15  HN  UNL d   1      -0.616   0.241  -4.227  1.00  0.00     0.167 HD
BRANCH  11  16
ATOM     16  C   UNL d   1       1.084   0.060   0.004  0.00  0.00     0.418 C 
ATOM     17  F   UNL d   1       1.639  -0.814   0.889  0.00  0.00    -0.166 F 
ATOM     18  F   UNL d   1       0.061   0.662   0.667  0.00  0.00    -0.166 F 
ATOM     19  F   UNL d   1       2.021   1.025  -0.200  0.00  0.00    -0.166 F 
ENDBRANCH  11  16
BRANCH  14  20
ATOM     20  O   UNL d   1      -0.465  -2.186  -4.915  0.00  0.00    -0.339 OA
ATOM     21  C   UNL d   1      -0.999  -1.149  -5.763  0.00  0.00     0.211 C 
ENDBRANCH  14  20
ENDBRANCH   6   9
ENDBRANCH   4   5
ENDBRANCH   3   4
TORSDOF 5
