REMARK  2 active torsions:
REMARK  status: ('A' for Active; 'I' for Inactive)
REMARK       I    between atoms: C_4  and  N_1 
REMARK       I    between atoms: N_2  and  C_3 
REMARK    1  A    between atoms: C_3  and  C_5 
REMARK    2  A    between atoms: C_5  and  C_4 
ROOT
ATOM      1  C   UNL d   1      -3.344   2.910  -0.442  0.00  0.00     0.206 C 
ENDROOT
BRANCH   1   2
ATOM      2  C   UNL d   1      -4.433   1.980   0.045  0.00  0.00     0.233 C 
ATOM      3  N   UNL d   1      -5.048   1.080  -0.832  0.00  0.00    -0.317 N 
ATOM      4  C   UNL d   1      -6.125   0.237  -0.368  0.00  0.00     0.043 C 
ATOM      5  C   UNL d   1      -4.585   0.801  -2.199  0.00  0.00     0.132 C 
ATOM      6  C   UNL d   1      -6.305  -1.050  -0.907  0.00  0.00    -0.031 C 
ATOM      7  C   UNL d   1      -6.982   0.647   0.663  0.00  0.00     0.031 C 
ATOM      8  C   UNL d   1      -7.204  -1.941  -0.288  0.00  0.00     0.016 C 
ATOM      9  C   UNL d   1      -5.566  -1.504  -2.137  0.00  0.00     0.042 C 
ATOM     10  C   UNL d   1      -7.957  -1.556   0.827  0.00  0.00    -0.061 C 
ATOM     11  C   UNL d   1      -7.880  -0.236   1.262  0.00  0.00     0.009 C 
ATOM     12  C   UNL d   1      -8.763  -2.559   1.597  0.00  0.00     0.048 C 
ATOM     13  C   UNL d   1      -4.319  -0.680  -2.418  0.00  0.00     0.025 C 
ATOM     14  O   UNL d   1      -4.759   2.090   1.234  0.00  0.00    -0.273 OA
ENDBRANCH   1   2
BRANCH   1  15
ATOM     15  C   UNL d   1      -1.928   2.354  -0.524  0.00  0.00     0.233 C 
ATOM     16  N   UNL d   1      -1.154   2.221   0.652  0.00  0.00    -0.317 N 
ATOM     17  C   UNL d   1       0.257   1.854   0.645  0.00  0.00     0.043 A 
ATOM     18  C   UNL d   1      -1.712   2.611   1.958  0.00  0.00     0.132 C 
ATOM     19  C   UNL d   1       1.018   1.895   1.838  0.00  0.00    -0.031 A 
ATOM     20  C   UNL d   1       0.942   1.427  -0.508  0.00  0.00     0.031 A 
ATOM     21  C   UNL d   1       2.382   1.541   1.855  0.00  0.00     0.016 A 
ATOM     22  C   UNL d   1       0.423   2.345   3.143  0.00  0.00     0.042 C 
ATOM     23  C   UNL d   1       3.030   1.106   0.700  0.00  0.00    -0.061 A 
ATOM     24  C   UNL d   1       2.299   1.066  -0.485  0.00  0.00     0.009 A 
ATOM     25  C   UNL d   1       4.473   0.703   0.757  0.00  0.00     0.048 C 
ATOM     26  C   UNL d   1      -1.039   1.987   3.164  0.00  0.00     0.025 C 
ATOM     27  O   UNL d   1      -1.513   2.115  -1.663  0.00  0.00    -0.273 OA
ENDBRANCH   1  15
TORSDOF 2
