REMARK  4 active torsions:
REMARK  status: ('A' for Active; 'I' for Inactive)
REMARK    1  A    between atoms: C_2  and  C_1 
REMARK    2  A    between atoms: N_3  and  C_1 
REMARK    3  A    between atoms: C_6  and  N_3 
REMARK    4  A    between atoms: O_8  and  N_4 
ROOT
ATOM      1  C   UNL d   1       0.916   1.639  -2.095  0.00  0.00     0.063 C 
ATOM      2  C   UNL d   1       2.423   1.627  -2.454  0.00  0.00     0.044 C 
ATOM      3  C   UNL d   1       0.730   2.835  -1.142  0.00  0.00     0.044 C 
ENDROOT
BRANCH   1   4
ATOM      4  C   UNL d   1       0.557   0.270  -1.453  0.00  0.00     0.033 C 
ATOM      5  N   UNL d   1       0.058   0.232  -0.249  0.00  0.00    -0.275 N 
ATOM      6  HN  UNL d   1      -0.125   1.057   0.322  1.00  0.00     0.193 HD
ATOM      7  C   UNL d   1       0.824  -0.994  -2.256  0.00  0.00     0.068 C 
BRANCH   5   8
ATOM      8  O   UNL d   1      -0.194  -1.083   0.163  0.00  0.00    -0.290 OA
ATOM      9  H   UNL d   1      -0.632  -0.954   1.025  0.00  0.00     0.244 HD
ENDBRANCH   5   8
ENDBRANCH   1   4
BRANCH   1  10
ATOM     10  N   UNL d   1       0.169   1.822  -3.372  0.00  0.00    -0.376 N 
ATOM     11  H   UNL d   1       0.622   1.325  -4.136  0.00  0.00     0.160 HD
BRANCH  10  12
ATOM     12  C   UNL d   1      -1.221   1.749  -3.495  0.00  0.00     0.029 A 
ATOM     13  C   UNL d   1      -2.123   2.196  -2.529  0.00  0.00     0.031 A 
ATOM     14  C   UNL d   1      -3.509   2.182  -2.744  0.00  0.00     0.026 A 
ATOM     15  C   UNL d   1      -4.016   1.720  -3.949  0.00  0.00     0.034 A 
ATOM     16  C   UNL d   1      -3.148   1.289  -4.943  0.00  0.00     0.026 A 
ATOM     17 CL   UNL d   1      -5.714   1.704  -4.217  0.00  0.00    -0.084 Cl
ATOM     18  C   UNL d   1      -1.764   1.319  -4.718  0.00  0.00     0.031 A 
ENDBRANCH  10  12
ENDBRANCH   1  10
TORSDOF 4
