REMARK  3 active torsions:
REMARK  status: ('A' for Active; 'I' for Inactive)
REMARK    1  A    between atoms: C_2  and  C_1 
REMARK    2  A    between atoms: C_4  and  C_11 
REMARK    3  A    between atoms: C_15  and  C_7 
ROOT
ATOM      1  C   UNL d   1      -2.030  -2.575  -0.023  0.00  0.00     0.058 C 
ATOM      2  C   UNL d   1      -3.357  -2.867  -0.112  0.00  0.00     0.035 C 
ATOM      3  C   UNL d   1      -1.572  -1.167  -0.015  0.00  0.00     0.100 C 
ATOM      4  N   UNL d   1      -1.222  -0.059  -0.004  0.00  0.00    -0.191 NA
ENDROOT
BRANCH   1   5
ATOM      5  C   UNL d   1      -1.034  -3.644   0.050  0.00  0.00     0.013 A 
ATOM      6  C   UNL d   1      -1.170  -4.904  -0.521  0.00  0.00     0.102 A 
ATOM      7  N   UNL d   1      -0.025  -5.616  -0.269  0.00  0.00    -0.364 N 
ATOM      8  C   UNL d   1       0.857  -4.856   0.462  0.00  0.00     0.043 A 
ATOM      9  H   UNL d   1       0.155  -6.563  -0.575  0.00  0.00     0.165 HD
ATOM     10  C   UNL d   1       0.256  -3.613   0.682  0.00  0.00     0.004 A 
ATOM     11  C   UNL d   1       2.134  -5.184   0.938  0.00  0.00     0.030 A 
ATOM     12  C   UNL d   1       0.982  -2.657   1.428  0.00  0.00     0.014 A 
ATOM     13  C   UNL d   1       2.261  -2.969   1.909  0.00  0.00     0.001 A 
ATOM     14  C   UNL d   1       2.826  -4.215   1.666  0.00  0.00     0.002 A 
ENDBRANCH   1   5
BRANCH   2  15
ATOM     15  C   UNL d   1      -4.415  -1.856  -0.235  0.00  0.00    -0.035 A 
ATOM     16  C   UNL d   1      -4.825  -1.428  -1.502  0.00  0.00     0.012 A 
ATOM     17  C   UNL d   1      -5.841  -0.476  -1.633  0.00  0.00     0.017 A 
ATOM     18  C   UNL d   1      -6.463   0.067  -0.500  0.00  0.00     0.048 A 
ATOM     19  C   UNL d   1      -6.035  -0.353   0.769  0.00  0.00     0.017 A 
ATOM     20  C   UNL d   1      -5.018  -1.307   0.901  0.00  0.00     0.012 A 
BRANCH  18  21
ATOM     21  C   UNL d   1      -7.582   1.074  -0.629  0.00  0.00     0.417 C 
ATOM     22  F   UNL d   1      -7.884   1.392  -1.919  0.00  0.00    -0.166 F 
ATOM     23  F   UNL d   1      -8.745   0.628  -0.077  0.00  0.00    -0.166 F 
ATOM     24  F   UNL d   1      -7.304   2.254  -0.009  0.00  0.00    -0.166 F 
ENDBRANCH  18  21
ENDBRANCH   2  15
TORSDOF 3
