REMARK  4 active torsions:
REMARK  status: ('A' for Active; 'I' for Inactive)
REMARK    1  A    between atoms: C_9  and  C_1 
REMARK    2  A    between atoms: C_4  and  N_11 
REMARK    3  A    between atoms: C_24  and  C_7 
REMARK       I    between atoms: C_10  and  N_17 
REMARK       I    between atoms: N_11  and  C_10 
REMARK    4  A    between atoms: N_17  and  C_24 
ROOT
ATOM      1  C   UNL d   1       4.854   1.576  -0.198  0.00  0.00     0.321 C 
ATOM      2  N   UNL d   1       4.881   2.935  -0.009  0.00  0.00    -0.306 N 
ATOM      3  N   UNL d   1       3.628   1.005   0.012  0.00  0.00    -0.337 N 
ATOM      4  O   UNL d   1       5.835   0.888  -0.478  0.00  0.00    -0.247 OA
ATOM      5  H   UNL d   1       4.223   3.293   0.674  0.00  0.00     0.171 HD
ATOM      6  H   UNL d   1       2.776   1.546   0.056  0.00  0.00     0.164 HD
ENDROOT
BRANCH   3   7
ATOM      7  C   UNL d   1       3.531  -0.431  -0.114  0.00  0.00     0.181 C 
BRANCH   7   8
ATOM      8  C   UNL d   1       2.127  -0.941  -0.102  0.00  0.00     0.034 A 
ATOM      9  N   UNL d   1       1.026  -0.087  -0.032  0.00  0.00    -0.351 N 
ATOM     10  C   UNL d   1      -0.094  -0.795  -0.028  0.00  0.00     0.091 A 
ATOM     11  HN  UNL d   1       1.076   0.930   0.011  1.00  0.00     0.166 HD
ATOM     12  S   UNL d   1       0.119  -2.501  -0.139  0.00  0.00    -0.081 SA
ATOM     13  C   UNL d   1       1.808  -2.284  -0.181  0.00  0.00     0.078 A 
BRANCH  10  14
ATOM     14  C   UNL d   1      -1.400  -0.179   0.007  0.00  0.00     0.038 A 
ATOM     15  S   UNL d   1      -2.796  -0.974   0.622  0.00  0.00    -0.099 SA
ATOM     16  C   UNL d   1      -3.805   0.360   0.275  0.00  0.00     0.050 A 
ATOM     17  C   UNL d   1      -3.103   1.402  -0.286  0.00  0.00     0.008 A 
ATOM     18  C   UNL d   1      -1.717   1.097  -0.428  0.00  0.00     0.022 A 
ENDBRANCH  10  14
ENDBRANCH   7   8
ENDBRANCH   3   7
BRANCH   2  19
ATOM     19  C   UNL d   1       6.091   3.678  -0.112  0.00  0.00     0.073 A 
ATOM     20  C   UNL d   1       6.355   4.681   0.834  0.00  0.00     0.107 A 
ATOM     21  C   UNL d   1       7.587   5.343   0.838  0.00  0.00     0.004 A 
ATOM     22  O   UNL d   1       5.378   4.954   1.759  0.00  0.00    -0.323 OA
ATOM     23  C   UNL d   1       7.888   6.338   1.913  0.00  0.00     0.212 C 
ATOM     24  C   UNL d   1       8.553   5.014  -0.121  0.00  0.00     0.054 A 
ATOM     25  O   UNL d   1       6.672   6.852   2.440  0.00  0.00    -0.362 OA
ATOM     26  C   UNL d   1       5.831   5.776   2.836  0.00  0.00     0.345 C 
ATOM     27  C   UNL d   1       8.261   4.062  -1.090  0.00  0.00     0.119 A 
ATOM     28  C   UNL d   1       7.044   3.394  -1.096  0.00  0.00     0.074 A 
ATOM     29  F   UNL d   1       9.178   3.776  -2.024  0.00  0.00    -0.206 F 
ENDBRANCH   2  19
TORSDOF 4
