REMARK  5 active torsions:
REMARK  status: ('A' for Active; 'I' for Inactive)
REMARK       I    between atoms: N_2  and  C_1 
REMARK       I    between atoms: N_5  and  C_1 
REMARK       I    between atoms: C_3  and  N_4 
REMARK    1  A    between atoms: C_7  and  C_3 
REMARK    2  A    between atoms: C_14  and  N_5 
REMARK    3  A    between atoms: O_15  and  C_16 
REMARK    4  A    between atoms: C_17  and  O_15 
REMARK    5  A    between atoms: C_22  and  C_17 
ROOT
ATOM      1  C   UNL d   1       0.895   0.020  -0.166  0.00  0.00     0.323 C 
ATOM      2  N   UNL d   1       0.172   0.365  -1.301  0.00  0.00    -0.331 N 
ATOM      3  C   UNL d   1      -1.371   2.029  -4.750  0.00  0.00     0.248 C 
ATOM      4  N   UNL d   1      -0.757   1.917  -3.510  0.00  0.00    -0.347 N 
ATOM      5  N   UNL d   1       0.212   0.124   1.023  0.00  0.00    -0.309 N 
ATOM      6  O   UNL d   1       2.063  -0.348  -0.255  0.00  0.00    -0.247 OA
ATOM      7  C   UNL d   1       0.851   0.267  -2.606  0.00  0.00     0.147 C 
ATOM      8  C   UNL d   1      -1.249   0.736  -1.402  0.00  0.00     0.147 C 
ATOM      9  C   UNL d   1       0.663   1.550  -3.429  0.00  0.00     0.146 C 
ATOM     10  C   UNL d   1      -1.423   2.031  -2.210  0.00  0.00     0.146 C 
ATOM     11  O   UNL d   1      -0.746   1.820  -5.793  0.00  0.00    -0.270 OA
ATOM     12  H   UNL d   1      -0.736   0.439   0.988  0.00  0.00     0.170 HD
ENDROOT
BRANCH   5  13
ATOM     13  C   UNL d   1       0.659  -0.236   2.310  0.00  0.00     0.036 A 
ATOM     14  C   UNL d   1       1.944  -0.692   2.602  0.00  0.00     0.032 A 
ATOM     15  C   UNL d   1       2.263  -1.127   3.893  0.00  0.00     0.039 A 
ATOM     16  C   UNL d   1       1.297  -1.120   4.896  0.00  0.00     0.069 A 
ATOM     17  C   UNL d   1       0.038  -0.583   4.634  0.00  0.00     0.039 A 
ATOM     18  C   UNL d   1      -0.280  -0.151   3.345  0.00  0.00     0.032 A 
BRANCH  16  19
ATOM     19  O   UNL d   1       1.675  -1.666   6.092  0.00  0.00    -0.347 OA
BRANCH  19  20
ATOM     20  C   UNL d   1       0.602  -2.247   6.836  0.00  0.00     0.214 C 
BRANCH  20  21
ATOM     21  C   UNL d   1       1.130  -3.341   7.727  0.00  0.00    -0.034 A 
ATOM     22  C   UNL d   1       0.922  -3.298   9.111  0.00  0.00     0.009 A 
ATOM     23  C   UNL d   1       1.350  -4.349   9.923  0.00  0.00     0.001 A 
ATOM     24  C   UNL d   1       1.989  -5.452   9.358  0.00  0.00     0.000 A 
ATOM     25  C   UNL d   1       2.206  -5.505   7.983  0.00  0.00     0.001 A 
ATOM     26  C   UNL d   1       1.778  -4.454   7.169  0.00  0.00     0.009 A 
ENDBRANCH  20  21
ENDBRANCH  19  20
ENDBRANCH  16  19
ENDBRANCH   5  13
BRANCH   3  27
ATOM     27  C   UNL d   1      -2.883   2.346  -4.780  0.00  0.00     0.213 C 
ATOM     28  O   UNL d   1      -3.239   3.569  -4.119  0.00  0.00    -0.376 OA
ATOM     29  C   UNL d   1      -4.185   4.281  -4.925  0.00  0.00     0.168 C 
ATOM     30  C   UNL d   1      -4.626   3.348  -6.028  0.00  0.00     0.029 C 
ATOM     31  C   UNL d   1      -3.425   2.456  -6.199  0.00  0.00     0.043 C 
ENDBRANCH   3  27
TORSDOF 5
