REMARK  7 active torsions:
REMARK  status: ('A' for Active; 'I' for Inactive)
REMARK    1  A    between atoms: C_6  and  N_1 
REMARK    2  A    between atoms: C_7  and  N_2 
REMARK    3  A    between atoms: C_10  and  C_5 
REMARK    4  A    between atoms: C_11  and  C_5 
REMARK    5  A    between atoms: O_12  and  C_10 
REMARK    6  A    between atoms: C_17  and  C_11 
REMARK    7  A    between atoms: C_18  and  C_17 
ROOT
ATOM      1  N   UNL d   1      -0.678   1.210  -0.281  0.00  0.00    -0.213 N 
ATOM      2  N   UNL d   1       0.709   1.185  -0.037  0.00  0.00    -0.213 N 
ATOM      3  C   UNL d   1      -1.202  -0.061   0.041  0.00  0.00     0.264 C 
ATOM      4  C   UNL d   1       1.172  -0.132   0.049  0.00  0.00     0.264 C 
ATOM      5  C   UNL d   1      -0.038  -1.022  -0.095  0.00  0.00     0.147 C 
ATOM      6  O   UNL d   1      -2.364  -0.373   0.251  0.00  0.00    -0.270 OA
ATOM      7  O   UNL d   1       2.326  -0.538   0.155  0.00  0.00    -0.270 OA
ENDROOT
BRANCH   5   8
ATOM      8  C   UNL d   1       0.000  -2.087   0.996  0.00  0.00     0.193 C 
BRANCH   8   9
ATOM      9  O   UNL d   1       0.296  -1.527   2.281  0.00  0.00    -0.399 OA
ATOM     10  H   UNL d   1       1.265  -1.523   2.378  0.00  0.00     0.209 HD
ENDBRANCH   8   9
ENDBRANCH   5   8
BRANCH   5  11
ATOM     11  C   UNL d   1      -0.114  -1.672  -1.506  0.00  0.00     0.031 C 
BRANCH  11  12
ATOM     12  C   UNL d   1      -0.109  -0.677  -2.682  0.00  0.00     0.001 C 
BRANCH  12  13
ATOM     13  C   UNL d   1      -0.195  -1.359  -4.045  0.00  0.00    -0.005 C 
ATOM     14  C   UNL d   1      -0.172  -0.320  -5.159  0.00  0.00     0.005 C 
ENDBRANCH  12  13
ENDBRANCH  11  12
ENDBRANCH   5  11
BRANCH   1  15
ATOM     15  C   UNL d   1      -1.446   2.367  -0.040  0.00  0.00     0.060 A 
ATOM     16  C   UNL d   1      -1.606   2.917   1.233  0.00  0.00     0.031 A 
ATOM     17  C   UNL d   1      -2.321   4.107   1.381  0.00  0.00     0.002 A 
ATOM     18  C   UNL d   1      -2.860   4.749   0.264  0.00  0.00     0.000 A 
ATOM     19  C   UNL d   1      -2.707   4.194  -1.005  0.00  0.00     0.002 A 
ATOM     20  C   UNL d   1      -2.010   2.998  -1.154  0.00  0.00     0.031 A 
ENDBRANCH   1  15
BRANCH   2  21
ATOM     21  C   UNL d   1       1.589   2.269  -0.225  0.00  0.00     0.060 A 
ATOM     22  C   UNL d   1       1.488   3.127  -1.325  0.00  0.00     0.031 A 
ATOM     23  C   UNL d   1       2.403   4.171  -1.483  0.00  0.00     0.002 A 
ATOM     24  C   UNL d   1       3.398   4.381  -0.528  0.00  0.00     0.000 A 
ATOM     25  C   UNL d   1       3.494   3.537   0.576  0.00  0.00     0.002 A 
ATOM     26  C   UNL d   1       2.606   2.474   0.715  0.00  0.00     0.031 A 
ENDBRANCH   2  21
TORSDOF 7
