REMARK  4 active torsions:
REMARK  status: ('A' for Active; 'I' for Inactive)
REMARK       I    between atoms: N_7  and  C_1 
REMARK       I    between atoms: N_9  and  C_1 
REMARK    1  A    between atoms: O_5  and  C_2 
REMARK    2  A    between atoms: C_4  and  O_5 
REMARK    3  A    between atoms: C_8  and  N_7 
REMARK    4  A    between atoms: C_10  and  N_9 
ROOT
ATOM      1  C   UNL d   1       0.568  -3.538  -1.334  0.00  0.00     0.175 A 
ATOM      2  C   UNL d   1       1.007  -2.641  -0.349  0.00  0.00     0.088 A 
ATOM      3  N   UNL d   1       1.283  -4.630  -1.712  0.00  0.00    -0.345 N 
ATOM      4  HN  UNL d   1       0.955  -5.244  -2.458  1.00  0.00     0.167 HD
ATOM      5  C   UNL d   1       2.244  -2.898   0.248  0.00  0.00     0.035 A 
ATOM      6  C   UNL d   1       2.438  -4.875  -1.068  0.00  0.00     0.090 A 
ATOM      7  C   UNL d   1       2.955  -4.049  -0.088  0.00  0.00     0.019 A 
ENDROOT
BRANCH   2   8
ATOM      8  N   UNL d   1       0.310  -1.506   0.117  0.00  0.00    -0.305 N 
ATOM      9  C   UNL d   1      -1.021  -1.359   0.431  0.00  0.00     0.325 C 
ATOM     10  N   UNL d   1      -1.755  -2.509   0.467  0.00  0.00    -0.309 N 
ATOM     11  O   UNL d   1      -1.404  -0.241   0.781  0.00  0.00    -0.247 OA
ATOM     12  H   UNL d   1      -1.278  -3.345   0.170  0.00  0.00     0.170 HD
ATOM     13  H   UNL d   1       0.851  -0.737   0.493  0.00  0.00     0.171 HD
BRANCH  10  14
ATOM     14  C   UNL d   1      -3.078  -2.711   0.886  0.00  0.00     0.037 A 
ATOM     15  C   UNL d   1      -3.919  -1.701   1.346  0.00  0.00     0.036 A 
ATOM     16  C   UNL d   1      -5.226  -2.003   1.757  0.00  0.00    -0.059 A 
ATOM     17  C   UNL d   1      -6.124  -0.923   2.285  0.00  0.00     0.048 C 
ATOM     18  C   UNL d   1      -5.678  -3.329   1.709  0.00  0.00     0.013 A 
ATOM     19  C   UNL d   1      -4.841  -4.353   1.257  0.00  0.00    -0.059 A 
ATOM     20  C   UNL d   1      -3.546  -4.030   0.844  0.00  0.00     0.036 A 
ATOM     21  C   UNL d   1      -5.323  -5.772   1.208  0.00  0.00     0.048 C 
ENDBRANCH  10  14
ENDBRANCH   2   8
BRANCH   1  22
ATOM     22  O   UNL d   1      -0.632  -3.281  -1.995  0.00  0.00    -0.291 OA
BRANCH  22  23
ATOM     23  C   UNL d   1      -1.306  -4.343  -2.563  0.00  0.00     0.084 A 
ATOM     24  C   UNL d   1      -1.989  -4.136  -3.757  0.00  0.00    -0.017 A 
ATOM     25  C   UNL d   1      -2.673  -5.186  -4.383  0.00  0.00    -0.043 A 
ATOM     26  C   UNL d   1      -2.114  -2.862  -4.528  0.00  0.00     0.042 A 
ATOM     27  C   UNL d   1      -3.261  -4.755  -5.689  0.00  0.00     0.040 A 
ATOM     28  C   UNL d   1      -2.730  -6.458  -3.816  0.00  0.00    -0.055 A 
ATOM     29  C   UNL d   1      -2.949  -3.256  -5.756  0.00  0.00     0.009 A 
ATOM     30  C   UNL d   1      -2.100  -6.649  -2.579  0.00  0.00     0.010 A 
ATOM     31  C   UNL d   1      -3.491  -7.582  -4.451  0.00  0.00     0.049 C 
ATOM     32  C   UNL d   1      -1.401  -5.602  -1.962  0.00  0.00     0.038 A 
ENDBRANCH  22  23
ENDBRANCH   1  22
TORSDOF 4
