REMARK  2 active torsions:
REMARK  status: ('A' for Active; 'I' for Inactive)
REMARK    1  A    between atoms: N_11  and  N_4 
REMARK    2  A    between atoms: C_17  and  C_14 
ROOT
ATOM      1  C   UNL d   1      -0.380   0.494   0.028  0.00  0.00     0.075 A 
ATOM      2  C   UNL d   1      -0.027  -0.835  -0.007  0.00  0.00     0.092 A 
ATOM      3  C   UNL d   1       0.705   1.468   0.085  0.00  0.00     0.281 C 
ATOM      4  N   UNL d   1       1.991   0.896   0.269  0.00  0.00    -0.208 N 
ATOM      5  N   UNL d   1       1.223  -1.348   0.000  0.00  0.00    -0.338 N 
ATOM      6  HN  UNL d   1       1.404  -2.347  -0.097  1.00  0.00     0.168 HD
ATOM      7  C   UNL d   1       2.181  -0.478   0.139  0.00  0.00     0.104 C 
ATOM      8  S   UNL d   1      -1.381  -1.859  -0.058  0.00  0.00    -0.076 SA
ATOM      9  C   UNL d   1      -1.815   0.685  -0.000  0.00  0.00    -0.031 A 
ATOM     10  C   UNL d   1      -2.469  -0.541  -0.026  0.00  0.00    -0.012 A 
ATOM     11  O   UNL d   1       0.491   2.675  -0.042  0.00  0.00    -0.265 OA
ATOM     12  C   UNL d   1       3.586  -1.043   0.173  0.00  0.00     0.091 C 
ATOM     13  C   UNL d   1      -2.530   2.001   0.016  0.00  0.00     0.050 C 
ATOM     14  C   UNL d   1      -3.935  -0.836  -0.027  0.00  0.00     0.057 C 
ENDROOT
BRANCH   4  15
ATOM     15  N   UNL d   1       3.132   1.706   0.393  0.00  0.00    -0.300 N 
ATOM     16  C   UNL d   1       3.001   2.817   1.052  0.00  0.00     0.120 C 
ATOM     17  HN  UNL d   1       4.025   1.434  -0.017  1.00  0.00     0.186 HD
BRANCH  16  18
ATOM     18  C   UNL d   1       4.088   3.802   1.199  0.00  0.00    -0.004 A 
ATOM     19  C   UNL d   1       3.836   4.968   1.913  0.00  0.00     0.100 A 
ATOM     20  N   UNL d   1       4.755   5.940   2.122  0.00  0.00    -0.374 N 
ATOM     21  C   UNL d   1       5.979   5.740   1.586  0.00  0.00     0.087 A 
ATOM     22  HN  UNL d   1       4.535   6.780   2.657  1.00  0.00     0.164 HD
ATOM     23  C   UNL d   1       6.322   4.613   0.852  0.00  0.00     0.018 A 
ATOM     24  C   UNL d   1       5.357   3.624   0.655  0.00  0.00     0.015 A 
ENDBRANCH  16  18
ENDBRANCH   4  15
TORSDOF 2
