REMARK  3 active torsions:
REMARK  status: ('A' for Active; 'I' for Inactive)
REMARK    1  A    between atoms: C_2  and  S_1 
REMARK    2  A    between atoms: N_3  and  S_1 
REMARK    3  A    between atoms: C_4  and  C_8 
ROOT
ATOM      1  S   UNL d   1       0.982  -0.211  -0.003  0.00  0.00     0.271 S 
ATOM      2  O   UNL d   1       0.312   0.953  -0.545  0.00  0.00    -0.199 OA
ATOM      3  O   UNL d   1       2.425  -0.273   0.056  0.00  0.00    -0.199 OA
ENDROOT
BRANCH   1   4
ATOM      4  C   UNL d   1       0.528  -1.518  -1.131  0.00  0.00     0.121 A 
ATOM      5  S   UNL d   1       1.035  -3.106  -0.734  0.00  0.00    -0.074 SA
ATOM      6  C   UNL d   1       0.316  -3.755  -2.140  0.00  0.00     0.033 A 
ATOM      7  C   UNL d   1      -0.302  -2.782  -2.896  0.00  0.00     0.023 A 
ATOM      8  C   UNL d   1      -0.194  -1.494  -2.308  0.00  0.00     0.034 A 
BRANCH   6   9
ATOM      9  C   UNL d   1       0.313  -5.195  -2.552  0.00  0.00     0.056 A 
ATOM     10  N   UNL d   1      -0.248  -5.558  -3.768  0.00  0.00    -0.353 N 
ATOM     11  C   UNL d   1      -0.165  -6.857  -3.937  0.00  0.00     0.047 A 
ATOM     12  HN  UNL d   1      -0.666  -4.909  -4.434  1.00  0.00     0.166 HD
ATOM     13  C   UNL d   1      -0.672  -7.569  -5.141  0.00  0.00     0.076 C 
ATOM     14  S   UNL d   1       0.565  -7.723  -2.645  0.00  0.00    -0.087 SA
ATOM     15  C   UNL d   1       0.813  -6.243  -1.809  0.00  0.00     0.082 A 
ENDBRANCH   6   9
ENDBRANCH   1   4
BRANCH   1  16
ATOM     16  N   UNL d   1       0.330  -0.592   1.508  0.00  0.00    -0.271 N 
ATOM     17  C   UNL d   1      -1.017  -0.241   1.865  0.00  0.00     0.051 A 
ATOM     18  C   UNL d   1      -1.292   0.078   3.207  0.00  0.00    -0.031 A 
ATOM     19  C   UNL d   1      -2.060  -0.228   0.934  0.00  0.00     0.031 A 
ATOM     20  C   UNL d   1      -2.584   0.489   3.569  0.00  0.00     0.009 A 
ATOM     21  C   UNL d   1      -0.253  -0.088   4.289  0.00  0.00     0.042 C 
ATOM     22  C   UNL d   1      -3.603   0.546   2.620  0.00  0.00     0.001 A 
ATOM     23  C   UNL d   1      -3.346   0.165   1.308  0.00  0.00     0.002 A 
ATOM     24  C   UNL d   1       1.169  -0.262   3.762  0.00  0.00     0.026 C 
ATOM     25  C   UNL d   1       1.191  -1.178   2.547  0.00  0.00     0.142 C 
ENDBRANCH   1  16
TORSDOF 3
