REMARK  3 active torsions:
REMARK  status: ('A' for Active; 'I' for Inactive)
REMARK    1  A    between atoms: C_12  and  C_6 
REMARK    2  A    between atoms: O_17  and  C_7 
REMARK    3  A    between atoms: O_22  and  C_18 
ROOT
ATOM      1  C   UNL d   1       0.777  -0.278  -0.095  0.00  0.00     0.052 A 
ATOM      2  N   UNL d   1       1.462  -1.442  -0.078  0.00  0.00    -0.335 N 
ATOM      3  HN  UNL d   1       0.972  -2.334  -0.147  1.00  0.00     0.168 HD
ATOM      4  C   UNL d   1       1.425   0.971  -0.059  0.00  0.00    -0.017 A 
ATOM      5  C   UNL d   1       3.539  -0.218   0.113  0.00  0.00     0.107 A 
ATOM      6  C   UNL d   1       2.858   1.024   0.038  0.00  0.00     0.008 A 
ATOM      7  C   UNL d   1       2.801  -1.401   0.032  0.00  0.00     0.164 A 
ATOM      8  C   UNL d   1      -0.698  -0.408  -0.083  0.00  0.00    -0.003 A 
ATOM      9  C   UNL d   1       4.954  -0.331   0.318  0.00  0.00     0.104 C 
ATOM     10  N   UNL d   1       6.110  -0.413   0.464  0.00  0.00    -0.191 NA
ATOM     11  C   UNL d   1       0.558   2.212   0.000  0.00  0.00     0.046 C 
ATOM     12  C   UNL d   1      -1.521   0.731  -0.132  0.00  0.00    -0.045 A 
ATOM     13  C   UNL d   1      -0.930   2.093  -0.328  0.00  0.00     0.044 C 
ATOM     14  C   UNL d   1      -1.334  -1.663  -0.002  0.00  0.00     0.014 A 
ATOM     15  C   UNL d   1      -2.922   0.608  -0.081  0.00  0.00     0.008 A 
ATOM     16  C   UNL d   1      -2.727  -1.782   0.041  0.00  0.00     0.001 A 
ATOM     17  C   UNL d   1      -3.521  -0.643   0.010  0.00  0.00     0.001 A 
ENDROOT
BRANCH   6  18
ATOM     18  C   UNL d   1       3.617   2.327   0.087  0.00  0.00    -0.024 A 
ATOM     19  C   UNL d   1       4.797   2.550  -0.649  0.00  0.00     0.015 A 
ATOM     20  C   UNL d   1       5.511   3.759  -0.559  0.00  0.00     0.037 A 
ATOM     21  C   UNL d   1       5.026   4.821   0.200  0.00  0.00     0.068 A 
ATOM     22  C   UNL d   1       3.842   4.644   0.898  0.00  0.00     0.037 A 
ATOM     23  C   UNL d   1       3.195   3.401   0.888  0.00  0.00     0.015 A 
BRANCH  21  24
ATOM     24  O   UNL d   1       5.790   5.954   0.203  0.00  0.00    -0.356 OA
ATOM     25  C   UNL d   1       5.286   7.058   0.949  0.00  0.00     0.210 C 
ENDBRANCH  21  24
ENDBRANCH   6  18
BRANCH   7  26
ATOM     26  O   UNL d   1       3.493  -2.595   0.082  0.00  0.00    -0.340 OA
ATOM     27  C   UNL d   1       2.660  -3.752   0.041  0.00  0.00     0.211 C 
ENDBRANCH   7  26
TORSDOF 3
