REMARK  1 active torsions:
REMARK  status: ('A' for Active; 'I' for Inactive)
REMARK    1  A    between atoms: C_14  and  N_1 
ROOT
ATOM      1  N   UNL d   1       2.342  -0.711   0.017  0.00  0.00    -0.249 N 
ATOM      2  C   UNL d   1       2.346   0.695   0.062  0.00  0.00     0.334 A 
ATOM      3  C   UNL d   1       1.165  -1.467   0.001  0.00  0.00     0.125 A 
ATOM      4  N   UNL d   1       1.125   1.308   0.034  0.00  0.00    -0.293 N 
ATOM      5  C   UNL d   1      -0.088   0.640   0.011  0.00  0.00     0.140 A 
ATOM      6  N   UNL d   1      -1.200   1.395   0.032  0.00  0.00    -0.175 N 
ATOM      7  HN  UNL d   1      -1.151   2.414   0.025  1.00  0.00     0.186 HD
ATOM      8  C   UNL d   1      -0.094  -0.723  -0.005  0.00  0.00     0.069 A 
ATOM      9  C   UNL d   1      -2.381   0.750   0.061  0.00  0.00     0.681 A 
ATOM     10  N   UNL d   1      -2.477  -0.592   0.066  0.00  0.00    -0.201 N 
ATOM     11  HN  UNL d   1      -3.386  -1.054   0.094  1.00  0.00     0.183 HD
ATOM     12  N   UNL d   1      -3.525   1.484   0.060  0.00  0.00    -0.218 N 
ATOM     13  C   UNL d   1      -1.333  -1.306   0.030  0.00  0.00     0.125 A 
ATOM     14  N   UNL d   1       1.112  -2.762   0.050  0.00  0.00    -0.384 N 
ATOM     15  HN  UNL d   1       0.246  -3.300   0.017  1.00  0.00     0.157 HD
ATOM     16  O   UNL d   1       3.353   1.404   0.104  0.00  0.00    -0.246 OA
ATOM     17  C   UNL d   1      -4.837   0.903   0.231  0.00  0.00     0.141 C 
ATOM     18  C   UNL d   1      -3.534   2.925   0.194  0.00  0.00     0.141 C 
ATOM     19  C   UNL d   1      -5.737   2.021  -0.282  0.00  0.00     0.022 C 
ATOM     20  C   UNL d   1      -5.024   3.291   0.173  0.00  0.00     0.022 C 
ATOM     21  H   UNL d   1       1.102   2.318   0.045  0.00  0.00     0.172 HD
ATOM     22  H   UNL d   1       2.045  -3.181   0.125  0.00  0.00     0.157 HD
ENDROOT
BRANCH   1  23
ATOM     23  C   UNL d   1       3.613  -1.363  -0.024  0.00  0.00     0.045 A 
ATOM     24  C   UNL d   1       4.547  -1.165   1.002  0.00  0.00     0.032 A 
ATOM     25  C   UNL d   1       5.760  -1.861   0.995  0.00  0.00     0.026 A 
ATOM     26  C   UNL d   1       6.054  -2.732  -0.053  0.00  0.00     0.034 A 
ATOM     27  C   UNL d   1       5.149  -2.911  -1.096  0.00  0.00     0.026 A 
ATOM     28 CL   UNL d   1       7.541  -3.596  -0.055  0.00  0.00    -0.084 Cl
ATOM     29  C   UNL d   1       3.928  -2.233  -1.080  0.00  0.00     0.032 A 
ENDBRANCH   1  23
TORSDOF 1
