REMARK  6 active torsions:
REMARK  status: ('A' for Active; 'I' for Inactive)
REMARK    1  A    between atoms: N_2  and  S_1 
REMARK    2  A    between atoms: C_3  and  S_1 
REMARK    3  A    between atoms: C_12  and  N_2 
REMARK       I    between atoms: C_6  and  N_7 
REMARK    4  A    between atoms: N_7  and  C_13 
REMARK    5  A    between atoms: O_9  and  C_14 
REMARK    6  A    between atoms: C_15  and  O_9 
ROOT
ATOM      1  N   UNL d   1       0.312   1.634  -0.193  0.00  0.00    -0.281 N 
ATOM      2  H   UNL d   1      -0.434   1.727  -0.877  0.00  0.00     0.179 HD
ENDROOT
BRANCH   1   3
ATOM      3  S   UNL d   1       0.957   0.109   0.041  0.00  0.00     0.263 S 
ATOM      4  O   UNL d   1       2.395   0.204   0.155  0.00  0.00    -0.200 OA
ATOM      5  O   UNL d   1       0.336  -0.748  -0.952  0.00  0.00    -0.200 OA
BRANCH   3   6
ATOM      6  C   UNL d   1       0.297  -0.359   1.626  0.00  0.00     0.080 A 
ATOM      7  C   UNL d   1      -0.928  -1.024   1.704  0.00  0.00     0.027 A 
ATOM      8  C   UNL d   1      -1.443  -1.377   2.956  0.00  0.00     0.031 A 
ATOM      9  C   UNL d   1      -0.738  -1.076   4.132  0.00  0.00     0.034 A 
ATOM     10  C   UNL d   1       0.505  -0.444   4.030  0.00  0.00     0.031 A 
ATOM     11  C   UNL d   1       1.029  -0.093   2.781  0.00  0.00     0.027 A 
BRANCH   9  12
ATOM     12  N   UNL d   1      -1.341  -1.429   5.360  0.00  0.00    -0.328 N 
ATOM     13  C   UNL d   1      -0.854  -1.179   6.632  0.00  0.00     0.218 C 
ATOM     14  O   UNL d   1       0.199  -0.619   6.917  0.00  0.00    -0.274 OA
ATOM     15  C   UNL d   1      -1.768  -1.661   7.730  0.00  0.00     0.117 C 
ATOM     16  H   UNL d   1      -2.236  -1.895   5.295  0.00  0.00     0.169 HD
ENDBRANCH   9  12
ENDBRANCH   3   6
ENDBRANCH   1   3
BRANCH   1  17
ATOM     17  C   UNL d   1       0.696   2.733   0.606  0.00  0.00     0.042 A 
ATOM     18  C   UNL d   1       1.828   3.471   0.268  0.00  0.00     0.033 A 
ATOM     19  C   UNL d   1       2.165   4.606   1.009  0.00  0.00     0.039 A 
ATOM     20  C   UNL d   1       1.401   4.969   2.123  0.00  0.00     0.076 A 
ATOM     21  C   UNL d   1       0.252   4.240   2.439  0.00  0.00     0.039 A 
ATOM     22  C   UNL d   1      -0.106   3.126   1.676  0.00  0.00     0.033 A 
BRANCH  20  23
ATOM     23  O   UNL d   1       1.667   6.060   2.920  0.00  0.00    -0.311 OA
BRANCH  23  24
ATOM     24  C   UNL d   1       2.976   6.398   3.187  0.00  0.00     0.076 A 
ATOM     25  C   UNL d   1       3.243   7.759   3.355  0.00  0.00     0.039 A 
ATOM     26  C   UNL d   1       4.548   8.191   3.606  0.00  0.00     0.026 A 
ATOM     27  C   UNL d   1       5.581   7.258   3.692  0.00  0.00     0.034 A 
ATOM     28  C   UNL d   1       5.313   5.896   3.570  0.00  0.00     0.026 A 
ATOM     29 CL   UNL d   1       7.196   7.789   3.952  0.00  0.00    -0.084 Cl
ATOM     30  C   UNL d   1       4.005   5.464   3.345  0.00  0.00     0.039 A 
ENDBRANCH  23  24
ENDBRANCH  20  23
ENDBRANCH   1  17
TORSDOF 6
