REMARK  6 active torsions:
REMARK  status: ('A' for Active; 'I' for Inactive)
REMARK    1  A    between atoms: C_7  and  C_1 
REMARK    2  A    between atoms: C_5  and  C_2 
REMARK    3  A    between atoms: N_18  and  C_2 
REMARK    4  A    between atoms: N_3  and  O_10 
REMARK       I    between atoms: C_6  and  N_8 
REMARK    5  A    between atoms: O_10  and  C_6 
REMARK    6  A    between atoms: N_8  and  C_14 
ROOT
ATOM      1  C   UNL d   1       0.318  -2.707   1.377  0.00  0.00     0.387 C 
ATOM      2  N   UNL d   1       0.862  -3.059   2.591  0.00  0.00    -0.301 N 
ATOM      3  O   UNL d   1      -0.891  -2.783   1.174  0.00  0.00    -0.236 OA
ATOM      4  H   UNL d   1       0.171  -3.176   3.320  0.00  0.00     0.171 HD
ENDROOT
BRANCH   1   5
ATOM      5  O   UNL d   1       1.218  -2.142   0.510  0.00  0.00    -0.180 OA
BRANCH   5   6
ATOM      6  N   UNL d   1       0.938  -2.499  -0.826  0.00  0.00    -0.248 N 
ATOM      7  C   UNL d   1       0.784  -1.451  -1.576  0.00  0.00     0.090 C 
ATOM      8  HN  UNL d   1       0.865  -3.460  -1.161  1.00  0.00     0.196 HD
BRANCH   7   9
ATOM      9  C   UNL d   1       0.724  -1.628  -3.112  0.00  0.00     0.119 C 
ATOM     10  S   UNL d   1      -1.012  -1.307  -3.651  0.00  0.00    -0.155 SA
ATOM     11  C   UNL d   1      -1.570  -3.026  -3.835  0.00  0.00     0.084 C 
ATOM     12  C   UNL d   1      -0.862  -3.845  -4.920  0.00  0.00     0.084 C 
ATOM     13  S   UNL d   1       0.898  -3.475  -5.244  0.00  0.00    -0.167 SA
ATOM     14  C   UNL d   1       1.371  -2.945  -3.569  0.00  0.00     0.096 C 
ENDBRANCH   7   9
BRANCH   7  15
ATOM     15  N   UNL d   1       0.634  -0.167  -1.087  0.00  0.00    -0.290 NA
ATOM     16  H   UNL d   1       0.313  -0.162  -0.126  0.00  0.00     0.125 HD
ATOM     17  H   UNL d   1       0.046   0.419  -1.675  0.00  0.00     0.125 HD
ENDBRANCH   7  15
ENDBRANCH   5   6
ENDBRANCH   1   5
BRANCH   2  18
ATOM     18  C   UNL d   1       2.139  -3.605   2.836  0.00  0.00     0.037 A 
ATOM     19  C   UNL d   1       2.997  -4.024   1.814  0.00  0.00     0.045 A 
ATOM     20  C   UNL d   1       4.171  -4.741   2.100  0.00  0.00     0.050 A 
ATOM     21  C   UNL d   1       4.516  -4.976   3.438  0.00  0.00     0.016 A 
ATOM     22  C   UNL d   1       3.687  -4.527   4.466  0.00  0.00     0.003 A 
ATOM     23  C   UNL d   1       2.496  -3.859   4.165  0.00  0.00     0.029 A 
BRANCH  20  24
ATOM     24  C   UNL d   1       5.019  -5.294   0.980  0.00  0.00     0.417 C 
ATOM     25  F   UNL d   1       4.450  -5.166  -0.251  0.00  0.00    -0.166 F 
ATOM     26  F   UNL d   1       5.270  -6.625   1.131  0.00  0.00    -0.166 F 
ATOM     27  F   UNL d   1       6.236  -4.690   0.895  0.00  0.00    -0.166 F 
ENDBRANCH  20  24
ENDBRANCH   2  18
TORSDOF 6
