REMARK  7 active torsions:
REMARK  status: ('A' for Active; 'I' for Inactive)
REMARK    1  A    between atoms: C_9  and  N_1 
REMARK    2  A    between atoms: S_8  and  C_2 
REMARK    3  A    between atoms: O_14  and  C_3 
REMARK    4  A    between atoms: C_12  and  S_8 
REMARK    5  A    between atoms: C_10  and  C_12 
REMARK    6  A    between atoms: C_11  and  C_10 
REMARK    7  A    between atoms: O_20  and  C_17 
ROOT
ATOM      1  N   UNL d   1       0.436   0.408  -0.547  0.00  0.00    -0.255 N 
ATOM      2  C   UNL d   1       0.909  -0.870  -0.274  0.00  0.00     0.169 A 
ATOM      3  C   UNL d   1      -0.753   0.462   0.172  0.00  0.00     0.245 A 
ATOM      4  N   UNL d   1       0.057  -1.525   0.484  0.00  0.00    -0.276 N 
ATOM      5  HN  UNL d   1       0.151  -2.491   0.798  1.00  0.00     0.189 HD
ATOM      6  N   UNL d   1      -0.981  -0.680   0.776  0.00  0.00    -0.263 N 
ATOM      7  HN  UNL d   1      -1.787  -0.900   1.361  1.00  0.00     0.190 HD
ENDROOT
BRANCH   2   8
ATOM      8  S   UNL d   1       2.502  -1.445  -0.653  0.00  0.00    -0.084 SA
BRANCH   8   9
ATOM      9  C   UNL d   1       2.418  -3.167  -0.076  0.00  0.00     0.166 C 
BRANCH   9  10
ATOM     10  C   UNL d   1       3.770  -3.844  -0.234  0.00  0.00     0.169 C 
ATOM     11  O   UNL d   1       4.581  -3.562  -1.115  0.00  0.00    -0.291 OA
BRANCH  10  12
ATOM     12  C   UNL d   1       4.128  -4.925   0.729  0.00  0.00     0.011 A 
ATOM     13  C   UNL d   1       3.158  -5.737   1.326  0.00  0.00     0.018 A 
ATOM     14  C   UNL d   1       3.539  -6.728   2.240  0.00  0.00     0.037 A 
ATOM     15  C   UNL d   1       4.886  -6.907   2.563  0.00  0.00     0.068 A 
ATOM     16  C   UNL d   1       5.854  -6.124   1.934  0.00  0.00     0.037 A 
ATOM     17  C   UNL d   1       5.480  -5.135   1.022  0.00  0.00     0.018 A 
BRANCH  15  18
ATOM     18  O   UNL d   1       5.366  -7.840   3.439  0.00  0.00    -0.356 OA
ATOM     19  C   UNL d   1       4.492  -8.180   4.511  0.00  0.00     0.210 C 
ENDBRANCH  15  18
ENDBRANCH  10  12
ENDBRANCH   9  10
ENDBRANCH   8   9
ENDBRANCH   2   8
BRANCH   1  20
ATOM     20  C   UNL d   1       1.004   1.435  -1.356  0.00  0.00     0.045 A 
ATOM     21  C   UNL d   1       1.702   1.110  -2.527  0.00  0.00     0.030 A 
ATOM     22  C   UNL d   1       2.270   2.117  -3.312  0.00  0.00     0.002 A 
ATOM     23  C   UNL d   1       2.130   3.452  -2.945  0.00  0.00     0.000 A 
ATOM     24  C   UNL d   1       1.425   3.786  -1.792  0.00  0.00     0.002 A 
ATOM     25  C   UNL d   1       0.863   2.783  -0.996  0.00  0.00     0.030 A 
ENDBRANCH   1  20
BRANCH   3  26
ATOM     26  O   UNL d   1      -1.631   1.459   0.198  0.00  0.00    -0.331 OA
ATOM     27  H   UNL d   1      -1.489   2.021  -0.580  0.00  0.00     0.221 HD
ENDBRANCH   3  26
TORSDOF 7
