REMARK  5 active torsions:
REMARK  status: ('A' for Active; 'I' for Inactive)
REMARK    1  A    between atoms: C_3  and  C_1 
REMARK    2  A    between atoms: C_4  and  C_2 
REMARK    3  A    between atoms: C_5  and  C_3 
REMARK    4  A    between atoms: O_14  and  C_4 
REMARK    5  A    between atoms: C_13  and  C_6 
ROOT
ATOM      1  C   UNL d   1       3.130  -1.106   0.625  0.00  0.00     0.014 A 
ATOM      2  C   UNL d   1       4.658  -3.483   0.943  0.00  0.00    -0.054 A 
ATOM      3  C   UNL d   1       2.605  -2.341   0.242  0.00  0.00     0.016 A 
ATOM      4  C   UNL d   1       4.416  -1.056   1.165  0.00  0.00     0.016 A 
ATOM      5  C   UNL d   1       3.364  -3.508   0.393  0.00  0.00     0.008 A 
ATOM      6  C   UNL d   1       5.167  -2.230   1.323  0.00  0.00     0.008 A 
ENDROOT
BRANCH   1   7
ATOM      7  C   UNL d   1       2.399   0.168   0.388  0.00  0.00     0.182 C 
ATOM      8  O   UNL d   1       3.003   1.225   0.240  0.00  0.00    -0.288 OA
BRANCH   7   9
ATOM      9  C   UNL d   1       0.917   0.117   0.331  0.00  0.00     0.062 C 
ATOM     10  C   UNL d   1       0.255   1.090  -0.308  0.00  0.00     0.085 C 
BRANCH  10  11
ATOM     11  C   UNL d   1      -1.213   1.005  -0.387  0.00  0.00     0.165 C 
ATOM     12  O   UNL d   1      -1.875   0.102   0.098  0.00  0.00    -0.647 OA
BRANCH  11  13
ATOM     13  O   UNL d   1      -1.750   2.029  -1.072  0.00  0.00    -0.773 OA
ATOM     14  H   UNL d   1      -1.116   2.690  -1.407  0.00  0.00     0.167 HD
ENDBRANCH  11  13
ENDBRANCH  10  11
ENDBRANCH   7   9
ENDBRANCH   1   7
BRANCH   2  15
ATOM     15  C   UNL d   1       5.498  -4.767   0.983  0.00  0.00     0.018 C 
ATOM     16  C   UNL d   1       4.715  -6.035   1.394  0.00  0.00     0.009 C 
ATOM     17  C   UNL d   1       4.359  -6.037   2.879  0.00  0.00     0.001 C 
ATOM     18  C   UNL d   1       5.604  -5.913   3.753  0.00  0.00     0.000 C 
ATOM     19  C   UNL d   1       6.496  -4.744   3.346  0.00  0.00     0.001 C 
ATOM     20  C   UNL d   1       6.782  -4.724   1.842  0.00  0.00     0.009 C 
ENDBRANCH   2  15
TORSDOF 5
