REMARK  6 active torsions:
REMARK  status: ('A' for Active; 'I' for Inactive)
REMARK    1  A    between atoms: C_3  and  C_1 
REMARK    2  A    between atoms: C_2  and  C_8 
REMARK    3  A    between atoms: O_10  and  C_2 
REMARK    4  A    between atoms: O_7  and  C_9 
REMARK    5  A    between atoms: C_8  and  O_7 
REMARK    6  A    between atoms: C_15  and  O_10 
ROOT
ATOM      1  C   UNL d   1       1.383  -0.254   0.050  0.00  0.00     0.012 A 
ATOM      2  C   UNL d   1       0.513  -1.355   0.016  0.00  0.00     0.051 A 
ATOM      3  C   UNL d   1      -0.866  -1.152  -0.016  0.00  0.00     0.070 A 
ATOM      4  C   UNL d   1       0.866   1.046   0.063  0.00  0.00     0.015 A 
ATOM      5  C   UNL d   1      -0.514   1.244   0.010  0.00  0.00     0.004 A 
ATOM      6  C   UNL d   1      -1.374   0.147  -0.040  0.00  0.00     0.037 A 
ENDROOT
BRANCH   3   7
ATOM      7  O   UNL d   1      -1.804  -2.143  -0.063  0.00  0.00    -0.342 OA
BRANCH   7   8
ATOM      8  C   UNL d   1      -1.452  -3.370   0.572  0.00  0.00     0.286 C 
BRANCH   8   9
ATOM      9  C   UNL d   1      -2.688  -3.996   1.196  0.00  0.00     0.283 C 
ATOM     10  O   UNL d   1      -3.820  -3.530   1.180  0.00  0.00    -0.263 OA
BRANCH   9  11
ATOM     11  O   UNL d   1      -2.316  -5.124   1.873  0.00  0.00    -0.320 OA
BRANCH  11  12
ATOM     12  C   UNL d   1      -3.251  -5.578   2.862  0.00  0.00     0.174 C 
ATOM     13  C   UNL d   1      -2.942  -4.859   4.164  0.00  0.00     0.034 C 
ENDBRANCH  11  12
ENDBRANCH   9  11
ENDBRANCH   8   9
ENDBRANCH   7   8
ENDBRANCH   3   7
BRANCH   1  14
ATOM     14  C   UNL d   1       2.847  -0.525   0.085  0.00  0.00     0.155 C 
ATOM     15  O   UNL d   1       3.249  -1.584   0.558  0.00  0.00    -0.293 OA
ATOM     16  C   UNL d   1       3.808   0.486  -0.488  0.00  0.00     0.096 C 
ENDBRANCH   1  14
TORSDOF 6
