REMARK  6 active torsions:
REMARK  status: ('A' for Active; 'I' for Inactive)
REMARK    1  A    between atoms: C_14  and  C_1 
REMARK    2  A    between atoms: C_9  and  C_5 
REMARK    3  A    between atoms: C_6  and  O_19 
REMARK    4  A    between atoms: C_15  and  C_10 
REMARK    5  A    between atoms: C_20  and  C_14 
REMARK    6  A    between atoms: O_19  and  C_20 
ROOT
ATOM      1  C   UNL d   1       3.933  -4.740   0.115  0.00  0.00     0.110 A 
ATOM      2  C   UNL d   1       4.726  -5.885  -0.054  0.00  0.00     0.075 A 
ATOM      3  C   UNL d   1       4.520  -3.501  -0.141  0.00  0.00     0.165 A 
ATOM      4  N   UNL d   1       5.787  -3.346  -0.591  0.00  0.00    -0.335 N 
ATOM      5  HN  UNL d   1       6.176  -2.417  -0.752  1.00  0.00     0.168 HD
ATOM      6  C   UNL d   1       6.521  -4.457  -0.823  0.00  0.00     0.052 A 
ATOM      7  C   UNL d   1       6.043  -5.726  -0.526  0.00  0.00     0.048 A 
ATOM      8  C   UNL d   1       2.556  -4.806   0.501  0.00  0.00     0.104 C 
ATOM      9  N   UNL d   1       1.436  -4.890   0.792  0.00  0.00    -0.191 NA
ENDROOT
BRANCH   3  10
ATOM     10  O   UNL d   1       3.755  -2.367   0.038  0.00  0.00    -0.327 OA
BRANCH  10  11
ATOM     11  C   UNL d   1       4.469  -1.145  -0.174  0.00  0.00     0.261 C 
BRANCH  11  12
ATOM     12  C   UNL d   1       3.533   0.072  -0.061  0.00  0.00     0.190 C 
ATOM     13  O   UNL d   1       2.335  -0.106   0.167  0.00  0.00    -0.289 OA
BRANCH  12  14
ATOM     14  C   UNL d   1       4.105   1.420  -0.232  0.00  0.00     0.060 A 
ATOM     15  S   UNL d   1       5.786   1.618  -0.503  0.00  0.00    -0.085 SA
ATOM     16  C   UNL d   1       5.692   3.326  -0.550  0.00  0.00     0.016 A 
ATOM     17  C   UNL d   1       6.758   4.229  -0.740  0.00  0.00     0.019 A 
ATOM     18  C   UNL d   1       4.383   3.763  -0.369  0.00  0.00    -0.012 A 
ATOM     19  C   UNL d   1       6.495   5.601  -0.737  0.00  0.00     0.001 A 
ATOM     20  C   UNL d   1       5.204   6.067  -0.552  0.00  0.00     0.001 A 
ATOM     21  C   UNL d   1       4.150   5.165  -0.373  0.00  0.00     0.013 A 
ATOM     22  C   UNL d   1       3.457   2.653  -0.207  0.00  0.00    -0.029 A 
ATOM     23  C   UNL d   1       1.984   2.891  -0.029  0.00  0.00     0.050 C 
ENDBRANCH  12  14
ENDBRANCH  11  12
ENDBRANCH  10  11
ENDBRANCH   3  10
BRANCH   2  24
ATOM     24  C   UNL d   1       4.251  -7.293   0.195  0.00  0.00     0.419 C 
ATOM     25  F   UNL d   1       2.986  -7.410   0.664  0.00  0.00    -0.166 F 
ATOM     26  F   UNL d   1       4.301  -8.046  -0.939  0.00  0.00    -0.166 F 
ATOM     27  F   UNL d   1       5.042  -7.934   1.099  0.00  0.00    -0.166 F 
ENDBRANCH   2  24
BRANCH   6  28
ATOM     28  C   UNL d   1       7.802  -4.200  -1.494  0.00  0.00     0.031 A 
ATOM     29  S   UNL d   1       8.509  -5.380  -2.529  0.00  0.00    -0.100 SA
ATOM     30  C   UNL d   1       9.771  -4.331  -2.995  0.00  0.00     0.050 A 
ATOM     31  C   UNL d   1       9.688  -3.113  -2.362  0.00  0.00     0.008 A 
ATOM     32  C   UNL d   1       8.558  -3.040  -1.495  0.00  0.00     0.021 A 
ENDBRANCH   6  28
TORSDOF 6
