REMARK  2 active torsions:
REMARK  status: ('A' for Active; 'I' for Inactive)
REMARK    1  A    between atoms: C_7  and  C_1 
REMARK    2  A    between atoms: C_2  and  N_12 
REMARK       I    between atoms: N_11  and  C_7 
ROOT
ATOM      1  C   UNL d   1      -2.434  -1.335   0.039  0.00  0.00     0.272 C 
ATOM      2  N   UNL d   1      -3.521  -0.485   0.322  0.00  0.00    -0.343 N 
ATOM      3  N   UNL d   1      -6.093   0.945   0.799  0.00  0.00     0.105 N 
ATOM      4  C   UNL d   1      -4.156   0.338  -0.706  0.00  0.00     0.156 C 
ATOM      5  C   UNL d   1      -4.303  -0.789   1.519  0.00  0.00     0.156 C 
ATOM      6  O   UNL d   1      -1.938  -2.053   0.905  0.00  0.00    -0.266 OA
ATOM      7  C   UNL d   1      -5.420   0.226   1.891  0.00  0.00     0.293 C 
ATOM      8  C   UNL d   1      -5.072   1.423  -0.145  0.00  0.00     0.293 C 
ENDROOT
BRANCH   3   9
ATOM      9  C   UNL d   1      -7.300   0.303   0.226  0.00  0.00     0.290 C 
ATOM     10  C   UNL d   1      -7.141  -1.098  -0.356  0.00  0.00    -0.009 C 
ATOM     11  C   UNL d   1      -7.288  -1.067  -1.762  0.00  0.00    -0.017 C 
ATOM     12  C   UNL d   1      -6.918  -2.299   0.302  0.00  0.00     0.010 C 
ATOM     13  C   UNL d   1      -7.017  -2.193  -2.520  0.00  0.00     0.013 C 
ATOM     14  C   UNL d   1      -7.741   0.250  -2.153  0.00  0.00    -0.017 A 
ATOM     15  C   UNL d   1      -6.659  -3.372  -1.863  0.00  0.00     0.001 C 
ATOM     16  C   UNL d   1      -6.645  -3.434  -0.461  0.00  0.00     0.001 C 
ATOM     17  C   UNL d   1      -7.828   1.064  -1.001  0.00  0.00    -0.009 A 
ATOM     18  C   UNL d   1      -8.092   0.748  -3.395  0.00  0.00     0.013 A 
ATOM     19  C   UNL d   1      -8.273   2.377  -1.079  0.00  0.00     0.010 A 
ATOM     20  C   UNL d   1      -8.623   2.879  -2.335  0.00  0.00     0.001 A 
ATOM     21  C   UNL d   1      -8.532   2.074  -3.483  0.00  0.00     0.001 A 
ENDBRANCH   3   9
BRANCH   1  22
ATOM     22  C   UNL d   1      -1.845  -1.287  -1.312  0.00  0.00     0.125 C 
ATOM     23  N   UNL d   1      -2.588  -1.278  -2.434  0.00  0.00    -0.256 N 
ATOM     24  O   UNL d   1      -1.710  -1.072  -3.476  0.00  0.00    -0.242 OA
ATOM     25  HN  UNL d   1      -3.598  -1.400  -2.500  1.00  0.00     0.195 HD
ATOM     26  C   UNL d   1      -0.443  -1.017  -2.993  0.00  0.00     0.075 C 
ATOM     27  C   UNL d   1      -0.466  -1.236  -1.638  0.00  0.00     0.071 C 
ATOM     28  C   UNL d   1       0.607  -0.697  -3.974  0.00  0.00     0.079 C 
ENDBRANCH   1  22
TORSDOF 2
