REMARK  3 active torsions:
REMARK  status: ('A' for Active; 'I' for Inactive)
REMARK    1  A    between atoms: C_4  and  C_1 
REMARK    2  A    between atoms: C_2  and  C_3 
REMARK    3  A    between atoms: O_12  and  C_4 
ROOT
ATOM      1  C   UNL d   1       0.805   1.230  -0.061  0.00  0.00     0.068 A 
ATOM      2  C   UNL d   1       1.521   0.028   0.035  0.00  0.00     0.067 A 
ATOM      3  N   UNL d   1      -1.291   0.030   0.133  0.00  0.00    -0.374 N 
ATOM      4  HN  UNL d   1      -2.310   0.036   0.181  1.00  0.00     0.164 HD
ATOM      5  C   UNL d   1      -0.584   1.174  -0.023  0.00  0.00     0.106 A 
ATOM      6  C   UNL d   1       0.794  -1.166   0.176  0.00  0.00     0.034 A 
ATOM      7  C   UNL d   1      -0.590  -1.116   0.222  0.00  0.00     0.088 A 
ENDROOT
BRANCH   1   8
ATOM      8  C   UNL d   1       1.391   2.566  -0.284  0.00  0.00     0.178 C 
ATOM      9  O   UNL d   1       0.942   3.323  -1.131  0.00  0.00    -0.646 OA
BRANCH   8  10
ATOM     10  O   UNL d   1       2.366   2.916   0.569  0.00  0.00    -0.773 OA
ATOM     11  H   UNL d   1       2.680   2.258   1.220  0.00  0.00     0.167 HD
ENDBRANCH   8  10
ENDBRANCH   1   8
BRANCH   2  12
ATOM     12  C   UNL d   1       3.016  -0.023  -0.058  0.00  0.00     0.418 C 
ATOM     13  F   UNL d   1       3.604   0.837   0.821  0.00  0.00    -0.166 F 
ATOM     14  F   UNL d   1       3.531  -1.247   0.245  0.00  0.00    -0.166 F 
ATOM     15  F   UNL d   1       3.485   0.292  -1.290  0.00  0.00    -0.166 F 
ENDBRANCH   2  12
TORSDOF 3
