REMARK  5 active torsions:
REMARK  status: ('A' for Active; 'I' for Inactive)
REMARK    1  A    between atoms: N_4  and  S_1 
REMARK    2  A    between atoms: C_14  and  S_1 
REMARK    3  A    between atoms: C_2  and  C_5 
REMARK    4  A    between atoms: C_3  and  N_4 
REMARK    5  A    between atoms: C_17  and  C_8 
ROOT
ATOM      1  C   UNL d   1       0.868   0.833  -2.791  0.00  0.00     0.131 A 
ATOM      2  C   UNL d   1       1.790   2.627  -3.664  0.00  0.00     0.064 A 
ATOM      3  C   UNL d   1       2.094   1.382  -3.070  0.00  0.00     0.082 A 
ATOM      4  N   UNL d   1       0.471   2.849  -3.711  0.00  0.00    -0.298 N 
ATOM      5  HN  UNL d   1      -0.012   3.679  -4.057  1.00  0.00     0.187 HD
ATOM      6  N   UNL d   1      -0.071   1.735  -3.201  0.00  0.00    -0.284 N 
ATOM      7  H   UNL d   1      -1.083   1.682  -3.121  0.00  0.00     0.188 HD
ENDROOT
BRANCH   1   8
ATOM      8  N   UNL d   1       0.655  -0.404  -2.224  0.00  0.00    -0.265 N 
ATOM      9  H   UNL d   1       0.989  -0.602  -1.298  0.00  0.00     0.180 HD
BRANCH   8  10
ATOM     10  S   UNL d   1       0.201  -1.691  -3.112  0.00  0.00     0.264 S 
ATOM     11  O   UNL d   1      -0.837  -1.321  -4.046  0.00  0.00    -0.200 OA
ATOM     12  O   UNL d   1       0.029  -2.825  -2.227  0.00  0.00    -0.200 OA
BRANCH  10  13
ATOM     13  C   UNL d   1       1.688  -2.028  -4.068  0.00  0.00     0.080 A 
ATOM     14  C   UNL d   1       2.710  -2.807  -3.510  0.00  0.00     0.027 A 
ATOM     15  C   UNL d   1       3.844  -3.106  -4.272  0.00  0.00     0.025 A 
ATOM     16  C   UNL d   1       3.949  -2.632  -5.580  0.00  0.00     0.034 A 
ATOM     17  C   UNL d   1       2.936  -1.849  -6.133  0.00  0.00     0.025 A 
ATOM     18 CL   UNL d   1       5.330  -3.030  -6.524  0.00  0.00    -0.084 Cl
ATOM     19  C   UNL d   1       1.797  -1.545  -5.379  0.00  0.00     0.027 A 
ENDBRANCH  10  13
ENDBRANCH   8  10
ENDBRANCH   1   8
BRANCH   2  20
ATOM     20  C   UNL d   1       2.782   3.570  -4.170  0.00  0.00     0.024 A 
ATOM     21  C   UNL d   1       4.046   3.229  -4.723  0.00  0.00     0.049 A 
ATOM     22  C   UNL d   1       4.654   4.418  -5.086  0.00  0.00     0.061 A 
ATOM     23  O   UNL d   1       3.833   5.462  -4.767  0.00  0.00    -0.318 OA
ATOM     24  C   UNL d   1       2.695   4.946  -4.218  0.00  0.00     0.062 A 
ATOM     25  C   UNL d   1       1.682   5.933  -3.797  0.00  0.00     0.077 C 
BRANCH  22  26
ATOM     26  C   UNL d   1       5.969   4.781  -5.735  0.00  0.00    -0.002 C 
ATOM     27  C   UNL d   1       6.788   3.519  -6.065  0.00  0.00     0.021 C 
ATOM     28  C   UNL d   1       5.711   5.549  -7.044  0.00  0.00     0.021 C 
ATOM     29  C   UNL d   1       6.795   5.665  -4.784  0.00  0.00     0.021 C 
ENDBRANCH  22  26
ENDBRANCH   2  20
TORSDOF 5
