REMARK  4 active torsions:
REMARK  status: ('A' for Active; 'I' for Inactive)
REMARK       I    between atoms: N_3  and  C_1 
REMARK       I    between atoms: N_5  and  C_1 
REMARK       I    between atoms: C_2  and  N_4 
REMARK    1  A    between atoms: O_6  and  C_2 
REMARK    2  A    between atoms: C_11  and  N_5 
REMARK    3  A    between atoms: C_13  and  O_6 
REMARK    4  A    between atoms: O_18  and  C_15 
ROOT
ATOM      1  C   UNL d   1       0.970  -0.145  -0.080  0.00  0.00     0.322 C 
ATOM      2  C   UNL d   1      -2.506   2.199  -3.590  0.00  0.00     0.363 C 
ATOM      3  N   UNL d   1       0.462   0.858  -0.910  0.00  0.00    -0.332 N 
ATOM      4  N   UNL d   1      -1.875   1.250  -2.793  0.00  0.00    -0.326 N 
ATOM      5  N   UNL d   1       0.580  -0.072   1.239  0.00  0.00    -0.309 N 
ATOM      6  O   UNL d   1       1.729  -1.002  -0.526  0.00  0.00    -0.247 OA
ATOM      7  O   UNL d   1      -3.011   3.215  -3.135  0.00  0.00    -0.238 OA
ATOM      8  C   UNL d   1      -1.964   1.386  -1.335  0.00  0.00     0.148 C 
ATOM      9  C   UNL d   1      -0.652   1.779  -0.637  0.00  0.00     0.147 C 
ATOM     10  C   UNL d   1       0.268  -0.023  -3.256  0.00  0.00     0.040 C 
ATOM     11  C   UNL d   1      -1.262   0.025  -3.298  0.00  0.00     0.129 C 
ATOM     12  C   UNL d   1       0.970   0.915  -2.280  0.00  0.00     0.129 C 
ATOM     13  H   UNL d   1       0.186   0.800   1.539  0.00  0.00     0.170 HD
ENDROOT
BRANCH   5  14
ATOM     14  C   UNL d   1       0.907  -0.961   2.297  0.00  0.00     0.039 A 
ATOM     15  C   UNL d   1       1.575  -2.183   2.134  0.00  0.00     0.066 A 
ATOM     16  C   UNL d   1       1.857  -2.996   3.239  0.00  0.00     0.070 A 
ATOM     17  C   UNL d   1       1.459  -2.590   4.515  0.00  0.00     0.037 A 
ATOM     18  C   UNL d   1       0.793  -1.382   4.692  0.00  0.00     0.005 A 
ATOM     19  C   UNL d   1       0.519  -0.572   3.588  0.00  0.00     0.030 A 
BRANCH  16  20
ATOM     20  O   UNL d   1       2.500  -4.203   3.211  0.00  0.00    -0.356 OA
ATOM     21  C   UNL d   1       3.037  -4.622   1.964  0.00  0.00     0.210 C 
ENDBRANCH  16  20
ENDBRANCH   5  14
BRANCH   2  22
ATOM     22  O   UNL d   1      -2.523   1.872  -4.915  0.00  0.00    -0.294 OA
BRANCH  22  23
ATOM     23  C   UNL d   1      -3.208   2.731  -5.875  0.00  0.00     0.061 C 
ATOM     24  C   UNL d   1      -2.630   4.152  -5.871  0.00  0.00     0.046 C 
ATOM     25  C   UNL d   1      -2.948   2.102  -7.254  0.00  0.00     0.046 C 
ATOM     26  C   UNL d   1      -4.725   2.737  -5.635  0.00  0.00     0.046 C 
ENDBRANCH  22  23
ENDBRANCH   2  22
TORSDOF 4
