REMARK  3 active torsions:
REMARK  status: ('A' for Active; 'I' for Inactive)
REMARK    1  A    between atoms: C_11  and  C_5 
REMARK    2  A    between atoms: S_12  and  C_7 
REMARK    3  A    between atoms: N_13  and  C_8 
ROOT
ATOM      1  N   UNL d   1       1.673  -1.311  -0.054  0.00  0.00    -0.335 N 
ATOM      2  HN  UNL d   1       2.257  -2.145  -0.116  1.00  0.00     0.168 HD
ATOM      3  N   UNL d   1       1.498   1.048   0.069  0.00  0.00    -0.331 N 
ATOM      4  HN  UNL d   1       1.954   1.960   0.104  1.00  0.00     0.168 HD
ATOM      5  C   UNL d   1       2.215  -0.086  -0.002  0.00  0.00     0.117 A 
ATOM      6  C   UNL d   1      -0.487  -0.287   0.057  0.00  0.00     0.116 A 
ATOM      7  C   UNL d   1       0.329  -1.401  -0.020  0.00  0.00     0.095 A 
ATOM      8  C   UNL d   1       0.162   0.936   0.091  0.00  0.00     0.103 A 
ATOM      9  C   UNL d   1      -1.911  -0.362   0.085  0.00  0.00     0.105 C 
ATOM     10  N   UNL d   1      -3.073  -0.383   0.076  0.00  0.00    -0.191 NA
ENDROOT
BRANCH   7  11
ATOM     11  S   UNL d   1      -0.336  -3.068  -0.073  0.00  0.00    -0.115 SA
ATOM     12  C   UNL d   1       1.189  -4.050  -0.159  0.00  0.00     0.097 C 
ENDBRANCH   7  11
BRANCH   8  13
ATOM     13  N   UNL d   1      -0.514   2.147   0.234  0.00  0.00    -0.287 NA
ATOM     14  H   UNL d   1      -1.294   2.278  -0.404  0.00  0.00     0.125 HD
ATOM     15  H   UNL d   1       0.157   2.909   0.184  0.00  0.00     0.125 HD
ENDBRANCH   8  13
BRANCH   5  16
ATOM     16  C   UNL d   1       3.687   0.013  -0.014  0.00  0.00     0.008 A 
ATOM     17  C   UNL d   1       4.343   1.257   0.077  0.00  0.00     0.017 A 
ATOM     18  C   UNL d   1       5.739   1.349   0.073  0.00  0.00     0.025 A 
ATOM     19  C   UNL d   1       6.509   0.195  -0.023  0.00  0.00     0.034 A 
ATOM     20  C   UNL d   1       5.895  -1.050  -0.115  0.00  0.00     0.025 A 
ATOM     21 CL   UNL d   1       8.225   0.304  -0.025  0.00  0.00    -0.084 Cl
ATOM     22  C   UNL d   1       4.498  -1.136  -0.111  0.00  0.00     0.017 A 
ENDBRANCH   5  16
TORSDOF 3
