REMARK  6 active torsions:
REMARK  status: ('A' for Active; 'I' for Inactive)
REMARK    1  A    between atoms: C_2  and  N_1 
REMARK       I    between atoms: C_3  and  N_1 
REMARK    2  A    between atoms: N_5  and  C_2 
REMARK    3  A    between atoms: C_13  and  C_3 
REMARK    4  A    between atoms: C_4  and  N_5 
REMARK    5  A    between atoms: O_15  and  C_8 
REMARK    6  A    between atoms: O_16  and  C_10 
ROOT
ATOM      1  N   UNL d   1       1.413   2.061   0.884  0.00  0.00    -0.331 N 
ATOM      2  H   UNL d   1       1.003   2.752   0.260  0.00  0.00     0.168 HD
ENDROOT
BRANCH   1   3
ATOM      3  C   UNL d   1       2.824   2.025   0.955  0.00  0.00     0.070 A 
ATOM      4  C   UNL d   1       3.457   1.579   2.127  0.00  0.00     0.071 A 
ATOM      5  C   UNL d   1       4.844   1.487   2.196  0.00  0.00     0.092 A 
ATOM      6  C   UNL d   1       5.587   1.854   1.062  0.00  0.00     0.070 A 
ATOM      7  C   UNL d   1       4.961   2.333  -0.101  0.00  0.00     0.065 A 
ATOM      8 CL   UNL d   1       7.313   1.718   1.042  0.00  0.00    -0.081 Cl
ATOM      9  C   UNL d   1       3.572   2.421  -0.162  0.00  0.00     0.096 A 
BRANCH   5  10
ATOM     10  O   UNL d   1       5.539   0.995   3.265  0.00  0.00    -0.354 OA
ATOM     11  C   UNL d   1       4.957   0.978   4.563  0.00  0.00     0.210 C 
ENDBRANCH   5  10
BRANCH   9  12
ATOM     12  O   UNL d   1       2.846   2.800  -1.260  0.00  0.00    -0.354 OA
ATOM     13  C   UNL d   1       3.534   2.866  -2.504  0.00  0.00     0.210 C 
ENDBRANCH   9  12
ENDBRANCH   1   3
BRANCH   1  14
ATOM     14  C   UNL d   1       0.539   1.135   1.422  0.00  0.00     0.179 C 
ATOM     15  S   UNL d   1      -1.059   1.553   1.633  0.00  0.00    -0.040 SA
BRANCH  14  16
ATOM     16  N   UNL d   1       1.109  -0.124   1.586  0.00  0.00    -0.299 N 
ATOM     17  C   UNL d   1       0.498  -1.282   2.032  0.00  0.00     0.257 C 
ATOM     18  O   UNL d   1      -0.215  -1.362   3.024  0.00  0.00    -0.267 OA
ATOM     19  H   UNL d   1       1.821  -0.251   0.884  0.00  0.00     0.171 HD
BRANCH  17  20
ATOM     20  C   UNL d   1       0.831  -2.514   1.257  0.00  0.00     0.032 A 
ATOM     21  C   UNL d   1       2.066  -2.712   0.623  0.00  0.00     0.017 A 
ATOM     22  C   UNL d   1       2.272  -3.844  -0.168  0.00  0.00     0.001 A 
ATOM     23  C   UNL d   1       1.254  -4.789  -0.315  0.00  0.00     0.000 A 
ATOM     24  C   UNL d   1       0.037  -4.612   0.342  0.00  0.00     0.001 A 
ATOM     25  C   UNL d   1      -0.174  -3.481   1.130  0.00  0.00     0.017 A 
ENDBRANCH  17  20
ENDBRANCH  14  16
ENDBRANCH   1  14
TORSDOF 6
