REMARK  4 active torsions:
REMARK  status: ('A' for Active; 'I' for Inactive)
REMARK    1  A    between atoms: C_7  and  N_1 
REMARK    2  A    between atoms: C_8  and  C_7 
REMARK       I    between atoms: N_11  and  C_8 
REMARK    3  A    between atoms: N_9  and  N_11 
REMARK    4  A    between atoms: C_14  and  C_13 
ROOT
ATOM      1  C   UNL d   1      -0.131  -2.196   1.995  0.00  0.00     0.206 C 
ENDROOT
BRANCH   1   2
ATOM      2  N   UNL d   1      -0.073  -1.635   0.608  0.00  0.00    -0.239 NA
ATOM      3  C   UNL d   1      -1.263  -0.909   0.294  0.00  0.00     0.033 A 
ATOM      4  C   UNL d   1      -1.345   0.492   0.411  0.00  0.00     0.027 A 
ATOM      5  C   UNL d   1      -2.365  -1.609  -0.224  0.00  0.00     0.025 A 
ATOM      6  C   UNL d   1      -2.519   1.159   0.039  0.00  0.00     0.021 A 
ATOM      7  S   UNL d   1       0.026   1.458   1.026  0.00  0.00    -0.087 SA
ATOM      8  C   UNL d   1      -3.608   0.444  -0.462  0.00  0.00     0.001 A 
ATOM      9  C   UNL d   1      -3.531  -0.939  -0.593  0.00  0.00     0.002 A 
ATOM     10  C   UNL d   1       1.379   0.387   0.564  0.00  0.00     0.027 A 
ATOM     11  C   UNL d   1       1.201  -1.004   0.428  0.00  0.00     0.033 A 
ATOM     12  C   UNL d   1       2.635   0.960   0.328  0.00  0.00     0.021 A 
ATOM     13  C   UNL d   1       2.291  -1.792   0.025  0.00  0.00     0.025 A 
ATOM     14  C   UNL d   1       3.533  -1.210  -0.236  0.00  0.00     0.002 A 
ATOM     15  C   UNL d   1       3.706   0.164  -0.079  0.00  0.00     0.001 A 
ENDBRANCH   1   2
BRANCH   1  16
ATOM     16  C   UNL d   1      -1.296  -3.176   2.203  0.00  0.00     0.249 C 
ATOM     17  N   UNL d   1      -2.319  -2.642   2.986  0.00  0.00    -0.269 N 
ATOM     18  H   UNL d   1      -2.270  -1.665   3.256  0.00  0.00     0.190 HD
ATOM     19  O   UNL d   1      -1.308  -4.301   1.698  0.00  0.00    -0.270 OA
BRANCH  17  20
ATOM     20  N   UNL d   1      -3.554  -3.244   3.004  0.00  0.00    -0.308 N 
ATOM     21  C   UNL d   1      -4.443  -2.610   3.701  0.00  0.00     0.118 C 
ATOM     22  HN  UNL d   1      -3.754  -4.114   2.511  1.00  0.00     0.186 HD
BRANCH  21  23
ATOM     23  C   UNL d   1      -5.872  -2.982   3.713  0.00  0.00    -0.019 A 
ATOM     24  C   UNL d   1      -6.356  -4.060   2.965  0.00  0.00     0.014 A 
ATOM     25  C   UNL d   1      -7.734  -4.302   2.911  0.00  0.00     0.024 A 
ATOM     26  C   UNL d   1      -8.615  -3.470   3.602  0.00  0.00     0.034 A 
ATOM     27  C   UNL d   1      -8.132  -2.409   4.369  0.00  0.00     0.024 A 
ATOM     28 CL   UNL d   1     -10.311  -3.735   3.493  0.00  0.00    -0.084 Cl
ATOM     29  C   UNL d   1      -6.757  -2.166   4.428  0.00  0.00     0.014 A 
ENDBRANCH  21  23
ENDBRANCH  17  20
ENDBRANCH   1  16
TORSDOF 4
