REMARK  5 active torsions:
REMARK  status: ('A' for Active; 'I' for Inactive)
REMARK    1  A    between atoms: C_13  and  C_5 
REMARK    2  A    between atoms: N_12  and  C_7 
REMARK    3  A    between atoms: O_22  and  C_13 
REMARK    4  A    between atoms: C_19  and  N_14 
REMARK    5  A    between atoms: C_26  and  O_22 
ROOT
ATOM      1  C   UNL d   1       1.496  -0.855   0.008  0.00  0.00     0.162 A 
ATOM      2  N   UNL d   1       0.863   0.366  -0.123  0.00  0.00    -0.221 N 
ATOM      3  N   UNL d   1       0.803  -2.030   0.097  0.00  0.00    -0.325 N 
ATOM      4  HN  UNL d   1       1.293  -2.923   0.159  1.00  0.00     0.169 HD
ATOM      5  C   UNL d   1       2.837  -0.501   0.029  0.00  0.00     0.167 A 
ATOM      6  N   UNL d   1       1.737   1.380  -0.243  0.00  0.00    -0.013 NA
ATOM      7  C   UNL d   1      -0.506  -1.981   0.102  0.00  0.00     0.117 A 
ATOM      8  N   UNL d   1       2.953   0.865  -0.146  0.00  0.00    -0.275 N 
ATOM      9  HN  UNL d   1       3.827   1.388  -0.192  1.00  0.00     0.184 HD
ATOM     10  C   UNL d   1      -1.251  -0.663   0.099  0.00  0.00     0.036 A 
ATOM     11  C   UNL d   1      -0.521   0.515  -0.064  0.00  0.00     0.070 A 
ATOM     12  C   UNL d   1      -2.632  -0.583   0.284  0.00  0.00     0.017 A 
ATOM     13  C   UNL d   1      -1.144   1.763  -0.103  0.00  0.00     0.032 A 
ATOM     14  C   UNL d   1      -3.271   0.659   0.249  0.00  0.00     0.001 A 
ATOM     15  C   UNL d   1      -2.529   1.827   0.047  0.00  0.00     0.002 A 
ENDROOT
BRANCH   7  16
ATOM     16  N   UNL d   1      -1.262  -3.148   0.104  0.00  0.00    -0.363 N 
ATOM     17  C   UNL d   1      -1.995  -3.485  -1.145  0.00  0.00     0.144 C 
ATOM     18  C   UNL d   1      -3.131  -4.478  -0.839  0.00  0.00     0.143 C 
ATOM     19  N   UNL d   1      -2.559  -5.699  -0.237  0.00  0.00    -0.378 N 
ATOM     20  C   UNL d   1      -1.773  -5.433   0.987  0.00  0.00     0.143 C 
ATOM     21  C   UNL d   1      -0.673  -4.375   0.702  0.00  0.00     0.144 C 
BRANCH  19  22
ATOM     22  C   UNL d   1      -3.220  -6.902  -0.434  0.00  0.00     0.030 A 
ATOM     23  C   UNL d   1      -3.474  -7.818   0.595  0.00  0.00     0.029 A 
ATOM     24  C   UNL d   1      -4.080  -9.057   0.343  0.00  0.00     0.002 A 
ATOM     25  C   UNL d   1      -4.443  -9.410  -0.954  0.00  0.00     0.000 A 
ATOM     26  C   UNL d   1      -4.207  -8.522  -1.993  0.00  0.00     0.002 A 
ATOM     27  C   UNL d   1      -3.603  -7.288  -1.731  0.00  0.00     0.029 A 
ENDBRANCH  19  22
ENDBRANCH   7  16
BRANCH   5  28
ATOM     28  C   UNL d   1       3.992  -1.354   0.246  0.00  0.00     0.315 C 
ATOM     29  O   UNL d   1       3.942  -2.558   0.467  0.00  0.00    -0.257 OA
BRANCH  28  30
ATOM     30  O   UNL d   1       5.154  -0.630   0.236  0.00  0.00    -0.317 OA
BRANCH  30  31
ATOM     31  C   UNL d   1       6.337  -1.314   0.669  0.00  0.00     0.175 C 
ATOM     32  C   UNL d   1       6.457  -1.192   2.177  0.00  0.00     0.034 C 
ENDBRANCH  30  31
ENDBRANCH  28  30
ENDBRANCH   5  28
TORSDOF 5
