REMARK  6 active torsions:
REMARK  status: ('A' for Active; 'I' for Inactive)
REMARK       I    between atoms: N_2  and  C_1 
REMARK       I    between atoms: N_4  and  C_1 
REMARK    1  A    between atoms: C_6  and  N_2 
REMARK    2  A    between atoms: C_8  and  N_2 
REMARK    3  A    between atoms: C_3  and  O_7 
REMARK    4  A    between atoms: C_9  and  N_4 
REMARK    5  A    between atoms: C_14  and  C_6 
REMARK    6  A    between atoms: O_7  and  C_13 
ROOT
ATOM      1  C   UNL d   1       1.349  -0.183  -0.731  0.00  0.00     0.323 C 
ATOM      2  N   UNL d   1       0.907  -1.143   0.190  0.00  0.00    -0.326 N 
ATOM      3  N   UNL d   1       2.705  -0.130  -0.939  0.00  0.00    -0.309 N 
ATOM      4  O   UNL d   1       0.548   0.531  -1.334  0.00  0.00    -0.247 OA
ATOM      5  H   UNL d   1       3.266  -0.749  -0.387  0.00  0.00     0.170 HD
ENDROOT
BRANCH   2   6
ATOM      6  C   UNL d   1      -0.552  -1.294   0.308  0.00  0.00     0.166 C 
BRANCH   6   7
ATOM      7  C   UNL d   1      -1.076  -2.477  -0.478  0.00  0.00    -0.040 A 
ATOM      8  C   UNL d   1      -1.571  -3.620   0.168  0.00  0.00     0.009 A 
ATOM      9  C   UNL d   1      -2.056  -4.699  -0.574  0.00  0.00     0.001 A 
ATOM     10  C   UNL d   1      -2.052  -4.652  -1.967  0.00  0.00     0.000 A 
ATOM     11  C   UNL d   1      -1.563  -3.523  -2.620  0.00  0.00     0.001 A 
ATOM     12  C   UNL d   1      -1.080  -2.443  -1.882  0.00  0.00     0.009 A 
ENDBRANCH   6   7
ENDBRANCH   2   6
BRANCH   2  13
ATOM     13  C   UNL d   1       1.700  -2.067   1.037  0.00  0.00     0.081 C 
ATOM     14  C   UNL d   1       2.515  -3.104   0.262  0.00  0.00     0.032 C 
ATOM     15  C   UNL d   1       2.516  -1.332   2.101  0.00  0.00     0.032 C 
ENDBRANCH   2  13
BRANCH   3  16
ATOM     16  C   UNL d   1       3.405   0.585  -1.942  0.00  0.00     0.036 A 
ATOM     17  C   UNL d   1       2.836   1.548  -2.781  0.00  0.00     0.032 A 
ATOM     18  C   UNL d   1       3.592   2.140  -3.804  0.00  0.00     0.039 A 
ATOM     19  C   UNL d   1       4.914   1.758  -4.009  0.00  0.00     0.078 A 
ATOM     20  C   UNL d   1       5.516   0.860  -3.130  0.00  0.00     0.039 A 
ATOM     21  C   UNL d   1       4.760   0.273  -2.106  0.00  0.00     0.032 A 
BRANCH  19  22
ATOM     22  O   UNL d   1       5.628   2.367  -4.998  0.00  0.00    -0.255 OA
BRANCH  22  23
ATOM     23  C   UNL d   1       6.067   1.488  -6.032  0.00  0.00     0.530 C 
ATOM     24  F   UNL d   1       6.190   0.200  -5.643  0.00  0.00    -0.144 F 
ATOM     25  F   UNL d   1       5.209   1.546  -7.074  0.00  0.00    -0.144 F 
ATOM     26  F   UNL d   1       7.279   1.905  -6.465  0.00  0.00    -0.144 F 
ENDBRANCH  22  23
ENDBRANCH  19  22
ENDBRANCH   3  16
TORSDOF 6
