REMARK  2 active torsions:
REMARK  status: ('A' for Active; 'I' for Inactive)
REMARK    1  A    between atoms: C_3  and  N_1 
REMARK    2  A    between atoms: C_21  and  N_6 
ROOT
ATOM      1  N   UNL d   1       1.281  -2.030  -1.341  0.00  0.00    -0.222 N 
ATOM      2  C   UNL d   1       0.129  -1.230  -1.339  0.00  0.00     0.145 A 
ATOM      3  N   UNL d   1       2.095  -1.730  -2.396  0.00  0.00    -0.300 N 
ATOM      4  HN  UNL d   1       2.953  -2.203  -2.678  1.00  0.00     0.186 HD
ATOM      5  C   UNL d   1       0.295  -0.332  -2.371  0.00  0.00     0.106 A 
ATOM      6  C   UNL d   1       1.512  -0.678  -2.974  0.00  0.00     0.134 A 
ATOM      7  C   UNL d   1      -0.574   0.737  -2.735  0.00  0.00     0.104 C 
ATOM      8  N   UNL d   1      -1.272   1.616  -3.023  0.00  0.00    -0.191 NA
ATOM      9  N   UNL d   1      -0.875  -1.370  -0.435  0.00  0.00    -0.383 N 
ATOM     10  H   UNL d   1      -0.723  -1.955   0.393  0.00  0.00     0.157 HD
ATOM     11  H   UNL d   1      -1.593  -0.660  -0.306  0.00  0.00     0.157 HD
ENDROOT
BRANCH   1  12
ATOM     12  C   UNL d   1       1.706  -2.921  -0.313  0.00  0.00     0.145 C 
ATOM     13  C   UNL d   1       2.921  -3.607  -0.391  0.00  0.00     0.073 C 
ATOM     14  C   UNL d   1       3.405  -4.110   0.804  0.00  0.00     0.143 C 
ATOM     15  C   UNL d   1       3.921  -3.946  -1.330  0.00  0.00     0.127 C 
ATOM     16  N   UNL d   1       4.718  -4.471   0.555  0.00  0.00    -0.239 N 
ATOM     17  N   UNL d   1       2.765  -4.133   1.990  0.00  0.00    -0.336 N 
ATOM     18  N   UNL d   1       4.953  -4.605  -0.780  0.00  0.00    -0.302 N 
ATOM     19  HN  UNL d   1       5.722  -5.086  -1.247  1.00  0.00     0.186 HD
ATOM     20  C   UNL d   1       1.540  -3.608   1.912  0.00  0.00     0.183 C 
ATOM     21  HN  UNL d   1       3.170  -4.507   2.848  1.00  0.00     0.168 HD
ATOM     22  N   UNL d   1       0.988  -2.988   0.856  0.00  0.00    -0.336 N 
ATOM     23  HN  UNL d   1       0.056  -2.577   0.920  1.00  0.00     0.168 HD
BRANCH  16  24
ATOM     24  C   UNL d   1       5.800  -4.341   1.454  0.00  0.00     0.058 A 
ATOM     25  C   UNL d   1       6.853  -5.256   1.439  0.00  0.00     0.031 A 
ATOM     26  C   UNL d   1       7.939  -5.051   2.292  0.00  0.00     0.002 A 
ATOM     27  C   UNL d   1       8.001  -3.909   3.097  0.00  0.00     0.000 A 
ATOM     28  C   UNL d   1       6.962  -2.980   3.081  0.00  0.00     0.002 A 
ATOM     29  C   UNL d   1       5.847  -3.207   2.280  0.00  0.00     0.031 A 
ENDBRANCH  16  24
ENDBRANCH   1  12
TORSDOF 2
