REMARK  7 active torsions:
REMARK  status: ('A' for Active; 'I' for Inactive)
REMARK    1  A    between atoms: C_7  and  N_1 
REMARK    2  A    between atoms: S_9  and  C_4 
REMARK    3  A    between atoms: C_8  and  C_5 
REMARK    4  A    between atoms: N_10  and  C_6 
REMARK    5  A    between atoms: O_13  and  C_8 
REMARK    6  A    between atoms: O_14  and  C_11 
REMARK    7  A    between atoms: C_18  and  O_13 
ROOT
ATOM      1  N   UNL d   1      -0.239  -1.270  -0.160  0.00  0.00    -0.281 N 
ATOM      2  N   UNL d   1       1.006   0.598  -0.424  0.00  0.00    -0.321 N 
ATOM      3  HN  UNL d   1       1.803   1.224  -0.539  1.00  0.00     0.169 HD
ATOM      4  C   UNL d   1       0.991  -0.713  -0.526  0.00  0.00     0.153 C 
ATOM      5  C   UNL d   1      -1.102  -0.165  -0.046  0.00  0.00     0.161 C 
ATOM      6  C   UNL d   1      -0.266   0.927  -0.135  0.00  0.00     0.135 C 
ENDROOT
BRANCH   1   7
ATOM      7  C   UNL d   1      -0.583  -2.662  -0.077  0.00  0.00     0.075 A 
ATOM      8  C   UNL d   1       0.281  -3.619   0.498  0.00  0.00     0.095 A 
ATOM      9  C   UNL d   1      -0.113  -4.968   0.542  0.00  0.00     0.039 A 
ATOM     10  C   UNL d   1      -1.345  -5.373   0.032  0.00  0.00     0.003 A 
ATOM     11  C   UNL d   1      -2.198  -4.435  -0.531  0.00  0.00     0.002 A 
ATOM     12  C   UNL d   1      -1.814  -3.094  -0.599  0.00  0.00     0.033 A 
BRANCH   8  13
ATOM     13  O   UNL d   1       1.428  -3.203   1.129  0.00  0.00    -0.354 OA
ATOM     14  C   UNL d   1       2.528  -4.110   1.048  0.00  0.00     0.210 C 
ENDBRANCH   8  13
ENDBRANCH   1   7
BRANCH   4  15
ATOM     15  S   UNL d   1       2.256  -1.591  -1.351  0.00  0.00    -0.098 SA
ATOM     16  C   UNL d   1       3.136  -0.250  -2.174  0.00  0.00     0.099 C 
ENDBRANCH   4  15
BRANCH   5  17
ATOM     17  C   UNL d   1      -2.522  -0.159   0.140  0.00  0.00     0.314 C 
ATOM     18  O   UNL d   1      -3.182  -0.950   0.801  0.00  0.00    -0.257 OA
BRANCH  17  19
ATOM     19  O   UNL d   1      -3.059   0.812  -0.658  0.00  0.00    -0.317 OA
BRANCH  19  20
ATOM     20  C   UNL d   1      -4.456   0.707  -0.962  0.00  0.00     0.175 C 
ATOM     21  C   UNL d   1      -4.591   0.047  -2.326  0.00  0.00     0.034 C 
ENDBRANCH  19  20
ENDBRANCH  17  19
ENDBRANCH   5  17
BRANCH   6  22
ATOM     22  N   UNL d   1      -0.589   2.217  -0.019  0.00  0.00    -0.383 N 
ATOM     23  H   UNL d   1      -1.550   2.525  -0.148  0.00  0.00     0.157 HD
ATOM     24  H   UNL d   1       0.099   2.904  -0.308  0.00  0.00     0.157 HD
ENDBRANCH   6  22
TORSDOF 7
