REMARK  4 active torsions:
REMARK  status: ('A' for Active; 'I' for Inactive)
REMARK    1  A    between atoms: N_2  and  C_1 
REMARK    2  A    between atoms: C_11  and  C_1 
REMARK    3  A    between atoms: C_3  and  N_2 
REMARK    4  A    between atoms: O_14  and  N_4 
ROOT
ATOM      1  C   UNL d   1       0.889  -0.104  -0.021  0.00  0.00     0.135 C 
ATOM      2  N   UNL d   1       0.370   1.102   0.020  0.00  0.00    -0.252 N 
ATOM      3  HN  UNL d   1       0.941   1.942   0.112  1.00  0.00     0.196 HD
ENDROOT
BRANCH   1   4
ATOM      4  N   UNL d   1       2.268  -0.257  -0.041  0.00  0.00    -0.340 N 
ATOM      5  H   UNL d   1       2.656  -1.135   0.277  0.00  0.00     0.167 HD
BRANCH   4   6
ATOM      6  C   UNL d   1       3.194   0.696  -0.508  0.00  0.00     0.036 A 
ATOM      7  C   UNL d   1       4.475   0.756   0.056  0.00  0.00     0.053 A 
ATOM      8  C   UNL d   1       5.373   1.760  -0.324  0.00  0.00     0.037 A 
ATOM      9 CL   UNL d   1       6.930   1.832   0.405  0.00  0.00    -0.084 Cl
ATOM     10  C   UNL d   1       5.017   2.715  -1.274  0.00  0.00     0.048 A 
ATOM     11  C   UNL d   1       3.753   2.657  -1.844  0.00  0.00     0.037 A 
ATOM     12  C   UNL d   1       2.850   1.664  -1.464  0.00  0.00     0.053 A 
ATOM     13 CL   UNL d   1       3.291   3.825  -3.021  0.00  0.00    -0.084 Cl
ENDBRANCH   4   6
ENDBRANCH   1   4
BRANCH   1  14
ATOM     14  C   UNL d   1       0.070  -1.367  -0.032  0.00  0.00     0.010 A 
ATOM     15  C   UNL d   1      -1.076  -1.504   0.762  0.00  0.00     0.015 A 
ATOM     16  C   UNL d   1      -1.857  -2.660   0.679  0.00  0.00     0.001 A 
ATOM     17  C   UNL d   1      -1.476  -3.699  -0.167  0.00  0.00     0.000 A 
ATOM     18  C   UNL d   1      -0.312  -3.590  -0.927  0.00  0.00     0.001 A 
ATOM     19  C   UNL d   1       0.460  -2.427  -0.862  0.00  0.00     0.015 A 
ENDBRANCH   1  14
BRANCH   2  20
ATOM     20  O   UNL d   1      -1.021   1.148  -0.072  0.00  0.00    -0.288 OA
ATOM     21  H   UNL d   1      -1.196   2.104  -0.003  0.00  0.00     0.244 HD
ENDBRANCH   2  20
TORSDOF 4
