REMARK  4 active torsions:
REMARK  status: ('A' for Active; 'I' for Inactive)
REMARK    1  A    between atoms: C_7  and  N_2 
REMARK    2  A    between atoms: S_6  and  C_8 
REMARK    3  A    between atoms: C_11  and  S_6 
REMARK    4  A    between atoms: C_8  and  C_7 
ROOT
ATOM      1  S   UNL d   1       1.280   0.138   1.015  0.00  0.00     0.268 S 
ATOM      2  N   UNL d   1       1.179  -1.343   0.200  0.00  0.00    -0.236 N 
ATOM      3  C   UNL d   1      -0.015  -1.472  -0.549  0.00  0.00     0.269 A 
ATOM      4  C   UNL d   1      -0.907  -0.334  -0.261  0.00  0.00     0.056 A 
ATOM      5  C   UNL d   1      -0.335   0.608   0.580  0.00  0.00     0.095 A 
ATOM      6  O   UNL d   1       1.328  -0.115   2.434  0.00  0.00    -0.200 OA
ATOM      7  O   UNL d   1       2.210   0.995   0.318  0.00  0.00    -0.200 OA
ATOM      8  O   UNL d   1      -0.277  -2.383  -1.311  0.00  0.00    -0.266 OA
ATOM      9  C   UNL d   1      -2.197  -0.162  -0.740  0.00  0.00     0.018 A 
ATOM     10  C   UNL d   1      -1.005   1.748   0.988  0.00  0.00     0.026 A 
ATOM     11  C   UNL d   1      -2.898   0.983  -0.344  0.00  0.00     0.001 A 
ATOM     12  C   UNL d   1      -2.307   1.929   0.514  0.00  0.00     0.002 A 
ENDROOT
BRANCH   2  13
ATOM     13  C   UNL d   1       2.427  -2.116   0.030  0.00  0.00     0.160 C 
BRANCH  13  14
ATOM     14  C   UNL d   1       2.176  -3.617   0.012  0.00  0.00     0.166 C 
BRANCH  14  15
ATOM     15  S   UNL d   1       3.724  -4.481  -0.128  0.00  0.00     0.177 S 
ATOM     16  O   UNL d   1       4.313  -4.155  -1.411  0.00  0.00    -0.223 OA
ATOM     17  O   UNL d   1       4.467  -4.278   1.101  0.00  0.00    -0.223 OA
BRANCH  15  18
ATOM     18  C   UNL d   1       3.259  -6.201  -0.185  0.00  0.00     0.059 A 
ATOM     19  C   UNL d   1       3.004  -6.808  -1.422  0.00  0.00     0.026 A 
ATOM     20  C   UNL d   1       2.680  -8.165  -1.466  0.00  0.00     0.044 A 
ATOM     21  C   UNL d   1       2.627  -8.900  -0.285  0.00  0.00     0.116 A 
ATOM     22  C   UNL d   1       2.902  -8.306   0.944  0.00  0.00     0.044 A 
ATOM     23  F   UNL d   1       2.317 -10.202  -0.331  0.00  0.00    -0.206 F 
ATOM     24  C   UNL d   1       3.225  -6.949   0.998  0.00  0.00     0.026 A 
ENDBRANCH  15  18
ENDBRANCH  14  15
ENDBRANCH  13  14
ENDBRANCH   2  13
TORSDOF 4
