REMARK  2 active torsions:
REMARK  status: ('A' for Active; 'I' for Inactive)
REMARK    1  A    between atoms: C_13  and  C_4 
REMARK    2  A    between atoms: C_14  and  C_10 
ROOT
ATOM      1  N   UNL d   1      -0.521  -0.783   0.043  0.00  0.00    -0.214 N 
ATOM      2  N   UNL d   1       0.449  -1.732   0.275  0.00  0.00    -0.293 N 
ATOM      3  HN  UNL d   1       0.210  -2.666   0.606  1.00  0.00     0.187 HD
ATOM      4  C   UNL d   1      -1.893  -0.988  -0.060  0.00  0.00     0.154 A 
ATOM      5  C   UNL d   1      -0.373   0.578  -0.080  0.00  0.00     0.182 A 
ATOM      6  N   UNL d   1      -2.479   0.182  -0.277  0.00  0.00    -0.281 N 
ATOM      7  HN  UNL d   1      -3.478   0.326  -0.427  1.00  0.00     0.188 HD
ATOM      8  N   UNL d   1      -1.523   1.169  -0.269  0.00  0.00    -0.277 N 
ATOM      9  HN  UNL d   1      -1.681   2.170  -0.387  1.00  0.00     0.189 HD
ATOM     10  C   UNL d   1       1.688  -1.386   0.053  0.00  0.00     0.046 C 
ATOM     11  S   UNL d   1       1.176   1.317   0.034  0.00  0.00    -0.085 SA
ATOM     12  C   UNL d   1       2.131  -0.079  -0.594  0.00  0.00     0.142 C 
ENDROOT
BRANCH   4  13
ATOM     13  C   UNL d   1      -2.589  -2.279  -0.008  0.00  0.00     0.011 A 
ATOM     14  C   UNL d   1      -2.100  -3.378   0.712  0.00  0.00     0.015 A 
ATOM     15  C   UNL d   1      -2.800  -4.589   0.736  0.00  0.00     0.001 A 
ATOM     16  C   UNL d   1      -4.002  -4.715   0.047  0.00  0.00     0.000 A 
ATOM     17  C   UNL d   1      -4.511  -3.631  -0.662  0.00  0.00     0.001 A 
ATOM     18  C   UNL d   1      -3.811  -2.421  -0.686  0.00  0.00     0.015 A 
ENDBRANCH   4  13
BRANCH  10  19
ATOM     19  C   UNL d   1       2.760  -2.370   0.404  0.00  0.00    -0.011 A 
ATOM     20  C   UNL d   1       3.968  -2.425  -0.302  0.00  0.00     0.013 A 
ATOM     21  C   UNL d   1       4.971  -3.314   0.095  0.00  0.00     0.001 A 
ATOM     22  C   UNL d   1       4.767  -4.158   1.186  0.00  0.00     0.000 A 
ATOM     23  C   UNL d   1       3.555  -4.129   1.873  0.00  0.00     0.001 A 
ATOM     24  C   UNL d   1       2.551  -3.241   1.482  0.00  0.00     0.013 A 
ENDBRANCH  10  19
TORSDOF 2
