REMARK  6 active torsions:
REMARK  status: ('A' for Active; 'I' for Inactive)
REMARK    1  A    between atoms: C_3  and  C_1 
REMARK    2  A    between atoms: O_15  and  C_3 
REMARK    3  A    between atoms: C_13  and  C_5 
REMARK       I    between atoms: C_7  and  N_8 
REMARK    4  A    between atoms: N_8  and  C_12 
REMARK    5  A    between atoms: O_11  and  C_13 
REMARK    6  A    between atoms: C_14  and  O_11 
ROOT
ATOM      1  C   UNL d   1      -0.733  -7.478  -0.351  0.00  0.00     0.034 A 
ATOM      2  C   UNL d   1      -0.127  -4.738  -0.035  0.00  0.00     0.069 A 
ATOM      3  C   UNL d   1       0.231  -7.064   0.575  0.00  0.00     0.032 A 
ATOM      4  C   UNL d   1      -1.381  -6.507  -1.114  0.00  0.00     0.032 A 
ATOM      5  C   UNL d   1       0.523  -5.702   0.737  0.00  0.00     0.039 A 
ATOM      6  C   UNL d   1      -1.083  -5.147  -0.959  0.00  0.00     0.039 A 
ENDROOT
BRANCH   2   7
ATOM      7  O   UNL d   1       0.222  -3.442   0.228  0.00  0.00    -0.345 OA
BRANCH   7   8
ATOM      8  C   UNL d   1      -0.041  -2.493  -0.809  0.00  0.00     0.240 C 
BRANCH   8   9
ATOM      9  C   UNL d   1       0.419  -1.165  -0.321  0.00  0.00     0.078 A 
ATOM     10  O   UNL d   1      -0.193  -0.075  -0.869  0.00  0.00    -0.307 OA
ATOM     11  C   UNL d   1       0.352   1.044  -0.291  0.00  0.00     0.150 A 
ATOM     12  C   UNL d   1       1.319   0.658   0.618  0.00  0.00     0.046 A 
ATOM     13  C   UNL d   1       1.367  -0.757   0.596  0.00  0.00     0.038 A 
BRANCH  11  14
ATOM     14  C   UNL d   1      -0.109   2.360  -0.667  0.00  0.00     0.316 C 
ATOM     15  O   UNL d   1       0.316   3.415  -0.205  0.00  0.00    -0.257 OA
BRANCH  14  16
ATOM     16  O   UNL d   1      -1.089   2.274  -1.613  0.00  0.00    -0.321 OA
ATOM     17  C   UNL d   1      -1.600   3.533  -2.046  0.00  0.00     0.213 C 
ENDBRANCH  14  16
ENDBRANCH  11  14
ENDBRANCH   8   9
ENDBRANCH   7   8
ENDBRANCH   2   7
BRANCH   1  18
ATOM     18  N   UNL d   1      -1.004  -8.861  -0.450  0.00  0.00    -0.328 N 
ATOM     19  C   UNL d   1      -1.933  -9.469  -1.278  0.00  0.00     0.218 C 
ATOM     20  O   UNL d   1      -2.672  -8.913  -2.085  0.00  0.00    -0.274 OA
ATOM     21  C   UNL d   1      -1.995 -10.968  -1.121  0.00  0.00     0.117 C 
ATOM     22  H   UNL d   1      -0.467  -9.463   0.163  0.00  0.00     0.169 HD
ENDBRANCH   1  18
TORSDOF 6
