REMARK  3 active torsions:
REMARK  status: ('A' for Active; 'I' for Inactive)
REMARK    1  A    between atoms: C_6  and  C_1 
REMARK    2  A    between atoms: C_9  and  C_4 
REMARK    3  A    between atoms: C_12  and  C_9 
ROOT
ATOM      1  C   UNL d   1      -1.970   2.806   0.074  0.00  0.00     0.097 C 
ATOM      2  C   UNL d   1      -0.621   2.764   0.048  0.00  0.00     0.059 C 
ATOM      3  C   UNL d   1      -2.704   4.024   0.177  0.00  0.00     0.103 C 
ATOM      4  N   UNL d   1      -3.352   4.986   0.267  0.00  0.00    -0.191 NA
ENDROOT
BRANCH   1   5
ATOM      5  C   UNL d   1      -2.708   1.506   0.045  0.00  0.00     0.202 C 
ATOM      6  O   UNL d   1      -2.201   0.469   0.466  0.00  0.00    -0.286 OA
BRANCH   5   7
ATOM      7  C   UNL d   1      -4.100   1.476  -0.494  0.00  0.00     0.016 A 
ATOM      8  C   UNL d   1      -4.503   2.288  -1.565  0.00  0.00     0.017 A 
ATOM      9  C   UNL d   1      -5.830   2.268  -2.004  0.00  0.00     0.025 A 
ATOM     10  C   UNL d   1      -6.746   1.407  -1.404  0.00  0.00     0.034 A 
ATOM     11  C   UNL d   1      -6.344   0.557  -0.375  0.00  0.00     0.025 A 
ATOM     12 CL   UNL d   1      -8.379   1.389  -1.944  0.00  0.00    -0.084 Cl
ATOM     13  C   UNL d   1      -5.020   0.588   0.079  0.00  0.00     0.017 A 
ENDBRANCH   5   7
ENDBRANCH   1   5
BRANCH   2  14
ATOM     14  C   UNL d   1       0.222   3.920  -0.044  0.00  0.00     0.073 A 
ATOM     15  N   UNL d   1      -0.127   4.989  -0.773  0.00  0.00    -0.298 N 
ATOM     16  N   UNL d   1       0.864   5.871  -0.576  0.00  0.00    -0.306 N 
ATOM     17  HN  UNL d   1      -0.960   5.106  -1.350  1.00  0.00     0.187 HD
ATOM     18  C   UNL d   1       0.774   7.186  -1.164  0.00  0.00     0.177 C 
ATOM     19  C   UNL d   1       1.868   5.390   0.208  0.00  0.00     0.135 A 
ATOM     20  C   UNL d   1       1.492   4.114   0.558  0.00  0.00     0.079 A 
ATOM     21 CL   UNL d   1       2.349   3.033   1.543  0.00  0.00    -0.080 Cl
ENDBRANCH   2  14
TORSDOF 3
