REMARK  4 active torsions:
REMARK  status: ('A' for Active; 'I' for Inactive)
REMARK    1  A    between atoms: C_4  and  N_1 
REMARK    2  A    between atoms: S_9  and  C_4 
REMARK    3  A    between atoms: C_11  and  N_6 
REMARK    4  A    between atoms: C_10  and  C_11 
ROOT
ATOM      1  N   UNL d   1       1.129  -0.557  -0.043  0.00  0.00    -0.274 N 
ATOM      2  HN  UNL d   1       0.498   0.097  -0.506  1.00  0.00     0.180 HD
ATOM      3  C   UNL d   1       0.628  -1.567   0.669  0.00  0.00     0.183 C 
ATOM      4  N   UNL d   1       0.157  -2.439   1.273  0.00  0.00    -0.172 NA
ENDROOT
BRANCH   1   5
ATOM      5  C   UNL d   1       2.411  -0.402  -0.150  0.00  0.00     0.149 C 
ATOM      6  N   UNL d   1       2.958   0.589  -0.915  0.00  0.00    -0.365 N 
ATOM      7  H   UNL d   1       3.958   0.503  -1.101  0.00  0.00     0.162 HD
BRANCH   6   8
ATOM      8  C   UNL d   1       2.253   1.094  -2.084  0.00  0.00     0.178 C 
BRANCH   8   9
ATOM      9  C   UNL d   1       3.231   1.614  -3.124  0.00  0.00     0.026 A 
ATOM     10  N   UNL d   1       4.560   1.574  -2.826  0.00  0.00    -0.368 N 
ATOM     11  C   UNL d   1       5.417   2.011  -3.776  0.00  0.00     0.088 A 
ATOM     12  HN  UNL d   1       4.894   1.230  -1.926  1.00  0.00     0.165 HD
ATOM     13  C   UNL d   1       5.021   2.476  -5.019  0.00  0.00     0.017 A 
ATOM     14  C   UNL d   1       3.662   2.503  -5.309  0.00  0.00     0.003 A 
ATOM     15  C   UNL d   1       2.751   2.071  -4.350  0.00  0.00     0.027 A 
ENDBRANCH   8   9
ENDBRANCH   6   8
BRANCH   5  16
ATOM     16  S   UNL d   1       3.610  -1.454   0.587  0.00  0.00    -0.098 SA
ATOM     17  C   UNL d   1       4.354  -0.311   1.768  0.00  0.00     0.099 C 
ENDBRANCH   5  16
ENDBRANCH   1   5
TORSDOF 4
