REMARK  8 active torsions:
REMARK  status: ('A' for Active; 'I' for Inactive)
REMARK    1  A    between atoms: C_2  and  C_1 
REMARK    2  A    between atoms: N_16  and  C_3 
REMARK    3  A    between atoms: O_19  and  C_5 
REMARK    4  A    between atoms: N_15  and  C_6 
REMARK    5  A    between atoms: O_20  and  C_7 
REMARK    6  A    between atoms: C_21  and  N_15 
REMARK    7  A    between atoms: C_17  and  C_22 
REMARK    8  A    between atoms: C_22  and  C_21 
ROOT
ATOM      1  N   UNL d   1      -0.826   5.376   0.675  0.00  0.00    -0.291 NA
ATOM      2  H   UNL d   1      -0.100   5.951   1.082  0.00  0.00     0.127 HD
ENDROOT
BRANCH   1   3
ATOM      3  C   UNL d   1      -0.392   4.048   0.495  0.00  0.00     0.029 A 
ATOM      4  C   UNL d   1      -1.300   3.006   0.247  0.00  0.00     0.026 A 
ATOM      5  C   UNL d   1      -0.869   1.712  -0.055  0.00  0.00     0.018 A 
ATOM      6  C   UNL d   1       0.493   1.425  -0.161  0.00  0.00     0.049 A 
ATOM      7  C   UNL d   1       1.413   2.458   0.059  0.00  0.00     0.041 A 
ATOM      8  C   UNL d   1       0.995   3.751   0.421  0.00  0.00     0.028 A 
BRANCH   6   9
ATOM      9  C   UNL d   1       0.945   0.037  -0.535  0.00  0.00     0.417 C 
ATOM     10  F   UNL d   1       2.298  -0.095  -0.623  0.00  0.00    -0.166 F 
ATOM     11  F   UNL d   1       0.452  -0.366  -1.740  0.00  0.00    -0.166 F 
ATOM     12  F   UNL d   1       0.538  -0.901   0.365  0.00  0.00    -0.166 F 
ENDBRANCH   6   9
BRANCH   8  13
ATOM     13  N   UNL d   1       1.979   4.760   0.488  0.00  0.00    -0.301 NA
ATOM     14  H   UNL d   1       2.906   4.414   0.709  0.00  0.00     0.124 HD
ATOM     15  H   UNL d   1       1.728   5.559   1.053  0.00  0.00     0.124 HD
ENDBRANCH   8  13
ENDBRANCH   1   3
BRANCH   1  16
ATOM     16  C   UNL d   1      -2.151   5.625   1.246  0.00  0.00     0.097 C 
BRANCH  16  17
ATOM     17  C   UNL d   1      -2.397   7.133   1.375  0.00  0.00     0.053 C 
BRANCH  17  18
ATOM     18  C   UNL d   1      -3.732   7.433   2.013  0.00  0.00    -0.054 A 
ATOM     19  C   UNL d   1      -3.838   7.543   3.410  0.00  0.00     0.046 A 
ATOM     20  C   UNL d   1      -5.072   7.792   4.035  0.00  0.00     0.102 A 
ATOM     21  C   UNL d   1      -6.215   7.953   3.233  0.00  0.00     0.101 A 
ATOM     22  C   UNL d   1      -6.113   7.816   1.843  0.00  0.00     0.040 A 
ATOM     23  C   UNL d   1      -4.883   7.561   1.235  0.00  0.00     0.010 A 
BRANCH  20  24
ATOM     24  O   UNL d   1      -5.226   7.853   5.394  0.00  0.00    -0.353 OA
ATOM     25  C   UNL d   1      -4.079   7.649   6.208  0.00  0.00     0.210 C 
ENDBRANCH  20  24
BRANCH  21  26
ATOM     26  O   UNL d   1      -7.499   8.186   3.660  0.00  0.00    -0.353 OA
ATOM     27  C   UNL d   1      -7.647   8.981   4.830  0.00  0.00     0.210 C 
ENDBRANCH  21  26
ENDBRANCH  17  18
ENDBRANCH  16  17
ENDBRANCH   1  16
TORSDOF 8
