REMARK  6 active torsions:
REMARK  status: ('A' for Active; 'I' for Inactive)
REMARK    1  A    between atoms: C_19  and  N_1 
REMARK    2  A    between atoms: C_16  and  C_2 
REMARK       I    between atoms: N_3  and  C_12 
REMARK    3  A    between atoms: S_15  and  C_6 
REMARK    4  A    between atoms: C_12  and  C_17 
REMARK    5  A    between atoms: C_17  and  S_15 
REMARK    6  A    between atoms: C_20  and  C_19 
ROOT
ATOM      1  S   UNL d   1      -2.803  -0.203   0.500  0.00  0.00    -0.083 SA
ENDROOT
BRANCH   1   2
ATOM      2  C   UNL d   1      -3.335  -0.066   2.140  0.00  0.00     0.163 A 
ATOM      3  N   UNL d   1      -2.658   0.587   3.142  0.00  0.00    -0.307 N 
ATOM      4  C   UNL d   1      -3.412   0.382   4.291  0.00  0.00     0.135 A 
ATOM      5  N   UNL d   1      -4.486  -0.313   3.946  0.00  0.00    -0.283 N 
ATOM      6  N   UNL d   1      -4.439  -0.577   2.610  0.00  0.00    -0.278 N 
ATOM      7  HN  UNL d   1      -5.230  -0.605   4.581  1.00  0.00     0.188 HD
ATOM      8  HN  UNL d   1      -5.143  -1.084   2.072  1.00  0.00     0.189 HD
BRANCH   3   9
ATOM      9  C   UNL d   1      -1.466   1.404   3.001  0.00  0.00     0.159 C 
BRANCH   9  10
ATOM     10  C   UNL d   1      -0.153   0.679   3.180  0.00  0.00    -0.017 C 
ATOM     11  C   UNL d   1       0.046  -0.622   3.440  0.00  0.00     0.008 C 
ENDBRANCH   9  10
ENDBRANCH   3   9
BRANCH   4  12
ATOM     12  C   UNL d   1      -3.162   0.841   5.665  0.00  0.00     0.009 A 
ATOM     13  C   UNL d   1      -4.267   1.090   6.499  0.00  0.00     0.015 A 
ATOM     14  C   UNL d   1      -4.101   1.487   7.828  0.00  0.00     0.001 A 
ATOM     15  C   UNL d   1      -2.822   1.643   8.352  0.00  0.00     0.000 A 
ATOM     16  C   UNL d   1      -1.714   1.386   7.550  0.00  0.00     0.001 A 
ATOM     17  C   UNL d   1      -1.885   0.976   6.223  0.00  0.00     0.015 A 
ENDBRANCH   4  12
ENDBRANCH   1   2
BRANCH   1  18
ATOM     18  C   UNL d   1      -3.533  -1.810   0.006  0.00  0.00     0.186 C 
BRANCH  18  19
ATOM     19  C   UNL d   1      -5.069  -1.801  -0.082  0.00  0.00     0.238 C 
ATOM     20  N   UNL d   1      -5.741  -3.047   0.070  0.00  0.00    -0.279 N 
ATOM     21  C   UNL d   1      -5.254  -4.146   0.878  0.00  0.00     0.059 A 
ATOM     22  C   UNL d   1      -7.073  -3.248  -0.486  0.00  0.00     0.059 A 
ATOM     23  C   UNL d   1      -5.555  -5.489   0.587  0.00  0.00     0.033 A 
ATOM     24  C   UNL d   1      -4.565  -3.899   2.076  0.00  0.00     0.031 A 
ATOM     25  C   UNL d   1      -5.160  -6.527   1.449  0.00  0.00     0.021 A 
ATOM     26  S   UNL d   1      -6.450  -5.939  -0.876  0.00  0.00    -0.086 SA
ATOM     27  C   UNL d   1      -4.462  -6.248   2.618  0.00  0.00     0.002 A 
ATOM     28  C   UNL d   1      -4.160  -4.931   2.929  0.00  0.00     0.002 A 
ATOM     29  C   UNL d   1      -7.512  -4.515  -0.927  0.00  0.00     0.033 A 
ATOM     30  C   UNL d   1      -8.800  -4.699  -1.459  0.00  0.00     0.021 A 
ATOM     31  C   UNL d   1      -9.684  -3.630  -1.553  0.00  0.00     0.002 A 
ATOM     32  C   UNL d   1      -9.280  -2.377  -1.115  0.00  0.00     0.002 A 
ATOM     33  C   UNL d   1      -7.994  -2.191  -0.590  0.00  0.00     0.031 A 
ATOM     34  O   UNL d   1      -5.614  -0.772  -0.503  0.00  0.00    -0.272 OA
ENDBRANCH  18  19
ENDBRANCH   1  18
TORSDOF 6
