REMARK  2 active torsions:
REMARK  status: ('A' for Active; 'I' for Inactive)
REMARK    1  A    between atoms: C_8  and  N_1 
REMARK    2  A    between atoms: C_7  and  C_2 
REMARK       I    between atoms: N_10  and  C_7 
ROOT
ATOM      1  N   UNL d   1      -0.261  -1.101   0.117  0.00  0.00    -0.260 N 
ATOM      2  C   UNL d   1      -0.328   1.121  -0.058  0.00  0.00     0.079 C 
ATOM      3  N   UNL d   1       1.011  -0.679   0.339  0.00  0.00    -0.297 N 
ATOM      4  HN  UNL d   1       1.811  -1.247   0.620  1.00  0.00     0.187 HD
ATOM      5  C   UNL d   1      -1.122  -0.022  -0.037  0.00  0.00     0.048 C 
ATOM      6  C   UNL d   1       0.991   0.633   0.113  0.00  0.00     0.040 C 
ATOM      7  C   UNL d   1      -2.610  -0.134  -0.054  0.00  0.00     0.071 C 
ATOM      8  C   UNL d   1       2.279   1.375   0.073  0.00  0.00     0.071 C 
ENDROOT
BRANCH   1   9
ATOM      9  C   UNL d   1      -0.523  -2.499   0.082  0.00  0.00     0.056 A 
ATOM     10  C   UNL d   1       0.318  -3.364   0.800  0.00  0.00     0.031 A 
ATOM     11  C   UNL d   1       0.086  -4.741   0.796  0.00  0.00     0.002 A 
ATOM     12  C   UNL d   1      -0.963  -5.268   0.047  0.00  0.00     0.000 A 
ATOM     13  C   UNL d   1      -1.780  -4.420  -0.700  0.00  0.00     0.002 A 
ATOM     14  C   UNL d   1      -1.566  -3.038  -0.682  0.00  0.00     0.031 A 
ENDBRANCH   1   9
BRANCH   2  15
ATOM     15  C   UNL d   1      -0.803   2.486  -0.222  0.00  0.00     0.253 C 
ATOM     16  O   UNL d   1      -1.829   2.786  -0.823  0.00  0.00    -0.268 OA
ATOM     17  N   UNL d   1      -0.062   3.454   0.398  0.00  0.00    -0.366 N 
ATOM     18  H   UNL d   1       0.587   3.220   1.134  0.00  0.00     0.159 HD
ATOM     19  H   UNL d   1      -0.478   4.375   0.416  0.00  0.00     0.159 HD
ENDBRANCH   2  15
TORSDOF 2
