REMARK  5 active torsions:
REMARK  status: ('A' for Active; 'I' for Inactive)
REMARK    1  A    between atoms: C_8  and  N_1 
REMARK    2  A    between atoms: C_7  and  C_2 
REMARK    3  A    between atoms: N_13  and  C_10 
REMARK    4  A    between atoms: C_12  and  N_13 
REMARK    5  A    between atoms: O_24  and  C_19 
ROOT
ATOM      1  N   UNL d   1      -0.087  -1.357  -0.097  0.00  0.00    -0.225 N 
ATOM      2  C   UNL d   1       1.116  -0.690   0.121  0.00  0.00     0.139 C 
ATOM      3  N   UNL d   1      -0.466   0.747  -0.151  0.00  0.00    -0.007 NA
ATOM      4  N   UNL d   1      -1.028  -0.426  -0.389  0.00  0.00     0.001 NA
ATOM      5  N   UNL d   1       0.854   0.603   0.177  0.00  0.00    -0.270 N 
ATOM      6  HN  UNL d   1       1.507   1.348   0.417  1.00  0.00     0.185 HD
ENDROOT
BRANCH   2   7
ATOM      7  C   UNL d   1       2.368  -1.356   0.115  0.00  0.00     0.068 C 
ATOM      8  C   UNL d   1       3.410  -0.835   0.776  0.00  0.00     0.092 C 
BRANCH   8   9
ATOM      9  N   UNL d   1       4.694  -1.316   0.797  0.00  0.00    -0.363 N 
ATOM     10  H   UNL d   1       4.960  -1.969   0.064  0.00  0.00     0.165 HD
BRANCH   9  11
ATOM     11  C   UNL d   1       5.758  -0.854   1.592  0.00  0.00     0.071 A 
ATOM     12  C   UNL d   1       7.080  -0.995   1.139  0.00  0.00     0.144 A 
ATOM     13  C   UNL d   1       8.166  -0.513   1.865  0.00  0.00     0.068 A 
ATOM     14  F   UNL d   1       7.310  -1.604  -0.036  0.00  0.00    -0.204 F 
ATOM     15  C   UNL d   1       7.936   0.121   3.081  0.00  0.00     0.037 A 
ATOM     16  C   UNL d   1       6.637   0.276   3.562  0.00  0.00     0.026 A 
ATOM     17 CL   UNL d   1       9.261   0.718   4.001  0.00  0.00    -0.084 Cl
ATOM     18  C   UNL d   1       5.554  -0.201   2.816  0.00  0.00     0.034 A 
ENDBRANCH   9  11
ENDBRANCH   8   9
ENDBRANCH   2   7
BRANCH   1  19
ATOM     19  C   UNL d   1      -0.422  -2.732  -0.018  0.00  0.00     0.056 A 
ATOM     20  C   UNL d   1       0.294  -3.607   0.810  0.00  0.00     0.034 A 
ATOM     21  C   UNL d   1      -0.040  -4.965   0.856  0.00  0.00     0.039 A 
ATOM     22  C   UNL d   1      -1.078  -5.462   0.068  0.00  0.00     0.068 A 
ATOM     23  C   UNL d   1      -1.816  -4.579  -0.724  0.00  0.00     0.039 A 
ATOM     24  C   UNL d   1      -1.507  -3.217  -0.757  0.00  0.00     0.034 A 
BRANCH  22  25
ATOM     25  O   UNL d   1      -1.470  -6.769  -0.011  0.00  0.00    -0.356 OA
ATOM     26  C   UNL d   1      -0.692  -7.719   0.707  0.00  0.00     0.210 C 
ENDBRANCH  22  25
ENDBRANCH   1  19
TORSDOF 5
