REMARK  2 active torsions:
REMARK  status: ('A' for Active; 'I' for Inactive)
REMARK    1  A    between atoms: C_6  and  C_3 
REMARK    2  A    between atoms: O_10  and  N_7 
ROOT
ATOM      1  C   UNL d   1       0.829  -1.367  -0.002  0.00  0.00     0.040 A 
ATOM      2  S   UNL d   1       2.674   0.419  -0.005  0.00  0.00    -0.099 SA
ATOM      3  C   UNL d   1       2.204  -1.227   0.009  0.00  0.00     0.023 A 
ATOM      4  C   UNL d   1       0.178  -0.110  -0.016  0.00  0.00     0.018 A 
ATOM      5  C   UNL d   1       1.046   0.952  -0.022  0.00  0.00     0.069 A 
ATOM      6 BR   UNL d   1      -1.702   0.039  -0.024  0.00  0.00    -0.051 Br
ENDROOT
BRANCH   3   7
ATOM      7  C   UNL d   1       3.218  -2.251   0.032  0.00  0.00     0.132 C 
ATOM      8  N   UNL d   1       2.893  -3.506   0.041  0.00  0.00    -0.279 N 
ATOM      9  HN  UNL d   1       1.941  -3.871   0.033  1.00  0.00     0.193 HD
BRANCH   8  10
ATOM     10  O   UNL d   1       4.060  -4.283   0.066  0.00  0.00    -0.290 OA
ATOM     11  H   UNL d   1       3.707  -5.192   0.070  0.00  0.00     0.244 HD
ENDBRANCH   8  10
ENDBRANCH   3   7
TORSDOF 2
