REMARK  5 active torsions:
REMARK  status: ('A' for Active; 'I' for Inactive)
REMARK    1  A    between atoms: C_7  and  C_1 
REMARK    2  A    between atoms: C_13  and  C_2 
REMARK    3  A    between atoms: N_10  and  C_3 
REMARK    4  A    between atoms: C_8  and  C_7 
REMARK    5  A    between atoms: C_19  and  N_10 
ROOT
ATOM      1  C   UNL d   1       0.002   1.300   0.015  0.00  0.00     0.086 C 
ATOM      2  C   UNL d   1       1.318   0.870  -0.050  0.00  0.00     0.066 C 
ATOM      3  C   UNL d   1       0.320  -1.127  -0.012  0.00  0.00     0.150 C 
ATOM      4  N   UNL d   1       1.470  -0.505  -0.087  0.00  0.00    -0.335 N 
ATOM      5  HN  UNL d   1       2.371  -0.977  -0.164  1.00  0.00     0.168 HD
ATOM      6  S   UNL d   1      -1.022  -0.077   0.214  0.00  0.00    -0.048 SA
ENDROOT
BRANCH   1   7
ATOM      7  C   UNL d   1      -0.539   2.642   0.082  0.00  0.00     0.201 C 
ATOM      8  O   UNL d   1       0.001   3.540   0.729  0.00  0.00    -0.286 OA
BRANCH   7   9
ATOM      9  C   UNL d   1      -1.785   3.015  -0.663  0.00  0.00     0.018 A 
ATOM     10  C   UNL d   1      -2.228   2.329  -1.804  0.00  0.00     0.055 A 
ATOM     11  C   UNL d   1      -3.405   2.724  -2.442  0.00  0.00     0.103 A 
ATOM     12  O   UNL d   1      -3.786   1.989  -3.536  0.00  0.00    -0.346 OA
ATOM     13  C   UNL d   1      -4.143   3.809  -1.957  0.00  0.00     0.102 A 
ATOM     14  C   UNL d   1      -4.818   2.645  -4.284  0.00  0.00     0.202 C 
ATOM     15  C   UNL d   1      -5.882   3.215  -3.360  0.00  0.00     0.202 C 
ATOM     16  O   UNL d   1      -5.323   4.226  -2.514  0.00  0.00    -0.346 OA
ATOM     17  C   UNL d   1      -3.680   4.531  -0.863  0.00  0.00     0.040 A 
ATOM     18  C   UNL d   1      -2.507   4.134  -0.217  0.00  0.00     0.018 A 
ENDBRANCH   7   9
ENDBRANCH   1   7
BRANCH   2  19
ATOM     19  C   UNL d   1       2.521   1.696  -0.098  0.00  0.00    -0.008 A 
ATOM     20  C   UNL d   1       3.666   1.253   0.587  0.00  0.00     0.014 A 
ATOM     21  C   UNL d   1       4.854   1.988   0.546  0.00  0.00     0.001 A 
ATOM     22  C   UNL d   1       4.912   3.170  -0.185  0.00  0.00     0.000 A 
ATOM     23  C   UNL d   1       3.789   3.612  -0.880  0.00  0.00     0.001 A 
ATOM     24  C   UNL d   1       2.600   2.876  -0.844  0.00  0.00     0.014 A 
ENDBRANCH   2  19
BRANCH   3  25
ATOM     25  N   UNL d   1       0.151  -2.468  -0.069  0.00  0.00    -0.337 N 
ATOM     26  H   UNL d   1      -0.751  -2.856   0.170  0.00  0.00     0.168 HD
BRANCH  25  27
ATOM     27  C   UNL d   1       1.036  -3.380  -0.681  0.00  0.00     0.034 A 
ATOM     28  C   UNL d   1       1.035  -4.718  -0.264  0.00  0.00     0.029 A 
ATOM     29  C   UNL d   1       1.945  -5.637  -0.797  0.00  0.00     0.002 A 
ATOM     30  C   UNL d   1       2.869  -5.234  -1.758  0.00  0.00     0.000 A 
ATOM     31  C   UNL d   1       2.889  -3.909  -2.180  0.00  0.00     0.002 A 
ATOM     32  C   UNL d   1       1.988  -2.991  -1.636  0.00  0.00     0.029 A 
ENDBRANCH  25  27
ENDBRANCH   3  25
TORSDOF 5
