REMARK  10 active torsions:
REMARK  status: ('A' for Active; 'I' for Inactive)
REMARK    1  A    between atoms: C_8  and  C_1 
REMARK    2  A    between atoms: C_19  and  C_6 
REMARK       I    between atoms: C_9  and  N_10 
REMARK    3  A    between atoms: N_10  and  C_14 
REMARK    4  A    between atoms: C_11  and  C_20 
REMARK       I    between atoms: N_18  and  C_11 
REMARK    5  A    between atoms: C_27  and  N_18 
REMARK    6  A    between atoms: C_20  and  C_19 
REMARK    7  A    between atoms: C_21  and  O_23 
REMARK    8  A    between atoms: C_22  and  C_27 
REMARK    9  A    between atoms: C_30  and  C_22 
REMARK   10  A    between atoms: O_23  and  C_30 
ROOT
ATOM      1  C   UNL d   1       4.307  -3.216  -1.158  0.00  0.00     0.217 C 
ATOM      2  O   UNL d   1       4.577  -3.678  -2.262  0.00  0.00    -0.274 OA
ATOM      3  N   UNL d   1       4.626  -3.839   0.027  0.00  0.00    -0.361 N 
ATOM      4  H   UNL d   1       4.415  -3.378   0.904  0.00  0.00     0.162 HD
ENDROOT
BRANCH   1   5
ATOM      5  C   UNL d   1       3.622  -1.883  -0.978  0.00  0.00     0.111 C 
BRANCH   5   6
ATOM      6  C   UNL d   1       2.714  -1.595  -2.169  0.00  0.00     0.096 C 
BRANCH   6   7
ATOM      7  C   UNL d   1       2.009  -0.305  -2.010  0.00  0.00     0.148 A 
ATOM      8  N   UNL d   1       1.636   0.312  -0.916  0.00  0.00    -0.322 N 
ATOM      9  C   UNL d   1       1.017   1.448  -1.401  0.00  0.00     0.154 A 
ATOM     10  HN  UNL d   1       1.770   0.025   0.054  1.00  0.00     0.169 HD
ATOM     11  N   UNL d   1       1.006   1.518  -2.747  0.00  0.00    -0.241 N 
ATOM     12  O   UNL d   1       1.663   0.356  -3.148  0.00  0.00    -0.223 OA
ATOM     13  HN  UNL d   1       0.610   2.251  -3.335  1.00  0.00     0.196 HD
BRANCH   9  14
ATOM     14  C   UNL d   1       0.446   2.474  -0.524  0.00  0.00     0.078 A 
ATOM     15  N   UNL d   1       0.564   2.273   0.817  0.00  0.00    -0.363 N 
ATOM     16  C   UNL d   1       0.068   3.224   1.636  0.00  0.00     0.088 A 
ATOM     17  HN  UNL d   1       1.010   1.435   1.189  1.00  0.00     0.165 HD
ATOM     18  C   UNL d   1      -0.547   4.381   1.188  0.00  0.00     0.017 A 
ATOM     19  C   UNL d   1      -0.670   4.572  -0.182  0.00  0.00     0.004 A 
ATOM     20  C   UNL d   1      -0.171   3.607  -1.054  0.00  0.00     0.033 A 
ENDBRANCH   9  14
ENDBRANCH   6   7
ENDBRANCH   5   6
ENDBRANCH   1   5
BRANCH   3  21
ATOM     21  C   UNL d   1       5.310  -5.120   0.054  0.00  0.00     0.124 C 
BRANCH  21  22
ATOM     22  C   UNL d   1       6.834  -4.986   0.066  0.00  0.00     0.046 C 
BRANCH  22  23
ATOM     23  C   UNL d   1       7.295  -4.252   1.313  0.00  0.00     0.177 C 
BRANCH  23  24
ATOM     24  O   UNL d   1       8.726  -4.182   1.381  0.00  0.00    -0.351 OA
BRANCH  24  25
ATOM     25  C   UNL d   1       9.200  -3.486   2.470  0.00  0.00     0.070 A 
ATOM     26  C   UNL d   1       8.382  -2.915   3.448  0.00  0.00     0.066 A 
ATOM     27  C   UNL d   1       8.893  -2.169   4.507  0.00  0.00     0.037 A 
ATOM     28  C   UNL d   1      10.280  -2.046   4.618  0.00  0.00     0.029 A 
ATOM     29  C   UNL d   1      11.120  -2.638   3.663  0.00  0.00     0.005 A 
ATOM     30  C   UNL d   1      10.579  -3.344   2.583  0.00  0.00     0.037 A 
BRANCH  27  31
ATOM     31  N   UNL d   1       8.052  -1.526   5.445  0.00  0.00    -0.327 N 
ATOM     32  C   UNL d   1       6.662  -1.520   5.438  0.00  0.00     0.218 C 
ATOM     33  O   UNL d   1       5.919  -2.090   4.644  0.00  0.00    -0.274 OA
ATOM     34  C   UNL d   1       6.048  -0.713   6.549  0.00  0.00     0.117 C 
ATOM     35  H   UNL d   1       8.520  -0.981   6.158  0.00  0.00     0.169 HD
ENDBRANCH  27  31
ENDBRANCH  24  25
ENDBRANCH  23  24
ENDBRANCH  22  23
ENDBRANCH  21  22
ENDBRANCH   3  21
TORSDOF 10
