REMARK  4 active torsions:
REMARK  status: ('A' for Active; 'I' for Inactive)
REMARK    1  A    between atoms: N_5  and  C_1 
REMARK    2  A    between atoms: C_11  and  C_2 
REMARK       I    between atoms: C_8  and  N_5 
REMARK    3  A    between atoms: S_18  and  C_6 
REMARK    4  A    between atoms: C_9  and  C_8 
ROOT
ATOM      1  C   UNL d   1       0.167   1.002   0.537  0.00  0.00     0.138 A 
ATOM      2  C   UNL d   1       1.550   0.615   0.435  0.00  0.00     0.071 A 
ATOM      3  N   UNL d   1      -0.640  -0.062   0.487  0.00  0.00    -0.284 N 
ATOM      4  HN  UNL d   1      -1.656  -0.078   0.579  1.00  0.00     0.188 HD
ATOM      5  C   UNL d   1       1.492  -0.760   0.281  0.00  0.00     0.100 A 
ATOM      6  N   UNL d   1       0.175  -1.095   0.289  0.00  0.00    -0.292 N 
ATOM      7  H   UNL d   1      -0.224  -2.020   0.180  0.00  0.00     0.187 HD
ENDROOT
BRANCH   1   8
ATOM      8  N   UNL d   1      -0.334   2.289   0.585  0.00  0.00    -0.306 N 
ATOM      9  C   UNL d   1      -1.661   2.590   0.851  0.00  0.00     0.264 C 
ATOM     10  O   UNL d   1      -2.430   1.858   1.470  0.00  0.00    -0.267 OA
ATOM     11  H   UNL d   1       0.267   3.030   0.255  0.00  0.00     0.170 HD
BRANCH   9  12
ATOM     12  C   UNL d   1      -2.109   3.899   0.375  0.00  0.00     0.072 A 
ATOM     13  S   UNL d   1      -1.104   4.962  -0.518  0.00  0.00    -0.097 SA
ATOM     14  C   UNL d   1      -2.372   6.089  -0.738  0.00  0.00     0.050 A 
ATOM     15  C   UNL d   1      -3.534   5.688  -0.119  0.00  0.00     0.009 A 
ATOM     16  C   UNL d   1      -3.379   4.431   0.530  0.00  0.00     0.025 A 
ENDBRANCH   9  12
ENDBRANCH   1   8
BRANCH   2  17
ATOM     17  C   UNL d   1       2.781   1.397   0.508  0.00  0.00     0.049 A 
ATOM     18  N   UNL d   1       3.847   0.910  -0.173  0.00  0.00    -0.365 N 
ATOM     19  C   UNL d   1       5.025   1.562  -0.068  0.00  0.00     0.088 A 
ATOM     20  HN  UNL d   1       3.762   0.073  -0.750  1.00  0.00     0.165 HD
ATOM     21  C   UNL d   1       5.198   2.714   0.674  0.00  0.00     0.017 A 
ATOM     22  C   UNL d   1       4.097   3.222   1.352  0.00  0.00     0.004 A 
ATOM     23  C   UNL d   1       2.874   2.554   1.277  0.00  0.00     0.030 A 
ENDBRANCH   2  17
BRANCH   5  24
ATOM     24  S   UNL d   1       2.615  -2.068   0.092  0.00  0.00    -0.114 SA
ATOM     25  C   UNL d   1       3.458  -2.023   1.686  0.00  0.00     0.097 C 
ENDBRANCH   5  24
TORSDOF 4
