REMARK  5 active torsions:
REMARK  status: ('A' for Active; 'I' for Inactive)
REMARK    1  A    between atoms: C_10  and  C_1 
REMARK    2  A    between atoms: O_15  and  C_9 
REMARK    3  A    between atoms: O_19  and  C_10 
REMARK    4  A    between atoms: C_18  and  O_15 
REMARK    5  A    between atoms: C_24  and  O_19 
ROOT
ATOM      1  N   UNL d   1       5.478  -6.731   2.930  0.00  0.00    -0.191 NA
ATOM      2  C   UNL d   1       5.072  -5.779   2.410  0.00  0.00     0.099 C 
ATOM      3  C   UNL d   1       4.578  -4.587   1.782  0.00  0.00     0.044 A 
ATOM      4  C   UNL d   1       3.664  -2.233   0.605  0.00  0.00     0.077 A 
ATOM      5  C   UNL d   1       5.167  -4.117   0.601  0.00  0.00     0.025 A 
ATOM      6  C   UNL d   1       3.525  -3.875   2.366  0.00  0.00     0.025 A 
ATOM      7  C   UNL d   1       4.712  -2.934   0.011  0.00  0.00     0.039 A 
ATOM      8  C   UNL d   1       3.073  -2.690   1.784  0.00  0.00     0.039 A 
ENDROOT
BRANCH   4   9
ATOM      9  O   UNL d   1       3.338  -0.980   0.049  0.00  0.00    -0.293 OA
BRANCH   9  10
ATOM     10  C   UNL d   1       2.016  -0.567   0.005  0.00  0.00     0.163 A 
ATOM     11  N   UNL d   1       1.001  -1.364   0.062  0.00  0.00    -0.272 N 
ATOM     12  N   UNL d   1      -0.176  -0.686   0.044  0.00  0.00    -0.247 N 
ATOM     13  HN  UNL d   1       1.074  -2.380   0.114  1.00  0.00     0.189 HD
ATOM     14  C   UNL d   1      -1.414  -1.256   0.066  0.00  0.00     0.154 A 
ATOM     15  C   UNL d   1      -0.360   0.687  -0.002  0.00  0.00     0.127 A 
ATOM     16  C   UNL d   1      -2.316  -0.210   0.028  0.00  0.00     0.127 A 
ATOM     17  N   UNL d   1      -1.636   1.002   0.009  0.00  0.00    -0.335 N 
ATOM     18  HN  UNL d   1      -2.042   1.938   0.004  1.00  0.00     0.168 HD
ATOM     19  C   UNL d   1       0.797   1.495  -0.076  0.00  0.00     0.054 A 
ATOM     20  C   UNL d   1       2.002   0.910  -0.099  0.00  0.00     0.061 A 
BRANCH  16  21
ATOM     21  C   UNL d   1      -3.767  -0.342  -0.069  0.00  0.00     0.311 C 
ATOM     22  O   UNL d   1      -4.339  -1.424  -0.135  0.00  0.00    -0.258 OA
BRANCH  21  23
ATOM     23  O   UNL d   1      -4.386   0.870  -0.175  0.00  0.00    -0.317 OA
BRANCH  23  24
ATOM     24  C   UNL d   1      -5.710   0.839  -0.716  0.00  0.00     0.175 C 
ATOM     25  C   UNL d   1      -5.604   0.927  -2.228  0.00  0.00     0.034 C 
ENDBRANCH  23  24
ENDBRANCH  21  23
ENDBRANCH  16  21
ENDBRANCH   9  10
ENDBRANCH   4   9
TORSDOF 5
