REMARK  1 active torsions:
REMARK  status: ('A' for Active; 'I' for Inactive)
REMARK    1  A    between atoms: C_7  and  N_1 
ROOT
ATOM      1  N   UNL d   1       2.437  -0.602  -0.027  0.00  0.00    -0.254 N 
ATOM      2  C   UNL d   1       2.400   0.799   0.007  0.00  0.00     0.186 A 
ATOM      3  C   UNL d   1       1.276  -1.405  -0.019  0.00  0.00     0.267 A 
ATOM      4  C   UNL d   1      -0.022  -0.712   0.004  0.00  0.00     0.059 A 
ATOM      5  N   UNL d   1       1.158   1.381   0.054  0.00  0.00    -0.332 N 
ATOM      6  C   UNL d   1      -0.040   0.675   0.028  0.00  0.00     0.050 A 
ATOM      7  S   UNL d   1       3.691   1.876  -0.079  0.00  0.00    -0.040 SA
ATOM      8  O   UNL d   1       1.263  -2.638  -0.011  0.00  0.00    -0.267 OA
ATOM      9  C   UNL d   1      -1.225  -1.430  -0.015  0.00  0.00     0.019 A 
ATOM     10  C   UNL d   1      -1.254   1.362   0.011  0.00  0.00     0.030 A 
ATOM     11  C   UNL d   1      -2.440  -0.746  -0.038  0.00  0.00     0.001 A 
ATOM     12  C   UNL d   1      -2.454   0.649  -0.033  0.00  0.00     0.002 A 
ATOM     13  H   UNL d   1       1.142   2.396   0.056  0.00  0.00     0.168 HD
ENDROOT
BRANCH   1  14
ATOM     14  C   UNL d   1       3.680  -1.311  -0.075  0.00  0.00     0.045 A 
ATOM     15  C   UNL d   1       3.944  -2.172  -1.149  0.00  0.00     0.031 A 
ATOM     16  C   UNL d   1       5.104  -2.947  -1.167  0.00  0.00     0.009 A 
ATOM     17  C   UNL d   1       6.009  -2.891  -0.101  0.00  0.00    -0.062 A 
ATOM     18  C   UNL d   1       5.758  -2.014   0.961  0.00  0.00     0.009 A 
ATOM     19  C   UNL d   1       7.196  -3.807  -0.087  0.00  0.00     0.048 C 
ATOM     20  C   UNL d   1       4.603  -1.225   0.973  0.00  0.00     0.031 A 
ENDBRANCH   1  14
TORSDOF 1
