REMARK  5 active torsions:
REMARK  status: ('A' for Active; 'I' for Inactive)
REMARK    1  A    between atoms: C_23  and  N_1 
REMARK    2  A    between atoms: S_2  and  N_13 
REMARK    3  A    between atoms: C_7  and  S_2 
REMARK    4  A    between atoms: C_18  and  C_8 
REMARK    5  A    between atoms: N_13  and  C_18 
ROOT
ATOM      1  N   UNL d   1       3.448   0.814  -0.009  0.00  0.00    -0.209 NA
ATOM      2  H   UNL d   1       3.483  -0.002   0.608  0.00  0.00     0.140 HD
ENDROOT
BRANCH   1   3
ATOM      3  S   UNL d   1       4.859   1.721   0.030  0.00  0.00     0.248 S 
ATOM      4  O   UNL d   1       5.971   0.815  -0.136  0.00  0.00    -0.205 OA
ATOM      5  O   UNL d   1       4.670   2.881  -0.810  0.00  0.00    -0.205 OA
BRANCH   3   6
ATOM      6  C   UNL d   1       5.025   2.378   1.673  0.00  0.00     0.116 A 
ATOM      7  S   UNL d   1       5.068   1.226   2.929  0.00  0.00    -0.074 SA
ATOM      8  C   UNL d   1       5.203   2.432   4.138  0.00  0.00     0.042 A 
ATOM      9  C   UNL d   1       5.293   2.098   5.534  0.00  0.00     0.117 A 
ATOM     10  C   UNL d   1       5.204   3.698   3.583  0.00  0.00     0.024 A 
ATOM     11  O   UNL d   1       5.374   3.053   6.517  0.00  0.00    -0.237 OA
ATOM     12  C   UNL d   1       5.311   0.864   6.152  0.00  0.00     0.059 A 
ATOM     13  N   UNL d   1       5.438   2.455   7.763  0.00  0.00    -0.272 N 
ATOM     14  C   UNL d   1       5.399   1.143   7.525  0.00  0.00     0.117 A 
ATOM     15  HN  UNL d   1       5.501   2.918   8.670  1.00  0.00     0.194 HD
ATOM     16  C   UNL d   1       5.101   3.667   2.160  0.00  0.00     0.034 A 
ENDBRANCH   3   6
ENDBRANCH   1   3
BRANCH   1  17
ATOM     17  C   UNL d   1       2.202   1.579   0.132  0.00  0.00     0.165 C 
BRANCH  17  18
ATOM     18  C   UNL d   1       1.059   0.624   0.072  0.00  0.00     0.065 A 
ATOM     19  N   UNL d   1       0.953  -0.403   0.928  0.00  0.00    -0.280 N 
ATOM     20  N   UNL d   1      -0.178  -1.032   0.489  0.00  0.00    -0.197 N 
ATOM     21  HN  UNL d   1       1.561  -0.651   1.709  1.00  0.00     0.189 HD
ATOM     22  N   UNL d   1      -0.808  -0.445  -0.565  0.00  0.00    -0.282 N 
ATOM     23  C   UNL d   1      -0.035   0.616  -0.818  0.00  0.00     0.049 A 
ATOM     24  HN  UNL d   1      -1.659  -0.741  -1.043  1.00  0.00     0.189 HD
ATOM     25  C   UNL d   1      -0.356   1.583  -1.890  0.00  0.00     0.072 C 
BRANCH  20  26
ATOM     26  C   UNL d   1      -0.662  -2.218   1.101  0.00  0.00     0.074 A 
ATOM     27  C   UNL d   1      -0.069  -2.687   2.284  0.00  0.00     0.033 A 
ATOM     28  C   UNL d   1      -0.539  -3.855   2.885  0.00  0.00     0.002 A 
ATOM     29  C   UNL d   1      -1.588  -4.568   2.305  0.00  0.00     0.000 A 
ATOM     30  C   UNL d   1      -2.179  -4.108   1.128  0.00  0.00     0.002 A 
ATOM     31  C   UNL d   1      -1.726  -2.929   0.528  0.00  0.00     0.033 A 
ENDBRANCH  20  26
ENDBRANCH  17  18
ENDBRANCH   1  17
TORSDOF 5
