REMARK  3 active torsions:
REMARK  status: ('A' for Active; 'I' for Inactive)
REMARK       I    between atoms: N_6  and  C_1 
REMARK    1  A    between atoms: O_12  and  C_1 
REMARK    2  A    between atoms: C_7  and  N_6 
REMARK    3  A    between atoms: C_15  and  O_12 
ROOT
ATOM      1  C   UNL d   1       3.342  -2.295  -0.534  0.00  0.00    -0.091 C 
ATOM      2  C   UNL d   1       3.771  -3.223  -1.170  0.00  0.00     0.014 C 
ATOM      3  C   UNL d   1       2.856  -1.191   0.301  0.00  0.00     0.273 C 
ENDROOT
BRANCH   3   4
ATOM      4  O   UNL d   1       2.183  -0.209  -0.495  0.00  0.00    -0.292 OA
BRANCH   4   5
ATOM      5  C   UNL d   1       0.861  -0.043  -0.263  0.00  0.00     0.366 C 
ATOM      6  N   UNL d   1       0.300   1.079  -0.822  0.00  0.00    -0.303 N 
ATOM      7  H   UNL d   1      -0.666   1.175  -0.534  0.00  0.00     0.171 HD
ATOM      8  O   UNL d   1       0.179  -0.775   0.446  0.00  0.00    -0.238 OA
BRANCH   6   9
ATOM      9  C   UNL d   1       0.892   2.181  -1.468  0.00  0.00     0.038 A 
ATOM     10  C   UNL d   1       2.195   2.202  -1.968  0.00  0.00     0.055 A 
ATOM     11  C   UNL d   1       2.757   3.392  -2.451  0.00  0.00     0.058 A 
ATOM     12 CL   UNL d   1       4.399   3.340  -2.992  0.00  0.00    -0.082 Cl
ATOM     13  C   UNL d   1       2.003   4.568  -2.464  0.00  0.00     0.055 A 
ATOM     14  C   UNL d   1       0.675   4.537  -2.039  0.00  0.00     0.028 A 
ATOM     15 CL   UNL d   1       2.655   6.085  -2.970  0.00  0.00    -0.083 Cl
ATOM     16  C   UNL d   1       0.120   3.348  -1.556  0.00  0.00     0.031 A 
ENDBRANCH   6   9
ENDBRANCH   4   5
ENDBRANCH   3   4
TORSDOF 3
