REMARK  3 active torsions:
REMARK  status: ('A' for Active; 'I' for Inactive)
REMARK    1  A    between atoms: C_2  and  S_1 
REMARK    2  A    between atoms: N_3  and  S_1 
REMARK    3  A    between atoms: C_6  and  N_3 
ROOT
ATOM      1  N   UNL d   1       4.160  -2.859  -1.061  0.00  0.00    -0.191 NA
ATOM      2  C   UNL d   1       0.962  -1.710  -2.184  0.00  0.00     0.063 A 
ATOM      3  C   UNL d   1       3.278  -2.511  -1.732  0.00  0.00     0.102 C 
ATOM      4  C   UNL d   1       2.220  -2.146  -2.631  0.00  0.00     0.071 A 
ATOM      5  C   UNL d   1       2.436  -2.321  -4.010  0.00  0.00     0.025 A 
ATOM      6  C   UNL d   1      -0.045  -1.434  -3.118  0.00  0.00     0.031 A 
ATOM      7  C   UNL d   1       1.421  -2.055  -4.931  0.00  0.00     0.002 A 
ATOM      8  C   UNL d   1       0.184  -1.605  -4.484  0.00  0.00     0.002 A 
ENDROOT
BRANCH   2   9
ATOM      9  N   UNL d   1       0.645  -1.557  -0.797  0.00  0.00    -0.279 N 
ATOM     10  H   UNL d   1      -0.271  -1.902  -0.505  0.00  0.00     0.179 HD
BRANCH   9  11
ATOM     11  S   UNL d   1       0.997  -0.092  -0.031  0.00  0.00     0.269 S 
ATOM     12  O   UNL d   1       0.465  -0.189   1.310  0.00  0.00    -0.200 OA
ATOM     13  O   UNL d   1       2.380   0.251  -0.286  0.00  0.00    -0.200 OA
BRANCH  11  14
ATOM     14  C   UNL d   1       0.071   1.230  -0.792  0.00  0.00     0.120 A 
ATOM     15  S   UNL d   1      -1.634   1.080  -0.807  0.00  0.00    -0.088 SA
ATOM     16  C   UNL d   1      -1.824   2.581  -1.612  0.00  0.00     0.051 A 
ATOM     17  C   UNL d   1      -0.615   3.200  -1.842  0.00  0.00     0.009 A 
ATOM     18  C   UNL d   1       0.478   2.421  -1.365  0.00  0.00     0.033 A 
ENDBRANCH  11  14
ENDBRANCH   9  11
ENDBRANCH   2   9
TORSDOF 3
