REMARK  3 active torsions:
REMARK  status: ('A' for Active; 'I' for Inactive)
REMARK    1  A    between atoms: C_2  and  C_1 
REMARK       I    between atoms: N_5  and  C_2 
REMARK    2  A    between atoms: C_3  and  C_4 
REMARK    3  A    between atoms: C_12  and  N_5 
ROOT
ATOM      1  C   UNL d   1       0.724   1.227  -0.057  0.00  0.00     0.062 A 
ATOM      2  C   UNL d   1      -0.418   0.699   0.564  0.00  0.00     0.066 A 
ATOM      3  N   UNL d   1       1.115  -0.925  -1.157  0.00  0.00    -0.374 N 
ATOM      4  HN  UNL d   1       1.686  -1.507  -1.769  1.00  0.00     0.164 HD
ATOM      5  C   UNL d   1       1.453   0.359  -0.879  0.00  0.00     0.105 A 
ATOM      6  C   UNL d   1      -0.789  -0.632   0.262  0.00  0.00     0.034 A 
ATOM      7  C   UNL d   1      -0.006  -1.392  -0.588  0.00  0.00     0.088 A 
ENDROOT
BRANCH   1   8
ATOM      8  C   UNL d   1       1.287   2.611   0.015  0.00  0.00     0.258 C 
ATOM      9  N   UNL d   1       0.400   3.666   0.125  0.00  0.00    -0.323 N 
ATOM     10  H   UNL d   1      -0.545   3.482   0.430  0.00  0.00     0.169 HD
ATOM     11  O   UNL d   1       2.503   2.723  -0.086  0.00  0.00    -0.267 OA
BRANCH   9  12
ATOM     12  C   UNL d   1       0.699   5.036  -0.054  0.00  0.00     0.035 A 
ATOM     13  C   UNL d   1       1.873   5.502  -0.654  0.00  0.00     0.031 A 
ATOM     14  C   UNL d   1       2.066   6.872  -0.871  0.00  0.00     0.026 A 
ATOM     15  C   UNL d   1       1.091   7.783  -0.478  0.00  0.00     0.034 A 
ATOM     16  C   UNL d   1      -0.075   7.337   0.138  0.00  0.00     0.026 A 
ATOM     17 CL   UNL d   1       1.318   9.463  -0.768  0.00  0.00    -0.084 Cl
ATOM     18  C   UNL d   1      -0.272   5.966   0.343  0.00  0.00     0.031 A 
ENDBRANCH   9  12
ENDBRANCH   1   8
BRANCH   2  19
ATOM     19  C   UNL d   1      -1.292   1.413   1.550  0.00  0.00     0.418 C 
ATOM     20  F   UNL d   1      -0.789   2.580   2.027  0.00  0.00    -0.166 F 
ATOM     21  F   UNL d   1      -2.497   1.740   1.005  0.00  0.00    -0.166 F 
ATOM     22  F   UNL d   1      -1.571   0.659   2.647  0.00  0.00    -0.166 F 
ENDBRANCH   2  19
TORSDOF 3
