REMARK  8 active torsions:
REMARK  status: ('A' for Active; 'I' for Inactive)
REMARK    1  A    between atoms: C_2  and  C_1 
REMARK    2  A    between atoms: C_15  and  C_1 
REMARK    3  A    between atoms: C_3  and  C_5 
REMARK    4  A    between atoms: C_4  and  C_6 
REMARK    5  A    between atoms: O_14  and  N_7 
REMARK    6  A    between atoms: C_9  and  C_10 
REMARK    7  A    between atoms: C_10  and  O_14 
REMARK    8  A    between atoms: C_26  and  C_15 
ROOT
ATOM      1  C   UNL d   1      -1.665   1.945  -1.242  0.00  0.00     0.315 C 
ATOM      2  O   UNL d   1      -1.053   2.866  -1.771  0.00  0.00    -0.257 OA
ENDROOT
BRANCH   1   3
ATOM      3  C   UNL d   1      -3.150   1.827  -1.351  0.00  0.00     0.043 A 
ATOM      4  C   UNL d   1      -3.824   2.826  -2.075  0.00  0.00     0.034 A 
ATOM      5  C   UNL d   1      -5.217   2.788  -2.252  0.00  0.00     0.049 A 
ATOM      6  C   UNL d   1      -5.939   1.728  -1.686  0.00  0.00     0.032 A 
ATOM      7  C   UNL d   1      -5.289   0.711  -0.965  0.00  0.00     0.049 A 
ATOM      8  C   UNL d   1      -3.890   0.770  -0.798  0.00  0.00     0.034 A 
BRANCH   5   9
ATOM      9  C   UNL d   1      -5.905   3.869  -3.055  0.00  0.00     0.417 C 
ATOM     10  F   UNL d   1      -7.252   3.694  -3.152  0.00  0.00    -0.166 F 
ATOM     11  F   UNL d   1      -5.726   5.107  -2.522  0.00  0.00    -0.166 F 
ATOM     12  F   UNL d   1      -5.444   3.936  -4.334  0.00  0.00    -0.166 F 
ENDBRANCH   5   9
BRANCH   7  13
ATOM     13  C   UNL d   1      -6.079  -0.448  -0.394  0.00  0.00     0.417 C 
ATOM     14  F   UNL d   1      -7.415  -0.368  -0.645  0.00  0.00    -0.166 F 
ATOM     15  F   UNL d   1      -5.675  -1.644  -0.899  0.00  0.00    -0.166 F 
ATOM     16  F   UNL d   1      -5.957  -0.544   0.957  0.00  0.00    -0.166 F 
ENDBRANCH   7  13
ENDBRANCH   1   3
BRANCH   1  17
ATOM     17  O   UNL d   1      -1.129   0.912  -0.522  0.00  0.00    -0.195 OA
BRANCH  17  18
ATOM     18  N   UNL d   1       0.283   0.979  -0.574  0.00  0.00    -0.256 N 
ATOM     19  C   UNL d   1       0.843  -0.017   0.058  0.00  0.00     0.120 C 
ATOM     20  HN  UNL d   1       0.802   1.718  -1.048  1.00  0.00     0.194 HD
BRANCH  19  21
ATOM     21  C   UNL d   1       0.093  -1.101   0.805  0.00  0.00     0.430 C 
ATOM     22  F   UNL d   1       0.909  -2.050   1.339  0.00  0.00    -0.165 F 
ATOM     23  F   UNL d   1      -0.653  -0.611   1.832  0.00  0.00    -0.165 F 
ATOM     24  F   UNL d   1      -0.773  -1.769  -0.009  0.00  0.00    -0.165 F 
ENDBRANCH  19  21
BRANCH  19  25
ATOM     25  C   UNL d   1       2.350  -0.144  -0.010  0.00  0.00     0.102 C 
BRANCH  25  26
ATOM     26  C   UNL d   1       3.117   0.516   1.110  0.00  0.00    -0.052 A 
ATOM     27  C   UNL d   1       3.943  -0.247   1.950  0.00  0.00     0.007 A 
ATOM     28  C   UNL d   1       4.786   0.375   2.877  0.00  0.00     0.001 A 
ATOM     29  C   UNL d   1       4.806   1.764   2.982  0.00  0.00     0.000 A 
ATOM     30  C   UNL d   1       3.967   2.530   2.176  0.00  0.00     0.001 A 
ATOM     31  C   UNL d   1       3.124   1.911   1.248  0.00  0.00     0.007 A 
ENDBRANCH  25  26
ENDBRANCH  19  25
ENDBRANCH  17  18
ENDBRANCH   1  17
TORSDOF 8
