REMARK  2 active torsions:
REMARK  status: ('A' for Active; 'I' for Inactive)
REMARK    1  A    between atoms: C_13  and  N_3 
REMARK    2  A    between atoms: C_14  and  C_13 
ROOT
ATOM      1  C   UNL d   1       0.269   0.550  -0.026  0.00  0.00     0.133 A 
ATOM      2  C   UNL d   1       0.251  -0.785  -0.046  0.00  0.00     0.120 A 
ATOM      3  N   UNL d   1       1.555   1.068  -0.018  0.00  0.00    -0.314 N 
ATOM      4  C   UNL d   1       2.563   0.095  -0.029  0.00  0.00     0.147 A 
ATOM      5  S   UNL d   1       1.795  -1.513  -0.060  0.00  0.00    -0.051 SA
ATOM      6  N   UNL d   1      -0.843   1.347  -0.005  0.00  0.00    -0.337 N 
ATOM      7  HN  UNL d   1      -0.781   2.365   0.012  1.00  0.00     0.168 HD
ATOM      8  C   UNL d   1      -1.037  -1.485  -0.032  0.00  0.00     0.267 A 
ATOM      9  N   UNL d   1      -2.115  -0.635  -0.022  0.00  0.00    -0.318 N 
ATOM     10  C   UNL d   1      -1.978   0.727  -0.008  0.00  0.00     0.185 A 
ATOM     11  S   UNL d   1       4.217   0.296  -0.006  0.00  0.00    -0.052 SA
ATOM     12  O   UNL d   1      -1.167  -2.702  -0.025  0.00  0.00    -0.267 OA
ATOM     13  H   UNL d   1      -3.027  -1.069  -0.012  0.00  0.00     0.169 HD
ENDROOT
BRANCH   3  14
ATOM     14  C   UNL d   1       1.801   2.506   0.056  0.00  0.00     0.158 C 
BRANCH  14  15
ATOM     15  C   UNL d   1       2.016   3.151  -1.288  0.00  0.00    -0.017 C 
ATOM     16  C   UNL d   1       1.905   2.611  -2.510  0.00  0.00     0.008 C 
ENDBRANCH  14  15
ENDBRANCH   3  14
TORSDOF 2
