REMARK  2 active torsions:
REMARK  status: ('A' for Active; 'I' for Inactive)
REMARK    1  A    between atoms: C_8  and  N_1 
REMARK    2  A    between atoms: C_2  and  C_9 
ROOT
ATOM      1  C   UNL d   1       0.337   0.100  -1.174  0.00  0.00     0.103 A 
ATOM      2  C   UNL d   1       0.083  -0.622  -3.483  0.00  0.00     0.019 A 
ATOM      3  C   UNL d   1       0.782  -0.660  -2.267  0.00  0.00     0.052 A 
ATOM      4  C   UNL d   1      -0.806   0.900  -1.277  0.00  0.00     0.036 A 
ATOM      5  C   UNL d   1      -1.063   0.187  -3.575  0.00  0.00     0.016 A 
ATOM      6  C   UNL d   1      -1.505   0.940  -2.483  0.00  0.00     0.003 A 
ENDROOT
BRANCH   2   7
ATOM      7  C   UNL d   1       0.520  -1.396  -4.638  0.00  0.00     0.173 A 
ATOM      8  N   UNL d   1       0.017  -1.473  -5.854  0.00  0.00    -0.278 N 
ATOM      9  N   UNL d   1       0.816  -2.355  -6.555  0.00  0.00    -0.288 N 
ATOM     10  HN  UNL d   1      -0.802  -0.979  -6.207  1.00  0.00     0.189 HD
ATOM     11  C   UNL d   1       1.743  -2.748  -5.716  0.00  0.00     0.251 A 
ATOM     12  HN  UNL d   1       0.707  -2.641  -7.528  1.00  0.00     0.188 HD
ATOM     13  O   UNL d   1       1.630  -2.189  -4.481  0.00  0.00    -0.286 OA
ENDBRANCH   2   7
BRANCH   1  14
ATOM     14  N   UNL d   1       1.084   0.052   0.090  0.00  0.00    -0.116 N 
ATOM     15  O   UNL d   1       2.093  -0.666   0.135  0.00  0.00    -0.532 OA
ATOM     16  O   UNL d   1       0.661   0.733   1.034  0.00  0.00    -0.532 OA
ENDBRANCH   1  14
TORSDOF 2
