REMARK  5 active torsions:
REMARK  status: ('A' for Active; 'I' for Inactive)
REMARK    1  A    between atoms: C_2  and  C_1 
REMARK    2  A    between atoms: N_19  and  C_4 
REMARK    3  A    between atoms: S_16  and  C_10 
REMARK    4  A    between atoms: C_21  and  S_16 
REMARK    5  A    between atoms: C_23  and  C_21 
ROOT
ATOM      1  C   UNL d   1       3.962   0.108   0.013  0.00  0.00     0.143 A 
ATOM      2  N   UNL d   1       4.628   0.642   1.096  0.00  0.00    -0.315 N 
ATOM      3  N   UNL d   1       4.860  -0.412  -0.809  0.00  0.00    -0.282 N 
ATOM      4  HN  UNL d   1       4.656  -0.940  -1.658  1.00  0.00     0.188 HD
ATOM      5  C   UNL d   1       5.962   0.533   0.799  0.00  0.00     0.162 A 
ATOM      6  N   UNL d   1       6.114  -0.122  -0.326  0.00  0.00    -0.278 N 
ATOM      7  HN  UNL d   1       7.001  -0.371  -0.764  1.00  0.00     0.189 HD
ATOM      8  C   UNL d   1       4.067   1.176   2.312  0.00  0.00     0.160 C 
ENDROOT
BRANCH   1   9
ATOM      9  C   UNL d   1       2.547   0.107  -0.257  0.00  0.00     0.079 A 
ATOM     10  C   UNL d   1       1.782  -0.902  -0.837  0.00  0.00     0.060 A 
ATOM     11  C   UNL d   1       0.395  -0.523  -1.058  0.00  0.00     0.031 A 
ATOM     12  C   UNL d   1      -0.747  -1.133  -1.660  0.00  0.00    -0.045 A 
ATOM     13  C   UNL d   1       0.191   0.757  -0.540  0.00  0.00     0.088 A 
ATOM     14  C   UNL d   1      -1.960  -0.411  -1.620  0.00  0.00     0.032 A 
ATOM     15  C   UNL d   1      -0.800  -2.462  -2.368  0.00  0.00     0.049 C 
ATOM     16  C   UNL d   1      -2.021   0.843  -1.030  0.00  0.00     0.006 A 
ATOM     17  N   UNL d   1      -0.960   1.454  -0.487  0.00  0.00    -0.354 N 
ATOM     18  C   UNL d   1      -3.320   1.595  -1.000  0.00  0.00     0.068 C 
ATOM     19  HN  UNL d   1      -1.019   2.381  -0.065  1.00  0.00     0.166 HD
ATOM     20  S   UNL d   1       1.599   1.497   0.045  0.00  0.00    -0.065 SA
BRANCH  10  21
ATOM     21  N   UNL d   1       2.318  -2.107  -1.134  0.00  0.00    -0.397 N 
ATOM     22  H   UNL d   1       3.327  -2.262  -1.080  0.00  0.00     0.156 HD
ATOM     23  H   UNL d   1       1.817  -2.881  -1.546  0.00  0.00     0.156 HD
ENDBRANCH  10  21
ENDBRANCH   1   9
BRANCH   5  24
ATOM     24  S   UNL d   1       7.225   1.174   1.795  0.00  0.00    -0.088 SA
BRANCH  24  25
ATOM     25  C   UNL d   1       8.534   1.437   0.556  0.00  0.00     0.121 C 
BRANCH  25  26
ATOM     26  C   UNL d   1       9.802   1.968   1.190  0.00  0.00    -0.048 A 
ATOM     27  C   UNL d   1      10.839   1.093   1.552  0.00  0.00     0.009 A 
ATOM     28  C   UNL d   1      12.005   1.579   2.149  0.00  0.00     0.024 A 
ATOM     29  C   UNL d   1      12.142   2.943   2.394  0.00  0.00     0.034 A 
ATOM     30  C   UNL d   1      11.125   3.826   2.042  0.00  0.00     0.024 A 
ATOM     31 CL   UNL d   1      13.573   3.540   3.140  0.00  0.00    -0.084 Cl
ATOM     32  C   UNL d   1       9.958   3.341   1.442  0.00  0.00     0.009 A 
ENDBRANCH  25  26
ENDBRANCH  24  25
ENDBRANCH   5  24
TORSDOF 5
