REMARK  6 active torsions:
REMARK  status: ('A' for Active; 'I' for Inactive)
REMARK    1  A    between atoms: C_4  and  N_1 
REMARK       I    between atoms: C_2  and  N_5 
REMARK    2  A    between atoms: C_10  and  C_2 
REMARK    3  A    between atoms: O_19  and  C_3 
REMARK    4  A    between atoms: N_5  and  C_15 
REMARK    5  A    between atoms: O_20  and  C_6 
REMARK    6  A    between atoms: C_9  and  C_10 
ROOT
ATOM      1  C   UNL d   1      -6.060   0.761  -4.772  0.00  0.00     0.226 C 
ATOM      2  N   UNL d   1      -5.910   0.100  -3.561  0.00  0.00    -0.327 N 
ATOM      3  O   UNL d   1      -5.211   1.443  -5.337  0.00  0.00    -0.273 OA
ATOM      4  H   UNL d   1      -6.639  -0.547  -3.288  0.00  0.00     0.169 HD
ENDROOT
BRANCH   2   5
ATOM      5  C   UNL d   1      -4.764   0.131  -2.738  0.00  0.00     0.034 A 
ATOM      6  C   UNL d   1      -3.737   1.054  -2.899  0.00  0.00     0.032 A 
ATOM      7  C   UNL d   1      -2.578   0.981  -2.116  0.00  0.00     0.031 A 
ATOM      8  C   UNL d   1      -2.408  -0.006  -1.141  0.00  0.00     0.030 A 
ATOM      9  C   UNL d   1      -3.483  -0.883  -0.940  0.00  0.00     0.031 A 
ATOM     10  C   UNL d   1      -4.649  -0.819  -1.721  0.00  0.00     0.032 A 
BRANCH   8  11
ATOM     11  N   UNL d   1      -1.217  -0.180  -0.449  0.00  0.00    -0.377 N 
ATOM     12  C   UNL d   1       0.058   0.324  -0.994  0.00  0.00     0.149 C 
ATOM     13  C   UNL d   1       0.449   1.653  -0.335  0.00  0.00     0.187 C 
ATOM     14  O   UNL d   1       0.514   1.519   1.094  0.00  0.00    -0.388 OA
ATOM     15  C   UNL d   1      -0.767   1.124   1.614  0.00  0.00     0.187 C 
ATOM     16  C   UNL d   1      -1.244  -0.219   1.026  0.00  0.00     0.149 C 
ENDBRANCH   8  11
ENDBRANCH   2   5
BRANCH   1  17
ATOM     17  C   UNL d   1      -7.428   0.567  -5.405  0.00  0.00     0.141 C 
BRANCH  17  18
ATOM     18  C   UNL d   1      -8.379   1.698  -5.098  0.00  0.00    -0.047 A 
ATOM     19  C   UNL d   1      -9.603   1.445  -4.459  0.00  0.00     0.047 A 
ATOM     20  C   UNL d   1     -10.517   2.478  -4.193  0.00  0.00     0.102 A 
ATOM     21  C   UNL d   1     -10.179   3.794  -4.557  0.00  0.00     0.101 A 
ATOM     22  C   UNL d   1      -8.966   4.042  -5.208  0.00  0.00     0.040 A 
ATOM     23  C   UNL d   1      -8.072   3.008  -5.477  0.00  0.00     0.010 A 
BRANCH  20  24
ATOM     24  O   UNL d   1     -11.744   2.265  -3.622  0.00  0.00    -0.353 OA
ATOM     25  C   UNL d   1     -12.117   0.929  -3.314  0.00  0.00     0.210 C 
ENDBRANCH  20  24
BRANCH  21  26
ATOM     26  O   UNL d   1     -10.941   4.924  -4.399  0.00  0.00    -0.353 OA
ATOM     27  C   UNL d   1     -11.818   4.958  -3.281  0.00  0.00     0.210 C 
ENDBRANCH  21  26
ENDBRANCH  17  18
ENDBRANCH   1  17
TORSDOF 6
