REMARK  4 active torsions:
REMARK  status: ('A' for Active; 'I' for Inactive)
REMARK    1  A    between atoms: C_6  and  C_1 
REMARK    2  A    between atoms: O_12  and  C_2 
REMARK    3  A    between atoms: N_9  and  N_4 
REMARK    4  A    between atoms: C_14  and  N_9 
ROOT
ATOM      1  N   UNL d   1      -1.551   3.914  -0.041  0.00  0.00    -0.304 N 
ATOM      2  HN  UNL d   1      -1.721   4.918  -0.102  1.00  0.00     0.186 HD
ATOM      3  C   UNL d   1      -0.340   3.429  -0.002  0.00  0.00     0.035 C 
ATOM      4  C   UNL d   1      -0.025   1.941   0.022  0.00  0.00     0.070 C 
ENDROOT
BRANCH   3   5
ATOM      5  C   UNL d   1       0.821   4.395  -0.002  0.00  0.00     0.024 A 
ATOM      6  C   UNL d   1       0.612   5.788  -0.023  0.00  0.00     0.099 A 
ATOM      7  C   UNL d   1       1.707   6.667  -0.026  0.00  0.00     0.069 A 
ATOM      8 CL   UNL d   1       1.491   8.382  -0.059  0.00  0.00    -0.081 Cl
ATOM      9  C   UNL d   1       3.010   6.175  -0.000  0.00  0.00     0.050 A 
ATOM     10  C   UNL d   1       3.218   4.802   0.028  0.00  0.00     0.036 A 
ATOM     11  C   UNL d   1       2.139   3.915   0.029  0.00  0.00     0.040 A 
ATOM     12 CL   UNL d   1       4.824   4.183   0.063  0.00  0.00    -0.084 Cl
BRANCH   6  13
ATOM     13  O   UNL d   1      -0.647   6.336  -0.041  0.00  0.00    -0.358 OA
ATOM     14  H   UNL d   1      -1.305   5.604  -0.026  0.00  0.00     0.217 HD
ENDBRANCH   6  13
ENDBRANCH   3   5
BRANCH   1  15
ATOM     15  N   UNL d   1      -2.571   3.025   0.004  0.00  0.00    -0.301 N 
ATOM     16  H   UNL d   1      -2.608   2.390   0.801  0.00  0.00     0.187 HD
BRANCH  15  17
ATOM     17  C   UNL d   1      -3.859   3.428  -0.415  0.00  0.00     0.048 A 
ATOM     18  C   UNL d   1      -4.075   4.559  -1.212  0.00  0.00     0.031 A 
ATOM     19  C   UNL d   1      -5.347   4.848  -1.717  0.00  0.00     0.002 A 
ATOM     20  C   UNL d   1      -6.417   3.999  -1.448  0.00  0.00     0.000 A 
ATOM     21  C   UNL d   1      -6.219   2.864  -0.667  0.00  0.00     0.002 A 
ATOM     22  C   UNL d   1      -4.948   2.579  -0.162  0.00  0.00     0.031 A 
ENDBRANCH  15  17
ENDBRANCH   1  15
TORSDOF 4
