REMARK  7 active torsions:
REMARK  status: ('A' for Active; 'I' for Inactive)
REMARK    1  A    between atoms: C_2  and  C_1 
REMARK    2  A    between atoms: O_15  and  C_2 
REMARK    3  A    between atoms: C_18  and  C_2 
REMARK       I    between atoms: N_3  and  C_6 
REMARK    4  A    between atoms: C_4  and  N_3 
REMARK    5  A    between atoms: C_6  and  C_19 
REMARK    6  A    between atoms: S_13  and  C_18 
REMARK    7  A    between atoms: C_19  and  S_13 
ROOT
ATOM      1  N   UNL d   1      -0.353  -4.199  -5.326  0.00  0.00    -0.325 N 
ATOM      2  C   UNL d   1       0.920  -3.658  -5.396  0.00  0.00     0.231 C 
ATOM      3  O   UNL d   1       1.873  -4.118  -6.012  0.00  0.00    -0.272 OA
ATOM      4  H   UNL d   1      -1.062  -3.657  -4.835  0.00  0.00     0.169 HD
ENDROOT
BRANCH   2   5
ATOM      5  C   UNL d   1       1.056  -2.366  -4.608  0.00  0.00     0.177 C 
BRANCH   5   6
ATOM      6  S   UNL d   1       0.910  -2.683  -2.819  0.00  0.00    -0.157 SA
BRANCH   6   7
ATOM      7  C   UNL d   1       2.252  -3.923  -2.652  0.00  0.00     0.115 C 
BRANCH   7   8
ATOM      8  C   UNL d   1       2.678  -4.117  -1.196  0.00  0.00     0.234 C 
BRANCH   8   9
ATOM      9  C   UNL d   1       3.564  -5.368  -1.079  0.00  0.00     0.413 C 
ATOM     10  F   UNL d   1       4.510  -5.176  -0.127  0.00  0.00    -0.168 F 
ATOM     11  F   UNL d   1       4.211  -5.654  -2.228  0.00  0.00    -0.168 F 
ATOM     12  F   UNL d   1       2.844  -6.453  -0.725  0.00  0.00    -0.168 F 
ENDBRANCH   8   9
BRANCH   8  13
ATOM     13  O   UNL d   1       3.339  -2.915  -0.737  0.00  0.00    -0.386 OA
ATOM     14  H   UNL d   1       4.218  -3.163  -0.392  0.00  0.00     0.210 HD
ENDBRANCH   8  13
ENDBRANCH   7   8
ENDBRANCH   6   7
ENDBRANCH   5   6
ENDBRANCH   2   5
BRANCH   1  15
ATOM     15  C   UNL d   1      -0.824  -5.364  -5.970  0.00  0.00     0.056 A 
ATOM     16  C   UNL d   1      -2.210  -5.587  -6.037  0.00  0.00     0.061 A 
ATOM     17  C   UNL d   1      -2.730  -6.662  -6.760  0.00  0.00     0.033 A 
ATOM     18 CL   UNL d   1      -3.324  -4.502  -5.273  0.00  0.00    -0.082 Cl
ATOM     19  C   UNL d   1      -1.867  -7.553  -7.412  0.00  0.00    -0.060 A 
ATOM     20  C   UNL d   1      -0.488  -7.380  -7.280  0.00  0.00     0.009 A 
ATOM     21  C   UNL d   1      -2.427  -8.658  -8.264  0.00  0.00     0.048 C 
ATOM     22  C   UNL d   1       0.029  -6.296  -6.567  0.00  0.00     0.032 A 
ENDBRANCH   1  15
TORSDOF 7
