REMARK  6 active torsions:
REMARK  status: ('A' for Active; 'I' for Inactive)
REMARK    1  A    between atoms: C_2  and  C_1 
REMARK       I    between atoms: N_6  and  C_2 
REMARK    2  A    between atoms: C_5  and  C_3 
REMARK    3  A    between atoms: C_4  and  C_7 
REMARK    4  A    between atoms: C_7  and  N_6 
REMARK    5  A    between atoms: O_19  and  C_13 
REMARK    6  A    between atoms: C_24  and  O_19 
ROOT
ATOM      1  C   UNL d   1       0.390   1.243  -0.250  0.00  0.00     0.062 A 
ATOM      2  C   UNL d   1       0.235   0.261  -1.239  0.00  0.00     0.069 A 
ATOM      3  C   UNL d   1       0.060   0.906   1.056  0.00  0.00     0.108 A 
ATOM      4  N   UNL d   1      -0.471  -0.281   1.429  0.00  0.00    -0.346 N 
ATOM      5  HN  UNL d   1      -0.762  -0.455   2.391  1.00  0.00     0.167 HD
ATOM      6  C   UNL d   1      -0.597  -1.223   0.477  0.00  0.00     0.148 A 
ATOM      7  C   UNL d   1      -0.280  -0.999  -0.850  0.00  0.00     0.073 A 
ENDROOT
BRANCH   1   8
ATOM      8  C   UNL d   1       0.991   2.582  -0.471  0.00  0.00     0.255 C 
ATOM      9  N   UNL d   1       0.373   3.720   0.069  0.00  0.00    -0.348 N 
ATOM     10  C   UNL d   1      -1.041   3.784   0.439  0.00  0.00     0.153 C 
ATOM     11  O   UNL d   1       2.057   2.611  -1.081  0.00  0.00    -0.267 OA
BRANCH   9  12
ATOM     12  C   UNL d   1       0.986   5.024  -0.192  0.00  0.00     0.166 C 
BRANCH  12  13
ATOM     13  C   UNL d   1       2.330   5.362   0.444  0.00  0.00    -0.013 C 
ATOM     14  C   UNL d   1       2.753   4.876   1.701  0.00  0.00     0.044 C 
ATOM     15  C   UNL d   1       4.030   5.172   2.205  0.00  0.00     0.048 C 
ATOM     16 CL   UNL d   1       1.728   3.983   2.769  0.00  0.00    -0.084 Cl
ATOM     17  C   UNL d   1       4.890   5.988   1.486  0.00  0.00     0.036 C 
ATOM     18  C   UNL d   1       4.465   6.567   0.299  0.00  0.00     0.031 C 
ATOM     19 CL   UNL d   1       6.461   6.336   2.094  0.00  0.00    -0.084 Cl
ATOM     20  C   UNL d   1       3.180   6.294  -0.214  0.00  0.00    -0.051 C 
ATOM     21  C   UNL d   1       2.773   7.112  -1.417  0.00  0.00     0.049 C 
ENDBRANCH  12  13
ENDBRANCH   9  12
ENDBRANCH   1   8
BRANCH   2  22
ATOM     22  C   UNL d   1       0.610   0.423  -2.687  0.00  0.00     0.418 C 
ATOM     23  F   UNL d   1       0.862   1.685  -3.113  0.00  0.00    -0.166 F 
ATOM     24  F   UNL d   1       1.692  -0.333  -3.022  0.00  0.00    -0.166 F 
ATOM     25  F   UNL d   1      -0.396  -0.021  -3.500  0.00  0.00    -0.166 F 
ENDBRANCH   2  22
BRANCH   6  26
ATOM     26  O   UNL d   1      -1.042  -2.491   0.830  0.00  0.00    -0.294 OA
BRANCH  26  27
ATOM     27  C   UNL d   1      -0.802  -2.888   2.130  0.00  0.00     0.077 A 
ATOM     28  C   UNL d   1      -1.825  -3.557   2.800  0.00  0.00     0.039 A 
ATOM     29  C   UNL d   1      -1.642  -3.949   4.130  0.00  0.00     0.026 A 
ATOM     30  C   UNL d   1      -0.435  -3.676   4.776  0.00  0.00     0.034 A 
ATOM     31  C   UNL d   1       0.604  -3.047   4.096  0.00  0.00     0.026 A 
ATOM     32 CL   UNL d   1      -0.225  -4.119   6.425  0.00  0.00    -0.084 Cl
ATOM     33  C   UNL d   1       0.429  -2.675   2.764  0.00  0.00     0.039 A 
ENDBRANCH  26  27
ENDBRANCH   6  26
TORSDOF 6
