REMARK  4 active torsions:
REMARK  status: ('A' for Active; 'I' for Inactive)
REMARK    1  A    between atoms: C_2  and  S_1 
REMARK    2  A    between atoms: N_4  and  S_1 
REMARK    3  A    between atoms: C_17  and  N_11 
REMARK    4  A    between atoms: C_23  and  C_22 
ROOT
ATOM      1  N   UNL d   1       0.603   0.861   1.141  0.00  0.00    -0.203 NA
ATOM      2  N   UNL d   1       1.620   3.580   1.107  0.00  0.00    -0.379 N 
ATOM      3  C   UNL d   1      -0.259   2.012   0.699  0.00  0.00     0.127 C 
ATOM      4  C   UNL d   1       1.636   1.345   2.118  0.00  0.00     0.127 C 
ATOM      5  C   UNL d   1       0.577   3.186   0.135  0.00  0.00     0.138 C 
ATOM      6  C   UNL d   1       2.500   2.476   1.527  0.00  0.00     0.138 C 
ENDROOT
BRANCH   1   7
ATOM      7  S   UNL d   1       1.196  -0.157  -0.089  0.00  0.00     0.246 S 
ATOM      8  O   UNL d   1       1.324   0.587  -1.323  0.00  0.00    -0.206 OA
ATOM      9  O   UNL d   1       2.338  -0.871   0.449  0.00  0.00    -0.206 OA
BRANCH   7  10
ATOM     10  C   UNL d   1      -0.080  -1.344  -0.281  0.00  0.00     0.105 A 
ATOM     11  C   UNL d   1      -1.195  -1.182  -1.117  0.00  0.00     0.108 A 
ATOM     12  C   UNL d   1      -2.150  -2.269  -1.330  0.00  0.00     0.086 A 
ATOM     13  N   UNL d   1      -1.616  -0.132  -1.839  0.00  0.00    -0.238 N 
ATOM     14  N   UNL d   1      -3.105  -1.841  -2.163  0.00  0.00    -0.239 N 
ATOM     15  C   UNL d   1      -2.014  -3.532  -0.724  0.00  0.00     0.034 A 
ATOM     16  O   UNL d   1      -2.773  -0.538  -2.480  0.00  0.00    -0.156 OA
ATOM     17  HN  UNL d   1      -3.912  -2.368  -2.495  1.00  0.00     0.197 HD
ATOM     18  C   UNL d   1      -0.893  -3.667   0.113  0.00  0.00     0.004 A 
ATOM     19  C   UNL d   1       0.037  -2.618   0.325  0.00  0.00     0.027 A 
ATOM     20  HN  UNL d   1      -1.171   0.784  -1.903  1.00  0.00     0.197 HD
ENDBRANCH   7  10
ENDBRANCH   1   7
BRANCH   2  21
ATOM     21  C   UNL d   1       1.939   4.908   1.318  0.00  0.00     0.030 A 
ATOM     22  C   UNL d   1       3.246   5.344   1.591  0.00  0.00     0.030 A 
ATOM     23  C   UNL d   1       3.542   6.687   1.877  0.00  0.00     0.017 A 
ATOM     24  C   UNL d   1       2.523   7.638   1.888  0.00  0.00     0.009 A 
ATOM     25  C   UNL d   1       1.216   7.233   1.621  0.00  0.00     0.017 A 
ATOM     26  C   UNL d   1       0.938   5.892   1.340  0.00  0.00     0.030 A 
BRANCH  24  27
ATOM     27  C   UNL d   1       2.757   9.073   2.202  0.00  0.00     0.155 C 
ATOM     28  O   UNL d   1       1.838   9.748   2.663  0.00  0.00    -0.293 OA
ATOM     29  C   UNL d   1       4.105   9.686   1.933  0.00  0.00     0.096 C 
ENDBRANCH  24  27
ENDBRANCH   2  21
TORSDOF 4
