REMARK  3 active torsions:
REMARK  status: ('A' for Active; 'I' for Inactive)
REMARK       I    between atoms: C_2  and  N_1 
REMARK    1  A    between atoms: C_3  and  C_2 
REMARK    2  A    between atoms: C_6  and  C_5 
REMARK    3  A    between atoms: O_11  and  C_6 
ROOT
ATOM      1  N   UNL d   1      -1.055   1.445   0.045  0.00  0.00    -0.313 N 
ATOM      2  C   UNL d   1      -1.194   2.700  -0.570  0.00  0.00     0.259 C 
ATOM      3  C   UNL d   1       0.145   0.690   0.232  0.00  0.00     0.043 A 
ATOM      4  O   UNL d   1      -2.272   3.291  -0.643  0.00  0.00    -0.267 OA
ATOM      5  C   UNL d   1       0.081  -0.721   0.185  0.00  0.00    -0.031 A 
ATOM      6  C   UNL d   1      -2.287   0.759   0.450  0.00  0.00     0.133 C 
ATOM      7  C   UNL d   1       1.392   1.296   0.437  0.00  0.00     0.030 A 
ATOM      8  C   UNL d   1      -2.402  -0.578  -0.259  0.00  0.00     0.025 C 
ATOM      9  C   UNL d   1      -1.231  -1.465   0.135  0.00  0.00     0.042 C 
ATOM     10  C   UNL d   1       1.268  -1.474   0.216  0.00  0.00     0.009 A 
ATOM     11  C   UNL d   1       2.565   0.535   0.458  0.00  0.00     0.002 A 
ATOM     12  C   UNL d   1       2.505  -0.846   0.322  0.00  0.00     0.001 A 
ENDROOT
BRANCH   2  13
ATOM     13  C   UNL d   1      -0.086   3.358  -1.312  0.00  0.00     0.049 A 
ATOM     14  C   UNL d   1       0.191   4.732  -1.189  0.00  0.00     0.053 A 
ATOM     15  C   UNL d   1       1.292   5.266  -1.892  0.00  0.00     0.019 A 
ATOM     16  C   UNL d   1       2.084   4.467  -2.716  0.00  0.00     0.001 A 
ATOM     17  C   UNL d   1       1.766   3.126  -2.885  0.00  0.00     0.001 A 
ATOM     18  C   UNL d   1       0.668   2.584  -2.217  0.00  0.00     0.018 A 
BRANCH  14  19
ATOM     19  C   UNL d   1      -0.521   5.717  -0.325  0.00  0.00     0.177 C 
ATOM     20  O   UNL d   1       0.091   6.628   0.218  0.00  0.00    -0.646 OA
BRANCH  19  21
ATOM     21  O   UNL d   1      -1.861   5.652  -0.289  0.00  0.00    -0.773 OA
ATOM     22  H   UNL d   1      -2.262   4.818  -0.634  0.00  0.00     0.167 HD
ENDBRANCH  19  21
ENDBRANCH  14  19
ENDBRANCH   2  13
TORSDOF 3
