REMARK  4 active torsions:
REMARK  status: ('A' for Active; 'I' for Inactive)
REMARK    1  A    between atoms: C_8  and  C_1 
REMARK       I    between atoms: N_10  and  C_1 
REMARK    2  A    between atoms: C_3  and  C_7 
REMARK    3  A    between atoms: C_4  and  C_12 
REMARK    4  A    between atoms: C_17  and  N_10 
ROOT
ATOM      1  C   UNL d   1       1.071  -0.040   0.036  0.00  0.00     0.257 C 
ATOM      2  N   UNL d   1       0.249   0.426  -0.980  0.00  0.00    -0.323 N 
ATOM      3  O   UNL d   1       0.757  -0.362   1.175  0.00  0.00    -0.267 OA
ATOM      4  H   UNL d   1       0.670   0.585  -1.886  0.00  0.00     0.169 HD
ENDROOT
BRANCH   2   5
ATOM      5  C   UNL d   1      -1.126   0.737  -0.869  0.00  0.00     0.035 A 
ATOM      6  C   UNL d   1      -1.851   0.597   0.313  0.00  0.00     0.030 A 
ATOM      7  C   UNL d   1      -3.198   0.970   0.380  0.00  0.00     0.016 A 
ATOM      8  C   UNL d   1      -3.855   1.498  -0.736  0.00  0.00    -0.008 A 
ATOM      9  C   UNL d   1      -3.136   1.613  -1.934  0.00  0.00     0.016 A 
ATOM     10  C   UNL d   1      -1.784   1.241  -1.998  0.00  0.00     0.030 A 
BRANCH   8  11
ATOM     11  C   UNL d   1      -5.251   1.911  -0.666  0.00  0.00     0.063 A 
ATOM     12  N   UNL d   1      -6.073   1.893  -1.788  0.00  0.00    -0.292 N 
ATOM     13  N   UNL d   1      -7.303   2.292  -1.507  0.00  0.00    -0.061 NA
ATOM     14  HN  UNL d   1      -5.764   1.606  -2.717  1.00  0.00     0.183 HD
ATOM     15  S   UNL d   1      -7.499   2.719   0.097  0.00  0.00    -0.010 SA
ATOM     16  C   UNL d   1      -5.867   2.367   0.488  0.00  0.00     0.096 A 
ENDBRANCH   8  11
ENDBRANCH   2   5
BRANCH   1  17
ATOM     17  C   UNL d   1       2.513  -0.094  -0.295  0.00  0.00     0.047 A 
ATOM     18  C   UNL d   1       3.304  -1.215   0.011  0.00  0.00     0.063 A 
ATOM     19  C   UNL d   1       4.697  -1.117  -0.170  0.00  0.00     0.017 A 
ATOM     20  C   UNL d   1       5.285   0.054  -0.654  0.00  0.00     0.001 A 
ATOM     21  C   UNL d   1       4.490   1.150  -0.970  0.00  0.00     0.001 A 
ATOM     22  C   UNL d   1       3.109   1.083  -0.787  0.00  0.00     0.018 A 
BRANCH  18  23
ATOM     23  C   UNL d   1       2.748  -2.518   0.534  0.00  0.00     0.418 C 
ATOM     24  F   UNL d   1       1.418  -2.717   0.352  0.00  0.00    -0.166 F 
ATOM     25  F   UNL d   1       3.340  -3.584  -0.090  0.00  0.00    -0.166 F 
ATOM     26  F   UNL d   1       3.003  -2.700   1.859  0.00  0.00    -0.166 F 
ENDBRANCH  18  23
ENDBRANCH   1  17
TORSDOF 4
