REMARK  3 active torsions:
REMARK  status: ('A' for Active; 'I' for Inactive)
REMARK    1  A    between atoms: C_2  and  N_1 
REMARK    2  A    between atoms: C_6  and  C_3 
REMARK    3  A    between atoms: S_8  and  C_7 
ROOT
ATOM      1  C   UNL d   1      -1.856   0.025  -0.012  0.00  0.00    -0.034 A 
ATOM      2  C   UNL d   1      -3.366  -2.354   0.034  0.00  0.00    -0.000 A 
ATOM      3  C   UNL d   1      -1.525  -1.007   0.871  0.00  0.00     0.013 A 
ATOM      4  C   UNL d   1      -2.953  -0.127  -0.862  0.00  0.00     0.013 A 
ATOM      5  C   UNL d   1      -3.703  -1.308  -0.834  0.00  0.00     0.019 A 
ATOM      6  C   UNL d   1      -2.279  -2.187   0.895  0.00  0.00     0.019 A 
ENDROOT
BRANCH   1   7
ATOM      7  C   UNL d   1      -1.065   1.256  -0.030  0.00  0.00     0.042 C 
ATOM      8  C   UNL d   1       0.024   1.417  -0.803  0.00  0.00     0.077 C 
ATOM      9  C   UNL d   1       0.609   0.461  -1.790  0.00  0.00     0.075 C 
BRANCH   8  10
ATOM     10  N   UNL d   1       0.739   2.681  -0.664  0.00  0.00    -0.120 N 
ATOM     11  O   UNL d   1       0.092   3.686  -0.336  0.00  0.00    -0.532 OA
ATOM     12  O   UNL d   1       1.960   2.666  -0.879  0.00  0.00    -0.532 OA
ENDBRANCH   8  10
ENDBRANCH   1   7
BRANCH   2  13
ATOM     13  S   UNL d   1      -4.402  -3.811   0.022  0.00  0.00    -0.134 SA
ATOM     14  C   UNL d   1      -3.224  -5.129   0.426  0.00  0.00     0.095 C 
ENDBRANCH   2  13
TORSDOF 3
