REMARK  6 active torsions:
REMARK  status: ('A' for Active; 'I' for Inactive)
REMARK    1  A    between atoms: C_6  and  N_1 
REMARK    2  A    between atoms: S_7  and  C_4 
REMARK    3  A    between atoms: C_8  and  S_7 
REMARK    4  A    between atoms: C_19  and  C_11 
REMARK    5  A    between atoms: C_20  and  C_12 
REMARK    6  A    between atoms: N_14  and  C_13 
ROOT
ATOM      1  N   UNL d   1       0.005   0.811  -0.067  0.00  0.00    -0.250 N 
ATOM      2  C   UNL d   1      -1.161   0.091  -0.115  0.00  0.00     0.232 C 
ATOM      3  C   UNL d   1       1.116   0.016   0.093  0.00  0.00     0.245 C 
ATOM      4  C   UNL d   1       0.673  -1.434  -0.041  0.00  0.00     0.154 C 
ATOM      5  C   UNL d   1      -0.828  -1.339   0.196  0.00  0.00     0.129 C 
ATOM      6  O   UNL d   1      -2.297   0.503  -0.299  0.00  0.00    -0.273 OA
ATOM      7  O   UNL d   1       2.270   0.370   0.285  0.00  0.00    -0.271 OA
ENDROOT
BRANCH   1   8
ATOM      8  C   UNL d   1       0.049   2.217  -0.116  0.00  0.00     0.058 A 
ATOM      9  C   UNL d   1      -0.121   2.973   1.071  0.00  0.00    -0.030 A 
ATOM     10  C   UNL d   1      -0.011   4.373   1.003  0.00  0.00     0.009 A 
ATOM     11  C   UNL d   1       0.219   5.018  -0.207  0.00  0.00     0.001 A 
ATOM     12  C   UNL d   1       0.338   4.275  -1.377  0.00  0.00     0.009 A 
ATOM     13  C   UNL d   1       0.261   2.870  -1.355  0.00  0.00    -0.030 A 
BRANCH   9  14
ATOM     14  C   UNL d   1      -0.406   2.350   2.422  0.00  0.00     0.036 C 
ATOM     15  C   UNL d   1      -1.737   2.805   3.015  0.00  0.00     0.010 C 
ENDBRANCH   9  14
BRANCH  13  16
ATOM     16  C   UNL d   1       0.323   2.132  -2.677  0.00  0.00     0.036 C 
ATOM     17  C   UNL d   1       1.613   2.366  -3.454  0.00  0.00     0.010 C 
ENDBRANCH  13  16
ENDBRANCH   1   8
BRANCH   4  18
ATOM     18  S   UNL d   1       1.145  -2.000  -1.729  0.00  0.00    -0.113 SA
BRANCH  18  19
ATOM     19  C   UNL d   1       0.729  -3.746  -1.651  0.00  0.00     0.022 A 
ATOM     20  C   UNL d   1      -0.489  -4.220  -2.185  0.00  0.00     0.022 A 
ATOM     21  C   UNL d   1      -0.781  -5.587  -2.105  0.00  0.00     0.024 A 
ATOM     22  C   UNL d   1       0.169  -6.493  -1.632  0.00  0.00     0.002 A 
ATOM     23  C   UNL d   1       1.403  -6.032  -1.180  0.00  0.00     0.001 A 
ATOM     24  C   UNL d   1       1.679  -4.662  -1.177  0.00  0.00     0.020 A 
BRANCH  20  25
ATOM     25  N   UNL d   1      -1.499  -3.332  -2.607  0.00  0.00    -0.302 NA
ATOM     26  H   UNL d   1      -1.103  -2.460  -2.955  0.00  0.00     0.124 HD
ATOM     27  H   UNL d   1      -2.152  -3.743  -3.267  0.00  0.00     0.124 HD
ENDBRANCH  20  25
ENDBRANCH  18  19
ENDBRANCH   4  18
TORSDOF 6
