REMARK  4 active torsions:
REMARK  status: ('A' for Active; 'I' for Inactive)
REMARK    1  A    between atoms: C_2  and  N_1 
REMARK    2  A    between atoms: N_3  and  C_4 
REMARK    3  A    between atoms: C_8  and  C_14 
REMARK    4  A    between atoms: O_19  and  C_16 
ROOT
ATOM      1  N   UNL d   1      -2.425   1.510  -3.956  0.00  0.00    -0.367 N 
ATOM      2  C   UNL d   1      -2.350   2.918  -4.361  0.00  0.00     0.125 C 
ATOM      3  C   UNL d   1      -2.868   0.562  -4.970  0.00  0.00     0.125 C 
ATOM      4  C   UNL d   1      -4.290   2.396  -6.037  0.00  0.00     0.024 C 
ATOM      5  C   UNL d   1      -3.621   3.389  -5.070  0.00  0.00     0.029 C 
ATOM      6  C   UNL d   1      -4.245   0.966  -5.479  0.00  0.00     0.029 C 
ENDROOT
BRANCH   1   7
ATOM      7  C   UNL d   1      -1.455   1.138  -3.027  0.00  0.00     0.103 A 
ATOM      8  C   UNL d   1      -0.781  -0.087  -3.072  0.00  0.00     0.051 A 
ATOM      9  C   UNL d   1       0.118  -0.444  -2.061  0.00  0.00     0.041 A 
ATOM     10  C   UNL d   1       0.321   0.439  -1.009  0.00  0.00     0.118 A 
ATOM     11  C   UNL d   1      -0.352   1.643  -1.020  0.00  0.00     0.125 A 
ATOM     12  N   UNL d   1      -1.211   1.998  -2.008  0.00  0.00    -0.350 N 
ATOM     13  HN  UNL d   1      -1.671   2.908  -1.985  1.00  0.00     0.166 HD
BRANCH  10  14
ATOM     14  N   UNL d   1       1.213   0.113   0.097  0.00  0.00    -0.114 N 
ATOM     15  O   UNL d   1       1.294   0.920   1.029  0.00  0.00    -0.532 OA
ATOM     16  O   UNL d   1       1.830  -0.961   0.033  0.00  0.00    -0.532 OA
ENDBRANCH  10  14
ENDBRANCH   1   7
BRANCH   4  17
ATOM     17  C   UNL d   1      -3.856   2.443  -7.497  0.00  0.00    -0.021 A 
ATOM     18  C   UNL d   1      -4.777   2.414  -8.569  0.00  0.00     0.074 A 
ATOM     19  C   UNL d   1      -4.320   2.474  -9.897  0.00  0.00     0.037 A 
ATOM     20  C   UNL d   1      -2.961   2.556 -10.187  0.00  0.00     0.003 A 
ATOM     21  C   UNL d   1      -2.044   2.588  -9.147  0.00  0.00     0.001 A 
ATOM     22  C   UNL d   1      -2.487   2.523  -7.823  0.00  0.00     0.010 A 
BRANCH  18  23
ATOM     23  O   UNL d   1      -6.142   2.503  -8.460  0.00  0.00    -0.355 OA
ATOM     24  C   UNL d   1      -6.801   1.492  -7.711  0.00  0.00     0.210 C 
ENDBRANCH  18  23
ENDBRANCH   4  17
TORSDOF 4
