REMARK  6 active torsions:
REMARK  status: ('A' for Active; 'I' for Inactive)
REMARK    1  A    between atoms: C_2  and  N_13 
REMARK    2  A    between atoms: C_19  and  N_3 
REMARK    3  A    between atoms: C_20  and  C_4 
REMARK    4  A    between atoms: S_17  and  C_7 
REMARK       I    between atoms: N_13  and  C_18 
REMARK    5  A    between atoms: C_24  and  S_17 
REMARK    6  A    between atoms: C_18  and  C_24 
ROOT
ATOM      1  C   UNL d   1       2.186  -6.553  -0.350  0.00  0.00     0.152 C 
ATOM      2  N   UNL d   1       1.854  -7.377  -1.428  0.00  0.00    -0.239 N 
ATOM      3  N   UNL d   1       2.118  -8.684  -1.162  0.00  0.00    -0.302 N 
ATOM      4  HN  UNL d   1       1.873  -9.499  -1.725  1.00  0.00     0.186 HD
ATOM      5  C   UNL d   1       2.814  -7.378   0.567  0.00  0.00     0.107 C 
ATOM      6  C   UNL d   1       2.769  -8.661   0.001  0.00  0.00     0.134 C 
ATOM      7  C   UNL d   1       3.270  -7.068   1.880  0.00  0.00     0.105 C 
ATOM      8  N   UNL d   1       3.587  -6.875   2.983  0.00  0.00    -0.191 NA
ENDROOT
BRANCH   1   9
ATOM      9  N   UNL d   1       1.850  -5.197  -0.278  0.00  0.00    -0.310 N 
ATOM     10  C   UNL d   1       2.827  -4.272   0.085  0.00  0.00     0.233 C 
ATOM     11  O   UNL d   1       3.972  -4.592   0.392  0.00  0.00    -0.272 OA
ATOM     12  H   UNL d   1       1.087  -4.866  -0.861  0.00  0.00     0.170 HD
BRANCH  10  13
ATOM     13  C   UNL d   1       2.333  -2.826  -0.003  0.00  0.00     0.185 C 
BRANCH  13  14
ATOM     14  S   UNL d   1       3.732  -1.675   0.005  0.00  0.00    -0.083 SA
BRANCH  14  15
ATOM     15  C   UNL d   1       2.972  -0.151   0.287  0.00  0.00     0.163 A 
ATOM     16  N   UNL d   1       3.682   1.003   0.502  0.00  0.00    -0.315 N 
ATOM     17  C   UNL d   1       2.744   1.981   0.781  0.00  0.00     0.134 A 
ATOM     18  C   UNL d   1       5.118   1.120   0.481  0.00  0.00     0.160 C 
ATOM     19  N   UNL d   1       1.544   1.428   0.666  0.00  0.00    -0.283 N 
ATOM     20  N   UNL d   1       1.689   0.096   0.350  0.00  0.00    -0.278 N 
ATOM     21  HN  UNL d   1       0.656   1.913   0.791  1.00  0.00     0.188 HD
ATOM     22  HN  UNL d   1       0.935  -0.574   0.195  1.00  0.00     0.189 HD
BRANCH  17  23
ATOM     23  C   UNL d   1       2.996   3.346   1.266  0.00  0.00     0.012 A 
ATOM     24  C   UNL d   1       4.067   4.132   0.835  0.00  0.00     0.032 A 
ATOM     25  C   UNL d   1       4.306   5.342   1.468  0.00  0.00     0.088 A 
ATOM     26  N   UNL d   1       3.530   5.841   2.450  0.00  0.00    -0.375 N 
ATOM     27  C   UNL d   1       2.452   5.109   2.799  0.00  0.00     0.088 A 
ATOM     28  HN  UNL d   1       3.746   6.728   2.905  1.00  0.00     0.164 HD
ATOM     29  C   UNL d   1       2.147   3.878   2.242  0.00  0.00     0.032 A 
ENDBRANCH  17  23
ENDBRANCH  14  15
ENDBRANCH  13  14
ENDBRANCH  10  13
ENDBRANCH   1   9
BRANCH   2  30
ATOM     30  C   UNL d   1       1.362  -7.011  -2.717  0.00  0.00     0.058 A 
ATOM     31  C   UNL d   1       1.628  -5.745  -3.261  0.00  0.00     0.031 A 
ATOM     32  C   UNL d   1       1.136  -5.413  -4.526  0.00  0.00     0.002 A 
ATOM     33  C   UNL d   1       0.387  -6.334  -5.250  0.00  0.00     0.000 A 
ATOM     34  C   UNL d   1       0.146  -7.604  -4.726  0.00  0.00     0.002 A 
ATOM     35  C   UNL d   1       0.637  -7.944  -3.467  0.00  0.00     0.031 A 
ENDBRANCH   2  30
TORSDOF 6
