REMARK  4 active torsions:
REMARK  status: ('A' for Active; 'I' for Inactive)
REMARK    1  A    between atoms: O_2  and  S_1 
REMARK    2  A    between atoms: C_9  and  S_1 
REMARK    3  A    between atoms: C_6  and  O_2 
REMARK    4  A    between atoms: C_13  and  C_5 
ROOT
ATOM      1  N   UNL d   1      -0.196  -1.679  -3.126  0.00  0.00    -0.321 N 
ATOM      2  HN  UNL d   1      -1.153  -1.802  -2.795  1.00  0.00     0.169 HD
ATOM      3  C   UNL d   1       0.127  -1.814  -4.427  0.00  0.00     0.117 A 
ATOM      4  C   UNL d   1       0.810  -1.371  -2.285  0.00  0.00     0.164 A 
ATOM      5  N   UNL d   1       1.372  -1.661  -4.918  0.00  0.00    -0.345 N 
ATOM      6  HN  UNL d   1       1.562  -1.759  -5.915  1.00  0.00     0.167 HD
ATOM      7  C   UNL d   1       2.119  -1.245  -2.696  0.00  0.00     0.081 A 
ATOM      8  C   UNL d   1       2.354  -1.375  -4.046  0.00  0.00     0.011 A 
ATOM      9  C   UNL d   1       3.729  -1.167  -4.601  0.00  0.00     0.068 C 
ENDROOT
BRANCH   4  10
ATOM     10  O   UNL d   1       0.404  -1.217  -0.986  0.00  0.00    -0.210 OA
BRANCH  10  11
ATOM     11  S   UNL d   1       1.235  -0.240   0.017  0.00  0.00     0.304 S 
ATOM     12  O   UNL d   1       1.579   0.986  -0.683  0.00  0.00    -0.193 OA
ATOM     13  O   UNL d   1       2.263  -1.036   0.660  0.00  0.00    -0.193 OA
BRANCH  11  14
ATOM     14  C   UNL d   1       0.078   0.233   1.275  0.00  0.00     0.086 A 
ATOM     15  C   UNL d   1       0.569   0.572   2.539  0.00  0.00     0.026 A 
ATOM     16  C   UNL d   1      -0.323   0.922   3.552  0.00  0.00     0.008 A 
ATOM     17  C   UNL d   1      -1.703   0.933   3.309  0.00  0.00    -0.062 A 
ATOM     18  C   UNL d   1      -2.180   0.597   2.033  0.00  0.00     0.008 A 
ATOM     19  C   UNL d   1      -2.647   1.302   4.416  0.00  0.00     0.048 C 
ATOM     20  C   UNL d   1      -1.293   0.245   1.012  0.00  0.00     0.026 A 
ENDBRANCH  11  14
ENDBRANCH  10  11
ENDBRANCH   4  10
BRANCH   3  21
ATOM     21  C   UNL d   1      -0.941  -2.134  -5.396  0.00  0.00     0.008 A 
ATOM     22  C   UNL d   1      -2.289  -2.240  -5.011  0.00  0.00     0.016 A 
ATOM     23  C   UNL d   1      -3.294  -2.532  -5.942  0.00  0.00     0.007 A 
ATOM     24  C   UNL d   1      -2.979  -2.731  -7.290  0.00  0.00    -0.062 A 
ATOM     25  C   UNL d   1      -1.646  -2.638  -7.692  0.00  0.00     0.007 A 
ATOM     26  C   UNL d   1      -4.063  -3.027  -8.282  0.00  0.00     0.048 C 
ATOM     27  C   UNL d   1      -0.647  -2.342  -6.758  0.00  0.00     0.016 A 
ENDBRANCH   3  21
TORSDOF 4
