REMARK  2 active torsions:
REMARK  status: ('A' for Active; 'I' for Inactive)
REMARK    1  A    between atoms: C_11  and  C_3 
REMARK    2  A    between atoms: C_8  and  C_6 
ROOT
ATOM      1  C   UNL d   1      -2.091   0.453   0.158  0.00  0.00     0.028 C 
ATOM      2  C   UNL d   1      -1.617   1.790   0.627  0.00  0.00     0.194 C 
ATOM      3  C   UNL d   1      -0.988  -0.570   0.004  0.00  0.00     0.199 C 
ATOM      4  O   UNL d   1      -0.112  -0.584   1.151  0.00  0.00    -0.335 OA
ATOM      5  C   UNL d   1      -0.251   1.832   1.181  0.00  0.00     0.048 A 
ATOM      6  C   UNL d   1      -3.360   0.168  -0.202  0.00  0.00     0.033 C 
ATOM      7  C   UNL d   1       0.424   0.642   1.435  0.00  0.00     0.084 A 
ATOM      8  O   UNL d   1      -2.273   2.818   0.551  0.00  0.00    -0.287 OA
ATOM      9  C   UNL d   1       0.355   3.060   1.467  0.00  0.00     0.018 A 
ATOM     10  C   UNL d   1       1.693   0.669   2.013  0.00  0.00     0.038 A 
ATOM     11  C   UNL d   1       1.638   3.089   2.012  0.00  0.00     0.001 A 
ATOM     12  C   UNL d   1       2.303   1.894   2.290  0.00  0.00     0.003 A 
ENDROOT
BRANCH   3  13
ATOM     13  C   UNL d   1      -0.178  -0.475  -1.296  0.00  0.00    -0.024 A 
ATOM     14  C   UNL d   1      -0.458   0.467  -2.301  0.00  0.00     0.010 A 
ATOM     15  C   UNL d   1       0.326   0.541  -3.454  0.00  0.00     0.001 A 
ATOM     16  C   UNL d   1       1.394  -0.332  -3.630  0.00  0.00     0.000 A 
ATOM     17  C   UNL d   1       1.675  -1.288  -2.657  0.00  0.00     0.001 A 
ATOM     18  C   UNL d   1       0.894  -1.362  -1.501  0.00  0.00     0.010 A 
ENDBRANCH   3  13
BRANCH   6  19
ATOM     19  C   UNL d   1      -4.418   1.112  -0.243  0.00  0.00     0.005 A 
ATOM     20  S   UNL d   1      -4.805   1.879  -1.736  0.00  0.00    -0.102 SA
ATOM     21  C   UNL d   1      -6.076   2.774  -1.028  0.00  0.00     0.050 A 
ATOM     22  C   UNL d   1      -6.235   2.477   0.306  0.00  0.00     0.008 A 
ATOM     23  C   UNL d   1      -5.279   1.519   0.758  0.00  0.00     0.019 A 
ENDBRANCH   6  19
TORSDOF 2
