REMARK  2 active torsions:
REMARK  status: ('A' for Active; 'I' for Inactive)
REMARK    1  A    between atoms: C_2  and  C_1 
REMARK    2  A    between atoms: C_6  and  C_3 
ROOT
ATOM      1  C   UNL d   1       0.972   0.142   0.022  0.00  0.00     0.039 C 
ATOM      2  C   UNL d   1       2.326   0.115   0.019  0.00  0.00     0.055 C 
ATOM      3  C   UNL d   1       3.087   1.340   0.009  0.00  0.00     0.100 C 
ATOM      4  N   UNL d   1       3.695   2.334   0.013  0.00  0.00    -0.191 NA
ENDROOT
BRANCH   2   5
ATOM      5  C   UNL d   1       3.042  -1.198   0.059  0.00  0.00    -0.015 A 
ATOM      6  C   UNL d   1       2.538  -2.352  -0.569  0.00  0.00     0.013 A 
ATOM      7  C   UNL d   1       3.244  -3.566  -0.550  0.00  0.00     0.007 A 
ATOM      8  C   UNL d   1       4.480  -3.661   0.091  0.00  0.00    -0.062 A 
ATOM      9  C   UNL d   1       4.991  -2.526   0.723  0.00  0.00     0.007 A 
ATOM     10  C   UNL d   1       5.238  -4.957   0.084  0.00  0.00     0.048 C 
ATOM     11  C   UNL d   1       4.282  -1.315   0.709  0.00  0.00     0.013 A 
ENDBRANCH   2   5
BRANCH   1  12
ATOM     12  C   UNL d   1       0.169   1.378  -0.001  0.00  0.00     0.026 A 
ATOM     13  C   UNL d   1      -0.132   1.979  -1.230  0.00  0.00     0.128 A 
ATOM     14  F   UNL d   1       0.250   1.393  -2.375  0.00  0.00    -0.205 F 
ATOM     15  C   UNL d   1      -0.821   3.188  -1.301  0.00  0.00     0.043 A 
ATOM     16  C   UNL d   1      -1.232   3.819  -0.130  0.00  0.00     0.005 A 
ATOM     17  C   UNL d   1      -0.966   3.226   1.105  0.00  0.00     0.025 A 
ATOM     18  C   UNL d   1      -0.273   2.011   1.171  0.00  0.00     0.047 A 
ATOM     19 CL   UNL d   1       0.017   1.331   2.734  0.00  0.00    -0.083 Cl
ENDBRANCH   1  12
TORSDOF 2
