REMARK  4 active torsions:
REMARK  status: ('A' for Active; 'I' for Inactive)
REMARK    1  A    between atoms: C_6  and  N_2 
REMARK    2  A    between atoms: C_9  and  C_6 
REMARK    3  A    between atoms: C_7  and  C_8 
REMARK       I    between atoms: N_13  and  C_9 
REMARK    4  A    between atoms: C_10  and  N_13 
ROOT
ATOM      1  C   UNL d   1       2.034  -3.285   0.578  0.00  0.00     0.241 C 
ATOM      2  N   UNL d   1       1.270  -3.947  -0.369  0.00  0.00    -0.325 N 
ATOM      3  O   UNL d   1       2.571  -3.818   1.548  0.00  0.00    -0.271 OA
ATOM      4  H   UNL d   1       1.081  -3.454  -1.242  0.00  0.00     0.169 HD
ENDROOT
BRANCH   1   5
ATOM      5  C   UNL d   1       2.300  -1.828   0.263  0.00  0.00     0.248 C 
BRANCH   5   6
ATOM      6  N   UNL d   1       1.193  -0.876   0.246  0.00  0.00    -0.228 N 
ATOM      7  S   UNL d   1      -0.405  -1.348   0.430  0.00  0.00     0.269 S 
ATOM      8  C   UNL d   1      -0.977   0.293   0.574  0.00  0.00     0.095 A 
ATOM      9  O   UNL d   1      -0.863  -1.898  -0.820  0.00  0.00    -0.200 OA
ATOM     10  O   UNL d   1      -0.570  -1.997   1.706  0.00  0.00    -0.200 OA
ATOM     11  C   UNL d   1       0.082   1.186   0.488  0.00  0.00     0.056 A 
ATOM     12  C   UNL d   1      -2.273   0.703   0.820  0.00  0.00     0.026 A 
ATOM     13  C   UNL d   1      -0.119   2.546   0.657  0.00  0.00     0.018 A 
ATOM     14  C   UNL d   1       1.377   0.523   0.269  0.00  0.00     0.269 A 
ATOM     15  C   UNL d   1      -1.421   2.988   0.915  0.00  0.00     0.001 A 
ATOM     16  C   UNL d   1      -2.489   2.075   0.987  0.00  0.00     0.002 A 
ATOM     17  O   UNL d   1       2.444   1.093   0.145  0.00  0.00    -0.266 OA
ENDBRANCH   5   6
ENDBRANCH   1   5
BRANCH   2  18
ATOM     18  C   UNL d   1       0.878  -5.305  -0.299  0.00  0.00     0.049 A 
ATOM     19  C   UNL d   1       0.621  -6.032  -1.476  0.00  0.00     0.074 A 
ATOM     20  C   UNL d   1       0.236  -7.386  -1.376  0.00  0.00     0.018 A 
ATOM     21  C   UNL d   1       0.088  -8.004  -0.136  0.00  0.00     0.001 A 
ATOM     22  C   UNL d   1       0.323  -7.277   1.024  0.00  0.00     0.002 A 
ATOM     23  C   UNL d   1       0.716  -5.940   0.942  0.00  0.00     0.030 A 
BRANCH  19  24
ATOM     24  C   UNL d   1       0.835  -5.471  -2.858  0.00  0.00     0.419 C 
ATOM     25  F   UNL d   1       1.079  -4.127  -2.887  0.00  0.00    -0.166 F 
ATOM     26  F   UNL d   1       1.896  -6.047  -3.490  0.00  0.00    -0.166 F 
ATOM     27  F   UNL d   1      -0.235  -5.665  -3.679  0.00  0.00    -0.166 F 
ENDBRANCH  19  24
ENDBRANCH   2  18
TORSDOF 4
