REMARK  2 active torsions:
REMARK  status: ('A' for Active; 'I' for Inactive)
REMARK    1  A    between atoms: N_10  and  C_6 
REMARK    2  A    between atoms: C_21  and  N_13 
ROOT
ATOM      1  C   UNL d   1      -0.230   0.575  -0.887  0.00  0.00     0.138 A 
ATOM      2  N   UNL d   1      -1.365   1.287  -0.795  0.00  0.00    -0.175 N 
ATOM      3  HN  UNL d   1      -1.514   2.121  -1.363  1.00  0.00     0.186 HD
ATOM      4  N   UNL d   1       0.745   1.098  -1.739  0.00  0.00    -0.318 N 
ATOM      5  N   UNL d   1       2.210  -0.619  -1.197  0.00  0.00    -0.323 N 
ATOM      6  C   UNL d   1      -2.295   0.860   0.073  0.00  0.00     0.681 A 
ATOM      7  C   UNL d   1       1.968   0.533  -1.895  0.00  0.00     0.178 A 
ATOM      8  C   UNL d   1       1.322  -1.246  -0.341  0.00  0.00     0.118 A 
ATOM      9  C   UNL d   1       0.020  -0.577  -0.184  0.00  0.00     0.063 A 
ATOM     10  N   UNL d   1      -2.146  -0.270   0.787  0.00  0.00    -0.201 N 
ATOM     11  HN  UNL d   1      -2.878  -0.588   1.421  1.00  0.00     0.183 HD
ATOM     12  C   UNL d   1      -1.000  -0.971   0.642  0.00  0.00     0.124 A 
ATOM     13  S   UNL d   1       1.804  -2.652   0.425  0.00  0.00    -0.059 SA
ATOM     14  S   UNL d   1       3.123   1.209  -2.880  0.00  0.00    -0.040 SA
ATOM     15  H   UNL d   1       0.518   1.959  -2.221  0.00  0.00     0.170 HD
ATOM     16  H   UNL d   1       3.125  -1.042  -1.312  0.00  0.00     0.169 HD
ENDROOT
BRANCH   6  17
ATOM     17  N   UNL d   1      -3.378   1.679   0.320  0.00  0.00    -0.214 N 
ATOM     18  C   UNL d   1      -3.891   2.454  -0.820  0.00  0.00     0.161 C 
ATOM     19  C   UNL d   1      -4.780   3.619  -0.321  0.00  0.00     0.143 C 
ATOM     20  N   UNL d   1      -5.842   3.113   0.586  0.00  0.00    -0.378 N 
ATOM     21  C   UNL d   1      -5.291   2.350   1.728  0.00  0.00     0.143 C 
ATOM     22  C   UNL d   1      -4.420   1.175   1.225  0.00  0.00     0.161 C 
BRANCH  20  23
ATOM     23  C   UNL d   1      -6.907   3.991   0.813  0.00  0.00     0.030 A 
ATOM     24  C   UNL d   1      -7.304   4.415   2.089  0.00  0.00     0.029 A 
ATOM     25  C   UNL d   1      -8.425   5.235   2.273  0.00  0.00     0.002 A 
ATOM     26  C   UNL d   1      -9.176   5.649   1.178  0.00  0.00     0.000 A 
ATOM     27  C   UNL d   1      -8.801   5.250  -0.099  0.00  0.00     0.002 A 
ATOM     28  C   UNL d   1      -7.681   4.433  -0.274  0.00  0.00     0.029 A 
ENDBRANCH  20  23
ENDBRANCH   6  17
TORSDOF 2
