REMARK  7 active torsions:
REMARK  status: ('A' for Active; 'I' for Inactive)
REMARK    1  A    between atoms: C_6  and  N_1 
REMARK    2  A    between atoms: C_8  and  C_4 
REMARK    3  A    between atoms: C_11  and  C_5 
REMARK    4  A    between atoms: C_9  and  C_12 
REMARK    5  A    between atoms: O_18  and  C_16 
REMARK    6  A    between atoms: C_27  and  O_18 
REMARK    7  A    between atoms: C_31  and  C_27 
ROOT
ATOM      1  N   UNL d   1       0.016  -1.093   0.050  0.00  0.00    -0.281 N 
ATOM      2  N   UNL d   1       1.043  -0.195   0.129  0.00  0.00    -0.301 N 
ATOM      3  HN  UNL d   1       2.027  -0.415   0.286  1.00  0.00     0.187 HD
ATOM      4  C   UNL d   1       0.536   0.990  -0.035  0.00  0.00     0.041 A 
ATOM      5  C   UNL d   1      -1.300  -0.459  -0.041  0.00  0.00     0.147 A 
ATOM      6  C   UNL d   1      -0.963   1.034  -0.152  0.00  0.00     0.091 A 
ENDROOT
BRANCH   4   7
ATOM      7  C   UNL d   1       1.376   2.216  -0.049  0.00  0.00     0.024 A 
ATOM      8  C   UNL d   1       1.074   3.361  -0.813  0.00  0.00     0.081 A 
ATOM      9  C   UNL d   1       1.929   4.474  -0.740  0.00  0.00     0.040 A 
ATOM     10  C   UNL d   1       3.094   4.428   0.028  0.00  0.00     0.045 A 
ATOM     11  C   UNL d   1       3.399   3.278   0.739  0.00  0.00     0.117 A 
ATOM     12  C   UNL d   1       2.554   2.178   0.713  0.00  0.00     0.058 A 
ATOM     13  F   UNL d   1       4.525   3.233   1.462  0.00  0.00    -0.206 F 
BRANCH   8  14
ATOM     14  O   UNL d   1      -0.035   3.330  -1.619  0.00  0.00    -0.346 OA
BRANCH  14  15
ATOM     15  C   UNL d   1      -0.080   4.282  -2.687  0.00  0.00     0.214 C 
BRANCH  15  16
ATOM     16  C   UNL d   1      -1.093   3.869  -3.728  0.00  0.00    -0.034 A 
ATOM     17  C   UNL d   1      -2.013   4.803  -4.229  0.00  0.00     0.009 A 
ATOM     18  C   UNL d   1      -2.885   4.455  -5.262  0.00  0.00     0.001 A 
ATOM     19  C   UNL d   1      -2.846   3.173  -5.806  0.00  0.00     0.000 A 
ATOM     20  C   UNL d   1      -1.938   2.236  -5.315  0.00  0.00     0.001 A 
ATOM     21  C   UNL d   1      -1.065   2.582  -4.283  0.00  0.00     0.009 A 
ENDBRANCH  15  16
ENDBRANCH  14  15
ENDBRANCH   8  14
ENDBRANCH   4   7
BRANCH   1  22
ATOM     22  C   UNL d   1       0.280  -2.461   0.132  0.00  0.00     0.073 A 
ATOM     23  C   UNL d   1      -0.377  -3.467  -0.608  0.00  0.00     0.064 A 
ATOM     24  C   UNL d   1      -0.045  -4.824  -0.457  0.00  0.00     0.050 A 
ATOM     25 CL   UNL d   1      -1.542  -3.136  -1.849  0.00  0.00    -0.082 Cl
ATOM     26  C   UNL d   1       0.954  -5.203   0.428  0.00  0.00     0.035 A 
ATOM     27  C   UNL d   1       1.635  -4.244   1.162  0.00  0.00     0.026 A 
ATOM     28 CL   UNL d   1       1.362  -6.867   0.595  0.00  0.00    -0.084 Cl
ATOM     29  C   UNL d   1       1.305  -2.894   1.004  0.00  0.00     0.034 A 
ENDBRANCH   1  22
BRANCH   5  30
ATOM     30  C   UNL d   1      -2.183  -0.793   1.153  0.00  0.00    -0.032 A 
ATOM     31  C   UNL d   1      -1.808  -0.466   2.469  0.00  0.00     0.025 A 
ATOM     32  C   UNL d   1      -2.642  -0.766   3.560  0.00  0.00     0.048 A 
ATOM     33  C   UNL d   1      -3.858  -1.425   3.326  0.00  0.00     0.016 A 
ATOM     34  C   UNL d   1      -4.233  -1.771   2.030  0.00  0.00     0.001 A 
ATOM     35  C   UNL d   1      -3.405  -1.453   0.953  0.00  0.00     0.009 A 
BRANCH  32  36
ATOM     36  C   UNL d   1      -2.256  -0.385   4.969  0.00  0.00     0.417 C 
ATOM     37  F   UNL d   1      -1.056   0.255   5.054  0.00  0.00    -0.166 F 
ATOM     38  F   UNL d   1      -3.164   0.454   5.543  0.00  0.00    -0.166 F 
ATOM     39  F   UNL d   1      -2.167  -1.461   5.799  0.00  0.00    -0.166 F 
ENDBRANCH  32  36
ENDBRANCH   5  30
TORSDOF 7
