REMARK  3 active torsions:
REMARK  status: ('A' for Active; 'I' for Inactive)
REMARK    1  A    between atoms: C_7  and  N_1 
REMARK    2  A    between atoms: C_8  and  C_4 
REMARK    3  A    between atoms: C_9  and  C_11 
ROOT
ATOM      1  N   UNL d   1      -0.134  -1.238   0.077  0.00  0.00    -0.180 N 
ATOM      2  N   UNL d   1       1.147  -0.770   0.227  0.00  0.00    -0.266 N 
ATOM      3  HN  UNL d   1       1.996  -1.292   0.443  1.00  0.00     0.190 HD
ATOM      4  C   UNL d   1       1.006   0.499   0.025  0.00  0.00     0.184 A 
ATOM      5  C   UNL d   1      -1.010  -0.215  -0.204  0.00  0.00     0.394 A 
ATOM      6  O   UNL d   1      -0.251   0.926  -0.224  0.00  0.00    -0.240 OA
ATOM      7  O   UNL d   1      -2.212  -0.209  -0.408  0.00  0.00    -0.236 OA
ENDROOT
BRANCH   1   8
ATOM      8  C   UNL d   1      -0.390  -2.620   0.061  0.00  0.00     0.133 A 
ATOM      9  C   UNL d   1       0.623  -3.502   0.435  0.00  0.00     0.066 A 
ATOM     10  C   UNL d   1       0.406  -4.884   0.380  0.00  0.00     0.052 A 
ATOM     11  C   UNL d   1      -0.831  -5.342  -0.076  0.00  0.00     0.033 A 
ATOM     12  C   UNL d   1      -1.788  -4.407  -0.423  0.00  0.00     0.090 A 
ATOM     13  N   UNL d   1      -1.593  -3.073  -0.351  0.00  0.00    -0.351 N 
ATOM     14  HN  UNL d   1      -2.338  -2.423  -0.602  1.00  0.00     0.166 HD
BRANCH  10  15
ATOM     15  C   UNL d   1       1.474  -5.853   0.804  0.00  0.00     0.417 C 
ATOM     16  F   UNL d   1       2.613  -5.252   1.247  0.00  0.00    -0.166 F 
ATOM     17  F   UNL d   1       1.063  -6.664   1.818  0.00  0.00    -0.166 F 
ATOM     18  F   UNL d   1       1.857  -6.681  -0.206  0.00  0.00    -0.166 F 
ENDBRANCH  10  15
ENDBRANCH   1   8
BRANCH   4  19
ATOM     19  C   UNL d   1       2.057   1.505  -0.049  0.00  0.00     0.094 A 
ATOM     20  C   UNL d   1       3.336   1.134  -0.463  0.00  0.00     0.134 A 
ATOM     21  F   UNL d   1       3.624  -0.140  -0.766  0.00  0.00    -0.205 F 
ATOM     22  C   UNL d   1       4.346   2.084  -0.609  0.00  0.00     0.043 A 
ATOM     23  C   UNL d   1       4.082   3.425  -0.332  0.00  0.00     0.006 A 
ATOM     24  C   UNL d   1       2.812   3.803   0.103  0.00  0.00     0.043 A 
ATOM     25  C   UNL d   1       1.809   2.844   0.243  0.00  0.00     0.134 A 
ATOM     26  F   UNL d   1       0.607   3.243   0.681  0.00  0.00    -0.205 F 
ENDBRANCH   4  19
TORSDOF 3
