REMARK  4 active torsions:
REMARK  status: ('A' for Active; 'I' for Inactive)
REMARK    1  A    between atoms: C_4  and  N_1 
REMARK    2  A    between atoms: N_5  and  C_2 
REMARK       I    between atoms: C_3  and  N_6 
REMARK       I    between atoms: N_9  and  C_3 
REMARK    3  A    between atoms: N_6  and  N_5 
REMARK    4  A    between atoms: C_15  and  N_9 
ROOT
ATOM      1  N   UNL d   1      -0.460  -2.133   2.279  0.00  0.00    -0.184 NA
ATOM      2  H   UNL d   1      -0.349  -2.720   3.115  0.00  0.00     0.154 HD
ENDROOT
BRANCH   1   3
ATOM      3  C   UNL d   1      -0.532  -2.924   1.111  0.00  0.00     0.126 A 
ATOM      4  C   UNL d   1      -1.466  -3.970   0.986  0.00  0.00     0.078 A 
ATOM      5  C   UNL d   1      -1.426  -4.757  -0.178  0.00  0.00     0.035 A 
ATOM      6  C   UNL d   1      -0.516  -4.465  -1.187  0.00  0.00     0.019 A 
ATOM      7  C   UNL d   1       0.337  -3.397  -1.000  0.00  0.00     0.089 A 
ATOM      8  N   UNL d   1       0.353  -2.631   0.113  0.00  0.00    -0.354 N 
ATOM      9  HN  UNL d   1       1.009  -1.856   0.205  1.00  0.00     0.166 HD
BRANCH   4  10
ATOM     10  N   UNL d   1      -2.478  -4.241   1.959  0.00  0.00    -0.330 N 
ATOM     11  C   UNL d   1      -3.026  -3.365   2.878  0.00  0.00     0.097 A 
ATOM     12  C   UNL d   1      -3.996  -4.009   3.614  0.00  0.00     0.019 A 
ATOM     13  C   UNL d   1      -4.072  -5.329   3.134  0.00  0.00     0.019 A 
ATOM     14  C   UNL d   1      -3.144  -5.447   2.123  0.00  0.00     0.097 A 
ENDBRANCH   4  10
ENDBRANCH   1   3
BRANCH   1  15
ATOM     15  N   UNL d   1       0.542  -1.131   2.238  0.00  0.00    -0.267 N 
ATOM     16  C   UNL d   1       1.210  -0.901   3.436  0.00  0.00     0.335 C 
ATOM     17  N   UNL d   1       2.135   0.116   3.311  0.00  0.00    -0.308 N 
ATOM     18  O   UNL d   1       0.930  -1.524   4.458  0.00  0.00    -0.246 OA
ATOM     19  H   UNL d   1       2.181   0.540   2.396  0.00  0.00     0.170 HD
ATOM     20  H   UNL d   1       1.059  -1.128   1.360  0.00  0.00     0.186 HD
BRANCH  17  21
ATOM     21  C   UNL d   1       2.918   0.700   4.327  0.00  0.00     0.036 A 
ATOM     22  C   UNL d   1       2.901   0.287   5.662  0.00  0.00     0.031 A 
ATOM     23  C   UNL d   1       3.698   0.930   6.617  0.00  0.00     0.026 A 
ATOM     24  C   UNL d   1       4.518   1.989   6.240  0.00  0.00     0.034 A 
ATOM     25  C   UNL d   1       4.545   2.414   4.916  0.00  0.00     0.026 A 
ATOM     26 CL   UNL d   1       5.498   2.776   7.414  0.00  0.00    -0.084 Cl
ATOM     27  C   UNL d   1       3.747   1.771   3.963  0.00  0.00     0.031 A 
ENDBRANCH  17  21
ENDBRANCH   1  15
TORSDOF 4
