REMARK  6 active torsions:
REMARK  status: ('A' for Active; 'I' for Inactive)
REMARK    1  A    between atoms: C_7  and  N_1 
REMARK    2  A    between atoms: C_6  and  C_2 
REMARK    3  A    between atoms: O_14  and  C_2 
REMARK    4  A    between atoms: C_8  and  C_6 
REMARK    5  A    between atoms: N_9  and  C_7 
REMARK    6  A    between atoms: C_13  and  C_8 
ROOT
ATOM      1  N   UNL d   1      -1.667   0.491   0.413  0.00  0.00    -0.287 N 
ATOM      2  C   UNL d   1      -0.979  -1.740  -0.096  0.00  0.00     0.175 C 
ATOM      3  C   UNL d   1      -2.166  -0.811   0.306  0.00  0.00     0.266 C 
ATOM      4  C   UNL d   1       0.194  -0.833   0.203  0.00  0.00     0.014 A 
ATOM      5  C   UNL d   1      -0.264   0.473   0.427  0.00  0.00     0.049 A 
ATOM      6  C   UNL d   1       0.626   1.506   0.660  0.00  0.00     0.032 A 
ATOM      7  C   UNL d   1       1.548  -1.140   0.198  0.00  0.00     0.032 A 
ATOM      8  O   UNL d   1      -3.299  -1.196   0.567  0.00  0.00    -0.269 OA
ATOM      9  C   UNL d   1       2.448  -0.100   0.420  0.00  0.00     0.011 A 
ATOM     10  C   UNL d   1       1.997   1.209   0.654  0.00  0.00     0.021 A 
ATOM     11 BR   UNL d   1       4.304  -0.459   0.368  0.00  0.00    -0.051 Br
ENDROOT
BRANCH   2  12
ATOM     12  C   UNL d   1      -0.940  -2.049  -1.593  0.00  0.00     0.137 C 
BRANCH  12  13
ATOM     13  C   UNL d   1      -2.183  -2.751  -2.081  0.00  0.00     0.163 C 
ATOM     14  O   UNL d   1      -3.237  -2.124  -2.212  0.00  0.00    -0.292 OA
BRANCH  13  15
ATOM     15  C   UNL d   1      -2.132  -4.178  -2.511  0.00  0.00     0.010 A 
ATOM     16  C   UNL d   1      -1.058  -5.032  -2.226  0.00  0.00     0.017 A 
ATOM     17  C   UNL d   1      -1.041  -6.337  -2.737  0.00  0.00     0.025 A 
ATOM     18  C   UNL d   1      -2.103  -6.796  -3.515  0.00  0.00     0.034 A 
ATOM     19  C   UNL d   1      -3.195  -5.972  -3.771  0.00  0.00     0.025 A 
ATOM     20 CL   UNL d   1      -2.060  -8.386  -4.169  0.00  0.00    -0.084 Cl
ATOM     21  C   UNL d   1      -3.209  -4.670  -3.269  0.00  0.00     0.017 A 
ENDBRANCH  13  15
ENDBRANCH  12  13
ENDBRANCH   2  12
BRANCH   2  22
ATOM     22  O   UNL d   1      -0.879  -2.926   0.670  0.00  0.00    -0.375 OA
ATOM     23  H   UNL d   1      -1.788  -3.125   0.975  0.00  0.00     0.211 HD
ENDBRANCH   2  22
BRANCH   1  24
ATOM     24  C   UNL d   1      -2.507   1.621   0.725  0.00  0.00     0.405 C 
BRANCH  24  25
ATOM     25  N   UNL d   1      -2.782   2.430  -0.471  0.00  0.00     0.110 N 
ATOM     26  C   UNL d   1      -3.639   3.593  -0.119  0.00  0.00     0.300 C 
ATOM     27  C   UNL d   1      -5.108   3.233   0.186  0.00  0.00     0.198 C 
ATOM     28  O   UNL d   1      -5.708   2.516  -0.898  0.00  0.00    -0.388 OA
ATOM     29  C   UNL d   1      -4.956   1.335  -1.213  0.00  0.00     0.198 C 
ATOM     30  C   UNL d   1      -3.495   1.687  -1.543  0.00  0.00     0.300 C 
ENDBRANCH  24  25
ENDBRANCH   1  24
TORSDOF 6
