REMARK  4 active torsions:
REMARK  status: ('A' for Active; 'I' for Inactive)
REMARK    1  A    between atoms: N_4  and  C_2 
REMARK    2  A    between atoms: N_10  and  C_8 
REMARK    3  A    between atoms: C_14  and  C_13 
REMARK    4  A    between atoms: O_20  and  C_17 
ROOT
ATOM      1  C   UNL d   1      -0.255  -0.819   0.073  0.00  0.00    -0.009 A 
ATOM      2  C   UNL d   1       0.944  -1.544   0.063  0.00  0.00     0.118 A 
ATOM      3  C   UNL d   1      -0.173   0.581   0.084  0.00  0.00    -0.038 A 
ATOM      4  C   UNL d   1      -1.702  -1.277   0.103  0.00  0.00    -0.017 C 
ATOM      5  C   UNL d   1       2.221  -0.918   0.095  0.00  0.00    -0.002 A 
ATOM      6  C   UNL d   1      -1.534   1.236   0.127  0.00  0.00    -0.019 C 
ATOM      7  C   UNL d   1       2.271   0.497   0.070  0.00  0.00     0.041 A 
ATOM      8  C   UNL d   1       1.066   1.224   0.081  0.00  0.00     0.038 A 
ATOM      9  C   UNL d   1      -2.446   0.044  -0.251  0.00  0.00     0.027 C 
ATOM     10  C   UNL d   1      -2.128  -1.778   1.492  0.00  0.00     0.020 C 
ATOM     11  C   UNL d   1      -2.065  -2.337  -0.950  0.00  0.00     0.020 C 
ATOM     12  C   UNL d   1       3.487  -1.737   0.138  0.00  0.00     0.053 C 
ATOM     13  C   UNL d   1      -1.845   1.790   1.524  0.00  0.00     0.020 C 
ATOM     14  C   UNL d   1      -1.697   2.361  -0.905  0.00  0.00     0.020 C 
ENDROOT
BRANCH   7  15
ATOM     15  N   UNL d   1       3.444   1.286   0.118  0.00  0.00    -0.364 N 
ATOM     16  C   UNL d   1       4.413   1.076  -0.717  0.00  0.00     0.102 C 
ATOM     17  HN  UNL d   1       3.528   2.025   0.816  1.00  0.00     0.165 HD
BRANCH  16  18
ATOM     18  C   UNL d   1       5.588   1.976  -0.782  0.00  0.00     0.012 A 
ATOM     19  C   UNL d   1       5.572   3.255  -0.211  0.00  0.00     0.077 A 
ATOM     20  C   UNL d   1       6.640   4.129  -0.411  0.00  0.00     0.037 A 
ATOM     21  C   UNL d   1       7.740   3.722  -1.166  0.00  0.00     0.003 A 
ATOM     22  C   UNL d   1       7.780   2.436  -1.708  0.00  0.00     0.001 A 
ATOM     23  C   UNL d   1       6.704   1.562  -1.520  0.00  0.00     0.015 A 
BRANCH  19  24
ATOM     24  O   UNL d   1       4.523   3.719   0.533  0.00  0.00    -0.360 OA
ATOM     25  H   UNL d   1       3.894   2.974   0.638  0.00  0.00     0.217 HD
ENDBRANCH  19  24
ENDBRANCH  16  18
ENDBRANCH   7  15
BRANCH   2  26
ATOM     26  N   UNL d   1       0.896  -2.994  -0.010  0.00  0.00    -0.114 N 
ATOM     27  O   UNL d   1       0.614  -3.605   1.026  0.00  0.00    -0.532 OA
ATOM     28  O   UNL d   1       1.165  -3.506  -1.106  0.00  0.00    -0.532 OA
ENDBRANCH   2  26
TORSDOF 4
