REMARK  0 active torsions:
REMARK  status: ('A' for Active; 'I' for Inactive)
ROOT
ATOM      1  N   UNL d   1       2.404  -0.629   0.025  0.00  0.00    -0.323 N 
ATOM      2  C   UNL d   1       1.290  -1.448   0.040  0.00  0.00     0.115 A 
ATOM      3  C   UNL d   1       2.401   0.737   0.016  0.00  0.00     0.177 A 
ATOM      4  C   UNL d   1      -0.026  -0.755   0.032  0.00  0.00     0.029 A 
ATOM      5  N   UNL d   1       1.188   1.353   0.022  0.00  0.00    -0.332 N 
ATOM      6  C   UNL d   1      -0.021   0.647   0.022  0.00  0.00     0.047 A 
ATOM      7  S   UNL d   1       1.538  -3.106   0.059  0.00  0.00    -0.059 SA
ATOM      8  S   UNL d   1       3.815   1.610  -0.005  0.00  0.00    -0.040 SA
ATOM      9  C   UNL d   1      -1.252  -1.434   0.026  0.00  0.00     0.017 A 
ATOM     10  C   UNL d   1      -1.221   1.362   0.005  0.00  0.00     0.030 A 
ATOM     11  C   UNL d   1      -2.451  -0.718   0.004  0.00  0.00     0.001 A 
ATOM     12  C   UNL d   1      -2.436   0.677  -0.008  0.00  0.00     0.002 A 
ATOM     13  H   UNL d   1       3.309  -1.085   0.020  0.00  0.00     0.169 HD
ATOM     14  H   UNL d   1       1.183   2.367   0.015  0.00  0.00     0.168 HD
ENDROOT
TORSDOF 0
