REMARK  4 active torsions:
REMARK  status: ('A' for Active; 'I' for Inactive)
REMARK    1  A    between atoms: C_8  and  C_1 
REMARK    2  A    between atoms: C_5  and  C_9 
REMARK    3  A    between atoms: C_9  and  O_12 
REMARK    4  A    between atoms: O_12  and  N_10 
ROOT
ATOM      1  C   UNL d   1      -0.497  -2.646  -0.061  0.00  0.00     0.064 C 
ATOM      2  N   UNL d   1      -1.692  -3.135  -0.210  0.00  0.00    -0.259 N 
ATOM      3  HN  UNL d   1      -1.869  -4.135  -0.305  1.00  0.00     0.194 HD
ATOM      4  C   UNL d   1       0.606  -3.682   0.015  0.00  0.00     0.073 C 
ENDROOT
BRANCH   1   5
ATOM      5  C   UNL d   1      -0.124  -1.253   0.047  0.00  0.00     0.123 A 
ATOM      6  C   UNL d   1       0.977  -0.596   0.580  0.00  0.00     0.043 A 
ATOM      7  N   UNL d   1       0.873   0.757   0.347  0.00  0.00    -0.342 N 
ATOM      8  C   UNL d   1       2.154  -1.120   1.306  0.00  0.00     0.071 C 
ATOM      9  C   UNL d   1      -0.257   0.886  -0.308  0.00  0.00     0.120 A 
ATOM     10  HN  UNL d   1       1.526   1.492   0.622  1.00  0.00     0.167 HD
ATOM     11  O   UNL d   1      -0.926  -0.286  -0.517  0.00  0.00    -0.294 OA
ATOM     12  C   UNL d   1      -0.869   2.114  -0.853  0.00  0.00     0.098 C 
ENDBRANCH   1   5
BRANCH   2  13
ATOM     13  O   UNL d   1      -2.724  -2.177  -0.229  0.00  0.00    -0.195 OA
BRANCH  13  14
ATOM     14  C   UNL d   1      -3.878  -2.765  -0.714  0.00  0.00     0.315 C 
ATOM     15  O   UNL d   1      -3.959  -3.901  -1.167  0.00  0.00    -0.257 OA
BRANCH  14  16
ATOM     16  C   UNL d   1      -5.047  -1.884  -0.649  0.00  0.00     0.048 A 
ATOM     17  C   UNL d   1      -5.083  -0.635  -0.058  0.00  0.00     0.067 A 
ATOM     18  S   UNL d   1      -6.625   0.104  -0.160  0.00  0.00    -0.113 SA
ATOM     19  C   UNL d   1      -7.277  -1.235  -0.996  0.00  0.00     0.050 A 
ATOM     20  C   UNL d   1      -6.338  -2.223  -1.189  0.00  0.00     0.025 A 
ENDBRANCH  14  16
ENDBRANCH  13  14
ENDBRANCH   2  13
TORSDOF 4
