REMARK  1 active torsions:
REMARK  status: ('A' for Active; 'I' for Inactive)
REMARK    1  A    between atoms: N_10  and  C_4 
ROOT
ATOM      1  C   UNL d   1      -2.417   0.506  -0.285  0.00  0.00     0.032 C 
ATOM      2  C   UNL d   1      -1.259   1.430  -0.169  0.00  0.00     0.194 C 
ATOM      3  C   UNL d   1       0.036   0.732   0.005  0.00  0.00     0.050 A 
ATOM      4  C   UNL d   1      -3.414   0.829  -1.122  0.00  0.00     0.098 C 
ATOM      5  O   UNL d   1      -1.079  -1.439   0.168  0.00  0.00    -0.345 OA
ATOM      6  C   UNL d   1       0.052  -0.665   0.108  0.00  0.00     0.083 A 
ATOM      7  C   UNL d   1      -2.241  -0.701   0.566  0.00  0.00     0.220 C 
ATOM      8  C   UNL d   1       1.232   1.452  -0.026  0.00  0.00     0.042 A 
ATOM      9  O   UNL d   1      -1.343   2.644  -0.247  0.00  0.00    -0.287 OA
ATOM     10  C   UNL d   1       1.266  -1.350   0.113  0.00  0.00     0.039 A 
ATOM     11  C   UNL d   1       2.442   0.760   0.005  0.00  0.00     0.035 A 
ATOM     12  C   UNL d   1       2.463  -0.636   0.060  0.00  0.00     0.026 A 
ATOM     13 CL   UNL d   1       3.925   1.629  -0.050  0.00  0.00    -0.084 Cl
ENDROOT
BRANCH   4  14
ATOM     14  N   UNL d   1      -4.522   0.103  -1.543  0.00  0.00    -0.398 N 
ATOM     15  C   UNL d   1      -4.532  -1.356  -1.660  0.00  0.00     0.148 C 
ATOM     16  C   UNL d   1      -5.648   0.761  -2.210  0.00  0.00     0.148 C 
ENDBRANCH   4  14
TORSDOF 1
