REMARK  4 active torsions:
REMARK  status: ('A' for Active; 'I' for Inactive)
REMARK    1  A    between atoms: S_6  and  C_1 
REMARK    2  A    between atoms: C_9  and  C_2 
REMARK    3  A    between atoms: S_12  and  C_5 
REMARK    4  A    between atoms: C_7  and  S_6 
REMARK       I    between atoms: N_10  and  C_7 
ROOT
ATOM      1  C   UNL d   1       1.172   0.750   0.523  0.00  0.00     0.073 A 
ATOM      2  C   UNL d   1      -0.173   1.188   0.254  0.00  0.00     0.078 A 
ATOM      3  N   UNL d   1      -1.019   0.141   0.269  0.00  0.00    -0.298 N 
ATOM      4  HN  UNL d   1      -2.020   0.143   0.073  1.00  0.00     0.187 HD
ATOM      5  C   UNL d   1       1.062  -0.596   0.804  0.00  0.00     0.103 A 
ATOM      6  N   UNL d   1      -0.251  -0.901   0.600  0.00  0.00    -0.292 N 
ATOM      7  H   UNL d   1      -0.683  -1.811   0.699  0.00  0.00     0.187 HD
ENDROOT
BRANCH   2   8
ATOM      8  C   UNL d   1      -0.728   2.532   0.034  0.00  0.00    -0.006 A 
ATOM      9  C   UNL d   1      -1.841   2.698  -0.808  0.00  0.00     0.015 A 
ATOM     10  C   UNL d   1      -2.463   3.944  -0.941  0.00  0.00     0.024 A 
ATOM     11  C   UNL d   1      -1.969   5.040  -0.239  0.00  0.00     0.034 A 
ATOM     12  C   UNL d   1      -0.860   4.897   0.592  0.00  0.00     0.024 A 
ATOM     13 CL   UNL d   1      -2.749   6.566  -0.370  0.00  0.00    -0.084 Cl
ATOM     14  C   UNL d   1      -0.251   3.647   0.736  0.00  0.00     0.015 A 
ENDBRANCH   2   8
BRANCH   1  15
ATOM     15  S   UNL d   1       2.598   1.770   0.563  0.00  0.00    -0.024 SA
BRANCH  15  16
ATOM     16  C   UNL d   1       3.210   1.663  -1.088  0.00  0.00     0.286 C 
ATOM     17  N   UNL d   1       3.848   2.816  -1.580  0.00  0.00    -0.351 N 
ATOM     18  C   UNL d   1       4.423   2.731  -2.915  0.00  0.00     0.152 C 
ATOM     19  C   UNL d   1       3.579   4.153  -1.080  0.00  0.00     0.152 C 
ATOM     20  O   UNL d   1       3.134   0.616  -1.721  0.00  0.00    -0.260 OA
ENDBRANCH  15  16
ENDBRANCH   1  15
BRANCH   5  21
ATOM     21  S   UNL d   1       2.056  -1.929   1.283  0.00  0.00    -0.114 SA
ATOM     22  C   UNL d   1       3.561  -1.209   1.947  0.00  0.00     0.097 C 
ENDBRANCH   5  21
TORSDOF 4
