REMARK  6 active torsions:
REMARK  status: ('A' for Active; 'I' for Inactive)
REMARK       I    between atoms: C_2  and  N_1 
REMARK    1  A    between atoms: C_15  and  C_2 
REMARK    2  A    between atoms: C_3  and  C_7 
REMARK    3  A    between atoms: O_16  and  C_9 
REMARK    4  A    between atoms: C_10  and  C_17 
REMARK    5  A    between atoms: S_13  and  C_15 
REMARK    6  A    between atoms: C_17  and  S_13 
ROOT
ATOM      1  N   UNL d   1       1.354  -0.021   0.921  0.00  0.00    -0.351 N 
ATOM      2  C   UNL d   1       2.720  -0.103   1.276  0.00  0.00     0.229 C 
ATOM      3  C   UNL d   1       0.723   1.257   0.588  0.00  0.00     0.126 C 
ATOM      4  C   UNL d   1       0.783  -1.239   0.338  0.00  0.00     0.126 C 
ATOM      5  C   UNL d   1      -1.371  -0.016  -0.273  0.00  0.00     0.024 C 
ATOM      6  O   UNL d   1       3.303  -1.189   1.308  0.00  0.00    -0.273 OA
ATOM      7  C   UNL d   1      -0.796   1.223   0.427  0.00  0.00     0.029 C 
ATOM      8  C   UNL d   1      -0.739  -1.278   0.321  0.00  0.00     0.029 C 
ENDROOT
BRANCH   2   9
ATOM      9  C   UNL d   1       3.445   1.219   1.551  0.00  0.00     0.177 C 
BRANCH   9  10
ATOM     10  S   UNL d   1       5.073   1.050   2.360  0.00  0.00    -0.155 SA
BRANCH  10  11
ATOM     11  C   UNL d   1       6.058   0.336   0.990  0.00  0.00     0.113 C 
BRANCH  11  12
ATOM     12  C   UNL d   1       7.489  -0.017   1.380  0.00  0.00    -0.038 A 
ATOM     13  C   UNL d   1       8.629   0.317   0.577  0.00  0.00    -0.019 A 
ATOM     14  C   UNL d   1       9.902  -0.195   0.950  0.00  0.00    -0.025 A 
ATOM     15  C   UNL d   1       8.587   1.124  -0.590  0.00  0.00     0.013 A 
ATOM     16  C   UNL d   1      11.038   0.062   0.162  0.00  0.00     0.012 A 
ATOM     17  C   UNL d   1      10.040  -0.975   2.104  0.00  0.00     0.012 A 
ATOM     18  C   UNL d   1      10.954   0.842  -0.987  0.00  0.00     0.001 A 
ATOM     19  C   UNL d   1       9.732   1.382  -1.355  0.00  0.00     0.001 A 
ATOM     20  C   UNL d   1       8.939  -1.281   2.892  0.00  0.00     0.001 A 
ATOM     21  C   UNL d   1       7.679  -0.825   2.522  0.00  0.00     0.009 A 
ENDBRANCH  11  12
ENDBRANCH  10  11
ENDBRANCH   9  10
ENDBRANCH   2   9
BRANCH   5  22
ATOM     22  C   UNL d   1      -1.365   0.005  -1.804  0.00  0.00    -0.021 A 
ATOM     23  C   UNL d   1      -2.520  -0.360  -2.538  0.00  0.00     0.074 A 
ATOM     24  C   UNL d   1      -2.492  -0.364  -3.941  0.00  0.00     0.037 A 
ATOM     25  C   UNL d   1      -1.344   0.016  -4.631  0.00  0.00     0.003 A 
ATOM     26  C   UNL d   1      -0.207   0.383  -3.926  0.00  0.00     0.001 A 
ATOM     27  C   UNL d   1      -0.217   0.366  -2.530  0.00  0.00     0.010 A 
BRANCH  23  28
ATOM     28  O   UNL d   1      -3.625  -0.730  -1.812  0.00  0.00    -0.355 OA
ATOM     29  C   UNL d   1      -4.876  -0.712  -2.494  0.00  0.00     0.210 C 
ENDBRANCH  23  28
ENDBRANCH   5  22
TORSDOF 6
