REMARK  6 active torsions:
REMARK  status: ('A' for Active; 'I' for Inactive)
REMARK    1  A    between atoms: C_2  and  S_1 
REMARK    2  A    between atoms: N_10  and  S_1 
REMARK    3  A    between atoms: C_3  and  C_8 
REMARK    4  A    between atoms: C_4  and  C_9 
REMARK    5  A    between atoms: C_5  and  C_19 
REMARK    6  A    between atoms: C_21  and  N_10 
ROOT
ATOM      1  S   UNL d   1       1.152  -0.012  -0.066  0.00  0.00     0.263 S 
ATOM      2  O   UNL d   1       0.577  -1.327  -0.251  0.00  0.00    -0.200 OA
ATOM      3  O   UNL d   1       2.577   0.205  -0.182  0.00  0.00    -0.200 OA
ENDROOT
BRANCH   1   4
ATOM      4  C   UNL d   1       0.621   0.565   1.535  0.00  0.00     0.081 A 
ATOM      5  C   UNL d   1      -0.632   0.175   2.023  0.00  0.00     0.041 A 
ATOM      6  C   UNL d   1      -1.035   0.559   3.311  0.00  0.00     0.050 A 
ATOM      7  C   UNL d   1      -0.157   1.331   4.095  0.00  0.00     0.032 A 
ATOM      8  C   UNL d   1       1.109   1.715   3.615  0.00  0.00     0.050 A 
ATOM      9  C   UNL d   1       1.492   1.326   2.322  0.00  0.00     0.041 A 
BRANCH   6  10
ATOM     10  C   UNL d   1      -2.374   0.137   3.874  0.00  0.00     0.417 C 
ATOM     11  F   UNL d   1      -3.120  -0.601   3.009  0.00  0.00    -0.166 F 
ATOM     12  F   UNL d   1      -2.245  -0.618   4.999  0.00  0.00    -0.166 F 
ATOM     13  F   UNL d   1      -3.146   1.202   4.224  0.00  0.00    -0.166 F 
ENDBRANCH   6  10
BRANCH   8  14
ATOM     14  C   UNL d   1       2.040   2.512   4.501  0.00  0.00     0.417 C 
ATOM     15  F   UNL d   1       3.236   2.796   3.920  0.00  0.00    -0.166 F 
ATOM     16  F   UNL d   1       1.506   3.709   4.868  0.00  0.00    -0.166 F 
ATOM     17  F   UNL d   1       2.330   1.859   5.660  0.00  0.00    -0.166 F 
ENDBRANCH   8  14
ENDBRANCH   1   4
BRANCH   1  18
ATOM     18  N   UNL d   1       0.329   1.010  -1.109  0.00  0.00    -0.281 N 
ATOM     19  H   UNL d   1      -0.179   0.529  -1.850  0.00  0.00     0.179 HD
BRANCH  18  20
ATOM     20  C   UNL d   1       0.793   2.326  -1.346  0.00  0.00     0.043 A 
ATOM     21  C   UNL d   1       0.014   3.390  -0.898  0.00  0.00     0.046 A 
ATOM     22  C   UNL d   1       0.371   4.714  -1.196  0.00  0.00     0.019 A 
ATOM     23  C   UNL d   1       1.524   4.943  -1.961  0.00  0.00     0.016 A 
ATOM     24  C   UNL d   1       2.298   3.873  -2.421  0.00  0.00     0.003 A 
ATOM     25  C   UNL d   1       1.927   2.563  -2.120  0.00  0.00     0.030 A 
BRANCH  22  26
ATOM     26  C   UNL d   1      -0.475   5.800  -0.720  0.00  0.00     0.173 A 
ATOM     27  N   UNL d   1      -1.560   5.755   0.031  0.00  0.00    -0.278 N 
ATOM     28  N   UNL d   1      -1.992   7.058   0.173  0.00  0.00    -0.288 N 
ATOM     29  HN  UNL d   1      -1.993   4.921   0.427  1.00  0.00     0.189 HD
ATOM     30  C   UNL d   1      -1.143   7.795  -0.499  0.00  0.00     0.251 A 
ATOM     31  HN  UNL d   1      -2.807   7.381   0.696  1.00  0.00     0.188 HD
ATOM     32  O   UNL d   1      -0.149   7.079  -1.094  0.00  0.00    -0.286 OA
ENDBRANCH  22  26
ENDBRANCH  18  20
ENDBRANCH   1  18
TORSDOF 6
