REMARK  9 active torsions:
REMARK  status: ('A' for Active; 'I' for Inactive)
REMARK    1  A    between atoms: C_6  and  C_1 
REMARK    2  A    between atoms: C_9  and  N_2 
REMARK    3  A    between atoms: C_7  and  C_4 
REMARK    4  A    between atoms: O_10  and  C_6 
REMARK    5  A    between atoms: C_16  and  C_9 
REMARK    6  A    between atoms: S_12  and  C_16 
REMARK    7  A    between atoms: C_17  and  S_12 
REMARK    8  A    between atoms: O_13  and  C_18 
REMARK    9  A    between atoms: C_18  and  C_17 
ROOT
ATOM      1  C   UNL d   1      -0.375   1.172   0.070  0.00  0.00     0.062 A 
ATOM      2  N   UNL d   1       0.931  -0.677  -0.014  0.00  0.00    -0.348 N 
ATOM      3  C   UNL d   1       0.941   0.716   0.020  0.00  0.00     0.025 A 
ATOM      4  C   UNL d   1      -0.383  -1.133   0.100  0.00  0.00     0.046 A 
ATOM      5  C   UNL d   1      -1.182   0.004   0.133  0.00  0.00     0.050 A 
ATOM      6  C   UNL d   1       2.172   1.573  -0.012  0.00  0.00     0.069 C 
ENDROOT
BRANCH   2   7
ATOM      7  C   UNL d   1       2.128  -1.506  -0.087  0.00  0.00     0.139 C 
BRANCH   7   8
ATOM      8  C   UNL d   1       2.252  -2.488  -1.253  0.00  0.00     0.094 C 
BRANCH   8   9
ATOM      9  S   UNL d   1       2.291  -1.711  -2.900  0.00  0.00    -0.165 SA
BRANCH   9  10
ATOM     10  C   UNL d   1       2.464  -3.242  -3.872  0.00  0.00     0.100 C 
BRANCH  10  11
ATOM     11  C   UNL d   1       2.469  -2.962  -5.368  0.00  0.00     0.174 C 
BRANCH  11  12
ATOM     12  O   UNL d   1       2.638  -4.195  -6.064  0.00  0.00    -0.400 OA
ATOM     13  H   UNL d   1       2.635  -3.986  -7.014  0.00  0.00     0.209 HD
ENDBRANCH  11  12
ENDBRANCH  10  11
ENDBRANCH   9  10
ENDBRANCH   8   9
ENDBRANCH   7   8
ENDBRANCH   2   7
BRANCH   4  14
ATOM     14  C   UNL d   1      -0.860  -2.534   0.079  0.00  0.00    -0.009 A 
ATOM     15  C   UNL d   1      -2.033  -2.852  -0.628  0.00  0.00     0.014 A 
ATOM     16  C   UNL d   1      -2.480  -4.172  -0.744  0.00  0.00     0.001 A 
ATOM     17  C   UNL d   1      -1.748  -5.205  -0.168  0.00  0.00     0.000 A 
ATOM     18  C   UNL d   1      -0.611  -4.909   0.575  0.00  0.00     0.001 A 
ATOM     19  C   UNL d   1      -0.195  -3.581   0.731  0.00  0.00     0.014 A 
ENDBRANCH   4  14
BRANCH   1  20
ATOM     20  C   UNL d   1      -0.778   2.586   0.062  0.00  0.00     0.178 C 
ATOM     21  O   UNL d   1       0.009   3.527   0.040  0.00  0.00    -0.646 OA
BRANCH  20  22
ATOM     22  O   UNL d   1      -2.116   2.809   0.070  0.00  0.00    -0.773 OA
ATOM     23  H   UNL d   1      -2.636   1.989   0.062  0.00  0.00     0.167 HD
ENDBRANCH  20  22
ENDBRANCH   1  20
TORSDOF 9
