REMARK  4 active torsions:
REMARK  status: ('A' for Active; 'I' for Inactive)
REMARK    1  A    between atoms: N_10  and  C_2 
REMARK    2  A    between atoms: N_8  and  N_10 
REMARK    3  A    between atoms: C_11  and  C_14 
REMARK    4  A    between atoms: O_15  and  C_13 
ROOT
ATOM      1  N   UNL d   1      -0.360   3.139   0.219  0.00  0.00    -0.132 N 
ATOM      2  H   UNL d   1       0.340   3.469  -0.444  0.00  0.00     0.205 HD
ENDROOT
BRANCH   1   3
ATOM      3  N   UNL d   1      -1.579   3.731   0.326  0.00  0.00    -0.297 N 
ATOM      4  C   UNL d   1      -1.645   4.964  -0.067  0.00  0.00     0.121 C 
ATOM      5  HN  UNL d   1      -2.391   3.236   0.694  1.00  0.00     0.186 HD
BRANCH   4   6
ATOM      6  C   UNL d   1      -2.924   5.701   0.015  0.00  0.00     0.014 A 
ATOM      7  C   UNL d   1      -4.115   5.071   0.403  0.00  0.00     0.077 A 
ATOM      8  C   UNL d   1      -5.298   5.797   0.497  0.00  0.00     0.037 A 
ATOM      9  C   UNL d   1      -5.302   7.157   0.194  0.00  0.00     0.003 A 
ATOM     10  C   UNL d   1      -4.121   7.790  -0.201  0.00  0.00     0.001 A 
ATOM     11  C   UNL d   1      -2.929   7.065  -0.290  0.00  0.00     0.015 A 
BRANCH   7  12
ATOM     12  O   UNL d   1      -4.198   3.738   0.698  0.00  0.00    -0.360 OA
ATOM     13  H   UNL d   1      -3.308   3.353   0.551  0.00  0.00     0.217 HD
ENDBRANCH   7  12
ENDBRANCH   4   6
ENDBRANCH   1   3
BRANCH   1  14
ATOM     14  C   UNL d   1       0.004   2.007   0.903  0.00  0.00     0.700 A 
ATOM     15  N   UNL d   1      -0.908   1.536   1.805  0.00  0.00    -0.155 N 
ATOM     16  C   UNL d   1      -0.697   0.445   2.585  0.00  0.00     0.261 A 
ATOM     17  H   UNL d   1      -1.767   2.050   1.913  0.00  0.00     0.187 HD
ATOM     18  C   UNL d   1       0.595  -0.215   2.371  0.00  0.00     0.100 A 
ATOM     19  O   UNL d   1      -1.500   0.032   3.412  0.00  0.00    -0.268 OA
ATOM     20  C   UNL d   1       1.431   0.306   1.463  0.00  0.00     0.028 A 
ATOM     21  C   UNL d   1       2.772  -0.321   1.208  0.00  0.00     0.069 C 
ATOM     22  N   UNL d   1       1.151   1.429   0.715  0.00  0.00    -0.194 N 
ATOM     23  HN  UNL d   1       1.821   1.793   0.037  1.00  0.00     0.184 HD
ENDBRANCH   1  14
TORSDOF 4
