REMARK  2 active torsions:
REMARK  status: ('A' for Active; 'I' for Inactive)
REMARK    1  A    between atoms: N_2  and  S_1 
REMARK    2  A    between atoms: C_6  and  S_1 
ROOT
ATOM      1  N   UNL d   1       0.019  -1.478  -0.990  0.00  0.00    -0.265 N 
ATOM      2  C   UNL d   1      -0.989  -2.142  -0.216  0.00  0.00     0.072 A 
ATOM      3  C   UNL d   1       0.650  -2.188  -2.121  0.00  0.00     0.107 C 
ATOM      4  N   UNL d   1       0.132  -4.384  -0.031  0.00  0.00    -0.325 N 
ATOM      5  C   UNL d   1       1.170  -4.408  -0.894  0.00  0.00     0.224 C 
ATOM      6  C   UNL d   1       1.655  -3.225  -1.676  0.00  0.00     0.129 C 
ATOM      7  C   UNL d   1      -0.880  -3.455   0.261  0.00  0.00     0.062 A 
ATOM      8  O   UNL d   1       1.786  -5.478  -0.988  0.00  0.00    -0.273 OA
ATOM      9  C   UNL d   1      -2.151  -1.402   0.070  0.00  0.00     0.033 A 
ATOM     10  C   UNL d   1      -0.406  -2.721  -3.094  0.00  0.00     0.034 C 
ATOM     11  C   UNL d   1      -1.919  -3.965   1.066  0.00  0.00     0.032 A 
ATOM     12  C   UNL d   1      -3.188  -1.937   0.831  0.00  0.00     0.002 A 
ATOM     13  C   UNL d   1      -3.066  -3.219   1.342  0.00  0.00     0.002 A 
ATOM     14  H   UNL d   1       0.036  -5.295   0.404  0.00  0.00     0.169 HD
ENDROOT
BRANCH   1  15
ATOM     15  S   UNL d   1       0.895  -0.225  -0.216  0.00  0.00     0.265 S 
ATOM     16  O   UNL d   1       2.242  -0.688   0.036  0.00  0.00    -0.200 OA
ATOM     17  O   UNL d   1       0.103   0.391   0.827  0.00  0.00    -0.200 OA
BRANCH  15  18
ATOM     18  C   UNL d   1       0.982   0.979  -1.529  0.00  0.00     0.083 A 
ATOM     19  C   UNL d   1      -0.212   1.458  -2.074  0.00  0.00     0.067 A 
ATOM     20  C   UNL d   1      -0.154   2.338  -3.145  0.00  0.00     0.117 A 
ATOM     21  F   UNL d   1      -1.293   2.781  -3.692  0.00  0.00    -0.206 F 
ATOM     22  C   UNL d   1       1.066   2.752  -3.668  0.00  0.00     0.042 A 
ATOM     23  C   UNL d   1       2.257   2.286  -3.107  0.00  0.00     0.005 A 
ATOM     24  C   UNL d   1       2.219   1.396  -2.031  0.00  0.00     0.025 A 
ENDBRANCH  15  18
ENDBRANCH   1  15
TORSDOF 2
