REMARK  6 active torsions:
REMARK  status: ('A' for Active; 'I' for Inactive)
REMARK    1  A    between atoms: C_2  and  C_1 
REMARK       I    between atoms: N_3  and  C_1 
REMARK    2  A    between atoms: N_5  and  N_3 
REMARK       I    between atoms: C_4  and  N_5 
REMARK    3  A    between atoms: C_15  and  C_4 
REMARK    4  A    between atoms: C_12  and  C_16 
REMARK    5  A    between atoms: S_13  and  C_15 
REMARK    6  A    between atoms: C_16  and  S_13 
ROOT
ATOM      1  C   UNL d   1      -3.465   0.970  -2.520  0.00  0.00     0.178 C 
ENDROOT
BRANCH   1   2
ATOM      2  S   UNL d   1      -3.884   2.051  -3.925  0.00  0.00    -0.155 SA
BRANCH   2   3
ATOM      3  C   UNL d   1      -5.671   2.239  -3.623  0.00  0.00     0.113 C 
BRANCH   3   4
ATOM      4  C   UNL d   1      -6.323   3.072  -4.707  0.00  0.00    -0.038 A 
ATOM      5  C   UNL d   1      -6.828   2.507  -5.914  0.00  0.00    -0.019 A 
ATOM      6  C   UNL d   1      -7.444   3.365  -6.864  0.00  0.00    -0.025 A 
ATOM      7  C   UNL d   1      -6.754   1.131  -6.235  0.00  0.00     0.013 A 
ATOM      8  C   UNL d   1      -7.980   2.834  -8.049  0.00  0.00     0.012 A 
ATOM      9  C   UNL d   1      -7.515   4.744  -6.621  0.00  0.00     0.012 A 
ATOM     10  C   UNL d   1      -7.913   1.469  -8.322  0.00  0.00     0.001 A 
ATOM     11  C   UNL d   1      -7.292   0.619  -7.418  0.00  0.00     0.001 A 
ATOM     12  C   UNL d   1      -6.994   5.292  -5.453  0.00  0.00     0.001 A 
ATOM     13  C   UNL d   1      -6.406   4.463  -4.503  0.00  0.00     0.009 A 
ENDBRANCH   3   4
ENDBRANCH   2   3
ENDBRANCH   1   2
BRANCH   1  14
ATOM     14  C   UNL d   1      -1.984   0.621  -2.495  0.00  0.00     0.245 C 
ATOM     15  N   UNL d   1      -1.386   0.430  -3.726  0.00  0.00    -0.267 N 
ATOM     16  H   UNL d   1      -1.821   0.791  -4.577  0.00  0.00     0.190 HD
ATOM     17  O   UNL d   1      -1.375   0.425  -1.441  0.00  0.00    -0.271 OA
BRANCH  15  18
ATOM     18  N   UNL d   1      -0.004   0.212  -3.747  0.00  0.00    -0.260 N 
ATOM     19  C   UNL d   1       0.666   0.128  -4.962  0.00  0.00     0.343 C 
ATOM     20  O   UNL d   1       0.092   0.306  -6.038  0.00  0.00    -0.262 OA
ATOM     21  H   UNL d   1       0.455   0.056  -2.847  0.00  0.00     0.190 HD
BRANCH  19  22
ATOM     22  C   UNL d   1       2.159  -0.214  -4.814  0.00  0.00     0.473 C 
ATOM     23  F   UNL d   1       2.528  -0.334  -3.503  0.00  0.00    -0.162 F 
ATOM     24  F   UNL d   1       2.485  -1.395  -5.407  0.00  0.00    -0.162 F 
ATOM     25  F   UNL d   1       2.973   0.734  -5.351  0.00  0.00    -0.162 F 
ENDBRANCH  19  22
ENDBRANCH  15  18
ENDBRANCH   1  14
TORSDOF 6
