REMARK  4 active torsions:
REMARK  status: ('A' for Active; 'I' for Inactive)
REMARK    1  A    between atoms: N_5  and  C_1 
REMARK       I    between atoms: C_2  and  N_5 
REMARK       I    between atoms: N_9  and  C_2 
REMARK    2  A    between atoms: C_7  and  O_10 
REMARK    3  A    between atoms: C_15  and  N_9 
REMARK    4  A    between atoms: O_10  and  C_16 
ROOT
ATOM      1  C   UNL d   1       0.118  -3.937  -0.363  0.00  0.00     0.325 C 
ATOM      2  N   UNL d   1       0.869  -2.829  -0.169  0.00  0.00    -0.307 N 
ATOM      3  N   UNL d   1      -1.125  -4.007   0.204  0.00  0.00    -0.309 N 
ATOM      4  O   UNL d   1       0.697  -4.870  -0.925  0.00  0.00    -0.247 OA
ATOM      5  H   UNL d   1       1.841  -3.058  -0.344  0.00  0.00     0.170 HD
ATOM      6  H   UNL d   1      -1.335  -3.279   0.875  0.00  0.00     0.170 HD
ENDROOT
BRANCH   2   7
ATOM      7  C   UNL d   1       0.638  -1.510   0.197  0.00  0.00     0.054 A 
ATOM      8  C   UNL d   1      -0.538  -0.670   0.087  0.00  0.00     0.008 A 
ATOM      9  C   UNL d   1      -0.266   0.631   0.539  0.00  0.00     0.017 A 
ATOM     10  C   UNL d   1      -1.831  -0.892  -0.459  0.00  0.00     0.015 A 
ATOM     11  C   UNL d   1      -1.227   1.660   0.513  0.00  0.00     0.020 A 
ATOM     12  S   UNL d   1       1.354   0.804   1.083  0.00  0.00    -0.099 SA
ATOM     13  C   UNL d   1      -2.488   1.397  -0.012  0.00  0.00     0.001 A 
ATOM     14  C   UNL d   1      -2.786   0.133  -0.498  0.00  0.00     0.001 A 
ATOM     15  C   UNL d   1       1.725  -0.794   0.663  0.00  0.00     0.081 A 
ENDBRANCH   2   7
BRANCH   3  16
ATOM     16  C   UNL d   1      -1.882  -5.208   0.298  0.00  0.00     0.036 A 
ATOM     17  C   UNL d   1      -2.806  -5.341   1.335  0.00  0.00     0.032 A 
ATOM     18  C   UNL d   1      -3.425  -6.579   1.579  0.00  0.00     0.039 A 
ATOM     19  C   UNL d   1      -3.165  -7.689   0.768  0.00  0.00     0.078 A 
ATOM     20  C   UNL d   1      -2.310  -7.537  -0.315  0.00  0.00     0.039 A 
ATOM     21  C   UNL d   1      -1.687  -6.303  -0.554  0.00  0.00     0.032 A 
BRANCH  19  22
ATOM     22  O   UNL d   1      -3.668  -8.876   1.212  0.00  0.00    -0.255 OA
BRANCH  22  23
ATOM     23  C   UNL d   1      -4.151  -9.806   0.253  0.00  0.00     0.530 C 
ATOM     24  F   UNL d   1      -3.268 -10.069  -0.731  0.00  0.00    -0.144 F 
ATOM     25  F   UNL d   1      -4.406 -10.974   0.889  0.00  0.00    -0.144 F 
ATOM     26  F   UNL d   1      -5.307  -9.364  -0.286  0.00  0.00    -0.144 F 
ENDBRANCH  22  23
ENDBRANCH  19  22
ENDBRANCH   3  16
TORSDOF 4
