REMARK  4 active torsions:
REMARK  status: ('A' for Active; 'I' for Inactive)
REMARK    1  A    between atoms: C_13  and  C_2 
REMARK    2  A    between atoms: N_15  and  C_10 
REMARK    3  A    between atoms: C_11  and  C_17 
REMARK    4  A    between atoms: C_16  and  N_15 
ROOT
ATOM      1  N   UNL d   1       0.162   0.616   0.038  0.00  0.00    -0.219 N 
ATOM      2  C   UNL d   1       1.432   1.161  -0.098  0.00  0.00     0.154 A 
ATOM      3  N   UNL d   1       2.288   0.168  -0.296  0.00  0.00    -0.282 N 
ATOM      4  HN  UNL d   1       3.286   0.273  -0.478  1.00  0.00     0.188 HD
ATOM      5  C   UNL d   1       0.351  -0.751  -0.002  0.00  0.00     0.143 A 
ATOM      6  N   UNL d   1      -1.037   1.275   0.170  0.00  0.00    -0.276 N 
ATOM      7  HN  UNL d   1      -1.110   2.292   0.171  1.00  0.00     0.189 HD
ATOM      8  N   UNL d   1       1.615  -1.026  -0.216  0.00  0.00    -0.282 N 
ATOM      9  HN  UNL d   1       2.023  -1.956  -0.307  1.00  0.00     0.188 HD
ATOM     10  C   UNL d   1      -2.080   0.489   0.293  0.00  0.00     0.116 A 
ATOM     11  C   UNL d   1      -0.773  -1.573   0.192  0.00  0.00     0.056 A 
ATOM     12  C   UNL d   1      -1.976  -1.004   0.340  0.00  0.00     0.053 A 
ENDROOT
BRANCH   2  13
ATOM     13  C   UNL d   1       1.798   2.580  -0.038  0.00  0.00     0.011 A 
ATOM     14  C   UNL d   1       1.060   3.525   0.686  0.00  0.00     0.016 A 
ATOM     15  C   UNL d   1       1.476   4.860   0.765  0.00  0.00     0.017 A 
ATOM     16  C   UNL d   1       2.647   5.283   0.120  0.00  0.00     0.048 A 
ATOM     17  C   UNL d   1       3.392   4.343  -0.603  0.00  0.00     0.017 A 
ATOM     18  C   UNL d   1       2.973   3.010  -0.676  0.00  0.00     0.016 A 
BRANCH  16  19
ATOM     19  C   UNL d   1       3.115   6.717   0.206  0.00  0.00     0.417 C 
ATOM     20  F   UNL d   1       2.292   7.514   0.944  0.00  0.00    -0.166 F 
ATOM     21  F   UNL d   1       4.348   6.831   0.770  0.00  0.00    -0.166 F 
ATOM     22  F   UNL d   1       3.206   7.309  -1.017  0.00  0.00    -0.166 F 
ENDBRANCH  16  19
ENDBRANCH   2  13
BRANCH  10  23
ATOM     23  N   UNL d   1      -3.292   1.135   0.413  0.00  0.00    -0.371 N 
ATOM     24  H   UNL d   1      -3.170   2.136   0.277  0.00  0.00     0.161 HD
BRANCH  23  25
ATOM     25  C   UNL d   1      -4.517   0.570  -0.159  0.00  0.00     0.083 A 
ATOM     26  C   UNL d   1      -5.838   0.985   0.435  0.00  0.00     0.027 A 
ATOM     27  C   UNL d   1      -5.374  -0.435   0.557  0.00  0.00     0.027 A 
ENDBRANCH  23  25
ENDBRANCH  10  23
TORSDOF 4
