REMARK  3 active torsions:
REMARK  status: ('A' for Active; 'I' for Inactive)
REMARK    1  A    between atoms: C_15  and  N_9 
REMARK    2  A    between atoms: C_14  and  C_15 
REMARK    3  A    between atoms: C_20  and  C_16 
ROOT
ATOM      1  C   UNL d   1      -0.367  -0.820  -0.120  0.00  0.00     0.160 A 
ATOM      2  C   UNL d   1      -0.616   0.520  -0.153  0.00  0.00     0.165 A 
ATOM      3  N   UNL d   1      -1.514  -1.550  -0.105  0.00  0.00    -0.174 N 
ATOM      4  HN  UNL d   1      -1.599  -2.566  -0.080  1.00  0.00     0.186 HD
ATOM      5  N   UNL d   1       0.915  -1.314  -0.061  0.00  0.00    -0.287 N 
ATOM      6  C   UNL d   1      -2.492  -0.667  -0.128  0.00  0.00     0.685 A 
ATOM      7  N   UNL d   1       1.703   0.941  -0.067  0.00  0.00    -0.269 N 
ATOM      8  C   UNL d   1       1.998  -0.434  -0.034  0.00  0.00     0.332 A 
ATOM      9  N   UNL d   1      -1.987   0.628  -0.161  0.00  0.00    -0.171 N 
ATOM     10  C   UNL d   1       0.418   1.497  -0.125  0.00  0.00     0.282 A 
ATOM     11  N   UNL d   1      -3.820  -0.914   0.017  0.00  0.00    -0.213 N 
ATOM     12  O   UNL d   1       3.159  -0.851   0.025  0.00  0.00    -0.246 OA
ATOM     13  O   UNL d   1       0.207   2.706  -0.143  0.00  0.00    -0.265 OA
ATOM     14  C   UNL d   1       1.182  -2.738  -0.007  0.00  0.00     0.163 C 
ATOM     15  C   UNL d   1       2.808   1.881  -0.023  0.00  0.00     0.164 C 
ATOM     16  O   UNL d   1      -5.666  -2.846  -1.070  0.00  0.00    -0.388 OA
ATOM     17  C   UNL d   1      -4.211  -2.125   0.767  0.00  0.00     0.167 C 
ATOM     18  C   UNL d   1      -4.737  -0.573  -1.087  0.00  0.00     0.167 C 
ATOM     19  C   UNL d   1      -4.647  -3.272  -0.152  0.00  0.00     0.188 C 
ATOM     20  C   UNL d   1      -5.144  -1.805  -1.907  0.00  0.00     0.188 C 
ENDROOT
BRANCH   9  21
ATOM     21  C   UNL d   1      -2.744   1.862   0.035  0.00  0.00     0.175 C 
BRANCH  21  22
ATOM     22  C   UNL d   1      -2.903   2.670  -1.224  0.00  0.00    -0.005 C 
ATOM     23  C   UNL d   1      -4.085   3.080  -1.720  0.00  0.00     0.009 C 
BRANCH  23  24
ATOM     24  C   UNL d   1      -4.227   3.967  -2.890  0.00  0.00    -0.036 A 
ATOM     25  C   UNL d   1      -3.292   3.999  -3.934  0.00  0.00     0.011 A 
ATOM     26  C   UNL d   1      -3.442   4.890  -5.000  0.00  0.00     0.001 A 
ATOM     27  C   UNL d   1      -4.537   5.748  -5.047  0.00  0.00     0.000 A 
ATOM     28  C   UNL d   1      -5.496   5.701  -4.037  0.00  0.00     0.001 A 
ATOM     29  C   UNL d   1      -5.344   4.811  -2.969  0.00  0.00     0.011 A 
ENDBRANCH  23  24
ENDBRANCH  21  22
ENDBRANCH   9  21
TORSDOF 3
