REMARK  5 active torsions:
REMARK  status: ('A' for Active; 'I' for Inactive)
REMARK    1  A    between atoms: C_7  and  C_1 
REMARK    2  A    between atoms: C_6  and  N_2 
REMARK    3  A    between atoms: O_16  and  C_7 
REMARK    4  A    between atoms: O_17  and  C_14 
REMARK    5  A    between atoms: C_18  and  O_16 
ROOT
ATOM      1  C   UNL d   1       1.691  -1.132  -0.015  0.00  0.00     0.074 A 
ATOM      2  N   UNL d   1       1.730   1.114  -0.054  0.00  0.00    -0.344 N 
ATOM      3  C   UNL d   1       2.533  -0.017  -0.028  0.00  0.00     0.025 A 
ATOM      4  C   UNL d   1       0.348  -0.643  -0.017  0.00  0.00     0.012 A 
ATOM      5  C   UNL d   1       0.389   0.758  -0.013  0.00  0.00     0.046 A 
ATOM      6  C   UNL d   1      -0.815   1.498   0.028  0.00  0.00     0.033 A 
ATOM      7  C   UNL d   1      -0.911  -1.291  -0.004  0.00  0.00     0.051 A 
ATOM      8  C   UNL d   1       4.031  -0.009  -0.009  0.00  0.00     0.069 C 
ATOM      9  C   UNL d   1      -2.103  -0.560   0.018  0.00  0.00     0.069 A 
ATOM     10  C   UNL d   1      -2.045   0.822   0.042  0.00  0.00     0.039 A 
ENDROOT
BRANCH   1  11
ATOM     11  C   UNL d   1       2.084  -2.543   0.059  0.00  0.00     0.296 C 
ATOM     12  O   UNL d   1       1.288  -3.466   0.184  0.00  0.00    -0.259 OA
BRANCH  11  13
ATOM     13  O   UNL d   1       3.438  -2.713   0.055  0.00  0.00    -0.318 OA
BRANCH  13  14
ATOM     14  C   UNL d   1       3.913  -3.940   0.617  0.00  0.00     0.174 C 
ATOM     15  C   UNL d   1       4.016  -3.760   2.122  0.00  0.00     0.034 C 
ENDBRANCH  13  14
ENDBRANCH  11  13
ENDBRANCH   1  11
BRANCH   2  16
ATOM     16  C   UNL d   1       2.283   2.467  -0.158  0.00  0.00     0.090 A 
ATOM     17  C   UNL d   1       1.696   3.709   0.473  0.00  0.00     0.028 A 
ATOM     18  C   UNL d   1       1.639   3.543  -1.006  0.00  0.00     0.028 A 
ENDBRANCH   2  16
BRANCH   9  19
ATOM     19  O   UNL d   1      -3.232  -1.334   0.021  0.00  0.00    -0.356 OA
ATOM     20  C   UNL d   1      -4.482  -0.659  -0.004  0.00  0.00     0.210 C 
ENDBRANCH   9  19
TORSDOF 5
