REMARK  3 active torsions:
REMARK  status: ('A' for Active; 'I' for Inactive)
REMARK    1  A    between atoms: C_5  and  C_1 
REMARK    2  A    between atoms: O_13  and  N_6 
REMARK    3  A    between atoms: O_15  and  C_12 
ROOT
ATOM      1  C   UNL d   1       5.035  -0.670  -0.120  0.00  0.00    -0.011 A 
ATOM      2  C   UNL d   1       6.250  -1.368  -0.152  0.00  0.00     0.025 A 
ATOM      3  C   UNL d   1       7.478  -0.684  -0.156  0.00  0.00    -0.025 A 
ATOM      4  C   UNL d   1       7.486   0.726  -0.136  0.00  0.00    -0.023 A 
ATOM      5  C   UNL d   1       8.718   1.401  -0.132  0.00  0.00     0.049 A 
ATOM      6  C   UNL d   1       5.046   0.726  -0.121  0.00  0.00     0.014 A 
ATOM      7  C   UNL d   1       6.264   1.416  -0.126  0.00  0.00     0.013 A 
ATOM      8  C   UNL d   1       8.699  -1.377  -0.171  0.00  0.00     0.015 A 
ATOM      9  C   UNL d   1       9.931   0.705  -0.141  0.00  0.00     0.069 A 
ATOM     10  C   UNL d   1       9.916  -0.688  -0.164  0.00  0.00     0.037 A 
ENDROOT
BRANCH   1  11
ATOM     11  C   UNL d   1       3.761  -1.455  -0.102  0.00  0.00     0.038 C 
ATOM     12  N   UNL d   1       3.748  -2.635  -0.656  0.00  0.00    -0.273 N 
ATOM     13  HN  UNL d   1       4.553  -3.063  -1.113  1.00  0.00     0.193 HD
ATOM     14  C   UNL d   1       2.544  -0.867   0.584  0.00  0.00     0.071 C 
BRANCH  12  15
ATOM     15  O   UNL d   1       2.492  -3.243  -0.547  0.00  0.00    -0.290 OA
ATOM     16  H   UNL d   1       2.631  -4.091  -1.007  0.00  0.00     0.244 HD
ENDBRANCH  12  15
ENDBRANCH   1  11
BRANCH   9  17
ATOM     17  O   UNL d   1      11.048   1.496  -0.128  0.00  0.00    -0.356 OA
ATOM     18  C   UNL d   1      12.306   0.832  -0.124  0.00  0.00     0.210 C 
ENDBRANCH   9  17
TORSDOF 3
