REMARK  2 active torsions:
REMARK  status: ('A' for Active; 'I' for Inactive)
REMARK    1  A    between atoms: N_2  and  S_1 
REMARK    2  A    between atoms: C_3  and  S_1 
ROOT
ATOM      1  S   UNL d   1       1.038  -0.014  -0.210  0.00  0.00     0.265 S 
ATOM      2  O   UNL d   1       2.297   0.642  -0.511  0.00  0.00    -0.200 OA
ATOM      3  O   UNL d   1       1.008  -1.377   0.276  0.00  0.00    -0.200 OA
ENDROOT
BRANCH   1   4
ATOM      4  N   UNL d   1       0.007   0.166  -1.590  0.00  0.00    -0.271 N 
ATOM      5  C   UNL d   1       0.272  -0.775  -2.676  0.00  0.00     0.051 A 
ATOM      6  C   UNL d   1       0.588  -0.320  -3.971  0.00  0.00    -0.031 A 
ATOM      7  C   UNL d   1       0.185  -2.155  -2.454  0.00  0.00     0.031 A 
ATOM      8  C   UNL d   1       0.839  -1.249  -4.998  0.00  0.00     0.009 A 
ATOM      9  C   UNL d   1       0.598   1.142  -4.319  0.00  0.00     0.042 C 
ATOM     10  C   UNL d   1       0.784  -2.618  -4.747  0.00  0.00     0.001 A 
ATOM     11  C   UNL d   1       0.453  -3.070  -3.476  0.00  0.00     0.002 A 
ATOM     12  C   UNL d   1       0.757   2.015  -3.088  0.00  0.00     0.026 C 
ATOM     13  C   UNL d   1      -0.227   1.578  -2.017  0.00  0.00     0.142 C 
ENDBRANCH   1   4
BRANCH   1  14
ATOM     14  C   UNL d   1       0.229   0.951   1.059  0.00  0.00     0.080 A 
ATOM     15  C   UNL d   1       0.953   1.944   1.733  0.00  0.00     0.035 A 
ATOM     16  C   UNL d   1       0.321   2.611   2.768  0.00  0.00    -0.021 A 
ATOM     17  C   UNL d   1       0.824   3.696   3.640  0.00  0.00     0.068 C 
ATOM     18  C   UNL d   1      -0.994   2.325   3.103  0.00  0.00     0.075 A 
ATOM     19  C   UNL d   1      -0.270   3.668   4.710  0.00  0.00     0.180 C 
ATOM     20  O   UNL d   1      -1.467   3.076   4.148  0.00  0.00    -0.350 OA
ATOM     21  C   UNL d   1      -1.733   1.369   2.433  0.00  0.00     0.039 A 
ATOM     22  C   UNL d   1      -1.107   0.660   1.402  0.00  0.00     0.028 A 
ENDBRANCH   1  14
TORSDOF 2
