REMARK  0 active torsions:
REMARK  status: ('A' for Active; 'I' for Inactive)
ROOT
ATOM      1  C   UNL d   1       2.260  -0.839  -0.484  0.00  0.00     0.227 C 
ATOM      2  N   UNL d   1       1.032  -1.304  -0.162  0.00  0.00    -0.326 N 
ATOM      3  S   UNL d   1       0.651   1.811   0.915  0.00  0.00    -0.122 SA
ATOM      4  C   UNL d   1       2.760   0.590  -0.330  0.00  0.00     0.088 C 
ATOM      5  C   UNL d   1       1.776   1.743  -0.505  0.00  0.00     0.061 C 
ATOM      6  C   UNL d   1      -0.231  -0.733   0.062  0.00  0.00     0.051 A 
ATOM      7  C   UNL d   1      -0.528   0.586   0.430  0.00  0.00     0.027 A 
ATOM      8  O   UNL d   1       3.043  -1.717  -0.878  0.00  0.00    -0.273 OA
ATOM      9  C   UNL d   1       3.958   0.799  -1.277  0.00  0.00     0.021 C 
ATOM     10  C   UNL d   1       1.063   1.829  -1.855  0.00  0.00     0.022 C 
ATOM     11  C   UNL d   1      -1.301  -1.616  -0.184  0.00  0.00     0.031 A 
ATOM     12  C   UNL d   1      -1.873   1.003   0.457  0.00  0.00     0.021 A 
ATOM     13  C   UNL d   1      -2.625  -1.184  -0.178  0.00  0.00     0.002 A 
ATOM     14  C   UNL d   1      -2.916   0.135   0.130  0.00  0.00     0.002 A 
ATOM     15  H   UNL d   1       1.026  -2.303  -0.340  0.00  0.00     0.169 HD
ENDROOT
TORSDOF 0
