REMARK  4 active torsions:
REMARK  status: ('A' for Active; 'I' for Inactive)
REMARK    1  A    between atoms: C_15  and  C_9 
REMARK    2  A    between atoms: S_12  and  C_15 
REMARK    3  A    between atoms: C_16  and  S_12 
REMARK    4  A    between atoms: O_22  and  C_17 
ROOT
ATOM      1  C   UNL d   1      -0.209  -0.012   0.448  0.00  0.00     0.045 A 
ATOM      2  C   UNL d   1      -0.471   0.654  -0.745  0.00  0.00     0.131 A 
ATOM      3  C   UNL d   1       0.521   1.231  -1.535  0.00  0.00     0.192 A 
ATOM      4  C   UNL d   1       1.836   1.126  -1.088  0.00  0.00     0.199 A 
ATOM      5  C   UNL d   1       2.137   0.469   0.099  0.00  0.00     0.197 A 
ATOM      6  C   UNL d   1       1.126  -0.104   0.874  0.00  0.00     0.171 A 
ATOM      7  O   UNL d   1      -1.810   0.655  -0.997  0.00  0.00    -0.310 OA
ATOM      8  C   UNL d   1      -1.471  -0.438   0.941  0.00  0.00     0.051 A 
ATOM      9  C   UNL d   1      -2.418  -0.013   0.029  0.00  0.00     0.064 A 
ATOM     10  F   UNL d   1       0.231   1.871  -2.675  0.00  0.00    -0.200 F 
ATOM     11  F   UNL d   1       2.826   1.673  -1.811  0.00  0.00    -0.199 F 
ATOM     12  F   UNL d   1       3.411   0.387   0.509  0.00  0.00    -0.199 F 
ATOM     13  F   UNL d   1       1.431  -0.728   2.020  0.00  0.00    -0.202 F 
ENDROOT
BRANCH   9  14
ATOM     14  C   UNL d   1      -3.904  -0.098  -0.022  0.00  0.00     0.144 C 
BRANCH  14  15
ATOM     15  S   UNL d   1      -4.464  -1.833  -0.028  0.00  0.00    -0.123 SA
BRANCH  15  16
ATOM     16  C   UNL d   1      -6.250  -1.701  -0.013  0.00  0.00     0.001 A 
ATOM     17  C   UNL d   1      -6.970  -0.503  -0.006  0.00  0.00     0.021 A 
ATOM     18  C   UNL d   1      -8.374  -0.504   0.006  0.00  0.00     0.038 A 
ATOM     19  C   UNL d   1      -9.079  -1.706   0.012  0.00  0.00     0.068 A 
ATOM     20  C   UNL d   1      -8.368  -2.904   0.006  0.00  0.00     0.038 A 
ATOM     21  C   UNL d   1      -6.968  -2.903  -0.005  0.00  0.00     0.021 A 
BRANCH  19  22
ATOM     22  O   UNL d   1     -10.439  -1.844   0.022  0.00  0.00    -0.356 OA
ATOM     23  C   UNL d   1     -11.210  -0.649   0.018  0.00  0.00     0.210 C 
ENDBRANCH  19  22
ENDBRANCH  15  16
ENDBRANCH  14  15
ENDBRANCH   9  14
TORSDOF 4
