REMARK  4 active torsions:
REMARK  status: ('A' for Active; 'I' for Inactive)
REMARK    1  A    between atoms: N_2  and  C_1 
REMARK    2  A    between atoms: N_3  and  C_1 
REMARK    3  A    between atoms: C_4  and  N_2 
REMARK    4  A    between atoms: C_5  and  N_3 
ROOT
ATOM      1  C   UNL d   1       1.116  -0.338   0.216  0.00  0.00     0.176 C 
ATOM      2  S   UNL d   1       2.706  -0.849   0.118  0.00  0.00    -0.041 SA
ENDROOT
BRANCH   1   3
ATOM      3  N   UNL d   1       0.630   0.675   1.008  0.00  0.00    -0.333 N 
ATOM      4  H   UNL d   1      -0.268   0.465   1.429  0.00  0.00     0.168 HD
BRANCH   3   5
ATOM      5  C   UNL d   1       1.238   1.887   1.390  0.00  0.00     0.040 A 
ATOM      6  C   UNL d   1       0.861   2.527   2.583  0.00  0.00    -0.035 A 
ATOM      7  C   UNL d   1       1.335   3.829   2.838  0.00  0.00     0.015 A 
ATOM      8  C   UNL d   1       0.004   1.891   3.643  0.00  0.00     0.050 C 
ATOM      9  C   UNL d   1       2.179   4.487   1.937  0.00  0.00    -0.061 A 
ATOM     10  C   UNL d   1       2.579   3.824   0.778  0.00  0.00     0.009 A 
ATOM     11  C   UNL d   1       2.638   5.888   2.221  0.00  0.00     0.048 C 
ATOM     12  C   UNL d   1       2.113   2.536   0.506  0.00  0.00     0.030 A 
ENDBRANCH   3   5
ENDBRANCH   1   3
BRANCH   1  13
ATOM     13  N   UNL d   1       0.151  -1.086  -0.416  0.00  0.00    -0.333 N 
ATOM     14  H   UNL d   1       0.459  -2.007  -0.707  0.00  0.00     0.168 HD
BRANCH  13  15
ATOM     15  C   UNL d   1      -1.043  -0.624  -1.020  0.00  0.00     0.040 A 
ATOM     16  C   UNL d   1      -2.059  -1.538  -1.345  0.00  0.00    -0.035 A 
ATOM     17  C   UNL d   1      -3.188  -1.084  -2.054  0.00  0.00     0.015 A 
ATOM     18  C   UNL d   1      -2.027  -2.990  -0.950  0.00  0.00     0.050 C 
ATOM     19  C   UNL d   1      -3.322   0.256  -2.436  0.00  0.00    -0.061 A 
ATOM     20  C   UNL d   1      -2.311   1.155  -2.100  0.00  0.00     0.009 A 
ATOM     21  C   UNL d   1      -4.538   0.706  -3.191  0.00  0.00     0.048 C 
ATOM     22  C   UNL d   1      -1.185   0.719  -1.399  0.00  0.00     0.030 A 
ENDBRANCH  13  15
ENDBRANCH   1  13
TORSDOF 4
