REMARK  6 active torsions:
REMARK  status: ('A' for Active; 'I' for Inactive)
REMARK    1  A    between atoms: S_3  and  C_1 
REMARK    2  A    between atoms: C_8  and  C_2 
REMARK    3  A    between atoms: N_9  and  S_3 
REMARK    4  A    between atoms: C_12  and  C_4 
REMARK    5  A    between atoms: C_7  and  C_5 
REMARK    6  A    between atoms: O_17  and  C_8 
ROOT
ATOM      1  C   UNL d   1       1.502   0.807  -0.065  0.00  0.00     0.110 A 
ATOM      2  C   UNL d   1       0.212   1.321  -0.061  0.00  0.00     0.104 A 
ATOM      3  C   UNL d   1       1.530  -0.680  -0.027  0.00  0.00     0.021 A 
ATOM      4  C   UNL d   1       0.229  -1.190  -0.091  0.00  0.00     0.102 A 
ATOM      5  S   UNL d   1      -0.940   0.057  -0.099  0.00  0.00    -0.077 SA
ENDROOT
BRANCH   1   6
ATOM      6  S   UNL d   1       2.965   1.779  -0.124  0.00  0.00     0.245 S 
ATOM      7  O   UNL d   1       3.709   1.349   1.030  0.00  0.00    -0.206 OA
ATOM      8  O   UNL d   1       3.416   1.542  -1.474  0.00  0.00    -0.206 OA
BRANCH   6   9
ATOM      9  N   UNL d   1       2.714   3.440   0.010  0.00  0.00    -0.215 NA
ATOM     10  C   UNL d   1       2.631   3.995   1.368  0.00  0.00     0.129 C 
ATOM     11  C   UNL d   1       3.565   4.257  -0.887  0.00  0.00     0.129 C 
ENDBRANCH   6   9
ENDBRANCH   1   6
BRANCH   2  12
ATOM     12  C   UNL d   1      -0.326   2.675  -0.087  0.00  0.00     0.301 C 
ATOM     13  O   UNL d   1       0.111   3.632  -0.710  0.00  0.00    -0.259 OA
BRANCH  12  14
ATOM     14  O   UNL d   1      -1.467   2.725   0.668  0.00  0.00    -0.322 OA
ATOM     15  C   UNL d   1      -2.208   3.946   0.620  0.00  0.00     0.213 C 
ENDBRANCH  12  14
ENDBRANCH   2  12
BRANCH   3  16
ATOM     16  C   UNL d   1       2.706  -1.590   0.051  0.00  0.00    -0.023 A 
ATOM     17  C   UNL d   1       2.692  -2.722   0.884  0.00  0.00     0.012 A 
ATOM     18  C   UNL d   1       3.749  -3.643   0.889  0.00  0.00     0.001 A 
ATOM     19  C   UNL d   1       4.900  -3.393   0.152  0.00  0.00     0.000 A 
ATOM     20  C   UNL d   1       4.971  -2.244  -0.621  0.00  0.00     0.001 A 
ATOM     21  C   UNL d   1       3.866  -1.387  -0.707  0.00  0.00     0.012 A 
ENDBRANCH   3  16
BRANCH   4  22
ATOM     22  C   UNL d   1      -0.355  -2.579  -0.128  0.00  0.00     0.424 C 
ATOM     23  F   UNL d   1       0.531  -3.574  -0.365  0.00  0.00    -0.166 F 
ATOM     24  F   UNL d   1      -0.963  -2.875   1.053  0.00  0.00    -0.166 F 
ATOM     25  F   UNL d   1      -1.309  -2.703  -1.091  0.00  0.00    -0.166 F 
ENDBRANCH   4  22
TORSDOF 6
