REMARK  4 active torsions:
REMARK  status: ('A' for Active; 'I' for Inactive)
REMARK    1  A    between atoms: C_3  and  C_1 
REMARK    2  A    between atoms: C_4  and  CA_2 
REMARK       I    between atoms: N_5  and  C_3 
REMARK    3  A    between atoms: OXT_13  and  C_4 
REMARK    4  A    between atoms: C_12  and  N_5 
ROOT
ATOM      1  C   UNL d   1      -0.613  -1.235   0.474  0.00  0.00     0.134 A 
ATOM      2  CA  UNL d   1      -1.094   0.023   0.804  0.00  0.00     0.139 A 
ATOM      3  N   UNL d   1       0.696  -1.452   0.128  0.00  0.00    -0.358 N 
ATOM      4  HN  UNL d   1       1.066  -2.382  -0.067  1.00  0.00     0.165 HD
ATOM      5  N   UNL d   1      -0.305   1.141   0.736  0.00  0.00    -0.357 N 
ATOM      6  HN  UNL d   1      -0.656   2.069   0.971  1.00  0.00     0.165 HD
ATOM      7  C   UNL d   1       0.969   0.931   0.337  0.00  0.00     0.105 A 
ATOM      8  C   UNL d   1       1.463  -0.335   0.063  0.00  0.00     0.105 A 
ENDROOT
BRANCH   1   9
ATOM      9  C   UNL d   1      -1.528  -2.393   0.289  0.00  0.00     0.275 C 
ATOM     10  N   UNL d   1      -0.944  -3.629   0.515  0.00  0.00    -0.322 N 
ATOM     11  H   UNL d   1       0.015  -3.610   0.850  0.00  0.00     0.169 HD
ATOM     12  O   UNL d   1      -2.678  -2.179  -0.080  0.00  0.00    -0.266 OA
BRANCH  10  13
ATOM     13  C   UNL d   1      -1.519  -4.894   0.273  0.00  0.00     0.035 A 
ATOM     14  C   UNL d   1      -2.740  -5.075  -0.384  0.00  0.00     0.031 A 
ATOM     15  C   UNL d   1      -3.224  -6.360  -0.651  0.00  0.00     0.026 A 
ATOM     16  C   UNL d   1      -2.495  -7.473  -0.248  0.00  0.00     0.034 A 
ATOM     17  C   UNL d   1      -1.288  -7.311   0.428  0.00  0.00     0.026 A 
ATOM     18 CL   UNL d   1      -3.079  -9.053  -0.597  0.00  0.00    -0.084 Cl
ATOM     19  C   UNL d   1      -0.799  -6.024   0.682  0.00  0.00     0.031 A 
ENDBRANCH  10  13
ENDBRANCH   1   9
BRANCH   2  20
ATOM     20  C   UNL d   1      -2.414   0.177   1.453  0.00  0.00     0.196 C 
ATOM     21  O   UNL d   1      -2.863  -0.560   2.314  0.00  0.00    -0.645 OA
BRANCH  20  22
ATOM     22  OXT UNL d   1      -3.063   1.288   1.061  0.00  0.00    -0.772 OA
ATOM     23  HXT UNL d   1      -3.886   1.284   1.592  0.00  0.00     0.167 HD
ENDBRANCH  20  22
ENDBRANCH   2  20
TORSDOF 4
