REMARK  4 active torsions:
REMARK  status: ('A' for Active; 'I' for Inactive)
REMARK    1  A    between atoms: C_6  and  N_1 
REMARK    2  A    between atoms: C_5  and  C_6 
REMARK       I    between atoms: N_11  and  C_5 
REMARK    3  A    between atoms: N_8  and  N_11 
REMARK    4  A    between atoms: C_15  and  C_14 
ROOT
ATOM      1  C   UNL d   1       2.644   2.913  -0.502  0.00  0.00     0.254 C 
ATOM      2  N   UNL d   1       3.616   2.295  -1.293  0.00  0.00    -0.269 N 
ATOM      3  O   UNL d   1       2.872   3.751   0.370  0.00  0.00    -0.270 OA
ATOM      4  H   UNL d   1       3.358   1.379  -1.667  0.00  0.00     0.190 HD
ENDROOT
BRANCH   1   5
ATOM      5  C   UNL d   1       1.189   2.442  -0.811  0.00  0.00     0.236 C 
BRANCH   5   6
ATOM      6  N   UNL d   1       0.733   1.189  -0.176  0.00  0.00    -0.307 N 
ATOM      7  C   UNL d   1       1.628   0.115  -0.163  0.00  0.00     0.234 C 
ATOM      8  C   UNL d   1       1.314  -0.935   0.871  0.00  0.00     0.182 C 
ATOM      9  O   UNL d   1       2.603   0.029  -0.901  0.00  0.00    -0.272 OA
ATOM     10  S   UNL d   1      -0.072  -1.881   0.248  0.00  0.00    -0.118 SA
ATOM     11  C   UNL d   1      -1.156  -0.473   0.010  0.00  0.00     0.028 A 
ATOM     12  C   UNL d   1      -0.697   0.871  -0.112  0.00  0.00     0.054 A 
ATOM     13  C   UNL d   1      -2.524  -0.790  -0.036  0.00  0.00     0.021 A 
ATOM     14  C   UNL d   1      -1.687   1.864  -0.218  0.00  0.00     0.031 A 
ATOM     15  C   UNL d   1      -3.052   1.543  -0.225  0.00  0.00     0.002 A 
ATOM     16  C   UNL d   1      -3.474   0.214  -0.146  0.00  0.00     0.002 A 
ENDBRANCH   5   6
ENDBRANCH   1   5
BRANCH   2  17
ATOM     17  N   UNL d   1       4.955   2.492  -1.031  0.00  0.00    -0.308 N 
ATOM     18  C   UNL d   1       5.753   1.639  -1.602  0.00  0.00     0.118 C 
ATOM     19  HN  UNL d   1       5.293   3.248  -0.435  1.00  0.00     0.186 HD
BRANCH  18  20
ATOM     20  C   UNL d   1       7.211   1.605  -1.334  0.00  0.00    -0.019 A 
ATOM     21  C   UNL d   1       7.813   2.570  -0.521  0.00  0.00     0.014 A 
ATOM     22  C   UNL d   1       9.160   2.442  -0.165  0.00  0.00     0.024 A 
ATOM     23  C   UNL d   1       9.903   1.356  -0.626  0.00  0.00     0.034 A 
ATOM     24  C   UNL d   1       9.322   0.415  -1.476  0.00  0.00     0.024 A 
ATOM     25 CL   UNL d   1      11.535   1.159  -0.119  0.00  0.00    -0.084 Cl
ATOM     26  C   UNL d   1       7.974   0.542  -1.837  0.00  0.00     0.014 A 
ENDBRANCH  18  20
ENDBRANCH   2  17
TORSDOF 4
