REMARK  6 active torsions:
REMARK  status: ('A' for Active; 'I' for Inactive)
REMARK    1  A    between atoms: C_3  and  C_1 
REMARK    2  A    between atoms: O_12  and  C_2 
REMARK    3  A    between atoms: O_5  and  C_3 
REMARK    4  A    between atoms: C_8  and  O_5 
REMARK    5  A    between atoms: N_6  and  C_9 
REMARK    6  A    between atoms: C_11  and  O_12 
ROOT
ATOM      1  C   UNL d   1      -1.740   3.833  -0.637  0.00  0.00     0.322 C 
ATOM      2  O   UNL d   1      -2.524   4.601  -0.092  0.00  0.00    -0.257 OA
ENDROOT
BRANCH   1   3
ATOM      3  C   UNL d   1      -0.788   4.221  -1.661  0.00  0.00     0.153 A 
ATOM      4  O   UNL d   1      -0.033   3.279  -2.317  0.00  0.00    -0.281 OA
ATOM      5  C   UNL d   1       0.673   3.924  -3.292  0.00  0.00     0.191 A 
ATOM      6  C   UNL d   1       0.425   5.280  -3.235  0.00  0.00     0.067 A 
ATOM      7  C   UNL d   1      -0.524   5.467  -2.200  0.00  0.00     0.048 A 
BRANCH   5   8
ATOM      8  O   UNL d   1       1.413   3.119  -4.055  0.00  0.00    -0.288 OA
BRANCH   8   9
ATOM      9  C   UNL d   1       1.817   3.519  -5.309  0.00  0.00     0.081 A 
ATOM     10  C   UNL d   1       3.127   3.228  -5.692  0.00  0.00     0.061 A 
ATOM     11  C   UNL d   1       3.571   3.585  -6.966  0.00  0.00     0.038 A 
ATOM     12 CL   UNL d   1       5.189   3.236  -7.440  0.00  0.00    -0.084 Cl
ATOM     13  C   UNL d   1       2.717   4.221  -7.866  0.00  0.00     0.048 A 
ATOM     14  C   UNL d   1       1.404   4.482  -7.486  0.00  0.00     0.038 A 
ATOM     15  C   UNL d   1       0.943   4.121  -6.220  0.00  0.00     0.061 A 
ATOM     16 CL   UNL d   1       0.335   5.256  -8.590  0.00  0.00    -0.084 Cl
ENDBRANCH   8   9
ENDBRANCH   5   8
ENDBRANCH   1   3
BRANCH   1  17
ATOM     17  O   UNL d   1      -1.680   2.462  -0.413  0.00  0.00    -0.271 OA
BRANCH  17  18
ATOM     18  C   UNL d   1      -2.890   1.827  -0.033  0.00  0.00     0.106 A 
ATOM     19  C   UNL d   1      -2.868   0.870   1.007  0.00  0.00     0.064 A 
ATOM     20  C   UNL d   1      -4.015   0.070   1.143  0.00  0.00     0.032 A 
ATOM     21  C   UNL d   1      -5.129   0.227   0.307  0.00  0.00     0.002 A 
ATOM     22  C   UNL d   1      -5.133   1.204  -0.682  0.00  0.00     0.003 A 
ATOM     23  C   UNL d   1      -4.010   2.002  -0.862  0.00  0.00     0.040 A 
BRANCH  19  24
ATOM     24  N   UNL d   1      -1.743   0.711   1.827  0.00  0.00    -0.379 N 
ATOM     25  C   UNL d   1      -1.514  -0.580   2.488  0.00  0.00     0.123 C 
ATOM     26  C   UNL d   1      -0.027  -0.685   2.833  0.00  0.00     0.020 C 
ATOM     27  C   UNL d   1       0.446   0.505   3.670  0.00  0.00     0.003 C 
ATOM     28  C   UNL d   1       0.035   1.838   3.041  0.00  0.00     0.020 C 
ATOM     29  C   UNL d   1      -1.456   1.861   2.700  0.00  0.00     0.123 C 
ENDBRANCH  19  24
ENDBRANCH  17  18
ENDBRANCH   1  17
TORSDOF 6
