REMARK  7 active torsions:
REMARK  status: ('A' for Active; 'I' for Inactive)
REMARK    1  A    between atoms: C_10  and  N_1 
REMARK    2  A    between atoms: S_8  and  C_2 
REMARK    3  A    between atoms: O_15  and  C_3 
REMARK    4  A    between atoms: C_14  and  S_8 
REMARK    5  A    between atoms: C_9  and  C_14 
REMARK       I    between atoms: N_11  and  C_9 
REMARK    6  A    between atoms: C_18  and  N_11 
REMARK    7  A    between atoms: C_19  and  C_12 
ROOT
ATOM      1  N   UNL d   1       0.140   0.126   0.362  0.00  0.00    -0.255 N 
ATOM      2  C   UNL d   1       0.706  -1.135   0.250  0.00  0.00     0.169 A 
ATOM      3  C   UNL d   1      -1.169  -0.141   0.743  0.00  0.00     0.245 A 
ATOM      4  N   UNL d   1      -0.210  -2.062   0.417  0.00  0.00    -0.276 N 
ATOM      5  HN  UNL d   1      -0.071  -3.068   0.322  1.00  0.00     0.189 HD
ATOM      6  N   UNL d   1      -1.387  -1.436   0.742  0.00  0.00    -0.263 N 
ATOM      7  HN  UNL d   1      -2.275  -1.895   0.947  1.00  0.00     0.190 HD
ENDROOT
BRANCH   2   8
ATOM      8  S   UNL d   1       2.423  -1.457   0.183  0.00  0.00    -0.083 SA
BRANCH   8   9
ATOM      9  C   UNL d   1       2.380  -3.237  -0.118  0.00  0.00     0.185 C 
BRANCH   9  10
ATOM     10  C   UNL d   1       3.721  -3.946  -0.133  0.00  0.00     0.231 C 
ATOM     11  N   UNL d   1       4.853  -3.211   0.143  0.00  0.00    -0.327 N 
ATOM     12  H   UNL d   1       4.716  -2.259   0.467  0.00  0.00     0.169 HD
ATOM     13  O   UNL d   1       3.713  -5.154  -0.389  0.00  0.00    -0.272 OA
BRANCH  11  14
ATOM     14  C   UNL d   1       6.197  -3.658   0.026  0.00  0.00     0.034 A 
ATOM     15  C   UNL d   1       6.540  -4.894  -0.524  0.00  0.00     0.030 A 
ATOM     16  C   UNL d   1       7.876  -5.272  -0.684  0.00  0.00     0.010 A 
ATOM     17  C   UNL d   1       8.916  -4.421  -0.300  0.00  0.00    -0.055 A 
ATOM     18  C   UNL d   1       8.579  -3.191   0.281  0.00  0.00     0.010 A 
ATOM     19  C   UNL d   1       7.232  -2.811   0.438  0.00  0.00     0.030 A 
BRANCH  17  20
ATOM     20  C   UNL d   1      10.366  -4.801  -0.554  0.00  0.00     0.010 C 
ATOM     21  C   UNL d   1      10.763  -6.093   0.169  0.00  0.00     0.015 C 
ATOM     22  C   UNL d   1      10.634  -4.930  -2.058  0.00  0.00     0.015 C 
ENDBRANCH  17  20
ENDBRANCH  11  14
ENDBRANCH   9  10
ENDBRANCH   8   9
ENDBRANCH   2   8
BRANCH   1  23
ATOM     23  C   UNL d   1       0.754   1.385   0.150  0.00  0.00     0.045 A 
ATOM     24  C   UNL d   1       1.674   1.541  -0.898  0.00  0.00     0.030 A 
ATOM     25  C   UNL d   1       2.341   2.752  -1.072  0.00  0.00     0.002 A 
ATOM     26  C   UNL d   1       2.082   3.816  -0.212  0.00  0.00     0.000 A 
ATOM     27  C   UNL d   1       1.143   3.677   0.811  0.00  0.00     0.002 A 
ATOM     28  C   UNL d   1       0.473   2.466   0.995  0.00  0.00     0.030 A 
ENDBRANCH   1  23
BRANCH   3  29
ATOM     29  O   UNL d   1      -2.135   0.736   0.987  0.00  0.00    -0.331 OA
ATOM     30  H   UNL d   1      -1.873   1.604   0.642  0.00  0.00     0.221 HD
ENDBRANCH   3  29
TORSDOF 7
