REMARK  3 active torsions:
REMARK  status: ('A' for Active; 'I' for Inactive)
REMARK    1  A    between atoms: C_3  and  C_1 
REMARK    2  A    between atoms: O_6  and  C_3 
REMARK    3  A    between atoms: C_9  and  O_6 
ROOT
ATOM      1  O   UNL d   1       3.753  -1.177   0.068  0.00  0.00    -0.272 OA
ENDROOT
BRANCH   1   2
ATOM      2  C   UNL d   1       3.490  -1.818  -1.144  0.00  0.00     0.317 C 
ATOM      3  O   UNL d   1       3.432  -1.263  -2.238  0.00  0.00    -0.257 OA
BRANCH   2   4
ATOM      4  C   UNL d   1       3.307  -3.252  -0.986  0.00  0.00     0.128 A 
ATOM      5  N   UNL d   1       3.191  -3.851   0.266  0.00  0.00    -0.287 N 
ATOM      6  N   UNL d   1       3.011  -5.158   0.174  0.00  0.00    -0.061 NA
ATOM      7  HN  UNL d   1       3.240  -3.342   1.148  1.00  0.00     0.183 HD
ATOM      8  S   UNL d   1       2.993  -5.706  -1.406  0.00  0.00    -0.010 SA
ATOM      9  C   UNL d   1       3.229  -4.138  -2.052  0.00  0.00     0.102 A 
ENDBRANCH   2   4
ENDBRANCH   1   2
BRANCH   1  10
ATOM     10  C   UNL d   1       3.969   0.217   0.065  0.00  0.00     0.101 A 
ATOM     11  C   UNL d   1       3.340   0.992   1.048  0.00  0.00     0.069 A 
ATOM     12  C   UNL d   1       3.551   2.372   1.089  0.00  0.00     0.050 A 
ATOM     13 CL   UNL d   1       2.304   0.278   2.228  0.00  0.00    -0.081 Cl
ATOM     14  C   UNL d   1       4.391   2.965   0.149  0.00  0.00     0.035 A 
ATOM     15  C   UNL d   1       5.042   2.193  -0.814  0.00  0.00     0.026 A 
ATOM     16 CL   UNL d   1       4.636   4.669   0.178  0.00  0.00    -0.084 Cl
ATOM     17  C   UNL d   1       4.846   0.812  -0.847  0.00  0.00     0.041 A 
ENDBRANCH   1  10
TORSDOF 3
