REMARK  4 active torsions:
REMARK  status: ('A' for Active; 'I' for Inactive)
REMARK    1  A    between atoms: C_5  and  C_1 
REMARK    2  A    between atoms: C_8  and  C_2 
REMARK    3  A    between atoms: O_12  and  C_5 
REMARK    4  A    between atoms: C_17  and  O_12 
ROOT
ATOM      1  C   UNL d   1      -0.794  -1.071   0.066  0.00  0.00     0.144 A 
ATOM      2  C   UNL d   1       0.589  -1.118   0.047  0.00  0.00     0.119 A 
ATOM      3  N   UNL d   1      -1.210   0.254   0.119  0.00  0.00    -0.340 N 
ATOM      4  HN  UNL d   1      -2.164   0.614   0.170  1.00  0.00     0.167 HD
ATOM      5  C   UNL d   1      -0.089   0.932   0.086  0.00  0.00     0.234 A 
ATOM      6  O   UNL d   1       1.041   0.180   0.041  0.00  0.00    -0.303 OA
ENDROOT
BRANCH   2   7
ATOM      7  C   UNL d   1       1.612  -2.153   0.083  0.00  0.00     0.000 A 
ATOM      8  C   UNL d   1       2.855  -1.960  -0.536  0.00  0.00     0.016 A 
ATOM      9  C   UNL d   1       3.849  -2.942  -0.466  0.00  0.00     0.024 A 
ATOM     10  C   UNL d   1       3.605  -4.127   0.225  0.00  0.00     0.034 A 
ATOM     11  C   UNL d   1       2.375  -4.341   0.838  0.00  0.00     0.024 A 
ATOM     12 CL   UNL d   1       4.832  -5.327   0.334  0.00  0.00    -0.084 Cl
ATOM     13  C   UNL d   1       1.387  -3.356   0.770  0.00  0.00     0.016 A 
ENDBRANCH   2   7
BRANCH   1  14
ATOM     14  C   UNL d   1      -1.704  -2.200  -0.028  0.00  0.00     0.312 C 
ATOM     15  O   UNL d   1      -1.411  -3.269  -0.544  0.00  0.00    -0.258 OA
BRANCH  14  16
ATOM     16  O   UNL d   1      -2.937  -1.904   0.479  0.00  0.00    -0.317 OA
BRANCH  16  17
ATOM     17  C   UNL d   1      -3.989  -2.789   0.082  0.00  0.00     0.175 C 
ATOM     18  C   UNL d   1      -4.566  -2.255  -1.215  0.00  0.00     0.034 C 
ENDBRANCH  16  17
ENDBRANCH  14  16
ENDBRANCH   1  14
TORSDOF 4
