REMARK  7 active torsions:
REMARK  status: ('A' for Active; 'I' for Inactive)
REMARK    1  A    between atoms: C_8  and  N_1 
REMARK    2  A    between atoms: S_9  and  C_2 
REMARK    3  A    between atoms: O_15  and  C_3 
REMARK    4  A    between atoms: C_12  and  C_8 
REMARK    5  A    between atoms: C_14  and  S_9 
REMARK    6  A    between atoms: C_10  and  C_14 
REMARK       I    between atoms: N_11  and  C_10 
REMARK    7  A    between atoms: C_16  and  N_11 
ROOT
ATOM      1  N   UNL d   1      -0.308  -1.290  -0.177  0.00  0.00    -0.282 N 
ATOM      2  C   UNL d   1       0.979  -0.838  -0.332  0.00  0.00     0.165 C 
ATOM      3  C   UNL d   1      -1.013  -0.177   0.217  0.00  0.00     0.241 C 
ATOM      4  N   UNL d   1       1.065   0.398   0.114  0.00  0.00    -0.277 N 
ATOM      5  HN  UNL d   1       1.921   0.947   0.194  1.00  0.00     0.189 HD
ATOM      6  N   UNL d   1      -0.191   0.818   0.451  0.00  0.00    -0.263 N 
ATOM      7  HN  UNL d   1      -0.442   1.736   0.817  1.00  0.00     0.190 HD
ENDROOT
BRANCH   2   8
ATOM      8  S   UNL d   1       2.252  -1.675  -1.144  0.00  0.00    -0.083 SA
BRANCH   8   9
ATOM      9  C   UNL d   1       3.713  -0.673  -0.783  0.00  0.00     0.185 C 
BRANCH   9  10
ATOM     10  C   UNL d   1       3.890   0.563  -1.661  0.00  0.00     0.231 C 
ATOM     11  N   UNL d   1       2.919   1.532  -1.503  0.00  0.00    -0.327 N 
ATOM     12  H   UNL d   1       2.136   1.299  -0.893  0.00  0.00     0.169 HD
ATOM     13  O   UNL d   1       4.901   0.674  -2.354  0.00  0.00    -0.272 OA
BRANCH  11  14
ATOM     14  C   UNL d   1       2.935   2.867  -1.956  0.00  0.00     0.034 A 
ATOM     15  C   UNL d   1       3.942   3.412  -2.753  0.00  0.00     0.029 A 
ATOM     16  C   UNL d   1       3.939   4.777  -3.059  0.00  0.00     0.002 A 
ATOM     17  C   UNL d   1       2.926   5.604  -2.580  0.00  0.00     0.000 A 
ATOM     18  C   UNL d   1       1.895   5.062  -1.818  0.00  0.00     0.002 A 
ATOM     19  C   UNL d   1       1.896   3.698  -1.515  0.00  0.00     0.029 A 
ENDBRANCH  11  14
ENDBRANCH   9  10
ENDBRANCH   8   9
ENDBRANCH   2   8
BRANCH   1  20
ATOM     20  C   UNL d   1      -0.838  -2.653  -0.166  0.00  0.00     0.124 C 
ATOM     21  C   UNL d   1       0.046  -3.677   0.552  0.00  0.00     0.038 C 
BRANCH  20  22
ATOM     22  C   UNL d   1      -1.322  -3.156  -1.519  0.00  0.00    -0.035 A 
ATOM     23  C   UNL d   1      -0.786  -2.735  -2.745  0.00  0.00     0.009 A 
ATOM     24  C   UNL d   1      -1.184  -3.326  -3.945  0.00  0.00     0.001 A 
ATOM     25  C   UNL d   1      -2.143  -4.333  -3.946  0.00  0.00     0.000 A 
ATOM     26  C   UNL d   1      -2.717  -4.741  -2.747  0.00  0.00     0.001 A 
ATOM     27  C   UNL d   1      -2.309  -4.160  -1.545  0.00  0.00     0.009 A 
ENDBRANCH  20  22
ENDBRANCH   1  20
BRANCH   3  28
ATOM     28  O   UNL d   1      -2.326  -0.096   0.374  0.00  0.00    -0.331 OA
ATOM     29  H   UNL d   1      -2.746  -0.712  -0.250  0.00  0.00     0.221 HD
ENDBRANCH   3  28
TORSDOF 7
