REMARK  3 active torsions:
REMARK  status: ('A' for Active; 'I' for Inactive)
REMARK       I    between atoms: N_2  and  C_1 
REMARK    1  A    between atoms: C_3  and  C_1 
REMARK    2  A    between atoms: C_9  and  N_2 
REMARK    3  A    between atoms: N_6  and  C_4 
ROOT
ATOM      1  C   UNL d   1      -1.052  -0.959  -0.715  0.00  0.00     0.256 C 
ATOM      2  N   UNL d   1       0.226  -1.235  -0.259  0.00  0.00    -0.323 N 
ATOM      3  O   UNL d   1      -1.821  -1.754  -1.252  0.00  0.00    -0.267 OA
ATOM      4  H   UNL d   1       0.675  -0.565   0.351  0.00  0.00     0.169 HD
ENDROOT
BRANCH   2   5
ATOM      5  C   UNL d   1       0.880  -2.482  -0.413  0.00  0.00     0.035 A 
ATOM      6  C   UNL d   1       0.457  -3.447  -1.325  0.00  0.00     0.032 A 
ATOM      7  C   UNL d   1       1.099  -4.686  -1.417  0.00  0.00     0.031 A 
ATOM      8  C   UNL d   1       2.201  -5.022  -0.623  0.00  0.00     0.029 A 
ATOM      9  C   UNL d   1       2.630  -4.022   0.270  0.00  0.00     0.031 A 
ATOM     10  C   UNL d   1       1.990  -2.771   0.371  0.00  0.00     0.032 A 
BRANCH   8  11
ATOM     11  N   UNL d   1       2.860  -6.235  -0.746  0.00  0.00    -0.390 N 
ATOM     12  C   UNL d   1       3.490  -6.877   0.404  0.00  0.00     0.149 C 
ATOM     13  C   UNL d   1       2.660  -7.116  -1.895  0.00  0.00     0.149 C 
ENDBRANCH   8  11
ENDBRANCH   2   5
BRANCH   1  14
ATOM     14  C   UNL d   1      -1.572   0.414  -0.486  0.00  0.00     0.032 A 
ATOM     15  C   UNL d   1      -0.747   1.544  -0.456  0.00  0.00     0.018 A 
ATOM     16  C   UNL d   1      -1.320   2.814  -0.316  0.00  0.00     0.025 A 
ATOM     17  C   UNL d   1      -2.707   2.952  -0.214  0.00  0.00     0.034 A 
ATOM     18  C   UNL d   1      -3.532   1.833  -0.243  0.00  0.00     0.025 A 
ATOM     19 CL   UNL d   1      -3.403   4.518  -0.072  0.00  0.00    -0.084 Cl
ATOM     20  C   UNL d   1      -2.965   0.566  -0.381  0.00  0.00     0.018 A 
ENDBRANCH   1  14
TORSDOF 3
