REMARK  7 active torsions:
REMARK  status: ('A' for Active; 'I' for Inactive)
REMARK    1  A    between atoms: C_10  and  C_3 
REMARK    2  A    between atoms: N_9  and  C_15 
REMARK    3  A    between atoms: C_13  and  N_9 
REMARK    4  A    between atoms: C_14  and  N_9 
REMARK    5  A    between atoms: C_15  and  C_10 
REMARK    6  A    between atoms: C_17  and  C_13 
REMARK    7  A    between atoms: C_18  and  C_14 
ROOT
ATOM      1  N   UNL d   1      -1.294   0.598   1.336  0.00  0.00    -0.365 N 
ATOM      2  C   UNL d   1      -1.450  -0.332  -0.685  0.00  0.00    -0.000 A 
ATOM      3  C   UNL d   1      -1.775  -1.324   0.302  0.00  0.00    -0.029 A 
ATOM      4  C   UNL d   1      -1.681  -0.700   1.533  0.00  0.00     0.096 A 
ATOM      5  N   UNL d   1      -0.855   0.845  -5.365  0.00  0.00    -0.191 NA
ATOM      6  C   UNL d   1      -1.119   0.842  -0.007  0.00  0.00     0.043 A 
ATOM      7  C   UNL d   1      -0.908   0.839  -4.202  0.00  0.00     0.099 C 
ATOM      8  C   UNL d   1      -1.384  -0.330  -2.095  0.00  0.00     0.037 A 
ATOM      9  C   UNL d   1      -0.972   0.834  -2.769  0.00  0.00     0.045 A 
ATOM     10  C   UNL d   1      -0.693   2.008  -0.657  0.00  0.00     0.032 A 
ATOM     11  C   UNL d   1      -0.620   1.980  -2.053  0.00  0.00     0.025 A 
ATOM     12  H   UNL d   1      -1.143   1.279   2.066  0.00  0.00     0.165 HD
ENDROOT
BRANCH   3  13
ATOM     13  C   UNL d   1      -2.107  -2.778   0.072  0.00  0.00     0.071 C 
BRANCH  13  14
ATOM     14  C   UNL d   1      -0.825  -3.640   0.073  0.00  0.00     0.277 C 
BRANCH  14  15
ATOM     15  N   UNL d   1      -0.966  -5.114  -0.104  0.00  0.00     0.097 N 
BRANCH  15  16
ATOM     16  C   UNL d   1      -1.615  -5.435  -1.391  0.00  0.00     0.311 C 
BRANCH  16  17
ATOM     17  C   UNL d   1      -1.903  -6.907  -1.646  0.00  0.00    -0.030 A 
ATOM     18  C   UNL d   1      -2.680  -7.663  -0.756  0.00  0.00     0.009 A 
ATOM     19  C   UNL d   1      -3.093  -8.956  -1.095  0.00  0.00     0.001 A 
ATOM     20  C   UNL d   1      -2.735  -9.507  -2.324  0.00  0.00     0.000 A 
ATOM     21  C   UNL d   1      -1.919  -8.788  -3.194  0.00  0.00     0.001 A 
ATOM     22  C   UNL d   1      -1.496  -7.501  -2.853  0.00  0.00     0.009 A 
ENDBRANCH  16  17
ENDBRANCH  15  16
BRANCH  15  23
ATOM     23  C   UNL d   1       0.388  -5.732  -0.080  0.00  0.00     0.311 C 
BRANCH  23  24
ATOM     24  C   UNL d   1       1.145  -5.492   1.210  0.00  0.00    -0.030 A 
ATOM     25  C   UNL d   1       0.635  -5.951   2.433  0.00  0.00     0.009 A 
ATOM     26  C   UNL d   1       1.308  -5.676   3.624  0.00  0.00     0.001 A 
ATOM     27  C   UNL d   1       2.496  -4.947   3.603  0.00  0.00     0.000 A 
ATOM     28  C   UNL d   1       3.017  -4.494   2.393  0.00  0.00     0.001 A 
ATOM     29  C   UNL d   1       2.346  -4.766   1.201  0.00  0.00     0.009 A 
ENDBRANCH  23  24
ENDBRANCH  15  23
ENDBRANCH  14  15
ENDBRANCH  13  14
ENDBRANCH   3  13
TORSDOF 7
