REMARK  4 active torsions:
REMARK  status: ('A' for Active; 'I' for Inactive)
REMARK    1  A    between atoms: C_3  and  C_1 
REMARK       I    between atoms: N_9  and  C_3 
REMARK    2  A    between atoms: N_4  and  C_10 
REMARK    3  A    between atoms: C_19  and  N_9 
REMARK    4  A    between atoms: C_20  and  C_19 
ROOT
ATOM      1  C   UNL d   1       2.935   0.075  -1.441  0.00  0.00     0.250 C 
ATOM      2  N   UNL d   1       4.271   0.389  -1.441  0.00  0.00    -0.353 N 
ATOM      3  O   UNL d   1       2.295  -0.157  -0.423  0.00  0.00    -0.268 OA
ATOM      4  H   UNL d   1       4.797   0.388  -2.304  0.00  0.00     0.163 HD
ENDROOT
BRANCH   2   5
ATOM      5  C   UNL d   1       5.009   0.483  -0.203  0.00  0.00     0.161 C 
BRANCH   5   6
ATOM      6  C   UNL d   1       6.397   1.022  -0.422  0.00  0.00    -0.040 A 
ATOM      7  C   UNL d   1       6.637   2.397  -0.410  0.00  0.00     0.011 A 
ATOM      8  C   UNL d   1       7.931   2.899  -0.610  0.00  0.00     0.030 A 
ATOM      9  C   UNL d   1       9.033   2.062  -0.841  0.00  0.00     0.030 A 
ATOM     10  C   UNL d   1       8.768   0.685  -0.866  0.00  0.00     0.030 A 
ATOM     11  C   UNL d   1       7.476   0.169  -0.665  0.00  0.00     0.011 A 
BRANCH   9  12
ATOM     12  N   UNL d   1      10.288   2.582  -1.081  0.00  0.00    -0.378 N 
ATOM     13  C   UNL d   1      11.327   1.859  -1.830  0.00  0.00     0.153 C 
ATOM     14  C   UNL d   1      12.040   2.835  -2.803  0.00  0.00     0.291 C 
ATOM     15  N   UNL d   1      12.582   4.038  -2.130  0.00  0.00     0.087 N 
ATOM     16  C   UNL d   1      11.486   4.717  -1.399  0.00  0.00     0.291 C 
ATOM     17  C   UNL d   1      13.194   4.942  -3.100  0.00  0.00     0.310 C 
ATOM     18  C   UNL d   1      10.793   3.779  -0.385  0.00  0.00     0.153 C 
ENDBRANCH   9  12
ENDBRANCH   5   6
ENDBRANCH   2   5
BRANCH   1  19
ATOM     19  C   UNL d   1       2.290  -0.028  -2.780  0.00  0.00     0.034 C 
ATOM     20  C   UNL d   1       2.735   0.656  -3.847  0.00  0.00     0.029 C 
ATOM     21  C   UNL d   1       1.997   0.507  -5.095  0.00  0.00    -0.002 A 
ATOM     22  C   UNL d   1       2.294   1.310  -6.201  0.00  0.00     0.014 A 
ATOM     23  C   UNL d   1       1.013  -0.482  -5.206  0.00  0.00     0.079 A 
ATOM     24  C   UNL d   1       1.617   1.120  -7.408  0.00  0.00     0.001 A 
ATOM     25  C   UNL d   1       0.650   0.120  -7.518  0.00  0.00     0.003 A 
ATOM     26  C   UNL d   1       0.351  -0.685  -6.417  0.00  0.00     0.037 A 
ATOM     27  O   UNL d   1       0.689  -1.324  -4.175  0.00  0.00    -0.346 OA
ATOM     28  C   UNL d   1       1.044  -0.864  -2.854  0.00  0.00     0.220 C 
ENDBRANCH   1  19
TORSDOF 4
