REMARK  5 active torsions:
REMARK  status: ('A' for Active; 'I' for Inactive)
REMARK    1  A    between atoms: C_21  and  N_1 
REMARK    2  A    between atoms: S_11  and  C_5 
REMARK       I    between atoms: C_8  and  N_9 
REMARK       I    between atoms: N_13  and  C_8 
REMARK       I    between atoms: N_9  and  C_12 
REMARK    3  A    between atoms: C_20  and  S_11 
REMARK    4  A    between atoms: C_12  and  C_20 
REMARK    5  A    between atoms: C_22  and  N_13 
ROOT
ATOM      1  S   UNL d   1      -2.818   1.034   1.051  0.00  0.00    -0.083 SA
ENDROOT
BRANCH   1   2
ATOM      2  C   UNL d   1      -3.271   2.604   1.613  0.00  0.00     0.163 A 
ATOM      3  N   UNL d   1      -2.436   3.664   1.869  0.00  0.00    -0.309 N 
ATOM      4  C   UNL d   1      -3.281   4.667   2.323  0.00  0.00     0.158 A 
ATOM      5  N   UNL d   1      -4.526   4.236   2.289  0.00  0.00    -0.281 N 
ATOM      6  C   UNL d   1      -2.909   5.981   2.762  0.00  0.00     0.120 A 
ATOM      7  N   UNL d   1      -4.516   2.940   1.854  0.00  0.00    -0.278 N 
ATOM      8  HN  UNL d   1      -5.353   4.776   2.543  1.00  0.00     0.188 HD
ATOM      9  HN  UNL d   1      -5.332   2.340   1.738  1.00  0.00     0.189 HD
ATOM     10  O   UNL d   1      -1.637   6.335   3.142  0.00  0.00    -0.319 OA
ATOM     11  C   UNL d   1      -3.724   7.095   2.889  0.00  0.00     0.043 A 
ATOM     12  C   UNL d   1      -1.654   7.647   3.488  0.00  0.00     0.142 A 
ATOM     13  C   UNL d   1      -2.916   8.165   3.341  0.00  0.00     0.027 A 
BRANCH   3  14
ATOM     14  C   UNL d   1      -0.999   3.823   1.773  0.00  0.00     0.128 C 
ATOM     15  C   UNL d   1      -0.177   2.889   0.901  0.00  0.00     0.027 C 
ENDBRANCH   3  14
ENDBRANCH   1   2
BRANCH   1  16
ATOM     16  C   UNL d   1      -3.990  -0.011   1.966  0.00  0.00     0.185 C 
BRANCH  16  17
ATOM     17  C   UNL d   1      -5.343  -0.215   1.298  0.00  0.00     0.235 C 
ATOM     18  N   UNL d   1      -5.344  -0.224  -0.086  0.00  0.00    -0.278 N 
ATOM     19  C   UNL d   1      -6.324  -0.644  -0.964  0.00  0.00     0.327 C 
ATOM     20  H   UNL d   1      -4.498   0.059  -0.557  0.00  0.00     0.173 HD
ATOM     21  N   UNL d   1      -7.500  -1.057  -0.393  0.00  0.00    -0.309 N 
ATOM     22  O   UNL d   1      -6.048  -0.637  -2.162  0.00  0.00    -0.247 OA
ATOM     23  H   UNL d   1      -7.559  -0.927   0.615  0.00  0.00     0.170 HD
ATOM     24  O   UNL d   1      -6.346  -0.490   1.961  0.00  0.00    -0.272 OA
BRANCH  21  25
ATOM     25  C   UNL d   1      -8.644  -1.579  -1.037  0.00  0.00     0.036 A 
ATOM     26  C   UNL d   1      -8.715  -1.846  -2.406  0.00  0.00     0.029 A 
ATOM     27  C   UNL d   1      -9.889  -2.356  -2.975  0.00  0.00     0.002 A 
ATOM     28  C   UNL d   1     -11.005  -2.604  -2.180  0.00  0.00     0.000 A 
ATOM     29  C   UNL d   1     -10.944  -2.349  -0.812  0.00  0.00     0.002 A 
ATOM     30  C   UNL d   1      -9.769  -1.844  -0.244  0.00  0.00     0.029 A 
ENDBRANCH  21  25
ENDBRANCH  16  17
ENDBRANCH   1  16
TORSDOF 5
