REMARK  3 active torsions:
REMARK  status: ('A' for Active; 'I' for Inactive)
REMARK    1  A    between atoms: C_2  and  N_1 
REMARK    2  A    between atoms: O_5  and  C_8 
REMARK    3  A    between atoms: C_9  and  O_5 
ROOT
ATOM      1  C   UNL d   1       0.178   0.051   1.257  0.00  0.00     0.103 A 
ATOM      2  C   UNL d   1       0.643   0.902   2.268  0.00  0.00     0.039 A 
ATOM      3  C   UNL d   1      -0.971  -0.727   1.453  0.00  0.00     0.039 A 
ATOM      4  C   UNL d   1      -1.154   0.147   3.706  0.00  0.00     0.076 A 
ATOM      5  C   UNL d   1      -0.039   0.964   3.486  0.00  0.00     0.040 A 
ATOM      6  C   UNL d   1      -1.636  -0.671   2.681  0.00  0.00     0.040 A 
ENDROOT
BRANCH   4   7
ATOM      7  O   UNL d   1      -1.878   0.145   4.876  0.00  0.00    -0.311 OA
BRANCH   7   8
ATOM      8  C   UNL d   1      -1.213   0.198   6.081  0.00  0.00     0.076 A 
ATOM      9  C   UNL d   1      -1.901   0.827   7.126  0.00  0.00     0.040 A 
ATOM     10  C   UNL d   1      -1.317   0.922   8.390  0.00  0.00     0.045 A 
ATOM     11  C   UNL d   1      -0.053   0.384   8.601  0.00  0.00     0.116 A 
ATOM     12  C   UNL d   1       0.627  -0.271   7.581  0.00  0.00     0.045 A 
ATOM     13  F   UNL d   1       0.516   0.490   9.809  0.00  0.00    -0.206 F 
ATOM     14  C   UNL d   1       0.036  -0.384   6.320  0.00  0.00     0.040 A 
ENDBRANCH   7   8
ENDBRANCH   4   7
BRANCH   1  15
ATOM     15  N   UNL d   1       0.901  -0.026  -0.019  0.00  0.00    -0.116 N 
ATOM     16  O   UNL d   1       1.943   0.634  -0.132  0.00  0.00    -0.532 OA
ATOM     17  O   UNL d   1       0.429  -0.753  -0.905  0.00  0.00    -0.532 OA
ENDBRANCH   1  15
TORSDOF 3
