REMARK  6 active torsions:
REMARK  status: ('A' for Active; 'I' for Inactive)
REMARK    1  A    between atoms: N_9  and  C_2 
REMARK       I    between atoms: C_10  and  N_9 
REMARK    2  A    between atoms: C_16  and  C_10 
REMARK    3  A    between atoms: C_11  and  C_16 
REMARK    4  A    between atoms: C_18  and  C_11 
REMARK    5  A    between atoms: C_13  and  C_18 
REMARK    6  A    between atoms: O_20  and  C_13 
ROOT
ATOM      1  N   UNL d   1      -2.565  -4.435  -1.819  0.00  0.00    -0.325 N 
ATOM      2  C   UNL d   1      -3.227  -3.207  -1.881  0.00  0.00     0.223 C 
ATOM      3  O   UNL d   1      -3.447  -2.517  -2.863  0.00  0.00    -0.273 OA
ATOM      4  H   UNL d   1      -2.414  -4.792  -0.884  0.00  0.00     0.169 HD
ENDROOT
BRANCH   2   5
ATOM      5  C   UNL d   1      -3.567  -2.748  -0.463  0.00  0.00     0.113 C 
BRANCH   5   6
ATOM      6  C   UNL d   1      -4.307  -1.401  -0.194  0.00  0.00    -0.023 C 
ATOM      7  C   UNL d   1      -4.409  -1.315   1.364  0.00  0.00     0.010 C 
ATOM      8  C   UNL d   1      -4.729   0.050   1.966  0.00  0.00     0.001 C 
ATOM      9  C   UNL d   1      -3.913   1.182   1.358  0.00  0.00     0.000 C 
ATOM     10  C   UNL d   1      -3.965   1.156  -0.161  0.00  0.00     0.001 C 
ATOM     11  C   UNL d   1      -3.468  -0.191  -0.701  0.00  0.00     0.010 C 
BRANCH   6  12
ATOM     12  C   UNL d   1      -5.696  -1.312  -0.891  0.00  0.00     0.119 C 
BRANCH  12  13
ATOM     13  C   UNL d   1      -6.696  -2.408  -0.643  0.00  0.00     0.140 C 
ATOM     14  O   UNL d   1      -6.550  -3.430  -0.005  0.00  0.00    -0.650 OA
BRANCH  13  15
ATOM     15  O   UNL d   1      -7.880  -2.129  -1.240  0.00  0.00    -0.776 OA
ATOM     16  H   UNL d   1      -8.451  -2.898  -1.042  0.00  0.00     0.167 HD
ENDBRANCH  13  15
ENDBRANCH  12  13
ENDBRANCH   6  12
ENDBRANCH   5   6
ENDBRANCH   2   5
BRANCH   1  17
ATOM     17  C   UNL d   1      -1.935  -5.170  -2.847  0.00  0.00     0.064 A 
ATOM     18  C   UNL d   1      -2.058  -5.021  -4.261  0.00  0.00     0.094 A 
ATOM     19  N   UNL d   1      -2.885  -4.220  -4.949  0.00  0.00    -0.309 N 
ATOM     20  C   UNL d   1      -1.209  -5.875  -5.195  0.00  0.00     0.069 A 
ATOM     21  S   UNL d   1      -2.588  -4.448  -6.558  0.00  0.00     0.068 SA
ATOM     22  HN  UNL d   1      -3.574  -3.583  -4.550  1.00  0.00     0.176 HD
ATOM     23  N   UNL d   1      -1.415  -5.619  -6.496  0.00  0.00    -0.310 N 
ATOM     24  HN  UNL d   1      -0.944  -6.057  -7.288  1.00  0.00     0.176 HD
ATOM     25  C   UNL d   1      -0.302  -6.840  -4.699  0.00  0.00     0.032 A 
ATOM     26  C   UNL d   1      -0.263  -6.987  -3.307  0.00  0.00     0.005 A 
ATOM     27  C   UNL d   1      -1.048  -6.199  -2.431  0.00  0.00     0.032 A 
ENDBRANCH   1  17
TORSDOF 6
