REMARK  3 active torsions:
REMARK  status: ('A' for Active; 'I' for Inactive)
REMARK    1  A    between atoms: N_8  and  C_1 
REMARK       I    between atoms: C_4  and  N_7 
REMARK       I    between atoms: N_9  and  C_4 
REMARK    2  A    between atoms: C_17  and  N_9 
REMARK    3  A    between atoms: C_11  and  C_12 
ROOT
ATOM      1  C   UNL d   1      -3.329   1.982   3.780  0.00  0.00     0.323 C 
ATOM      2  N   UNL d   1      -2.244   2.332   2.970  0.00  0.00    -0.331 N 
ATOM      3  N   UNL d   1       0.054   2.549   1.084  0.00  0.00     0.105 N 
ATOM      4  N   UNL d   1      -4.346   2.910   3.836  0.00  0.00    -0.309 N 
ATOM      5  O   UNL d   1      -3.313   0.936   4.421  0.00  0.00    -0.247 OA
ATOM      6  C   UNL d   1      -1.200   1.311   2.898  0.00  0.00     0.158 C 
ATOM      7  C   UNL d   1      -2.313   3.262   1.837  0.00  0.00     0.158 C 
ATOM      8  C   UNL d   1      -0.953   3.612   1.174  0.00  0.00     0.293 C 
ATOM      9  C   UNL d   1       0.130   1.853   2.380  0.00  0.00     0.293 C 
ATOM     10  H   UNL d   1      -4.248   3.736   3.276  0.00  0.00     0.170 HD
ENDROOT
BRANCH   4  11
ATOM     11  C   UNL d   1      -5.401   2.935   4.776  0.00  0.00     0.036 A 
ATOM     12  C   UNL d   1      -5.647   1.925   5.701  0.00  0.00     0.030 A 
ATOM     13  C   UNL d   1      -6.599   2.096   6.712  0.00  0.00     0.010 A 
ATOM     14  C   UNL d   1      -7.347   3.280   6.825  0.00  0.00    -0.051 A 
ATOM     15  C   UNL d   1      -7.150   4.253   5.834  0.00  0.00     0.010 A 
ATOM     16  C   UNL d   1      -6.194   4.082   4.822  0.00  0.00     0.030 A 
BRANCH  14  17
ATOM     17  C   UNL d   1      -8.299   3.473   8.017  0.00  0.00    -0.024 C 
ATOM     18  C   UNL d   1      -9.035   4.830   7.997  0.00  0.00     0.019 C 
ATOM     19  C   UNL d   1      -9.368   2.361   8.030  0.00  0.00     0.019 C 
ATOM     20  C   UNL d   1      -7.495   3.410   9.336  0.00  0.00     0.019 C 
ENDBRANCH  14  17
ENDBRANCH   4  11
BRANCH   3  21
ATOM     21  C   UNL d   1       0.030   1.713  -0.138  0.00  0.00     0.290 C 
ATOM     22  C   UNL d   1      -1.253   0.942  -0.440  0.00  0.00    -0.009 C 
ATOM     23  C   UNL d   1      -1.042  -0.444  -0.265  0.00  0.00    -0.017 C 
ATOM     24  C   UNL d   1      -2.477   1.418  -0.885  0.00  0.00     0.010 C 
ATOM     25  C   UNL d   1      -2.103  -1.332  -0.344  0.00  0.00     0.013 C 
ATOM     26  C   UNL d   1       0.368  -0.677  -0.046  0.00  0.00    -0.017 A 
ATOM     27  C   UNL d   1      -3.367  -0.833  -0.672  0.00  0.00     0.001 C 
ATOM     28  C   UNL d   1      -3.545   0.525  -0.975  0.00  0.00     0.001 C 
ATOM     29  C   UNL d   1       1.042   0.565  -0.050  0.00  0.00    -0.009 A 
ATOM     30  C   UNL d   1       1.073  -1.856   0.124  0.00  0.00     0.013 A 
ATOM     31  C   UNL d   1       2.420   0.643   0.105  0.00  0.00     0.010 A 
ATOM     32  C   UNL d   1       3.126  -0.547   0.284  0.00  0.00     0.001 A 
ATOM     33  C   UNL d   1       2.460  -1.784   0.296  0.00  0.00     0.001 A 
ENDBRANCH   3  21
TORSDOF 3
