REMARK  5 active torsions:
REMARK  status: ('A' for Active; 'I' for Inactive)
REMARK    1  A    between atoms: C_2  and  S_1 
REMARK    2  A    between atoms: N_9  and  S_1 
REMARK    3  A    between atoms: C_3  and  C_14 
REMARK    4  A    between atoms: N_10  and  C_6 
REMARK    5  A    between atoms: C_14  and  N_9 
ROOT
ATOM      1  S   UNL d   1       0.826  -0.036  -0.198  0.00  0.00     0.260 S 
ATOM      2  O   UNL d   1       0.082   0.829   0.693  0.00  0.00    -0.200 OA
ATOM      3  O   UNL d   1       2.267  -0.112  -0.170  0.00  0.00    -0.200 OA
ENDROOT
BRANCH   1   4
ATOM      4  C   UNL d   1       0.307   0.330  -1.835  0.00  0.00     0.095 A 
ATOM      5  C   UNL d   1       1.233   0.645  -2.806  0.00  0.00     0.115 A 
ATOM      6  N   UNL d   1       0.892   0.988  -4.075  0.00  0.00    -0.351 N 
ATOM      7  C   UNL d   1      -0.419   1.023  -4.408  0.00  0.00     0.103 A 
ATOM      8  HN  UNL d   1       1.610   1.215  -4.763  1.00  0.00     0.166 HD
ATOM      9  C   UNL d   1      -1.399   0.701  -3.464  0.00  0.00     0.050 A 
ATOM     10  C   UNL d   1      -1.040   0.362  -2.161  0.00  0.00     0.030 A 
BRANCH   7  11
ATOM     11  N   UNL d   1      -0.793   1.481  -5.658  0.00  0.00    -0.363 N 
ATOM     12  C   UNL d   1       0.164   2.292  -6.425  0.00  0.00     0.150 C 
ATOM     13  C   UNL d   1       0.768   1.504  -7.592  0.00  0.00     0.187 C 
ATOM     14  O   UNL d   1      -0.257   0.930  -8.421  0.00  0.00    -0.388 OA
ATOM     15  C   UNL d   1      -1.050   0.017  -7.649  0.00  0.00     0.187 C 
ATOM     16  C   UNL d   1      -1.750   0.717  -6.470  0.00  0.00     0.150 C 
ENDBRANCH   7  11
ENDBRANCH   1   4
BRANCH   1  17
ATOM     17  N   UNL d   1       0.221  -1.582   0.043  0.00  0.00    -0.311 N 
ATOM     18  H   UNL d   1      -0.342  -1.671   0.887  0.00  0.00     0.172 HD
BRANCH  17  19
ATOM     19  C   UNL d   1       1.036  -2.718  -0.379  0.00  0.00     0.173 C 
BRANCH  19  20
ATOM     20  C   UNL d   1       0.383  -4.030  -0.011  0.00  0.00    -0.003 A 
ATOM     21  C   UNL d   1      -0.457  -4.726  -0.896  0.00  0.00     0.088 A 
ATOM     22  C   UNL d   1      -1.093  -5.913  -0.499  0.00  0.00     0.003 A 
ATOM     23  O   UNL d   1      -0.644  -4.203  -2.149  0.00  0.00    -0.325 OA
ATOM     24  C   UNL d   1      -2.007  -6.627  -1.448  0.00  0.00     0.212 C 
ATOM     25  C   UNL d   1      -0.847  -6.436   0.775  0.00  0.00     0.054 A 
ATOM     26  O   UNL d   1      -2.413  -5.761  -2.500  0.00  0.00    -0.362 OA
ATOM     27  C   UNL d   1      -1.275  -5.114  -3.052  0.00  0.00     0.345 C 
ATOM     28  C   UNL d   1      -0.005  -5.757   1.645  0.00  0.00     0.117 A 
ATOM     29  C   UNL d   1       0.598  -4.561   1.272  0.00  0.00     0.054 A 
ATOM     30  F   UNL d   1       0.228  -6.261   2.863  0.00  0.00    -0.206 F 
ENDBRANCH  19  20
ENDBRANCH  17  19
ENDBRANCH   1  17
TORSDOF 5
