REMARK  4 active torsions:
REMARK  status: ('A' for Active; 'I' for Inactive)
REMARK    1  A    between atoms: N_12  and  C_3 
REMARK    2  A    between atoms: C_20  and  N_12 
REMARK    3  A    between atoms: C_14  and  C_21 
REMARK    4  A    between atoms: C_21  and  C_20 
ROOT
ATOM      1  C   UNL d   1       0.191   0.958   0.249  0.00  0.00     0.036 A 
ATOM      2  C   UNL d   1      -0.030  -0.410   0.241  0.00  0.00     0.088 A 
ATOM      3  C   UNL d   1       1.538   1.377   0.207  0.00  0.00     0.094 A 
ATOM      4  N   UNL d   1       0.907  -1.370   0.186  0.00  0.00    -0.346 N 
ATOM      5  HN  UNL d   1       0.700  -2.369   0.169  1.00  0.00     0.167 HD
ATOM      6  N   UNL d   1       2.501   0.429   0.168  0.00  0.00    -0.342 N 
ATOM      7  HN  UNL d   1       3.486   0.693   0.149  1.00  0.00     0.167 HD
ATOM      8  S   UNL d   1      -1.685  -0.814   0.314  0.00  0.00    -0.083 SA
ATOM      9  C   UNL d   1       2.142  -0.865   0.156  0.00  0.00     0.182 A 
ATOM     10  C   UNL d   1      -2.148   0.831   0.368  0.00  0.00     0.053 A 
ATOM     11  C   UNL d   1      -1.057   1.671   0.322  0.00  0.00     0.025 A 
ENDROOT
BRANCH   3  12
ATOM     12  N   UNL d   1       1.882   2.730   0.223  0.00  0.00    -0.278 NA
ATOM     13  H   UNL d   1       1.204   3.296  -0.274  0.00  0.00     0.129 HD
BRANCH  12  14
ATOM     14  C   UNL d   1       3.282   3.050  -0.033  0.00  0.00     0.098 C 
BRANCH  14  15
ATOM     15  C   UNL d   1       3.470   4.572  -0.017  0.00  0.00     0.053 C 
BRANCH  15  16
ATOM     16  C   UNL d   1       4.912   4.987  -0.175  0.00  0.00    -0.057 A 
ATOM     17  C   UNL d   1       5.466   5.169  -1.449  0.00  0.00     0.009 A 
ATOM     18  C   UNL d   1       6.800   5.562  -1.589  0.00  0.00     0.024 A 
ATOM     19  C   UNL d   1       7.584   5.770  -0.457  0.00  0.00     0.034 A 
ATOM     20  C   UNL d   1       7.050   5.582   0.815  0.00  0.00     0.024 A 
ATOM     21 CL   UNL d   1       9.223   6.265  -0.631  0.00  0.00    -0.084 Cl
ATOM     22  C   UNL d   1       5.717   5.189   0.956  0.00  0.00     0.009 A 
ENDBRANCH  15  16
ENDBRANCH  14  15
ENDBRANCH  12  14
ENDBRANCH   3  12
TORSDOF 4
