REMARK  4 active torsions:
REMARK  status: ('A' for Active; 'I' for Inactive)
REMARK    1  A    between atoms: C_6  and  C_1 
REMARK    2  A    between atoms: C_18  and  C_5 
REMARK       I    between atoms: C_7  and  N_11 
REMARK       I    between atoms: N_10  and  C_7 
REMARK    3  A    between atoms: C_15  and  N_10 
REMARK    4  A    between atoms: N_11  and  C_18 
ROOT
ATOM      1  C   UNL d   1       4.812   1.669   0.200  0.00  0.00     0.321 C 
ATOM      2  N   UNL d   1       5.960   0.932   0.369  0.00  0.00    -0.309 N 
ATOM      3  N   UNL d   1       3.669   0.895   0.253  0.00  0.00    -0.337 N 
ATOM      4  O   UNL d   1       4.745   2.881   0.031  0.00  0.00    -0.247 OA
ATOM      5  H   UNL d   1       5.830  -0.040   0.606  0.00  0.00     0.170 HD
ATOM      6  H   UNL d   1       3.718  -0.085   0.014  0.00  0.00     0.164 HD
ENDROOT
BRANCH   3   7
ATOM      7  C   UNL d   1       2.426   1.560  -0.052  0.00  0.00     0.181 C 
BRANCH   7   8
ATOM      8  C   UNL d   1       1.242   0.650   0.023  0.00  0.00     0.034 A 
ATOM      9  N   UNL d   1       1.373  -0.722   0.251  0.00  0.00    -0.351 N 
ATOM     10  C   UNL d   1       0.181  -1.298   0.243  0.00  0.00     0.091 A 
ATOM     11  HN  UNL d   1       2.256  -1.209   0.401  1.00  0.00     0.166 HD
ATOM     12  S   UNL d   1      -1.143  -0.228  -0.033  0.00  0.00    -0.081 SA
ATOM     13  C   UNL d   1      -0.060   1.080  -0.148  0.00  0.00     0.078 A 
BRANCH  10  14
ATOM     14  C   UNL d   1      -0.002  -2.709   0.493  0.00  0.00     0.038 A 
ATOM     15  S   UNL d   1      -1.371  -3.592  -0.064  0.00  0.00    -0.099 SA
ATOM     16  C   UNL d   1      -0.826  -5.043   0.652  0.00  0.00     0.050 A 
ATOM     17  C   UNL d   1       0.381  -4.878   1.292  0.00  0.00     0.008 A 
ATOM     18  C   UNL d   1       0.861  -3.539   1.188  0.00  0.00     0.022 A 
ENDBRANCH  10  14
ENDBRANCH   7   8
ENDBRANCH   3   7
BRANCH   2  19
ATOM     19  C   UNL d   1       7.290   1.414   0.321  0.00  0.00     0.037 A 
ATOM     20  C   UNL d   1       7.630   2.743   0.049  0.00  0.00     0.053 A 
ATOM     21  C   UNL d   1       8.969   3.137   0.008  0.00  0.00     0.036 A 
ATOM     22 CL   UNL d   1       9.370   4.779  -0.327  0.00  0.00    -0.084 Cl
ATOM     23  C   UNL d   1       9.987   2.216   0.234  0.00  0.00     0.024 A 
ATOM     24  C   UNL d   1       9.662   0.889   0.507  0.00  0.00     0.004 A 
ATOM     25  C   UNL d   1       8.320   0.492   0.551  0.00  0.00     0.029 A 
ENDBRANCH   2  19
TORSDOF 4
