REMARK  5 active torsions:
REMARK  status: ('A' for Active; 'I' for Inactive)
REMARK    1  A    between atoms: N_3  and  S_1 
REMARK    2  A    between atoms: S_2  and  O_11 
REMARK    3  A    between atoms: C_17  and  N_4 
REMARK    4  A    between atoms: O_11  and  C_14 
REMARK    5  A    between atoms: C_14  and  C_17 
ROOT
ATOM      1  N   UNL d   1       0.525  -0.031  -1.372  0.00  0.00    -0.208 NA
ATOM      2  N   UNL d   1      -2.426  -0.585  -1.389  0.00  0.00     0.092 N 
ATOM      3  C   UNL d   1      -0.475   1.035  -1.689  0.00  0.00     0.137 C 
ATOM      4  C   UNL d   1      -0.026  -1.378  -1.737  0.00  0.00     0.137 C 
ATOM      5  C   UNL d   1      -1.409  -1.622  -1.097  0.00  0.00     0.288 C 
ATOM      6  C   UNL d   1      -1.862   0.748  -1.073  0.00  0.00     0.288 C 
ENDROOT
BRANCH   2   7
ATOM      7  C   UNL d   1      -2.962  -0.625  -2.761  0.00  0.00     0.300 C 
BRANCH   7   8
ATOM      8  C   UNL d   1      -3.720  -1.908  -3.139  0.00  0.00     0.220 C 
BRANCH   8   9
ATOM      9  O   UNL d   1      -4.812  -2.125  -2.259  0.00  0.00    -0.274 OA
BRANCH   9  10
ATOM     10  S   UNL d   1      -5.628  -3.521  -2.445  0.00  0.00     0.261 S 
ATOM     11  O   UNL d   1      -6.235  -3.519  -3.760  0.00  0.00    -0.199 OA
ATOM     12  O   UNL d   1      -4.788  -4.611  -1.998  0.00  0.00    -0.199 OA
ATOM     13  C   UNL d   1      -6.893  -3.230  -1.235  0.00  0.00     0.194 C 
ENDBRANCH   9  10
ENDBRANCH   8   9
ENDBRANCH   7   8
ENDBRANCH   2   7
BRANCH   1  14
ATOM     14  S   UNL d   1       1.281   0.035   0.152  0.00  0.00     0.207 S 
ATOM     15  O   UNL d   1       2.188  -1.091   0.242  0.00  0.00    -0.212 OA
ATOM     16  O   UNL d   1       0.271   0.255   1.162  0.00  0.00    -0.212 OA
ATOM     17  C   UNL d   1       2.273   1.509   0.027  0.00  0.00     0.180 C 
ENDBRANCH   1  14
TORSDOF 5
