REMARK  6 active torsions:
REMARK  status: ('A' for Active; 'I' for Inactive)
REMARK    1  A    between atoms: N_2  and  C_1 
REMARK    2  A    between atoms: N_5  and  C_1 
REMARK    3  A    between atoms: C_3  and  C_7 
REMARK    4  A    between atoms: C_6  and  N_4 
REMARK    5  A    between atoms: C_13  and  N_5 
REMARK    6  A    between atoms: O_19  and  C_15 
ROOT
ATOM      1  N   UNL d   1       0.852  -0.073   1.240  0.00  0.00    -0.355 N 
ATOM      2  N   UNL d   1      -0.385   0.212   3.821  0.00  0.00    -0.376 N 
ATOM      3  C   UNL d   1       1.145   1.087   2.102  0.00  0.00     0.145 C 
ATOM      4  C   UNL d   1      -0.439  -0.712   1.536  0.00  0.00     0.145 C 
ATOM      5  C   UNL d   1       0.980   0.739   3.600  0.00  0.00     0.143 C 
ATOM      6  C   UNL d   1      -0.652  -1.004   3.029  0.00  0.00     0.143 C 
ENDROOT
BRANCH   1   7
ATOM      7  C   UNL d   1       1.209  -0.078  -0.106  0.00  0.00     0.174 C 
ATOM      8  S   UNL d   1       1.056   1.218  -1.150  0.00  0.00    -0.041 SA
BRANCH   7   9
ATOM      9  N   UNL d   1       1.584  -1.304  -0.605  0.00  0.00    -0.333 N 
ATOM     10  H   UNL d   1       1.480  -1.415  -1.607  0.00  0.00     0.168 HD
BRANCH   9  11
ATOM     11  C   UNL d   1       2.369  -2.276   0.054  0.00  0.00     0.035 A 
ATOM     12  C   UNL d   1       3.138  -1.970   1.182  0.00  0.00     0.045 A 
ATOM     13  C   UNL d   1       3.981  -2.925   1.769  0.00  0.00     0.050 A 
ATOM     14  C   UNL d   1       4.028  -4.211   1.217  0.00  0.00     0.016 A 
ATOM     15  C   UNL d   1       3.269  -4.521   0.090  0.00  0.00     0.003 A 
ATOM     16  C   UNL d   1       2.454  -3.552  -0.502  0.00  0.00     0.029 A 
BRANCH  13  17
ATOM     17  C   UNL d   1       4.849  -2.559   2.945  0.00  0.00     0.417 C 
ATOM     18  F   UNL d   1       4.669  -1.279   3.381  0.00  0.00    -0.166 F 
ATOM     19  F   UNL d   1       4.625  -3.353   4.027  0.00  0.00    -0.166 F 
ATOM     20  F   UNL d   1       6.178  -2.671   2.666  0.00  0.00    -0.166 F 
ENDBRANCH  13  17
ENDBRANCH   9  11
ENDBRANCH   7   9
ENDBRANCH   1   7
BRANCH   2  21
ATOM     21  C   UNL d   1      -0.993   0.381   5.065  0.00  0.00     0.064 A 
ATOM     22  C   UNL d   1      -1.124   1.643   5.695  0.00  0.00     0.094 A 
ATOM     23  C   UNL d   1      -1.819   1.793   6.906  0.00  0.00     0.039 A 
ATOM     24  C   UNL d   1      -2.420   0.698   7.519  0.00  0.00     0.003 A 
ATOM     25  C   UNL d   1      -2.292  -0.554   6.940  0.00  0.00     0.002 A 
ATOM     26  C   UNL d   1      -1.589  -0.706   5.739  0.00  0.00     0.032 A 
BRANCH  22  27
ATOM     27  O   UNL d   1      -0.555   2.802   5.224  0.00  0.00    -0.354 OA
ATOM     28  C   UNL d   1      -1.117   3.248   3.993  0.00  0.00     0.210 C 
ENDBRANCH  22  27
ENDBRANCH   2  21
TORSDOF 6
