REMARK  3 active torsions:
REMARK  status: ('A' for Active; 'I' for Inactive)
REMARK    1  A    between atoms: C_8  and  C_1 
REMARK    2  A    between atoms: S_9  and  C_8 
REMARK    3  A    between atoms: C_10  and  S_9 
ROOT
ATOM      1  C   UNL d   1       0.171  -1.377  -0.043  0.00  0.00    -0.020 A 
ATOM      2  C   UNL d   1       0.557  -0.561   1.015  0.00  0.00     0.092 A 
ATOM      3  N   UNL d   1       0.311  -1.117   3.534  0.00  0.00    -0.191 NA
ATOM      4  C   UNL d   1       0.414  -0.861   2.406  0.00  0.00     0.107 C 
ATOM      5  S   UNL d   1       1.261   0.909   0.485  0.00  0.00    -0.090 SA
ATOM      6  C   UNL d   1       1.060   0.492  -1.155  0.00  0.00     0.052 A 
ATOM      7  C   UNL d   1       0.470  -0.743  -1.301  0.00  0.00     0.017 A 
ENDROOT
BRANCH   1   8
ATOM      8  C   UNL d   1      -0.473  -2.737   0.068  0.00  0.00     0.120 C 
BRANCH   8   9
ATOM      9  S   UNL d   1      -2.289  -2.565   0.073  0.00  0.00    -0.125 SA
BRANCH   9  10
ATOM     10  C   UNL d   1      -2.904  -4.247   0.074  0.00  0.00     0.001 A 
ATOM     11  C   UNL d   1      -2.120  -5.405   0.072  0.00  0.00     0.020 A 
ATOM     12  C   UNL d   1      -2.720  -6.674   0.072  0.00  0.00     0.025 A 
ATOM     13  C   UNL d   1      -4.108  -6.792   0.075  0.00  0.00     0.034 A 
ATOM     14  C   UNL d   1      -4.903  -5.653   0.074  0.00  0.00     0.025 A 
ATOM     15 CL   UNL d   1      -4.840  -8.348   0.081  0.00  0.00    -0.084 Cl
ATOM     16  C   UNL d   1      -4.302  -4.390   0.073  0.00  0.00     0.020 A 
ENDBRANCH   9  10
ENDBRANCH   8   9
ENDBRANCH   1   8
TORSDOF 3
