REMARK  2 active torsions:
REMARK  status: ('A' for Active; 'I' for Inactive)
REMARK    1  A    between atoms: C_4  and  N_2 
REMARK    2  A    between atoms: C_7  and  C_4 
REMARK       I    between atoms: N_8  and  C_7 
ROOT
ATOM      1  S   UNL d   1       0.803  -0.161  -1.346  0.00  0.00     0.269 S 
ATOM      2  N   UNL d   1       1.319  -1.026  -0.012  0.00  0.00    -0.228 N 
ATOM      3  C   UNL d   1       0.667  -0.666   1.188  0.00  0.00     0.269 C 
ATOM      4  C   UNL d   1      -0.435   0.261   0.872  0.00  0.00     0.056 A 
ATOM      5  C   UNL d   1      -0.469   0.631  -0.466  0.00  0.00     0.095 A 
ATOM      6  O   UNL d   1       1.813   0.812  -1.695  0.00  0.00    -0.200 OA
ATOM      7  O   UNL d   1       0.214  -1.067  -2.303  0.00  0.00    -0.200 OA
ATOM      8  O   UNL d   1       0.958  -1.033   2.308  0.00  0.00    -0.266 OA
ATOM      9  C   UNL d   1      -1.400   0.721   1.755  0.00  0.00     0.018 A 
ATOM     10  C   UNL d   1      -1.444   1.462  -0.987  0.00  0.00     0.026 A 
ATOM     11  C   UNL d   1      -2.403   1.559   1.254  0.00  0.00     0.001 A 
ATOM     12  C   UNL d   1      -2.422   1.929  -0.104  0.00  0.00     0.002 A 
ENDROOT
BRANCH   2  13
ATOM     13  C   UNL d   1       2.427  -1.970  -0.146  0.00  0.00     0.248 C 
BRANCH  13  14
ATOM     14  C   UNL d   1       1.959  -3.394   0.145  0.00  0.00     0.239 C 
ATOM     15  N   UNL d   1       1.609  -4.238  -0.896  0.00  0.00    -0.347 N 
ATOM     16  C   UNL d   1       1.246  -5.627  -0.589  0.00  0.00     0.152 C 
ATOM     17  C   UNL d   1       1.741  -3.977  -2.334  0.00  0.00     0.152 C 
ATOM     18  C   UNL d   1       0.029  -6.066  -1.406  0.00  0.00     0.187 C 
ATOM     19  O   UNL d   1       0.265  -5.879  -2.810  0.00  0.00    -0.388 OA
ATOM     20  C   UNL d   1       0.515  -4.494  -3.099  0.00  0.00     0.187 C 
ATOM     21  O   UNL d   1       1.871  -3.776   1.317  0.00  0.00    -0.272 OA
ENDBRANCH  13  14
ENDBRANCH   2  13
TORSDOF 2
