REMARK  3 active torsions:
REMARK  status: ('A' for Active; 'I' for Inactive)
REMARK    1  A    between atoms: C_11  and  C_5 
REMARK    2  A    between atoms: C_10  and  C_7 
REMARK    3  A    between atoms: O_16  and  C_10 
ROOT
ATOM      1  C   UNL d   1       1.089  -0.780  -0.089  0.00  0.00     0.055 A 
ATOM      2  C   UNL d   1       0.669   0.531  -0.134  0.00  0.00    -0.018 A 
ATOM      3  N   UNL d   1      -0.020  -1.583  -0.053  0.00  0.00    -0.356 N 
ATOM      4  N   UNL d   1       3.466  -0.182  -0.218  0.00  0.00     0.113 N 
ATOM      5  C   UNL d   1       2.498  -1.273  -0.015  0.00  0.00     0.304 C 
ATOM      6  C   UNL d   1      -0.751   0.532  -0.091  0.00  0.00    -0.001 A 
ATOM      7  C   UNL d   1       3.036   1.145   0.332  0.00  0.00     0.324 C 
ATOM      8  C   UNL d   1       1.659   1.638  -0.186  0.00  0.00     0.087 C 
ATOM      9  C   UNL d   1      -1.157  -0.805  -0.039  0.00  0.00     0.043 A 
ATOM     10  C   UNL d   1      -1.739   1.536  -0.076  0.00  0.00     0.014 A 
ATOM     11  C   UNL d   1      -2.502  -1.187   0.025  0.00  0.00     0.030 A 
ATOM     12  C   UNL d   1      -3.089   1.169  -0.011  0.00  0.00     0.001 A 
ATOM     13  C   UNL d   1      -3.462  -0.172   0.037  0.00  0.00     0.002 A 
ATOM     14  H   UNL d   1      -0.012  -2.591   0.017  0.00  0.00     0.166 HD
ATOM     15  H   UNL d   1       3.587  -0.051  -1.225  0.00  0.00     0.318 HD
ENDROOT
BRANCH   5  16
ATOM     16  C   UNL d   1       2.790  -2.076   1.247  0.00  0.00    -0.019 A 
ATOM     17  C   UNL d   1       2.238  -1.741   2.497  0.00  0.00     0.011 A 
ATOM     18  C   UNL d   1       2.446  -2.555   3.613  0.00  0.00     0.024 A 
ATOM     19  C   UNL d   1       3.227  -3.702   3.497  0.00  0.00     0.034 A 
ATOM     20  C   UNL d   1       3.820  -4.030   2.281  0.00  0.00     0.024 A 
ATOM     21 CL   UNL d   1       3.451  -4.726   4.862  0.00  0.00    -0.084 Cl
ATOM     22  C   UNL d   1       3.608  -3.217   1.164  0.00  0.00     0.011 A 
ENDBRANCH   5  16
BRANCH   7  23
ATOM     23  C   UNL d   1       4.068   2.200  -0.086  0.00  0.00     0.292 C 
ATOM     24  O   UNL d   1       4.707   2.166  -1.133  0.00  0.00    -0.263 OA
BRANCH  23  25
ATOM     25  O   UNL d   1       4.128   3.209   0.829  0.00  0.00    -0.325 OA
ATOM     26  C   UNL d   1       5.076   4.226   0.498  0.00  0.00     0.213 C 
ENDBRANCH  23  25
ENDBRANCH   7  23
TORSDOF 3
