REMARK  3 active torsions:
REMARK  status: ('A' for Active; 'I' for Inactive)
REMARK    1  A    between atoms: C_13  and  N_3 
REMARK    2  A    between atoms: C_12  and  C_13 
REMARK       I    between atoms: N_16  and  C_12 
REMARK    3  A    between atoms: N_17  and  N_16 
ROOT
ATOM      1  C   UNL d   1       0.168  -0.803  -0.082  0.00  0.00     0.710 A 
ATOM      2  N   UNL d   1       0.339   0.565  -0.083  0.00  0.00    -0.047 N 
ATOM      3  N   UNL d   1      -1.092  -1.323  -0.040  0.00  0.00    -0.176 N 
ATOM      4  C   UNL d   1      -0.696   1.498  -0.073  0.00  0.00     0.284 A 
ATOM      5  C   UNL d   1      -2.048   0.887  -0.083  0.00  0.00     0.102 A 
ATOM      6  N   UNL d   1       1.339  -1.397  -0.134  0.00  0.00    -0.184 N 
ATOM      7  HN  UNL d   1       1.546  -2.395  -0.179  1.00  0.00     0.185 HD
ATOM      8  C   UNL d   1      -2.201  -0.454  -0.064  0.00  0.00     0.031 A 
ATOM      9  N   UNL d   1       1.661   0.872  -0.084  0.00  0.00    -0.272 N 
ATOM     10  HN  UNL d   1       2.112   1.787  -0.068  1.00  0.00     0.189 HD
ATOM     11  C   UNL d   1       2.212  -0.342  -0.113  0.00  0.00     0.216 A 
ATOM     12  O   UNL d   1      -0.494   2.705  -0.058  0.00  0.00    -0.266 OA
ATOM     13  C   UNL d   1      -3.595  -1.032  -0.076  0.00  0.00     0.069 C 
ENDROOT
BRANCH   3  14
ATOM     14  C   UNL d   1      -1.184  -2.789   0.117  0.00  0.00     0.251 C 
BRANCH  14  15
ATOM     15  C   UNL d   1      -1.245  -3.516  -1.223  0.00  0.00     0.250 C 
ATOM     16  O   UNL d   1      -2.235  -4.152  -1.589  0.00  0.00    -0.270 OA
ATOM     17  N   UNL d   1      -0.072  -3.457  -1.967  0.00  0.00    -0.292 N 
ATOM     18  H   UNL d   1       0.671  -2.808  -1.692  0.00  0.00     0.183 HD
BRANCH  17  19
ATOM     19  N   UNL d   1      -0.007  -4.103  -3.221  0.00  0.00    -0.247 NA
ATOM     20  H   UNL d   1      -0.975  -4.312  -3.505  0.00  0.00     0.143 HD
ATOM     21  H   UNL d   1       0.406  -5.028  -3.074  0.00  0.00     0.143 HD
ENDBRANCH  17  19
ENDBRANCH  14  15
ENDBRANCH   3  14
TORSDOF 3
