REMARK  9 active torsions:
REMARK  status: ('A' for Active; 'I' for Inactive)
REMARK    1  A    between atoms: C_8  and  C_1 
REMARK    2  A    between atoms: C_4  and  C_2 
REMARK    3  A    between atoms: C_7  and  C_2 
REMARK    4  A    between atoms: N_10  and  C_3 
REMARK    5  A    between atoms: N_5  and  N_10 
REMARK    6  A    between atoms: C_12  and  C_7 
REMARK    7  A    between atoms: O_19  and  C_8 
REMARK    8  A    between atoms: O_20  and  C_12 
REMARK    9  A    between atoms: C_21  and  O_20 
ROOT
ATOM      1  C   UNL d   1       3.841   3.458  -0.022  0.00  0.00     0.118 C 
ATOM      2  N   UNL d   1       2.680   2.864   0.022  0.00  0.00    -0.299 N 
ATOM      3  HN  UNL d   1       1.821   3.413   0.014  1.00  0.00     0.186 HD
ENDROOT
BRANCH   2   4
ATOM      4  N   UNL d   1       2.625   1.503   0.080  0.00  0.00    -0.299 N 
ATOM      5  H   UNL d   1       3.311   0.933  -0.430  0.00  0.00     0.187 HD
BRANCH   4   6
ATOM      6  C   UNL d   1       1.544   0.885   0.641  0.00  0.00     0.071 A 
ATOM      7  C   UNL d   1       1.312  -0.481   0.685  0.00  0.00     0.108 A 
ATOM      8  S   UNL d   1      -0.163  -0.826   1.519  0.00  0.00    -0.094 SA
ATOM      9  C   UNL d   1      -0.476   0.820   1.818  0.00  0.00     0.053 A 
ATOM     10  C   UNL d   1       0.506   1.625   1.296  0.00  0.00     0.039 A 
BRANCH   7  11
ATOM     11  C   UNL d   1       2.060  -1.621   0.183  0.00  0.00     0.302 C 
ATOM     12  O   UNL d   1       1.755  -2.799   0.319  0.00  0.00    -0.259 OA
BRANCH  11  13
ATOM     13  O   UNL d   1       3.186  -1.210  -0.484  0.00  0.00    -0.322 OA
ATOM     14  C   UNL d   1       3.955  -2.304  -0.994  0.00  0.00     0.213 C 
ENDBRANCH  11  13
ENDBRANCH   7  11
ENDBRANCH   4   6
ENDBRANCH   2   4
BRANCH   1  15
ATOM     15  C   UNL d   1       5.199   2.787  -0.011  0.00  0.00     0.430 C 
ATOM     16  F   UNL d   1       6.235   3.670   0.028  0.00  0.00    -0.165 F 
ATOM     17  F   UNL d   1       5.364   1.987   1.079  0.00  0.00    -0.165 F 
ATOM     18  F   UNL d   1       5.393   1.989  -1.095  0.00  0.00    -0.165 F 
ENDBRANCH   1  15
BRANCH   1  19
ATOM     19  C   UNL d   1       3.813   4.967   0.022  0.00  0.00     0.174 C 
BRANCH  19  20
ATOM     20  C   UNL d   1       4.524   5.608  -1.127  0.00  0.00     0.264 C 
ATOM     21  O   UNL d   1       5.062   4.998  -2.037  0.00  0.00    -0.265 OA
BRANCH  20  22
ATOM     22  O   UNL d   1       4.545   6.958  -0.943  0.00  0.00    -0.322 OA
BRANCH  22  23
ATOM     23  C   UNL d   1       5.516   7.675  -1.720  0.00  0.00     0.174 C 
ATOM     24  C   UNL d   1       6.794   7.747  -0.904  0.00  0.00     0.034 C 
ENDBRANCH  22  23
ENDBRANCH  20  22
ENDBRANCH  19  20
ENDBRANCH   1  19
TORSDOF 9
