REMARK  3 active torsions:
REMARK  status: ('A' for Active; 'I' for Inactive)
REMARK    1  A    between atoms: C_9  and  C_3 
REMARK    2  A    between atoms: C_12  and  C_4 
REMARK    3  A    between atoms: C_7  and  C_10 
ROOT
ATOM      1  N   UNL d   1       1.275   0.158   0.007  0.00  0.00    -0.319 N 
ATOM      2  HN  UNL d   1       2.285   0.304   0.016  1.00  0.00     0.169 HD
ATOM      3  C   UNL d   1       0.270   1.099   0.007  0.00  0.00     0.138 A 
ATOM      4  C   UNL d   1       0.611  -0.975  -0.006  0.00  0.00     0.182 A 
ATOM      5  N   UNL d   1      -0.967   0.577  -0.004  0.00  0.00    -0.242 N 
ATOM      6  HN  UNL d   1      -1.860   1.071  -0.004  1.00  0.00     0.196 HD
ATOM      7  O   UNL d   1      -0.743  -0.798  -0.016  0.00  0.00    -0.217 OA
ENDROOT
BRANCH   3   8
ATOM      8  C   UNL d   1       0.559   2.528  -0.008  0.00  0.00     0.011 A 
ATOM      9  C   UNL d   1       1.889   2.972  -0.084  0.00  0.00     0.031 A 
ATOM     10  C   UNL d   1       2.195   4.340  -0.156  0.00  0.00     0.048 A 
ATOM     11  C   UNL d   1       1.145   5.270  -0.130  0.00  0.00     0.016 A 
ATOM     12  C   UNL d   1      -0.179   4.841  -0.035  0.00  0.00     0.002 A 
ATOM     13  C   UNL d   1      -0.471   3.478   0.024  0.00  0.00     0.015 A 
BRANCH  10  14
ATOM     14  C   UNL d   1       3.623   4.810  -0.285  0.00  0.00     0.417 C 
ATOM     15  F   UNL d   1       4.532   3.796  -0.308  0.00  0.00    -0.166 F 
ATOM     16  F   UNL d   1       3.832   5.522  -1.427  0.00  0.00    -0.166 F 
ATOM     17  F   UNL d   1       3.999   5.625   0.739  0.00  0.00    -0.166 F 
ENDBRANCH  10  14
ENDBRANCH   3   8
BRANCH   4  18
ATOM     18  C   UNL d   1       1.108  -2.344   0.024  0.00  0.00     0.017 A 
ATOM     19  C   UNL d   1       2.487  -2.571   0.156  0.00  0.00     0.016 A 
ATOM     20  C   UNL d   1       2.993  -3.871   0.225  0.00  0.00     0.001 A 
ATOM     21  C   UNL d   1       2.126  -4.958   0.156  0.00  0.00     0.000 A 
ATOM     22  C   UNL d   1       0.756  -4.750   0.009  0.00  0.00     0.001 A 
ATOM     23  C   UNL d   1       0.249  -3.448  -0.060  0.00  0.00     0.016 A 
ENDBRANCH   4  18
TORSDOF 3
