REMARK  7 active torsions:
REMARK  status: ('A' for Active; 'I' for Inactive)
REMARK    1  A    between atoms: C_6  and  C_1 
REMARK    2  A    between atoms: O_14  and  C_3 
REMARK    3  A    between atoms: O_18  and  C_8 
REMARK    4  A    between atoms: C_16  and  N_9 
REMARK    5  A    between atoms: O_19  and  C_11 
REMARK    6  A    between atoms: C_15  and  C_23 
REMARK    7  A    between atoms: C_23  and  C_16 
ROOT
ATOM      1  C   UNL d   1      -2.068  -2.401   0.034  0.00  0.00     0.014 C 
ATOM      2  N   UNL d   1      -1.704  -3.642   0.089  0.00  0.00    -0.392 N 
ATOM      3  HN  UNL d   1      -2.402  -4.379   0.183  1.00  0.00     0.159 HD
ATOM      4  C   UNL d   1      -1.079  -1.253  -0.055  0.00  0.00     0.068 C 
ENDROOT
BRANCH   2   5
ATOM      5  C   UNL d   1      -0.278  -3.975   0.017  0.00  0.00     0.124 C 
BRANCH   5   6
ATOM      6  C   UNL d   1      -0.084  -5.497   0.062  0.00  0.00     0.058 C 
BRANCH   6   7
ATOM      7  C   UNL d   1      -0.577  -6.215  -1.175  0.00  0.00    -0.054 A 
ATOM      8  C   UNL d   1       0.239  -6.336  -2.314  0.00  0.00     0.046 A 
ATOM      9  C   UNL d   1      -0.215  -6.987  -3.474  0.00  0.00     0.102 A 
ATOM     10  C   UNL d   1      -1.506  -7.544  -3.477  0.00  0.00     0.101 A 
ATOM     11  C   UNL d   1      -2.324  -7.405  -2.349  0.00  0.00     0.040 A 
ATOM     12  C   UNL d   1      -1.866  -6.750  -1.207  0.00  0.00     0.010 A 
BRANCH   9  13
ATOM     13  O   UNL d   1       0.524  -7.086  -4.624  0.00  0.00    -0.353 OA
ATOM     14  C   UNL d   1       1.809  -6.480  -4.651  0.00  0.00     0.210 C 
ENDBRANCH   9  13
BRANCH  10  15
ATOM     15  O   UNL d   1      -2.129  -8.194  -4.513  0.00  0.00    -0.353 OA
ATOM     16  C   UNL d   1      -1.302  -8.960  -5.379  0.00  0.00     0.210 C 
ENDBRANCH  10  15
ENDBRANCH   6   7
ENDBRANCH   5   6
ENDBRANCH   2   5
BRANCH   1  17
ATOM     17  C   UNL d   1      -3.536  -2.088   0.031  0.00  0.00     0.019 A 
ATOM     18  C   UNL d   1      -4.384  -3.009  -0.606  0.00  0.00     0.023 A 
ATOM     19  C   UNL d   1      -5.771  -2.792  -0.698  0.00  0.00    -0.055 A 
ATOM     20  C   UNL d   1      -6.633  -3.820  -1.379  0.00  0.00     0.049 C 
ATOM     21  C   UNL d   1      -6.322  -1.620  -0.148  0.00  0.00    -0.053 A 
ATOM     22  C   UNL d   1      -5.475  -0.699   0.484  0.00  0.00     0.044 A 
ATOM     23  C   UNL d   1      -7.800  -1.342  -0.205  0.00  0.00     0.049 C 
ATOM     24  C   UNL d   1      -4.104  -0.944   0.599  0.00  0.00     0.078 A 
BRANCH  24  25
ATOM     25  O   UNL d   1      -3.411  -0.024   1.336  0.00  0.00    -0.360 OA
ATOM     26  H   UNL d   1      -2.717  -0.497   1.823  0.00  0.00     0.217 HD
ENDBRANCH  24  25
ENDBRANCH   1  17
TORSDOF 7
