REMARK  6 active torsions:
REMARK  status: ('A' for Active; 'I' for Inactive)
REMARK    1  A    between atoms: N_2  and  C_1 
REMARK    2  A    between atoms: N_14  and  C_1 
REMARK    3  A    between atoms: C_4  and  N_2 
REMARK    4  A    between atoms: C_9  and  N_2 
REMARK    5  A    between atoms: C_3  and  C_4 
REMARK    6  A    between atoms: C_6  and  C_9 
ROOT
ATOM      1  N   UNL d   1       0.304  -1.199  -0.041  0.00  0.00    -0.349 N 
ENDROOT
BRANCH   1   2
ATOM      2  C   UNL d   1       1.130  -0.179   0.455  0.00  0.00     0.170 C 
ATOM      3  S   UNL d   1       0.725   0.810   1.749  0.00  0.00    -0.041 SA
BRANCH   2   4
ATOM      4  N   UNL d   1       2.314  -0.054  -0.256  0.00  0.00    -0.371 N 
ATOM      5  C   UNL d   1       3.277   1.026  -0.107  0.00  0.00     0.148 C 
ATOM      6  H   UNL d   1       2.305  -0.472  -1.174  0.00  0.00     0.161 HD
ENDBRANCH   2   4
ENDBRANCH   1   2
BRANCH   1   7
ATOM      7  C   UNL d   1      -1.173  -1.089   0.019  0.00  0.00     0.166 C 
BRANCH   7   8
ATOM      8  C   UNL d   1      -1.823  -0.153  -0.988  0.00  0.00    -0.017 A 
ATOM      9  C   UNL d   1      -3.213   0.101  -0.906  0.00  0.00     0.063 A 
ATOM     10  C   UNL d   1      -3.838   0.948  -1.837  0.00  0.00     0.056 A 
ATOM     11 CL   UNL d   1      -4.160  -0.660   0.341  0.00  0.00    -0.082 Cl
ATOM     12 CL   UNL d   1      -5.533   1.300  -1.788  0.00  0.00    -0.083 Cl
ATOM     13  C   UNL d   1      -3.094   1.539  -2.858  0.00  0.00     0.026 A 
ATOM     14  C   UNL d   1      -1.729   1.285  -2.959  0.00  0.00     0.002 A 
ATOM     15  C   UNL d   1      -1.101   0.445  -2.037  0.00  0.00     0.011 A 
ENDBRANCH   7   8
ENDBRANCH   1   7
BRANCH   1  16
ATOM     16  C   UNL d   1       0.870  -2.447  -0.584  0.00  0.00     0.171 C 
BRANCH  16  17
ATOM     17  C   UNL d   1       0.302  -3.681   0.072  0.00  0.00     0.000 A 
ATOM     18  S   UNL d   1       0.076  -5.098  -0.876  0.00  0.00    -0.105 SA
ATOM     19  C   UNL d   1      -0.570  -5.964   0.447  0.00  0.00     0.050 A 
ATOM     20  C   UNL d   1      -0.604  -5.205   1.595  0.00  0.00     0.008 A 
ATOM     21  C   UNL d   1      -0.079  -3.895   1.385  0.00  0.00     0.017 A 
ENDBRANCH  16  17
ENDBRANCH   1  16
TORSDOF 6
