REMARK  1 active torsions:
REMARK  status: ('A' for Active; 'I' for Inactive)
REMARK    1  A    between atoms: C_6  and  N_1 
ROOT
ATOM      1  N   UNL d   1      -0.017   0.908  -0.054  0.00  0.00    -0.245 N 
ATOM      2  C   UNL d   1       0.897   0.107  -0.684  0.00  0.00     0.255 A 
ATOM      3  C   UNL d   1      -0.952   0.122   0.565  0.00  0.00     0.255 A 
ATOM      4  C   UNL d   1       0.508  -1.286  -0.437  0.00  0.00     0.080 A 
ATOM      5  C   UNL d   1      -0.593  -1.278   0.306  0.00  0.00     0.080 A 
ATOM      6  O   UNL d   1       1.902   0.376  -1.318  0.00  0.00    -0.268 OA
ATOM      7  O   UNL d   1      -1.954   0.407   1.197  0.00  0.00    -0.268 OA
ENDROOT
BRANCH   1   8
ATOM      8  C   UNL d   1      -0.002   2.329  -0.045  0.00  0.00     0.046 A 
ATOM      9  C   UNL d   1       0.718   3.055  -1.010  0.00  0.00     0.031 A 
ATOM     10  C   UNL d   1       0.727   4.457  -1.011  0.00  0.00     0.021 A 
ATOM     11  C   UNL d   1       0.029   5.153  -0.032  0.00  0.00     0.011 A 
ATOM     12  C   UNL d   1      -0.684   4.462   0.941  0.00  0.00     0.021 A 
ATOM     13 BR   UNL d   1       0.048   7.042  -0.022  0.00  0.00    -0.051 Br
ATOM     14  C   UNL d   1      -0.704   3.062   0.927  0.00  0.00     0.031 A 
ENDBRANCH   1   8
TORSDOF 1
