REMARK  10 active torsions:
REMARK  status: ('A' for Active; 'I' for Inactive)
REMARK    1  A    between atoms: C_5  and  C_1 
REMARK    2  A    between atoms: C_6  and  C_1 
REMARK    3  A    between atoms: N_10  and  C_2 
REMARK    4  A    between atoms: C_3  and  C_9 
REMARK    5  A    between atoms: C_4  and  N_10 
REMARK    6  A    between atoms: O_21  and  C_5 
REMARK    7  A    between atoms: O_20  and  C_6 
REMARK    8  A    between atoms: N_8  and  C_7 
REMARK    9  A    between atoms: C_27  and  O_20 
REMARK   10  A    between atoms: C_26  and  O_21 
ROOT
ATOM      1  C   UNL d   1       0.353   2.501   2.656  0.00  0.00     0.059 A 
ATOM      2  C   UNL d   1      -0.809   1.975   3.293  0.00  0.00     0.057 A 
ATOM      3  C   UNL d   1       0.420   4.373   4.236  0.00  0.00     0.050 A 
ATOM      4  C   UNL d   1       0.951   3.674   3.150  0.00  0.00     0.048 A 
ATOM      5  C   UNL d   1      -1.321   2.687   4.393  0.00  0.00     0.032 A 
ATOM      6  C   UNL d   1      -0.723   3.867   4.856  0.00  0.00     0.018 A 
ENDROOT
BRANCH   1   7
ATOM      7  N   UNL d   1       0.913   1.838   1.542  0.00  0.00    -0.363 N 
ATOM      8  H   UNL d   1       0.217   1.326   0.989  0.00  0.00     0.165 HD
BRANCH   7   9
ATOM      9  C   UNL d   1       2.196   1.912   1.048  0.00  0.00     0.112 C 
ATOM     10  C   UNL d   1       2.719   1.344  -0.055  0.00  0.00     0.129 C 
BRANCH  10  11
ATOM     11  C   UNL d   1       4.160   1.488  -0.378  0.00  0.00     0.300 C 
ATOM     12  O   UNL d   1       4.632   1.305  -1.488  0.00  0.00    -0.259 OA
BRANCH  11  13
ATOM     13  O   UNL d   1       4.881   1.781   0.739  0.00  0.00    -0.318 OA
BRANCH  13  14
ATOM     14  C   UNL d   1       6.307   1.657   0.624  0.00  0.00     0.174 C 
ATOM     15  C   UNL d   1       6.706   0.291   1.151  0.00  0.00     0.034 C 
ENDBRANCH  13  14
ENDBRANCH  11  13
ENDBRANCH  10  11
BRANCH  10  16
ATOM     16  C   UNL d   1       1.832   0.491  -0.875  0.00  0.00     0.300 C 
ATOM     17  O   UNL d   1       0.613   0.559  -0.865  0.00  0.00    -0.259 OA
BRANCH  16  18
ATOM     18  O   UNL d   1       2.555  -0.494  -1.464  0.00  0.00    -0.318 OA
BRANCH  18  19
ATOM     19  C   UNL d   1       1.805  -1.634  -1.897  0.00  0.00     0.174 C 
ATOM     20  C   UNL d   1       1.802  -2.639  -0.758  0.00  0.00     0.034 C 
ENDBRANCH  18  19
ENDBRANCH  16  18
ENDBRANCH  10  16
ENDBRANCH   7   9
ENDBRANCH   1   7
BRANCH   2  21
ATOM     21  N   UNL d   1      -1.456   0.842   2.788  0.00  0.00    -0.375 N 
ATOM     22  C   UNL d   1      -2.892   0.627   3.061  0.00  0.00     0.149 C 
ATOM     23  C   UNL d   1      -3.456  -0.284   1.958  0.00  0.00     0.187 C 
ATOM     24  O   UNL d   1      -2.766  -1.547   1.924  0.00  0.00    -0.388 OA
ATOM     25  C   UNL d   1      -1.358  -1.345   1.693  0.00  0.00     0.187 C 
ATOM     26  C   UNL d   1      -0.726  -0.448   2.777  0.00  0.00     0.149 C 
ENDBRANCH   2  21
BRANCH   3  27
ATOM     27  C   UNL d   1       1.061   5.652   4.708  0.00  0.00     0.417 C 
ATOM     28  F   UNL d   1       2.178   5.994   4.004  0.00  0.00    -0.166 F 
ATOM     29  F   UNL d   1       0.225   6.722   4.618  0.00  0.00    -0.166 F 
ATOM     30  F   UNL d   1       1.451   5.587   6.011  0.00  0.00    -0.166 F 
ENDBRANCH   3  27
TORSDOF 10
