REMARK  2 active torsions:
REMARK  status: ('A' for Active; 'I' for Inactive)
REMARK    1  A    between atoms: C_4  and  N_2 
REMARK    2  A    between atoms: C_3  and  C_5 
ROOT
ATOM      1  C   UNL d   1      -0.202  -2.436  -0.416  0.00  0.00     0.037 A 
ATOM      2  C   UNL d   1       1.107  -4.437   0.138  0.00  0.00     0.050 A 
ATOM      3  C   UNL d   1       0.742  -3.098   0.377  0.00  0.00     0.046 A 
ATOM      4  C   UNL d   1      -0.745  -3.143  -1.503  0.00  0.00     0.030 A 
ATOM      5  C   UNL d   1       0.528  -5.117  -0.940  0.00  0.00     0.016 A 
ATOM      6  C   UNL d   1      -0.390  -4.471  -1.761  0.00  0.00     0.003 A 
ENDROOT
BRANCH   1   7
ATOM      7  N   UNL d   1      -0.588  -1.090  -0.174  0.00  0.00    -0.323 N 
ATOM      8  C   UNL d   1      -0.572  -0.345   1.032  0.00  0.00     0.174 C 
ATOM      9  N   UNL d   1      -1.026   0.942   0.738  0.00  0.00    -0.365 N 
ATOM     10  S   UNL d   1      -0.196  -0.740   2.597  0.00  0.00    -0.041 SA
ATOM     11  C   UNL d   1      -1.149   1.133  -0.675  0.00  0.00     0.142 C 
ATOM     12  H   UNL d   1      -0.996   1.674   1.437  0.00  0.00     0.161 HD
ATOM     13  C   UNL d   1      -1.222  -0.286  -1.211  0.00  0.00     0.151 C 
ENDBRANCH   1   7
BRANCH   2  14
ATOM     14  C   UNL d   1       2.107  -5.137   1.024  0.00  0.00     0.417 C 
ATOM     15  F   UNL d   1       2.603  -4.357   2.025  0.00  0.00    -0.166 F 
ATOM     16  F   UNL d   1       1.579  -6.234   1.634  0.00  0.00    -0.166 F 
ATOM     17  F   UNL d   1       3.191  -5.584   0.331  0.00  0.00    -0.166 F 
ENDBRANCH   2  14
TORSDOF 2
