REMARK  3 active torsions:
REMARK  status: ('A' for Active; 'I' for Inactive)
REMARK    1  A    between atoms: C_2  and  S_1 
REMARK    2  A    between atoms: N_4  and  S_1 
REMARK    3  A    between atoms: N_9  and  C_8 
ROOT
ATOM      1  C   UNL d   1       0.395  -1.671  -0.540  0.00  0.00     0.090 A 
ATOM      2  C   UNL d   1      -0.753  -1.813  -1.382  0.00  0.00    -0.001 A 
ATOM      3  C   UNL d   1      -1.175  -3.137  -1.720  0.00  0.00    -0.003 A 
ATOM      4  C   UNL d   1      -2.303  -3.336  -2.572  0.00  0.00     0.017 A 
ATOM      5  C   UNL d   1       1.109  -2.793  -0.083  0.00  0.00     0.026 A 
ATOM      6  C   UNL d   1      -1.531  -0.745  -1.898  0.00  0.00     0.014 A 
ATOM      7  C   UNL d   1      -0.446  -4.232  -1.200  0.00  0.00     0.014 A 
ATOM      8  C   UNL d   1       0.683  -4.069  -0.403  0.00  0.00     0.002 A 
ATOM      9  C   UNL d   1      -2.661  -0.950  -2.688  0.00  0.00     0.003 A 
ATOM     10  C   UNL d   1      -3.054  -2.238  -3.002  0.00  0.00     0.024 A 
ENDROOT
BRANCH   1  11
ATOM     11  S   UNL d   1       1.060  -0.085  -0.009  0.00  0.00     0.261 S 
ATOM     12  O   UNL d   1       0.716   0.937  -0.972  0.00  0.00    -0.200 OA
ATOM     13  O   UNL d   1       2.452  -0.299   0.338  0.00  0.00    -0.200 OA
BRANCH  11  14
ATOM     14  N   UNL d   1       0.220   0.228   1.443  0.00  0.00    -0.315 N 
ATOM     15  C   UNL d   1      -1.211   0.554   1.336  0.00  0.00     0.162 C 
ATOM     16  C   UNL d   1       0.530  -0.645   2.588  0.00  0.00     0.162 C 
ENDBRANCH  11  14
ENDBRANCH   1  11
BRANCH   4  17
ATOM     17  N   UNL d   1      -2.836  -4.620  -2.835  0.00  0.00    -0.302 NA
ATOM     18  H   UNL d   1      -2.138  -5.352  -2.887  0.00  0.00     0.124 HD
ATOM     19  H   UNL d   1      -3.444  -4.640  -3.648  0.00  0.00     0.124 HD
ENDBRANCH   4  17
TORSDOF 3
