REMARK  2 active torsions:
REMARK  status: ('A' for Active; 'I' for Inactive)
REMARK    1  A    between atoms: C_6  and  C_1 
REMARK       I    between atoms: N_17  and  C_6 
REMARK    2  A    between atoms: C_16  and  N_17 
ROOT
ATOM      1  C   UNL d   1      -1.549  -2.481  -0.373  0.00  0.00     0.275 C 
ATOM      2  N   UNL d   1      -0.738  -3.480   0.146  0.00  0.00    -0.322 N 
ATOM      3  O   UNL d   1      -2.608  -2.678  -0.960  0.00  0.00    -0.266 OA
ATOM      4  H   UNL d   1       0.037  -3.169   0.719  0.00  0.00     0.169 HD
ENDROOT
BRANCH   1   5
ATOM      5  C   UNL d   1      -1.083  -1.137  -0.127  0.00  0.00     0.131 C 
ATOM      6  N   UNL d   1      -1.909  -0.082   0.198  0.00  0.00    -0.290 N 
ATOM      7  N   UNL d   1      -1.261   1.067   0.491  0.00  0.00    -0.298 N 
ATOM      8  C   UNL d   1      -3.355  -0.057   0.246  0.00  0.00     0.178 C 
ATOM      9  C   UNL d   1       0.017   0.831   0.173  0.00  0.00     0.061 A 
ATOM     10  HN  UNL d   1      -1.659   1.925   0.872  1.00  0.00     0.187 HD
ATOM     11  C   UNL d   1       0.160  -0.546  -0.240  0.00  0.00     0.026 A 
ATOM     12  C   UNL d   1       1.113   1.708   0.181  0.00  0.00     0.032 A 
ATOM     13  C   UNL d   1       1.331  -1.139  -0.717  0.00  0.00     0.016 A 
ATOM     14  C   UNL d   1       2.409  -0.226  -0.724  0.00  0.00     0.001 A 
ATOM     15  C   UNL d   1       2.311   1.128  -0.286  0.00  0.00     0.002 A 
ENDBRANCH   1   5
BRANCH   2  16
ATOM     16  C   UNL d   1      -0.897  -4.881  -0.014  0.00  0.00     0.037 A 
ATOM     17  C   UNL d   1      -1.892  -5.430  -0.845  0.00  0.00     0.061 A 
ATOM     18  C   UNL d   1      -1.902  -6.838  -1.003  0.00  0.00     0.069 A 
ATOM     19  N   UNL d   1      -2.744  -7.536  -1.780  0.00  0.00    -0.310 N 
ATOM     20  C   UNL d   1      -0.907  -7.701  -0.285  0.00  0.00     0.067 A 
ATOM     21  S   UNL d   1      -2.306  -9.130  -1.635  0.00  0.00     0.068 SA
ATOM     22  HN  UNL d   1      -3.504  -7.161  -2.348  1.00  0.00     0.176 HD
ATOM     23  N   UNL d   1      -1.043  -9.007  -0.560  0.00  0.00    -0.310 N 
ATOM     24  HN  UNL d   1      -0.483  -9.772  -0.184  1.00  0.00     0.176 HD
ATOM     25  C   UNL d   1       0.054  -7.124   0.577  0.00  0.00     0.035 A 
ATOM     26  C   UNL d   1       0.029  -5.714   0.678  0.00  0.00     0.032 A 
ENDBRANCH   2  16
TORSDOF 2
