REMARK  16 active torsions:
REMARK  status: ('A' for Active; 'I' for Inactive)
REMARK    1  A    between atoms: C_6  and  C_1 
REMARK    2  A    between atoms: C_1  and  O_4 
REMARK    3  A    between atoms: C_1  and  C_2 
REMARK    4  A    between atoms: C_2  and  O_5 
REMARK    5  A    between atoms: C_3  and  C_2 
REMARK    6  A    between atoms: C_12  and  C_3 
REMARK    7  A    between atoms: C_3  and  O_7 
REMARK    8  A    between atoms: C_8  and  O_4 
REMARK    9  A    between atoms: C_9  and  O_5 
REMARK   10  A    between atoms: S_18  and  C_6 
REMARK   11  A    between atoms: S_19  and  C_6 
REMARK   12  A    between atoms: C_10  and  O_7 
REMARK   13  A    between atoms: C_11  and  O_13 
REMARK   14  A    between atoms: O_13  and  C_12 
REMARK   15  A    between atoms: C_25  and  S_18 
REMARK   16  A    between atoms: C_24  and  S_19 
ROOT
ATOM      1  C   UNL d   1       2.182  -3.261  -0.254  0.00  0.00     0.195 C 
ENDROOT
BRANCH   1   2
ATOM      2  O   UNL d   1       2.402  -3.342  -1.698  0.00  0.00    -0.311 OA
BRANCH   2   3
ATOM      3  C   UNL d   1       1.797  -4.293  -2.453  0.00  0.00     0.255 C 
ATOM      4  O   UNL d   1       1.114  -5.218  -2.041  0.00  0.00    -0.266 OA
ATOM      5  C   UNL d   1       2.085  -4.089  -3.912  0.00  0.00     0.126 C 
ENDBRANCH   2   3
ENDBRANCH   1   2
BRANCH   1   6
ATOM      6  C   UNL d   1       2.426  -4.595   0.515  0.00  0.00     0.187 C 
BRANCH   6   7
ATOM      7  C   UNL d   1       3.887  -5.137   0.373  0.00  0.00     0.140 C 
BRANCH   7   8
ATOM      8  S   UNL d   1       5.133  -3.988   1.155  0.00  0.00    -0.151 SA
BRANCH   8   9
ATOM      9  C   UNL d   1       6.704  -4.849   0.784  0.00  0.00     0.070 C 
ATOM     10  C   UNL d   1       7.850  -4.189   1.536  0.00  0.00     0.016 C 
ENDBRANCH   8   9
ENDBRANCH   7   8
BRANCH   7  11
ATOM     11  S   UNL d   1       4.072  -6.794   1.172  0.00  0.00    -0.151 SA
BRANCH  11  12
ATOM     12  C   UNL d   1       3.119  -7.822   0.015  0.00  0.00     0.070 C 
ATOM     13  C   UNL d   1       3.149  -9.258   0.507  0.00  0.00     0.016 C 
ENDBRANCH  11  12
ENDBRANCH   7  11
ENDBRANCH   6   7
BRANCH   6  14
ATOM     14  O   UNL d   1       2.105  -4.381   1.914  0.00  0.00    -0.312 OA
BRANCH  14  15
ATOM     15  C   UNL d   1       1.239  -5.259   2.489  0.00  0.00     0.255 C 
ATOM     16  O   UNL d   1       0.729  -6.225   1.937  0.00  0.00    -0.266 OA
ATOM     17  C   UNL d   1       0.952  -4.874   3.906  0.00  0.00     0.126 C 
ENDBRANCH  14  15
ENDBRANCH   6  14
ENDBRANCH   1   6
BRANCH   1  18
ATOM     18  C   UNL d   1       0.821  -2.584   0.085  0.00  0.00     0.188 C 
BRANCH  18  19
ATOM     19  C   UNL d   1       0.729  -1.146  -0.463  0.00  0.00     0.213 C 
BRANCH  19  20
ATOM     20  O   UNL d   1       1.843  -0.313  -0.097  0.00  0.00    -0.319 OA
BRANCH  20  21
ATOM     21  C   UNL d   1       1.864   0.122   1.192  0.00  0.00     0.254 C 
ATOM     22  O   UNL d   1       1.058  -0.191   2.055  0.00  0.00    -0.266 OA
ATOM     23  C   UNL d   1       3.006   1.064   1.417  0.00  0.00     0.126 C 
ENDBRANCH  20  21
ENDBRANCH  19  20
ENDBRANCH  18  19
BRANCH  18  24
ATOM     24  O   UNL d   1      -0.264  -3.355  -0.471  0.00  0.00    -0.311 OA
BRANCH  24  25
ATOM     25  C   UNL d   1      -1.474  -3.234   0.140  0.00  0.00     0.255 C 
ATOM     26  O   UNL d   1      -1.702  -2.545   1.121  0.00  0.00    -0.266 OA
ATOM     27  C   UNL d   1      -2.521  -3.987  -0.622  0.00  0.00     0.126 C 
ENDBRANCH  24  25
ENDBRANCH  18  24
ENDBRANCH   1  18
TORSDOF 16
