REMARK  6 active torsions:
REMARK  status: ('A' for Active; 'I' for Inactive)
REMARK    1  A    between atoms: N_2  and  C_1 
REMARK       I    between atoms: C_3  and  N_2 
REMARK       I    between atoms: N_9  and  C_3 
REMARK    2  A    between atoms: C_4  and  O_10 
REMARK    3  A    between atoms: O_17  and  C_5 
REMARK    4  A    between atoms: C_15  and  N_9 
REMARK    5  A    between atoms: O_10  and  C_16 
REMARK    6  A    between atoms: C_22  and  O_17 
ROOT
ATOM      1  N   UNL d   1       0.067   2.435  -0.975  0.00  0.00    -0.300 N 
ATOM      2  C   UNL d   1       0.966   3.444  -1.206  0.00  0.00     0.325 C 
ATOM      3  N   UNL d   1       2.286   3.065  -1.265  0.00  0.00    -0.309 N 
ATOM      4  O   UNL d   1       0.524   4.553  -1.493  0.00  0.00    -0.247 OA
ATOM      5  H   UNL d   1      -0.844   2.619  -1.371  0.00  0.00     0.171 HD
ATOM      6  H   UNL d   1       2.459   2.094  -1.052  0.00  0.00     0.170 HD
ENDROOT
BRANCH   3   7
ATOM      7  C   UNL d   1       3.366   3.808  -1.784  0.00  0.00     0.036 A 
ATOM      8  C   UNL d   1       3.306   5.164  -2.101  0.00  0.00     0.032 A 
ATOM      9  C   UNL d   1       4.412   5.826  -2.654  0.00  0.00     0.039 A 
ATOM     10  C   UNL d   1       5.601   5.136  -2.886  0.00  0.00     0.078 A 
ATOM     11  C   UNL d   1       5.657   3.774  -2.583  0.00  0.00     0.039 A 
ATOM     12  C   UNL d   1       4.556   3.115  -2.025  0.00  0.00     0.032 A 
BRANCH  10  13
ATOM     13  O   UNL d   1       6.759   5.651  -3.388  0.00  0.00    -0.255 OA
BRANCH  13  14
ATOM     14  C   UNL d   1       6.840   7.054  -3.574  0.00  0.00     0.530 C 
ATOM     15  F   UNL d   1       6.473   7.731  -2.465  0.00  0.00    -0.144 F 
ATOM     16  F   UNL d   1       8.124   7.376  -3.849  0.00  0.00    -0.144 F 
ATOM     17  F   UNL d   1       6.077   7.444  -4.616  0.00  0.00    -0.144 F 
ENDBRANCH  13  14
ENDBRANCH  10  13
ENDBRANCH   3   7
BRANCH   1  18
ATOM     18  C   UNL d   1       0.235   1.204  -0.376  0.00  0.00     0.111 A 
ATOM     19  C   UNL d   1      -0.513   0.073  -0.622  0.00  0.00     0.103 A 
ATOM     20  C   UNL d   1      -0.222  -0.967   0.311  0.00  0.00     0.047 A 
ATOM     21  C   UNL d   1       0.768  -0.594   1.198  0.00  0.00     0.055 A 
ATOM     22  S   UNL d   1       1.354   0.983   0.879  0.00  0.00    -0.081 SA
BRANCH  19  23
ATOM     23  O   UNL d   1      -1.391   0.062  -1.658  0.00  0.00    -0.349 OA
BRANCH  23  24
ATOM     24  C   UNL d   1      -1.600  -1.214  -2.266  0.00  0.00     0.171 C 
ATOM     25  C   UNL d   1      -0.375  -1.716  -3.021  0.00  0.00     0.034 C 
ENDBRANCH  23  24
ENDBRANCH  19  23
ENDBRANCH   1  18
TORSDOF 6
