REMARK  8 active torsions:
REMARK  status: ('A' for Active; 'I' for Inactive)
REMARK    1  A    between atoms: C_8  and  N_1 
REMARK    2  A    between atoms: C_7  and  C_2 
REMARK    3  A    between atoms: O_21  and  C_7 
REMARK       I    between atoms: C_9  and  N_13 
REMARK    4  A    between atoms: C_10  and  C_9 
REMARK    5  A    between atoms: C_11  and  C_12 
REMARK    6  A    between atoms: O_22  and  C_11 
REMARK    7  A    between atoms: N_13  and  C_19 
REMARK    8  A    between atoms: C_26  and  O_21 
ROOT
ATOM      1  C   UNL d   1       2.438  -3.050   4.926  0.00  0.00     0.056 A 
ATOM      2  C   UNL d   1       1.496  -3.627   4.067  0.00  0.00     0.034 A 
ATOM      3  C   UNL d   1       3.247  -3.877   5.715  0.00  0.00     0.034 A 
ATOM      4  C   UNL d   1       2.162  -5.848   4.781  0.00  0.00     0.035 A 
ATOM      5  C   UNL d   1       1.387  -5.011   3.971  0.00  0.00     0.032 A 
ATOM      6  C   UNL d   1       3.091  -5.276   5.653  0.00  0.00     0.032 A 
ENDROOT
BRANCH   1   7
ATOM      7  N   UNL d   1       2.486  -1.631   4.987  0.00  0.00    -0.260 N 
ATOM      8  N   UNL d   1       1.326  -0.947   4.840  0.00  0.00    -0.297 N 
ATOM      9  C   UNL d   1       1.644   0.336   4.997  0.00  0.00     0.041 A 
ATOM     10  HN  UNL d   1       0.402  -1.335   4.648  1.00  0.00     0.187 HD
ATOM     11  C   UNL d   1       0.558   1.352   4.961  0.00  0.00     0.071 C 
ATOM     12  C   UNL d   1       3.046   0.520   5.137  0.00  0.00     0.087 A 
ATOM     13  C   UNL d   1       3.571  -0.773   5.098  0.00  0.00     0.049 A 
ATOM     14  C   UNL d   1       4.984  -1.236   5.026  0.00  0.00     0.071 C 
BRANCH  12  15
ATOM     15  C   UNL d   1       3.780   1.773   5.269  0.00  0.00     0.297 C 
ATOM     16  O   UNL d   1       4.992   1.843   5.430  0.00  0.00    -0.259 OA
BRANCH  15  17
ATOM     17  O   UNL d   1       2.953   2.857   5.254  0.00  0.00    -0.318 OA
BRANCH  17  18
ATOM     18  C   UNL d   1       3.515   4.091   5.719  0.00  0.00     0.174 C 
ATOM     19  C   UNL d   1       3.355   4.148   7.227  0.00  0.00     0.034 C 
ENDBRANCH  17  18
ENDBRANCH  15  17
ENDBRANCH  12  15
ENDBRANCH   1   7
BRANCH   4  20
ATOM     20  N   UNL d   1       1.907  -7.228   4.651  0.00  0.00    -0.324 N 
ATOM     21  C   UNL d   1       2.330  -8.262   5.466  0.00  0.00     0.245 C 
ATOM     22  O   UNL d   1       3.038  -8.170   6.453  0.00  0.00    -0.268 OA
ATOM     23  H   UNL d   1       1.251  -7.459   3.918  0.00  0.00     0.169 HD
BRANCH  21  24
ATOM     24  C   UNL d   1       1.711  -9.551   5.025  0.00  0.00     0.081 C 
ATOM     25  C   UNL d   1       1.874 -10.784   5.525  0.00  0.00     0.086 C 
BRANCH  25  26
ATOM     26  C   UNL d   1       2.774 -11.237   6.590  0.00  0.00     0.165 C 
ATOM     27  O   UNL d   1       3.850 -10.792   6.933  0.00  0.00    -0.647 OA
BRANCH  26  28
ATOM     28  O   UNL d   1       2.266 -12.361   7.133  0.00  0.00    -0.773 OA
ATOM     29  H   UNL d   1       2.937 -12.608   7.804  0.00  0.00     0.167 HD
ENDBRANCH  26  28
ENDBRANCH  25  26
ENDBRANCH  21  24
ENDBRANCH   4  20
TORSDOF 8
