REMARK  5 active torsions:
REMARK  status: ('A' for Active; 'I' for Inactive)
REMARK    1  A    between atoms: C_2  and  C_1 
REMARK    2  A    between atoms: C_3  and  C_2 
REMARK    3  A    between atoms: N_5  and  C_4 
REMARK       I    between atoms: C_6  and  N_5 
REMARK    4  A    between atoms: C_11  and  C_6 
REMARK    5  A    between atoms: N_7  and  C_11 
ROOT
ATOM      1  C   UNL d   1       1.669   1.304   1.089  0.00  0.00     0.043 C 
ATOM      2  C   UNL d   1       2.244   0.018   1.038  0.00  0.00     0.049 C 
ATOM      3  C   UNL d   1       0.376   1.444   1.623  0.00  0.00     0.041 C 
ATOM      4  C   UNL d   1       1.480  -1.099   1.412  0.00  0.00     0.032 C 
ATOM      5  C   UNL d   1      -0.392   0.322   1.929  0.00  0.00     0.035 C 
ATOM      6  C   UNL d   1       0.151  -0.955   1.813  0.00  0.00     0.026 C 
ATOM      7 CL   UNL d   1      -2.007   0.513   2.479  0.00  0.00    -0.084 Cl
ENDROOT
BRANCH   2   8
ATOM      8  N   UNL d   1       3.577  -0.262   0.690  0.00  0.00    -0.325 N 
ATOM      9  C   UNL d   1       4.185   0.140  -0.482  0.00  0.00     0.250 C 
ATOM     10  O   UNL d   1       3.705   0.936  -1.283  0.00  0.00    -0.271 OA
ATOM     11  H   UNL d   1       4.009  -1.097   1.073  0.00  0.00     0.169 HD
BRANCH   9  12
ATOM     12  C   UNL d   1       5.527  -0.558  -0.735  0.00  0.00     0.374 C 
BRANCH  12  13
ATOM     13  N   UNL d   1       5.714  -1.779   0.108  0.00  0.00     0.097 N 
ATOM     14  C   UNL d   1       4.945  -2.931  -0.404  0.00  0.00     0.273 C 
ATOM     15  C   UNL d   1       5.115  -4.136   0.527  0.00  0.00     0.030 C 
ATOM     16  C   UNL d   1       6.581  -4.534   0.651  0.00  0.00     0.003 C 
ATOM     17  C   UNL d   1       7.430  -3.330   1.037  0.00  0.00     0.030 C 
ATOM     18  C   UNL d   1       7.154  -2.125   0.137  0.00  0.00     0.273 C 
ENDBRANCH  12  13
ENDBRANCH   9  12
ENDBRANCH   2   8
BRANCH   1  19
ATOM     19  C   UNL d   1       2.488   2.520   0.930  0.00  0.00     0.196 C 
ATOM     20  O   UNL d   1       3.395   2.640   1.760  0.00  0.00    -0.287 OA
BRANCH  19  21
ATOM     21  C   UNL d   1       2.297   3.607  -0.082  0.00  0.00     0.037 A 
ATOM     22  C   UNL d   1       1.160   3.932  -0.837  0.00  0.00     0.048 A 
ATOM     23 CL   UNL d   1      -0.302   3.021  -0.906  0.00  0.00    -0.083 Cl
ATOM     24  C   UNL d   1       1.149   5.088  -1.647  0.00  0.00     0.025 A 
ATOM     25  C   UNL d   1       2.271   5.903  -1.763  0.00  0.00     0.002 A 
ATOM     26  C   UNL d   1       3.427   5.564  -1.076  0.00  0.00     0.001 A 
ATOM     27  C   UNL d   1       3.433   4.442  -0.244  0.00  0.00     0.017 A 
ENDBRANCH  19  21
ENDBRANCH   1  19
TORSDOF 5
