REMARK  7 active torsions:
REMARK  status: ('A' for Active; 'I' for Inactive)
REMARK    1  A    between atoms: C_2  and  S_1 
REMARK    2  A    between atoms: N_6  and  S_1 
REMARK    3  A    between atoms: C_8  and  C_3 
REMARK    4  A    between atoms: O_20  and  C_8 
REMARK    5  A    between atoms: C_14  and  N_9 
REMARK    6  A    between atoms: C_18  and  C_14 
REMARK    7  A    between atoms: C_19  and  C_14 
ROOT
ATOM      1  N   UNL d   1       0.397  -1.152  -0.631  0.00  0.00    -0.201 NA
ATOM      2  N   UNL d   1      -0.883  -2.845   1.482  0.00  0.00     0.104 N 
ATOM      3  C   UNL d   1      -1.049  -1.007  -0.299  0.00  0.00     0.138 C 
ATOM      4  C   UNL d   1       0.890  -2.526  -0.326  0.00  0.00     0.138 C 
ATOM      5  C   UNL d   1      -1.339  -1.470   1.147  0.00  0.00     0.289 C 
ATOM      6  C   UNL d   1       0.560  -2.935   1.124  0.00  0.00     0.289 C 
ENDROOT
BRANCH   1   7
ATOM      7  S   UNL d   1       1.401   0.117  -0.102  0.00  0.00     0.266 S 
ATOM      8  O   UNL d   1       0.822   0.741   1.070  0.00  0.00    -0.204 OA
ATOM      9  O   UNL d   1       2.773  -0.334  -0.111  0.00  0.00    -0.204 OA
BRANCH   7  10
ATOM     10  C   UNL d   1       1.385   1.416  -1.336  0.00  0.00     0.186 A 
ATOM     11  C   UNL d   1       2.059   2.628  -1.327  0.00  0.00     0.071 A 
ATOM     12  C   UNL d   1       1.822   3.284  -2.563  0.00  0.00     0.072 A 
ATOM     13  C   UNL d   1       0.966   2.447  -3.259  0.00  0.00     0.067 A 
ATOM     14  O   UNL d   1       0.694   1.329  -2.527  0.00  0.00    -0.301 OA
ATOM     15  C   UNL d   1       0.342   2.528  -4.598  0.00  0.00     0.078 C 
BRANCH  12  16
ATOM     16  C   UNL d   1       2.367   4.548  -3.025  0.00  0.00     0.295 C 
ATOM     17  O   UNL d   1       2.120   5.043  -4.118  0.00  0.00    -0.259 OA
BRANCH  16  18
ATOM     18  O   UNL d   1       3.198   5.100  -2.094  0.00  0.00    -0.322 OA
ATOM     19  C   UNL d   1       3.809   6.326  -2.489  0.00  0.00     0.213 C 
ENDBRANCH  16  18
ENDBRANCH  12  16
ENDBRANCH   7  10
ENDBRANCH   1   7
BRANCH   2  20
ATOM     20  C   UNL d   1      -1.696  -3.915   0.828  0.00  0.00     0.289 C 
BRANCH  20  21
ATOM     21  C   UNL d   1      -1.232  -5.323   1.222  0.00  0.00    -0.021 A 
ATOM     22  C   UNL d   1      -1.214  -5.735   2.566  0.00  0.00     0.010 A 
ATOM     23  C   UNL d   1      -0.826  -7.031   2.909  0.00  0.00     0.001 A 
ATOM     24  C   UNL d   1      -0.439  -7.929   1.918  0.00  0.00     0.000 A 
ATOM     25  C   UNL d   1      -0.429  -7.531   0.583  0.00  0.00     0.001 A 
ATOM     26  C   UNL d   1      -0.824  -6.237   0.235  0.00  0.00     0.010 A 
ENDBRANCH  20  21
BRANCH  20  27
ATOM     27  C   UNL d   1      -3.212  -3.790   1.052  0.00  0.00    -0.021 A 
ATOM     28  C   UNL d   1      -4.093  -4.167   0.023  0.00  0.00     0.010 A 
ATOM     29  C   UNL d   1      -5.473  -4.025   0.177  0.00  0.00     0.001 A 
ATOM     30  C   UNL d   1      -5.994  -3.509   1.361  0.00  0.00     0.000 A 
ATOM     31  C   UNL d   1      -5.139  -3.166   2.405  0.00  0.00     0.001 A 
ATOM     32  C   UNL d   1      -3.760  -3.324   2.260  0.00  0.00     0.010 A 
ENDBRANCH  20  27
ENDBRANCH   2  20
TORSDOF 7
