REMARK  4 active torsions:
REMARK  status: ('A' for Active; 'I' for Inactive)
REMARK    1  A    between atoms: C_2  and  C_1 
REMARK    2  A    between atoms: O_16  and  C_2 
REMARK    3  A    between atoms: C_3  and  C_17 
REMARK    4  A    between atoms: C_21  and  O_16 
ROOT
ATOM      1  C   UNL d   1      -6.251   0.885   0.419  0.00  0.00     0.095 A 
ATOM      2  C   UNL d   1      -6.958   0.335   1.467  0.00  0.00     0.155 A 
ATOM      3  N   UNL d   1      -7.934  -0.216  -0.469  0.00  0.00    -0.021 NA
ATOM      4  N   UNL d   1      -6.889   0.548  -0.756  0.00  0.00    -0.281 N 
ATOM      5  HN  UNL d   1      -6.605   0.838  -1.692  1.00  0.00     0.184 HD
ATOM      6  N   UNL d   1      -7.968  -0.355   0.862  0.00  0.00    -0.273 N 
ATOM      7  C   UNL d   1      -6.785   0.388   2.862  0.00  0.00     0.121 C 
ATOM      8  N   UNL d   1      -6.666   0.400   4.019  0.00  0.00    -0.190 NA
ATOM      9  H   UNL d   1      -8.697  -0.929   1.273  0.00  0.00     0.185 HD
ENDROOT
BRANCH   1  10
ATOM     10  C   UNL d   1      -5.012   1.653   0.425  0.00  0.00    -0.005 A 
ATOM     11  C   UNL d   1      -4.019   1.487   1.405  0.00  0.00     0.016 A 
ATOM     12  C   UNL d   1      -2.757   2.093   1.272  0.00  0.00     0.038 A 
ATOM     13  C   UNL d   1      -2.489   2.876   0.155  0.00  0.00     0.079 A 
ATOM     14  C   UNL d   1      -3.483   3.107  -0.798  0.00  0.00     0.038 A 
ATOM     15  C   UNL d   1      -4.737   2.502  -0.659  0.00  0.00     0.016 A 
BRANCH  13  16
ATOM     16  O   UNL d   1      -1.197   3.361  -0.187  0.00  0.00    -0.275 OA
BRANCH  16  17
ATOM     17  C   UNL d   1      -0.070   3.518   0.640  0.00  0.00     0.303 C 
ATOM     18  O   UNL d   1      -0.096   3.451   1.862  0.00  0.00    -0.259 OA
BRANCH  17  19
ATOM     19  C   UNL d   1       1.141   3.780  -0.124  0.00  0.00     0.095 A 
ATOM     20  C   UNL d   1       1.297   3.715  -1.498  0.00  0.00     0.090 A 
ATOM     21  O   UNL d   1       2.574   4.032  -1.831  0.00  0.00    -0.242 OA
ATOM     22  C   UNL d   1       0.426   3.367  -2.638  0.00  0.00     0.080 C 
ATOM     23  N   UNL d   1       3.298   4.293  -0.694  0.00  0.00    -0.265 N 
ATOM     24  C   UNL d   1       2.452   4.124   0.331  0.00  0.00     0.047 A 
ATOM     25  HN  UNL d   1       4.280   4.561  -0.640  1.00  0.00     0.194 HD
ATOM     26  C   UNL d   1       2.976   4.317   1.704  0.00  0.00     0.071 C 
ENDBRANCH  17  19
ENDBRANCH  16  17
ENDBRANCH  13  16
ENDBRANCH   1  10
TORSDOF 4
