REMARK  2 active torsions:
REMARK  status: ('A' for Active; 'I' for Inactive)
REMARK    1  A    between atoms: C_2  and  C_1 
REMARK       I    between atoms: N_9  and  C_2 
REMARK    2  A    between atoms: C_3  and  N_11 
ROOT
ATOM      1  C   UNL d   1       1.431   2.354  -0.174  0.00  0.00     0.256 C 
ATOM      2  N   UNL d   1       0.817   3.601  -0.430  0.00  0.00    -0.345 N 
ATOM      3  N   UNL d   1      -0.087   6.436  -0.522  0.00  0.00     0.105 N 
ATOM      4  O   UNL d   1       1.303   1.761   0.891  0.00  0.00    -0.267 OA
ATOM      5  C   UNL d   1       0.117   4.204   0.706  0.00  0.00     0.156 C 
ATOM      6  C   UNL d   1       1.433   4.567  -1.347  0.00  0.00     0.156 C 
ATOM      7  C   UNL d   1       0.581   5.809  -1.659  0.00  0.00     0.293 C 
ATOM      8  C   UNL d   1      -0.752   5.406   0.299  0.00  0.00     0.293 C 
ENDROOT
BRANCH   3   9
ATOM      9  C   UNL d   1       0.688   7.485   0.169  0.00  0.00     0.290 C 
ATOM     10  C   UNL d   1      -0.149   8.142   1.264  0.00  0.00    -0.009 A 
ATOM     11  C   UNL d   1       0.439   7.912   2.529  0.00  0.00    -0.017 A 
ATOM     12  C   UNL d   1      -1.349   8.825   1.131  0.00  0.00     0.010 A 
ATOM     13  C   UNL d   1      -0.172   8.383   3.676  0.00  0.00     0.013 A 
ATOM     14  C   UNL d   1       1.687   7.204   2.342  0.00  0.00    -0.017 C 
ATOM     15  C   UNL d   1      -1.383   9.073   3.550  0.00  0.00     0.001 A 
ATOM     16  C   UNL d   1      -1.967   9.290   2.290  0.00  0.00     0.001 A 
ATOM     17  C   UNL d   1       1.921   7.054   0.958  0.00  0.00    -0.009 C 
ATOM     18  C   UNL d   1       2.606   6.732   3.265  0.00  0.00     0.013 C 
ATOM     19  C   UNL d   1       3.157   6.623   0.500  0.00  0.00     0.010 C 
ATOM     20  C   UNL d   1       4.076   6.126   1.425  0.00  0.00     0.001 C 
ATOM     21  C   UNL d   1       3.787   6.149   2.796  0.00  0.00     0.001 C 
ENDBRANCH   3   9
BRANCH   1  22
ATOM     22  C   UNL d   1       2.258   1.812  -1.247  0.00  0.00     0.063 C 
ATOM     23  C   UNL d   1       3.487   1.185  -1.103  0.00  0.00     0.065 C 
ATOM     24  O   UNL d   1       4.062   1.000  -2.330  0.00  0.00    -0.319 OA
ATOM     25  C   UNL d   1       4.308   0.755   0.050  0.00  0.00     0.077 C 
ATOM     26  C   UNL d   1       3.175   1.440  -3.260  0.00  0.00     0.050 C 
ATOM     27  C   UNL d   1       2.003   1.813  -2.649  0.00  0.00     0.051 C 
ATOM     28  C   UNL d   1       3.629   1.482  -4.662  0.00  0.00     0.076 C 
ENDBRANCH   1  22
TORSDOF 2
