REMARK  3 active torsions:
REMARK  status: ('A' for Active; 'I' for Inactive)
REMARK    1  A    between atoms: N_2  and  C_1 
REMARK    2  A    between atoms: N_5  and  C_1 
REMARK    3  A    between atoms: C_3  and  N_2 
ROOT
ATOM      1  C   UNL d   1       0.993   2.559   0.528  0.00  0.00     0.037 A 
ATOM      2  C   UNL d   1       2.072   2.932  -0.278  0.00  0.00     0.053 A 
ATOM      3  C   UNL d   1       0.393   3.512   1.357  0.00  0.00     0.053 A 
ATOM      4  C   UNL d   1       2.578   4.230  -0.211  0.00  0.00     0.037 A 
ATOM      5  C   UNL d   1       0.922   4.801   1.427  0.00  0.00     0.037 A 
ATOM      6  C   UNL d   1       2.015   5.167   0.650  0.00  0.00     0.048 A 
ATOM      7 CL   UNL d   1       3.915   4.675  -1.200  0.00  0.00    -0.084 Cl
ATOM      8 CL   UNL d   1       0.227   5.944   2.512  0.00  0.00    -0.084 Cl
ENDROOT
BRANCH   1   9
ATOM      9  N   UNL d   1       0.452   1.256   0.529  0.00  0.00    -0.333 N 
ATOM     10  H   UNL d   1      -0.539   1.187   0.730  0.00  0.00     0.168 HD
BRANCH   9  11
ATOM     11  C   UNL d   1       0.999   0.092   0.054  0.00  0.00     0.173 C 
ATOM     12  S   UNL d   1      -0.079  -1.046  -0.548  0.00  0.00    -0.041 SA
BRANCH  11  13
ATOM     13  N   UNL d   1       2.367  -0.098   0.184  0.00  0.00    -0.367 N 
ATOM     14  C   UNL d   1       3.090   0.390   1.359  0.00  0.00     0.151 C 
ATOM     15  C   UNL d   1       3.093  -1.099  -0.592  0.00  0.00     0.151 C 
ENDBRANCH  11  13
ENDBRANCH   9  11
ENDBRANCH   1   9
TORSDOF 3
