REMARK  8 active torsions:
REMARK  status: ('A' for Active; 'I' for Inactive)
REMARK    1  A    between atoms: N_6  and  C_1 
REMARK    2  A    between atoms: C_8  and  C_2 
REMARK    3  A    between atoms: C_7  and  N_6 
REMARK    4  A    between atoms: N_13  and  C_7 
REMARK    5  A    between atoms: O_16  and  C_8 
REMARK    6  A    between atoms: C_19  and  N_13 
REMARK    7  A    between atoms: C_14  and  C_19 
REMARK    8  A    between atoms: C_20  and  O_16 
ROOT
ATOM      1  C   UNL d   1       2.351  -0.894   0.126  0.00  0.00     0.093 C 
ATOM      2  C   UNL d   1       1.888   0.416   0.119  0.00  0.00     0.080 C 
ATOM      3  C   UNL d   1       0.432   0.437   0.098  0.00  0.00    -0.026 C 
ATOM      4  C   UNL d   1      -0.093  -0.840   0.163  0.00  0.00    -0.008 C 
ATOM      5  S   UNL d   1       1.093  -2.032   0.302  0.00  0.00    -0.075 SA
ATOM      6  C   UNL d   1      -0.469   1.639  -0.024  0.00  0.00     0.041 C 
ATOM      7  C   UNL d   1      -1.547  -1.194   0.145  0.00  0.00     0.051 C 
ATOM      8  C   UNL d   1      -1.955   1.299   0.184  0.00  0.00     0.009 C 
ATOM      9  C   UNL d   1      -2.378  -0.041  -0.450  0.00  0.00    -0.014 C 
ATOM     10  C   UNL d   1      -2.280  -0.008  -1.979  0.00  0.00     0.010 C 
ENDROOT
BRANCH   1  11
ATOM     11  N   UNL d   1       3.657  -1.361   0.164  0.00  0.00    -0.327 N 
ATOM     12  H   UNL d   1       4.378  -0.656   0.305  0.00  0.00     0.169 HD
BRANCH  11  13
ATOM     13  C   UNL d   1       4.109  -2.551  -0.358  0.00  0.00     0.172 C 
ATOM     14  S   UNL d   1       3.587  -3.322  -1.750  0.00  0.00    -0.041 SA
BRANCH  13  15
ATOM     15  N   UNL d   1       5.156  -3.125   0.309  0.00  0.00    -0.364 N 
ATOM     16  H   UNL d   1       5.484  -3.995  -0.092  0.00  0.00     0.162 HD
BRANCH  15  17
ATOM     17  C   UNL d   1       5.639  -2.779   1.627  0.00  0.00     0.148 C 
BRANCH  17  18
ATOM     18  C   UNL d   1       6.733  -1.759   1.550  0.00  0.00    -0.018 C 
ATOM     19  C   UNL d   1       7.529  -1.503   0.502  0.00  0.00     0.008 C 
ENDBRANCH  17  18
ENDBRANCH  15  17
ENDBRANCH  13  15
ENDBRANCH  11  13
ENDBRANCH   1  11
BRANCH   2  20
ATOM     20  C   UNL d   1       2.789   1.575   0.105  0.00  0.00     0.296 C 
ATOM     21  O   UNL d   1       4.001   1.485   0.282  0.00  0.00    -0.259 OA
BRANCH  20  22
ATOM     22  O   UNL d   1       2.124   2.750  -0.072  0.00  0.00    -0.318 OA
BRANCH  22  23
ATOM     23  C   UNL d   1       2.857   3.965   0.139  0.00  0.00     0.174 C 
ATOM     24  C   UNL d   1       2.745   4.356   1.601  0.00  0.00     0.034 C 
ENDBRANCH  22  23
ENDBRANCH  20  22
ENDBRANCH   2  20
TORSDOF 8
