REMARK  9 active torsions:
REMARK  status: ('A' for Active; 'I' for Inactive)
REMARK    1  A    between atoms: N_4  and  C_1 
REMARK       I    between atoms: C_9  and  N_4 
REMARK    2  A    between atoms: C_7  and  C_5 
REMARK    3  A    between atoms: C_10  and  C_7 
REMARK    4  A    between atoms: C_15  and  C_9 
REMARK    5  A    between atoms: O_18  and  C_10 
REMARK    6  A    between atoms: C_11  and  C_16 
REMARK    7  A    between atoms: O_17  and  C_11 
REMARK    8  A    between atoms: C_16  and  C_15 
REMARK    9  A    between atoms: C_19  and  O_18 
ROOT
ATOM      1  C   UNL d   1       0.176  -1.179   0.043  0.00  0.00     0.151 A 
ATOM      2  N   UNL d   1       1.376  -0.653   0.151  0.00  0.00    -0.339 N 
ATOM      3  HN  UNL d   1       2.241  -1.181   0.268  1.00  0.00     0.168 HD
ATOM      4  C   UNL d   1       1.288   0.735   0.080  0.00  0.00     0.027 A 
ATOM      5  S   UNL d   1      -1.121  -0.074   0.019  0.00  0.00    -0.064 SA
ATOM      6  C   UNL d   1      -0.006   1.222   0.052  0.00  0.00     0.078 A 
ENDROOT
BRANCH   1   7
ATOM      7  N   UNL d   1      -0.019  -2.536   0.031  0.00  0.00    -0.307 N 
ATOM      8  C   UNL d   1      -1.125  -3.163  -0.487  0.00  0.00     0.224 C 
ATOM      9  O   UNL d   1      -2.075  -2.636  -1.059  0.00  0.00    -0.273 OA
ATOM     10  H   UNL d   1       0.841  -3.059   0.151  0.00  0.00     0.171 HD
BRANCH   8  11
ATOM     11  C   UNL d   1      -1.059  -4.675  -0.412  0.00  0.00     0.113 C 
BRANCH  11  12
ATOM     12  C   UNL d   1      -1.477  -5.258  -1.756  0.00  0.00     0.119 C 
BRANCH  12  13
ATOM     13  C   UNL d   1      -0.489  -4.843  -2.815  0.00  0.00     0.139 C 
ATOM     14  O   UNL d   1       0.525  -5.474  -3.071  0.00  0.00    -0.650 OA
BRANCH  13  15
ATOM     15  O   UNL d   1      -0.778  -3.659  -3.396  0.00  0.00    -0.776 OA
ATOM     16  H   UNL d   1      -1.561  -3.195  -3.018  0.00  0.00     0.167 HD
ENDBRANCH  13  15
ENDBRANCH  12  13
ENDBRANCH  11  12
ENDBRANCH   8  11
ENDBRANCH   1   7
BRANCH   4  17
ATOM     17  C   UNL d   1       2.543   1.542   0.061  0.00  0.00     0.168 C 
BRANCH  17  18
ATOM     18  C   UNL d   1       2.704   2.329  -1.221  0.00  0.00     0.264 C 
ATOM     19  O   UNL d   1       1.891   2.412  -2.130  0.00  0.00    -0.265 OA
BRANCH  18  20
ATOM     20  O   UNL d   1       3.931   2.930  -1.220  0.00  0.00    -0.322 OA
BRANCH  20  21
ATOM     21  C   UNL d   1       4.358   3.463  -2.483  0.00  0.00     0.174 C 
ATOM     22  C   UNL d   1       5.094   2.368  -3.231  0.00  0.00     0.034 C 
ENDBRANCH  20  21
ENDBRANCH  18  20
ENDBRANCH  17  18
ENDBRANCH   4  17
TORSDOF 9
