REMARK  6 active torsions:
REMARK  status: ('A' for Active; 'I' for Inactive)
REMARK    1  A    between atoms: C_12  and  N_1 
REMARK    2  A    between atoms: N_16  and  C_2 
REMARK    3  A    between atoms: C_6  and  C_4 
REMARK    4  A    between atoms: C_5  and  C_14 
REMARK    5  A    between atoms: O_21  and  C_7 
REMARK    6  A    between atoms: O_22  and  C_8 
ROOT
ATOM      1  C   UNL d   1      -2.738   4.778  -1.746  0.00  0.00     0.038 C 
ATOM      2  C   UNL d   1      -2.722   6.087  -2.091  0.00  0.00     0.055 C 
ATOM      3  C   UNL d   1      -3.477   7.047  -1.329  0.00  0.00     0.100 C 
ATOM      4  N   UNL d   1      -4.101   7.836  -0.749  0.00  0.00    -0.191 NA
ENDROOT
BRANCH   2   5
ATOM      5  C   UNL d   1      -1.949   6.512  -3.303  0.00  0.00    -0.015 A 
ATOM      6  C   UNL d   1      -2.309   7.676  -4.007  0.00  0.00     0.015 A 
ATOM      7  C   UNL d   1      -1.622   8.083  -5.160  0.00  0.00     0.037 A 
ATOM      8  C   UNL d   1      -0.545   7.323  -5.632  0.00  0.00     0.102 A 
ATOM      9  C   UNL d   1      -0.146   6.176  -4.949  0.00  0.00     0.037 A 
ATOM     10  C   UNL d   1      -0.836   5.788  -3.792  0.00  0.00     0.015 A 
BRANCH   8  11
ATOM     11  N   UNL d   1       0.163   7.742  -6.849  0.00  0.00    -0.116 N 
ATOM     12  O   UNL d   1       1.084   7.012  -7.258  0.00  0.00    -0.532 OA
ATOM     13  O   UNL d   1      -0.193   8.787  -7.398  0.00  0.00    -0.532 OA
ENDBRANCH   8  11
ENDBRANCH   2   5
BRANCH   1  14
ATOM     14  C   UNL d   1      -3.357   4.223  -0.540  0.00  0.00     0.002 A 
ATOM     15  C   UNL d   1      -4.705   3.942  -0.351  0.00  0.00     0.080 A 
ATOM     16  C   UNL d   1      -5.133   3.496   0.913  0.00  0.00     0.069 A 
ATOM     17  C   UNL d   1      -4.277   3.275   2.023  0.00  0.00     0.066 A 
ATOM     18  C   UNL d   1      -2.902   3.502   1.772  0.00  0.00     0.095 A 
ATOM     19  C   UNL d   1      -2.475   4.000   0.526  0.00  0.00     0.053 A 
BRANCH  15  20
ATOM     20  O   UNL d   1      -5.728   4.117  -1.243  0.00  0.00    -0.355 OA
ATOM     21  C   UNL d   1      -5.461   3.861  -2.614  0.00  0.00     0.210 C 
ENDBRANCH  15  20
BRANCH  17  22
ATOM     22  N   UNL d   1      -4.832   2.860   3.235  0.00  0.00    -0.387 N 
ATOM     23  C   UNL d   1      -4.081   2.390   4.393  0.00  0.00     0.149 C 
ATOM     24  C   UNL d   1      -6.268   3.020   3.482  0.00  0.00     0.149 C 
ENDBRANCH  17  22
BRANCH  18  25
ATOM     25  O   UNL d   1      -1.980   3.302   2.774  0.00  0.00    -0.354 OA
ATOM     26  C   UNL d   1      -0.639   3.028   2.370  0.00  0.00     0.210 C 
ENDBRANCH  18  25
ENDBRANCH   1  14
TORSDOF 6
