REMARK  2 active torsions:
REMARK  status: ('A' for Active; 'I' for Inactive)
REMARK    1  A    between atoms: C_12  and  C_5 
REMARK    2  A    between atoms: C_14  and  C_10 
ROOT
ATOM      1  C   UNL d   1      -1.190  -0.121  -0.321  0.00  0.00     0.135 A 
ATOM      2  C   UNL d   1      -2.490  -0.000  -0.622  0.00  0.00     0.103 C 
ATOM      3  N   UNL d   1      -4.470   0.870  -1.453  0.00  0.00    -0.296 N 
ATOM      4  HN  UNL d   1      -5.198   1.507  -1.778  1.00  0.00     0.187 HD
ATOM      5  C   UNL d   1      -3.326   1.198  -0.898  0.00  0.00     0.077 C 
ATOM      6  O   UNL d   1      -0.320   0.969  -0.273  0.00  0.00    -0.301 OA
ATOM      7  C   UNL d   1      -3.394  -1.133  -0.961  0.00  0.00     0.275 C 
ATOM      8  N   UNL d   1      -4.493  -0.497  -1.509  0.00  0.00    -0.265 N 
ATOM      9  S   UNL d   1      -0.367  -1.649  -0.069  0.00  0.00    -0.073 SA
ATOM     10  C   UNL d   1       0.996   0.523  -0.121  0.00  0.00     0.093 A 
ATOM     11  C   UNL d   1       1.139  -0.803  -0.014  0.00  0.00     0.090 A 
ATOM     12  O   UNL d   1      -3.236  -2.328  -0.835  0.00  0.00    -0.266 OA
ATOM     13  H   UNL d   1      -5.297  -0.994  -1.873  0.00  0.00     0.190 HD
ENDROOT
BRANCH   5  14
ATOM     14  C   UNL d   1      -2.996   2.596  -0.575  0.00  0.00    -0.007 A 
ATOM     15  C   UNL d   1      -2.300   2.952   0.584  0.00  0.00     0.014 A 
ATOM     16  C   UNL d   1      -2.045   4.298   0.861  0.00  0.00     0.001 A 
ATOM     17  C   UNL d   1      -2.519   5.292   0.006  0.00  0.00     0.000 A 
ATOM     18  C   UNL d   1      -3.259   4.946  -1.123  0.00  0.00     0.001 A 
ATOM     19  C   UNL d   1      -3.501   3.602  -1.410  0.00  0.00     0.014 A 
ENDBRANCH   5  14
BRANCH  10  20
ATOM     20  C   UNL d   1       2.078   1.516  -0.129  0.00  0.00    -0.002 A 
ATOM     21  C   UNL d   1       1.929   2.738  -0.800  0.00  0.00     0.014 A 
ATOM     22  C   UNL d   1       2.964   3.679  -0.807  0.00  0.00     0.001 A 
ATOM     23  C   UNL d   1       4.158   3.416  -0.139  0.00  0.00     0.000 A 
ATOM     24  C   UNL d   1       4.321   2.209   0.534  0.00  0.00     0.001 A 
ATOM     25  C   UNL d   1       3.289   1.268   0.539  0.00  0.00     0.014 A 
ENDBRANCH  10  20
TORSDOF 2
