REMARK  2 active torsions:
REMARK  status: ('A' for Active; 'I' for Inactive)
REMARK    1  A    between atoms: N_4  and  N_1 
REMARK       I    between atoms: C_3  and  N_4 
REMARK       I    between atoms: N_10  and  C_3 
REMARK    2  A    between atoms: C_6  and  C_5 
ROOT
ATOM      1  N   UNL d   1       0.897   0.015  -0.096  0.00  0.00    -0.300 N 
ATOM      2  HN  UNL d   1       0.436  -0.864   0.137  1.00  0.00     0.186 HD
ATOM      3  C   UNL d   1       2.198   0.087  -0.087  0.00  0.00     0.032 C 
ATOM      4  C   UNL d   1       3.013   1.322  -0.425  0.00  0.00     0.070 C 
ENDROOT
BRANCH   1   5
ATOM      5  N   UNL d   1       0.150   1.110  -0.416  0.00  0.00    -0.252 N 
ATOM      6  C   UNL d   1      -1.221   1.063  -0.468  0.00  0.00     0.332 C 
ATOM      7  O   UNL d   1      -1.915   2.047  -0.691  0.00  0.00    -0.246 OA
ATOM      8  N   UNL d   1      -1.748  -0.168  -0.256  0.00  0.00    -0.351 N 
ATOM      9  H   UNL d   1      -1.118  -0.835   0.167  0.00  0.00     0.160 HD
ATOM     10  H   UNL d   1      -2.743  -0.241  -0.116  0.00  0.00     0.160 HD
ATOM     11  H   UNL d   1       0.557   2.020  -0.574  0.00  0.00     0.191 HD
ENDBRANCH   1   5
BRANCH   3  12
ATOM     12  C   UNL d   1       2.965  -1.159   0.286  0.00  0.00    -0.012 A 
ATOM     13  C   UNL d   1       2.259  -2.339   0.577  0.00  0.00     0.016 A 
ATOM     14  C   UNL d   1       2.940  -3.509   0.926  0.00  0.00     0.043 A 
ATOM     15  C   UNL d   1       4.327  -3.502   0.984  0.00  0.00     0.116 A 
ATOM     16  C   UNL d   1       5.046  -2.347   0.702  0.00  0.00     0.043 A 
ATOM     17  F   UNL d   1       4.981  -4.621   1.318  0.00  0.00    -0.206 F 
ATOM     18  C   UNL d   1       4.367  -1.174   0.354  0.00  0.00     0.016 A 
ENDBRANCH   3  12
TORSDOF 2
