REMARK  0 active torsions:
REMARK  status: ('A' for Active; 'I' for Inactive)
ROOT
ATOM      1  C   UNL d   1       0.939  -0.474   0.031  0.00  0.00     0.086 A 
ATOM      2  N   UNL d   1      -0.042  -1.424  -0.030  0.00  0.00    -0.352 N 
ATOM      3  C   UNL d   1       0.335   0.769   0.033  0.00  0.00    -0.015 A 
ATOM      4  C   UNL d   1      -1.071   0.561   0.014  0.00  0.00    -0.001 A 
ATOM      5  C   UNL d   1      -1.280  -0.821  -0.032  0.00  0.00     0.043 A 
ATOM      6  C   UNL d   1       2.361  -0.709   0.082  0.00  0.00     0.176 C 
ATOM      7  O   UNL d   1       2.860  -1.829   0.045  0.00  0.00    -0.291 OA
ATOM      8  C   UNL d   1       1.122   2.036   0.070  0.00  0.00     0.042 C 
ATOM      9  C   UNL d   1      -2.192   1.414   0.032  0.00  0.00     0.014 A 
ATOM     10  C   UNL d   1      -2.559  -1.389  -0.068  0.00  0.00     0.030 A 
ATOM     11  C   UNL d   1       3.196   0.552   0.289  0.00  0.00     0.086 C 
ATOM     12  C   UNL d   1       2.569   1.780  -0.392  0.00  0.00     0.012 C 
ATOM     13  C   UNL d   1      -3.477   0.860   0.001  0.00  0.00     0.001 A 
ATOM     14  C   UNL d   1      -3.655  -0.521  -0.051  0.00  0.00     0.002 A 
ATOM     15  H   UNL d   1       0.126  -2.421  -0.052  0.00  0.00     0.166 HD
ENDROOT
TORSDOF 0
