REMARK  6 active torsions:
REMARK  status: ('A' for Active; 'I' for Inactive)
REMARK    1  A    between atoms: C_5  and  C_1 
REMARK    2  A    between atoms: N_3  and  C_2 
REMARK    3  A    between atoms: N_4  and  N_3 
REMARK       I    between atoms: C_6  and  N_4 
REMARK    4  A    between atoms: C_8  and  C_6 
REMARK    5  A    between atoms: C_11  and  C_12 
REMARK    6  A    between atoms: O_18  and  C_11 
ROOT
ATOM      1  N   UNL d   1       0.658   4.801   0.872  0.00  0.00    -0.182 NA
ATOM      2  C   UNL d   1       1.627   5.338  -0.092  0.00  0.00     0.144 C 
ENDROOT
BRANCH   1   3
ATOM      3  C   UNL d   1       0.907   3.441   1.216  0.00  0.00     0.101 A 
ATOM      4  C   UNL d   1       0.735   2.434   0.262  0.00  0.00     0.060 A 
ATOM      5  C   UNL d   1       0.830   1.086   0.643  0.00  0.00     0.052 A 
ATOM      6  C   UNL d   1       1.093   0.790   1.982  0.00  0.00     0.033 A 
ATOM      7  C   UNL d   1       1.288   1.838   2.859  0.00  0.00     0.090 A 
ATOM      8  N   UNL d   1       1.206   3.138   2.504  0.00  0.00    -0.355 N 
ATOM      9  HN  UNL d   1       1.364   3.876   3.190  1.00  0.00     0.166 HD
BRANCH   5  10
ATOM     10  C   UNL d   1       0.603  -0.035  -0.336  0.00  0.00     0.417 C 
ATOM     11  F   UNL d   1       0.657   0.359  -1.637  0.00  0.00    -0.166 F 
ATOM     12  F   UNL d   1      -0.608  -0.632  -0.170  0.00  0.00    -0.166 F 
ATOM     13  F   UNL d   1       1.528  -1.028  -0.210  0.00  0.00    -0.166 F 
ENDBRANCH   5  10
ENDBRANCH   1   3
BRANCH   1  14
ATOM     14  N   UNL d   1       0.614   5.604   2.050  0.00  0.00    -0.280 N 
ATOM     15  C   UNL d   1      -0.492   6.325   2.417  0.00  0.00     0.256 C 
ATOM     16  O   UNL d   1      -0.599   6.795   3.549  0.00  0.00    -0.267 OA
ATOM     17  H   UNL d   1       1.168   5.232   2.824  0.00  0.00     0.184 HD
BRANCH  15  18
ATOM     18  C   UNL d   1      -1.537   6.562   1.392  0.00  0.00     0.082 C 
ATOM     19  C   UNL d   1      -2.596   7.322   1.710  0.00  0.00     0.086 C 
BRANCH  19  20
ATOM     20  C   UNL d   1      -3.644   7.539   0.703  0.00  0.00     0.165 C 
ATOM     21  O   UNL d   1      -3.681   6.980  -0.384  0.00  0.00    -0.647 OA
BRANCH  20  22
ATOM     22  O   UNL d   1      -4.561   8.436   1.103  0.00  0.00    -0.773 OA
ATOM     23  H   UNL d   1      -4.406   8.840   1.976  0.00  0.00     0.167 HD
ENDBRANCH  20  22
ENDBRANCH  19  20
ENDBRANCH  15  18
ENDBRANCH   1  14
TORSDOF 6
