REMARK  1 active torsions:
REMARK  status: ('A' for Active; 'I' for Inactive)
REMARK    1  A    between atoms: C_9  and  C_7 
ROOT
ATOM      1  C   UNL d   1       2.695  -0.960  -0.435  0.00  0.00     0.111 A 
ATOM      2  N   UNL d   1       2.747   0.408  -0.332  0.00  0.00    -0.335 N 
ATOM      3  HN  UNL d   1       2.048   1.045   0.049  1.00  0.00     0.168 HD
ATOM      4  C   UNL d   1       3.942  -1.472  -1.080  0.00  0.00     0.316 A 
ATOM      5  O   UNL d   1       4.659  -0.333  -1.294  0.00  0.00    -0.261 OA
ATOM      6  C   UNL d   1       3.903   0.686  -0.837  0.00  0.00     0.124 A 
ATOM      7  C   UNL d   1       1.668  -1.691   0.014  0.00  0.00     0.047 C 
ATOM      8  O   UNL d   1       4.281  -2.601  -1.367  0.00  0.00    -0.257 OA
ATOM      9  C   UNL d   1       4.503   2.037  -0.959  0.00  0.00     0.098 C 
ENDROOT
BRANCH   7  10
ATOM     10  C   UNL d   1       1.575  -3.149  -0.015  0.00  0.00    -0.034 A 
ATOM     11  C   UNL d   1       2.051  -3.900   1.063  0.00  0.00     0.012 A 
ATOM     12  C   UNL d   1       1.909  -5.290   1.071  0.00  0.00     0.007 A 
ATOM     13  C   UNL d   1       1.287  -5.945   0.001  0.00  0.00    -0.062 A 
ATOM     14  C   UNL d   1       0.837  -5.192  -1.089  0.00  0.00     0.007 A 
ATOM     15  C   UNL d   1       1.100  -7.433   0.044  0.00  0.00     0.048 C 
ATOM     16  C   UNL d   1       0.979  -3.801  -1.098  0.00  0.00     0.012 A 
ENDBRANCH   7  10
TORSDOF 1
