REMARK  5 active torsions:
REMARK  status: ('A' for Active; 'I' for Inactive)
REMARK    1  A    between atoms: N_2  and  C_1 
REMARK    2  A    between atoms: C_4  and  C_11 
REMARK    3  A    between atoms: C_5  and  N_7 
REMARK    4  A    between atoms: N_10  and  C_6 
REMARK    5  A    between atoms: N_7  and  C_17 
ROOT
ATOM      1  C   UNL d   1       0.688  -4.913  -0.075  0.00  0.00     0.059 A 
ATOM      2  C   UNL d   1      -0.425  -5.354  -0.853  0.00  0.00     0.057 A 
ATOM      3  C   UNL d   1       1.252  -7.234   0.488  0.00  0.00     0.050 A 
ATOM      4  C   UNL d   1       1.517  -5.860   0.555  0.00  0.00     0.048 A 
ATOM      5  C   UNL d   1      -0.656  -6.741  -0.929  0.00  0.00     0.032 A 
ATOM      6  C   UNL d   1       0.160  -7.665  -0.268  0.00  0.00     0.018 A 
ENDROOT
BRANCH   1   7
ATOM      7  N   UNL d   1       0.958  -3.530   0.055  0.00  0.00    -0.363 N 
ATOM      8  HN  UNL d   1       0.934  -2.923  -0.764  1.00  0.00     0.165 HD
BRANCH   7   9
ATOM      9  C   UNL d   1       1.236  -3.039   1.218  0.00  0.00     0.107 C 
ATOM     10  C   UNL d   1       1.467  -1.620   1.362  0.00  0.00     0.022 A 
ATOM     11  S   UNL d   1       2.044  -1.006   2.852  0.00  0.00    -0.065 SA
ATOM     12  C   UNL d   1       1.276  -0.613   0.436  0.00  0.00     0.023 A 
ATOM     13  C   UNL d   1       2.011   0.591   2.272  0.00  0.00     0.144 A 
ATOM     14  C   UNL d   1       1.576   0.678   0.968  0.00  0.00     0.045 A 
BRANCH  13  15
ATOM     15  N   UNL d   1       2.399   1.689   3.123  0.00  0.00    -0.108 N 
ATOM     16  O   UNL d   1       2.251   2.825   2.650  0.00  0.00    -0.531 OA
ATOM     17  O   UNL d   1       2.843   1.432   4.246  0.00  0.00    -0.531 OA
ENDBRANCH  13  15
ENDBRANCH   7   9
ENDBRANCH   1   7
BRANCH   2  18
ATOM     18  N   UNL d   1      -1.292  -4.455  -1.467  0.00  0.00    -0.375 N 
ATOM     19  C   UNL d   1      -2.685  -4.794  -1.793  0.00  0.00     0.149 C 
ATOM     20  C   UNL d   1      -3.523  -3.503  -1.726  0.00  0.00     0.187 C 
ATOM     21  O   UNL d   1      -3.007  -2.482  -2.600  0.00  0.00    -0.388 OA
ATOM     22  C   UNL d   1      -1.639  -2.176  -2.264  0.00  0.00     0.187 C 
ATOM     23  C   UNL d   1      -0.747  -3.423  -2.370  0.00  0.00     0.149 C 
ENDBRANCH   2  18
BRANCH   3  24
ATOM     24  C   UNL d   1       2.115  -8.229   1.221  0.00  0.00     0.417 C 
ATOM     25  F   UNL d   1       3.105  -7.649   1.956  0.00  0.00    -0.166 F 
ATOM     26  F   UNL d   1       1.400  -8.987   2.098  0.00  0.00    -0.166 F 
ATOM     27  F   UNL d   1       2.732  -9.104   0.383  0.00  0.00    -0.166 F 
ENDBRANCH   3  24
TORSDOF 5
