REMARK  17 active torsions:
REMARK  status: ('A' for Active; 'I' for Inactive)
REMARK    1  A    between atoms: C_1  and  C_3 
REMARK    2  A    between atoms: C_3  and  O_11 
REMARK    3  A    between atoms: C_3  and  C_5 
REMARK    4  A    between atoms: C_4  and  C_10 
REMARK    5  A    between atoms: C_7  and  C_5 
REMARK    6  A    between atoms: C_5  and  O_12 
REMARK    7  A    between atoms: C_9  and  C_7 
REMARK    8  A    between atoms: C_7  and  O_13 
REMARK    9  A    between atoms: C_9  and  O_14 
REMARK   10  A    between atoms: C_20  and  C_9 
REMARK   11  A    between atoms: O_28  and  C_10 
REMARK   12  A    between atoms: C_15  and  O_11 
REMARK   13  A    between atoms: C_16  and  O_12 
REMARK   14  A    between atoms: C_17  and  O_13 
REMARK   15  A    between atoms: C_18  and  O_14 
REMARK   16  A    between atoms: C_19  and  O_22 
REMARK   17  A    between atoms: O_22  and  C_20 
ROOT
ATOM      1  C   UNL d   1      -4.016   0.033   0.871  0.00  0.00     0.196 C 
ENDROOT
BRANCH   1   2
ATOM      2  C   UNL d   1      -4.471   0.448  -0.563  0.00  0.00     0.195 C 
BRANCH   2   3
ATOM      3  C   UNL d   1      -4.088  -0.484  -1.742  0.00  0.00     0.188 C 
BRANCH   3   4
ATOM      4  O   UNL d   1      -4.678  -1.811  -1.633  0.00  0.00    -0.311 OA
BRANCH   4   5
ATOM      5  C   UNL d   1      -5.903  -2.082  -2.162  0.00  0.00     0.255 C 
ATOM      6  O   UNL d   1      -6.621  -1.304  -2.767  0.00  0.00    -0.266 OA
ATOM      7  C   UNL d   1      -6.296  -3.502  -1.906  0.00  0.00     0.126 C 
ENDBRANCH   4   5
ENDBRANCH   3   4
BRANCH   3   8
ATOM      8  C   UNL d   1      -4.316   0.193  -3.118  0.00  0.00     0.213 C 
BRANCH   8   9
ATOM      9  O   UNL d   1      -3.972  -0.713  -4.187  0.00  0.00    -0.319 OA
BRANCH   9  10
ATOM     10  C   UNL d   1      -2.652  -0.773  -4.501  0.00  0.00     0.254 C 
ATOM     11  O   UNL d   1      -1.776  -0.097  -3.982  0.00  0.00    -0.266 OA
ATOM     12  C   UNL d   1      -2.397  -1.809  -5.554  0.00  0.00     0.126 C 
ENDBRANCH   9  10
ENDBRANCH   8   9
ENDBRANCH   3   8
ENDBRANCH   2   3
BRANCH   2  13
ATOM     13  O   UNL d   1      -5.912   0.759  -0.612  0.00  0.00    -0.311 OA
BRANCH  13  14
ATOM     14  C   UNL d   1      -6.841  -0.126  -0.147  0.00  0.00     0.255 C 
ATOM     15  O   UNL d   1      -6.628  -1.119   0.523  0.00  0.00    -0.266 OA
ATOM     16  C   UNL d   1      -8.213   0.220  -0.639  0.00  0.00     0.126 C 
ENDBRANCH  13  14
ENDBRANCH   2  13
ENDBRANCH   1   2
BRANCH   1  17
ATOM     17  O   UNL d   1      -4.412   1.057   1.843  0.00  0.00    -0.311 OA
BRANCH  17  18
ATOM     18  C   UNL d   1      -4.076   2.371   1.734  0.00  0.00     0.255 C 
ATOM     19  O   UNL d   1      -3.360   2.851   0.875  0.00  0.00    -0.266 OA
ATOM     20  C   UNL d   1      -4.727   3.141   2.847  0.00  0.00     0.126 C 
ENDBRANCH  17  18
ENDBRANCH   1  17
BRANCH   1  21
ATOM     21  C   UNL d   1      -2.583  -0.535   1.115  0.00  0.00     0.207 C 
BRANCH  21  22
ATOM     22  C   UNL d   1      -2.287  -0.903   2.627  0.00  0.00     0.315 C 
ATOM     23  N   UNL d   1      -2.135   0.273   3.490  0.00  0.00     0.116 N 
ATOM     24  C   UNL d   1      -2.433  -0.110   4.896  0.00  0.00     0.338 C 
ATOM     25  H   UNL d   1      -2.815   0.974   3.210  0.00  0.00     0.318 HD
ATOM     26  C   UNL d   1      -3.700  -0.992   4.929  0.00  0.00     0.043 C 
ATOM     27  S   UNL d   1      -3.509  -2.011   3.414  0.00  0.00    -0.119 SA
ATOM     28  C   UNL d   1      -5.040  -0.253   4.827  0.00  0.00     0.029 C 
ATOM     29  C   UNL d   1      -3.731  -1.910   6.155  0.00  0.00     0.029 C 
BRANCH  24  30
ATOM     30  C   UNL d   1      -2.570   1.177   5.731  0.00  0.00     0.293 C 
ATOM     31  O   UNL d   1      -2.619   2.309   5.266  0.00  0.00    -0.263 OA
BRANCH  30  32
ATOM     32  O   UNL d   1      -2.649   0.890   7.060  0.00  0.00    -0.325 OA
ATOM     33  C   UNL d   1      -2.803   2.041   7.893  0.00  0.00     0.213 C 
ENDBRANCH  30  32
ENDBRANCH  24  30
ENDBRANCH  21  22
BRANCH  21  34
ATOM     34  O   UNL d   1      -1.568   0.364   0.597  0.00  0.00    -0.310 OA
BRANCH  34  35
ATOM     35  C   UNL d   1      -0.318  -0.178   0.485  0.00  0.00     0.255 C 
ATOM     36  O   UNL d   1      -0.037  -1.343   0.734  0.00  0.00    -0.266 OA
ATOM     37  C   UNL d   1       0.693   0.815   0.003  0.00  0.00     0.126 C 
ENDBRANCH  34  35
ENDBRANCH  21  34
ENDBRANCH   1  21
TORSDOF 17
