REMARK  4 active torsions:
REMARK  status: ('A' for Active; 'I' for Inactive)
REMARK    1  A    between atoms: C_13  and  N_6 
REMARK    2  A    between atoms: O_11  and  C_8 
REMARK    3  A    between atoms: C_12  and  O_11 
REMARK    4  A    between atoms: C_23  and  C_13 
ROOT
ATOM      1  C   UNL d   1      -0.163  -0.780  -0.170  0.00  0.00     0.147 A 
ATOM      2  C   UNL d   1      -0.449   0.555  -0.134  0.00  0.00     0.151 A 
ATOM      3  N   UNL d   1      -1.280  -1.539  -0.201  0.00  0.00    -0.305 N 
ATOM      4  HN  UNL d   1      -1.341  -2.553  -0.292  1.00  0.00     0.171 HD
ATOM      5  N   UNL d   1       1.118  -1.261  -0.132  0.00  0.00    -0.287 N 
ATOM      6  N   UNL d   1      -1.822   0.622  -0.089  0.00  0.00    -0.300 N 
ATOM      7  N   UNL d   1       1.866   1.004  -0.064  0.00  0.00    -0.269 N 
ATOM      8  C   UNL d   1      -2.273  -0.681  -0.086  0.00  0.00     0.234 A 
ATOM      9  C   UNL d   1       2.184  -0.367  -0.057  0.00  0.00     0.332 A 
ATOM     10  C   UNL d   1       0.572   1.544  -0.112  0.00  0.00     0.282 A 
ATOM     11  O   UNL d   1       3.345  -0.768   0.014  0.00  0.00    -0.246 OA
ATOM     12  O   UNL d   1       0.345   2.751  -0.135  0.00  0.00    -0.265 OA
ATOM     13  C   UNL d   1       1.391  -2.685  -0.101  0.00  0.00     0.163 C 
ATOM     14  C   UNL d   1       2.959   1.955   0.002  0.00  0.00     0.164 C 
ENDROOT
BRANCH   8  15
ATOM     15  O   UNL d   1      -3.547  -1.032   0.096  0.00  0.00    -0.278 OA
BRANCH  15  16
ATOM     16  C   UNL d   1      -3.812  -2.260   0.679  0.00  0.00     0.096 A 
ATOM     17  C   UNL d   1      -4.875  -3.041   0.217  0.00  0.00     0.046 A 
ATOM     18  C   UNL d   1      -5.148  -4.280   0.811  0.00  0.00     0.041 A 
ATOM     19 BR   UNL d   1      -5.968  -2.475  -1.225  0.00  0.00    -0.048 Br
ATOM     20  C   UNL d   1      -4.354  -4.733   1.865  0.00  0.00     0.012 A 
ATOM     21  C   UNL d   1      -3.300  -3.961   2.341  0.00  0.00     0.022 A 
ATOM     22 BR   UNL d   1      -4.712  -6.406   2.670  0.00  0.00    -0.051 Br
ATOM     23  C   UNL d   1      -3.045  -2.719   1.762  0.00  0.00     0.040 A 
ENDBRANCH  15  16
ENDBRANCH   8  15
BRANCH   6  24
ATOM     24  C   UNL d   1      -2.656   1.813  -0.056  0.00  0.00     0.171 C 
BRANCH  24  25
ATOM     25  C   UNL d   1      -2.992   2.257   1.349  0.00  0.00    -0.040 A 
ATOM     26  C   UNL d   1      -2.139   3.120   2.054  0.00  0.00     0.009 A 
ATOM     27  C   UNL d   1      -2.462   3.547   3.345  0.00  0.00     0.001 A 
ATOM     28  C   UNL d   1      -3.643   3.123   3.945  0.00  0.00     0.000 A 
ATOM     29  C   UNL d   1      -4.503   2.269   3.256  0.00  0.00     0.001 A 
ATOM     30  C   UNL d   1      -4.178   1.836   1.967  0.00  0.00     0.009 A 
ENDBRANCH  24  25
ENDBRANCH   6  24
TORSDOF 4
