REMARK  0 active torsions:
REMARK  status: ('A' for Active; 'I' for Inactive)
ROOT
ATOM      1  C   UNL d   1       0.093   0.663   0.014  0.00  0.00     0.028 A 
ATOM      2  C   UNL d   1      -1.200   1.396  -0.010  0.00  0.00     0.162 C 
ATOM      3  C   UNL d   1       0.158  -0.734  -0.064  0.00  0.00     0.015 A 
ATOM      4  S   UNL d   1      -1.262  -1.806  -0.165  0.00  0.00    -0.124 SA
ATOM      5  C   UNL d   1      -2.459   0.646  -0.369  0.00  0.00     0.099 C 
ATOM      6  C   UNL d   1       1.276   1.419   0.092  0.00  0.00     0.040 A 
ATOM      7  C   UNL d   1      -2.568  -0.664   0.390  0.00  0.00     0.055 C 
ATOM      8  O   UNL d   1      -1.219   2.608   0.196  0.00  0.00    -0.292 OA
ATOM      9  C   UNL d   1       1.415  -1.358  -0.082  0.00  0.00     0.021 A 
ATOM     10  C   UNL d   1       2.513   0.782   0.072  0.00  0.00     0.035 A 
ATOM     11  C   UNL d   1       2.588  -0.604  -0.015  0.00  0.00     0.025 A 
ATOM     12 CL   UNL d   1       3.959   1.710   0.143  0.00  0.00    -0.084 Cl
ATOM     13  C   UNL d   1      -3.918  -1.334   0.152  0.00  0.00     0.022 C 
ENDROOT
TORSDOF 0
