REMARK  4 active torsions:
REMARK  status: ('A' for Active; 'I' for Inactive)
REMARK    1  A    between atoms: C_7  and  C_1 
REMARK    2  A    between atoms: C_8  and  N_5 
REMARK    3  A    between atoms: O_12  and  C_7 
REMARK    4  A    between atoms: C_17  and  O_12 
ROOT
ATOM      1  C   UNL d   1      -0.395   1.130   0.084  0.00  0.00     0.138 A 
ATOM      2  N   UNL d   1       0.823  -0.660   0.363  0.00  0.00    -0.015 NA
ATOM      3  N   UNL d   1       0.864   0.664   0.362  0.00  0.00    -0.277 N 
ATOM      4  HN  UNL d   1       1.689   1.237   0.537  1.00  0.00     0.184 HD
ATOM      5  N   UNL d   1      -0.445  -1.052   0.088  0.00  0.00    -0.249 N 
ATOM      6  C   UNL d   1      -1.235   0.054  -0.099  0.00  0.00     0.151 A 
ENDROOT
BRANCH   5   7
ATOM      7  C   UNL d   1      -0.809  -2.421   0.021  0.00  0.00     0.054 A 
ATOM      8  C   UNL d   1      -2.121  -2.797  -0.303  0.00  0.00     0.033 A 
ATOM      9  C   UNL d   1      -2.463  -4.150  -0.365  0.00  0.00     0.026 A 
ATOM     10  C   UNL d   1      -1.503  -5.124  -0.100  0.00  0.00     0.034 A 
ATOM     11  C   UNL d   1      -0.199  -4.760   0.229  0.00  0.00     0.026 A 
ATOM     12 CL   UNL d   1      -1.933  -6.788  -0.182  0.00  0.00    -0.084 Cl
ATOM     13  C   UNL d   1       0.152  -3.409   0.287  0.00  0.00     0.033 A 
ENDBRANCH   5   7
BRANCH   1  14
ATOM     14  C   UNL d   1      -0.732   2.529  -0.065  0.00  0.00     0.312 C 
ATOM     15  O   UNL d   1      -1.852   2.921  -0.396  0.00  0.00    -0.258 OA
BRANCH  14  16
ATOM     16  O   UNL d   1       0.353   3.335   0.107  0.00  0.00    -0.317 OA
BRANCH  16  17
ATOM     17  C   UNL d   1       0.269   4.620  -0.519  0.00  0.00     0.175 C 
ATOM     18  C   UNL d   1       0.701   4.460  -1.966  0.00  0.00     0.034 C 
ENDBRANCH  16  17
ENDBRANCH  14  16
ENDBRANCH   1  14
TORSDOF 4
