REMARK  5 active torsions:
REMARK  status: ('A' for Active; 'I' for Inactive)
REMARK    1  A    between atoms: N_2  and  C_1 
REMARK       I    between atoms: C_4  and  N_3 
REMARK    2  A    between atoms: C_15  and  C_4 
REMARK    3  A    between atoms: C_9  and  C_17 
REMARK    4  A    between atoms: O_18  and  C_9 
REMARK    5  A    between atoms: C_17  and  C_15 
ROOT
ATOM      1  N   UNL d   1       0.134   2.752  -0.088  0.00  0.00    -0.251 NA
ATOM      2  N   UNL d   1       0.677   5.539   0.256  0.00  0.00    -0.350 N 
ATOM      3  C   UNL d   1       1.147   6.806   0.558  0.00  0.00     0.220 C 
ATOM      4  C   UNL d   1      -0.475   3.465   1.042  0.00  0.00     0.118 C 
ATOM      5  C   UNL d   1       1.429   3.292  -0.528  0.00  0.00     0.118 C 
ATOM      6  C   UNL d   1       1.293   4.793  -0.850  0.00  0.00     0.140 C 
ATOM      7  C   UNL d   1      -0.591   4.966   0.732  0.00  0.00     0.140 C 
ATOM      8  O   UNL d   1       2.123   7.298  -0.010  0.00  0.00    -0.273 OA
ENDROOT
BRANCH   1   9
ATOM      9  C   UNL d   1       0.067   1.366   0.019  0.00  0.00     0.159 A 
ATOM     10  N   UNL d   1      -0.968   0.826   0.687  0.00  0.00    -0.343 N 
ATOM     11  C   UNL d   1      -1.067  -0.517   0.723  0.00  0.00     0.092 A 
ATOM     12  HN  UNL d   1      -1.658   1.416   1.153  1.00  0.00     0.167 HD
ATOM     13  C   UNL d   1      -0.168  -1.354   0.124  0.00  0.00     0.034 A 
ATOM     14  C   UNL d   1       0.863  -0.726  -0.525  0.00  0.00     0.092 A 
ATOM     15  N   UNL d   1       0.998   0.613  -0.591  0.00  0.00    -0.343 N 
ATOM     16  HN  UNL d   1       1.779   1.040  -1.087  1.00  0.00     0.167 HD
ENDBRANCH   1   9
BRANCH   3  17
ATOM     17  C   UNL d   1       0.451   7.555   1.677  0.00  0.00     0.113 C 
BRANCH  17  18
ATOM     18  C   UNL d   1       0.803   9.038   1.659  0.00  0.00     0.119 C 
BRANCH  18  19
ATOM     19  C   UNL d   1       0.099   9.762   2.774  0.00  0.00     0.139 C 
ATOM     20  O   UNL d   1      -0.568   9.238   3.649  0.00  0.00    -0.650 OA
BRANCH  19  21
ATOM     21  O   UNL d   1       0.288  11.107   2.715  0.00  0.00    -0.776 OA
ATOM     22  H   UNL d   1       0.849  11.386   1.962  0.00  0.00     0.167 HD
ENDBRANCH  19  21
ENDBRANCH  18  19
ENDBRANCH  17  18
ENDBRANCH   3  17
TORSDOF 5
