REMARK  4 active torsions:
REMARK  status: ('A' for Active; 'I' for Inactive)
REMARK    1  A    between atoms: C_12  and  N_5 
REMARK    2  A    between atoms: N_13  and  C_7 
REMARK    3  A    between atoms: C_11  and  C_12 
REMARK    4  A    between atoms: C_27  and  N_15 
ROOT
ATOM      1  C   UNL d   1      -0.313  -0.860  -0.033  0.00  0.00     0.160 A 
ATOM      2  C   UNL d   1      -0.582   0.472  -0.065  0.00  0.00     0.165 A 
ATOM      3  N   UNL d   1      -1.444  -1.609   0.000  0.00  0.00    -0.174 N 
ATOM      4  HN  UNL d   1      -1.509  -2.625   0.050  1.00  0.00     0.186 HD
ATOM      5  N   UNL d   1      -1.957   0.553  -0.121  0.00  0.00    -0.170 N 
ATOM      6  N   UNL d   1       0.973  -1.338  -0.011  0.00  0.00    -0.287 N 
ATOM      7  C   UNL d   1      -2.442  -0.749  -0.044  0.00  0.00     0.685 A 
ATOM      8  N   UNL d   1       1.730   0.929  -0.023  0.00  0.00    -0.269 N 
ATOM      9  C   UNL d   1       2.041  -0.444  -0.009  0.00  0.00     0.332 A 
ATOM     10  C   UNL d   1       0.436   1.466  -0.059  0.00  0.00     0.282 A 
ATOM     11  O   UNL d   1       3.209  -0.846   0.009  0.00  0.00    -0.246 OA
ATOM     12  O   UNL d   1       0.202   2.671  -0.083  0.00  0.00    -0.265 OA
ATOM     13  C   UNL d   1       1.254  -2.760  -0.005  0.00  0.00     0.163 C 
ATOM     14  C   UNL d   1       2.828   1.877  -0.009  0.00  0.00     0.164 C 
ENDROOT
BRANCH   5  15
ATOM     15  C   UNL d   1      -2.727   1.784  -0.066  0.00  0.00     0.190 C 
BRANCH  15  16
ATOM     16  C   UNL d   1      -2.901   2.577  -1.355  0.00  0.00     0.004 A 
ATOM     17  C   UNL d   1      -2.523   2.188  -2.656  0.00  0.00     0.043 A 
ATOM     18 CL   UNL d   1      -1.831   0.664  -3.092  0.00  0.00    -0.084 Cl
ATOM     19  C   UNL d   1      -2.718   3.042  -3.756  0.00  0.00     0.024 A 
ATOM     20  C   UNL d   1      -3.303   4.291  -3.602  0.00  0.00     0.003 A 
ATOM     21  C   UNL d   1      -3.716   4.690  -2.341  0.00  0.00     0.024 A 
ATOM     22  C   UNL d   1      -3.524   3.847  -1.238  0.00  0.00     0.043 A 
ATOM     23 CL   UNL d   1      -4.120   4.445   0.280  0.00  0.00    -0.084 Cl
ENDBRANCH  15  16
ENDBRANCH   5  15
BRANCH   7  24
ATOM     24  N   UNL d   1      -3.760  -1.043   0.123  0.00  0.00    -0.214 N 
ATOM     25  C   UNL d   1      -4.058  -2.251   0.922  0.00  0.00     0.171 C 
ATOM     26  C   UNL d   1      -4.587  -3.421   0.072  0.00  0.00     0.292 C 
ATOM     27  N   UNL d   1      -5.754  -3.080  -0.773  0.00  0.00     0.091 N 
ATOM     28  C   UNL d   1      -5.315  -1.975  -1.659  0.00  0.00     0.292 C 
ATOM     29  C   UNL d   1      -4.736  -0.727  -0.942  0.00  0.00     0.171 C 
BRANCH  27  30
ATOM     30  C   UNL d   1      -6.951  -2.696  -0.006  0.00  0.00     0.268 C 
ATOM     31  C   UNL d   1      -7.472  -3.786   0.927  0.00  0.00     0.037 C 
ENDBRANCH  27  30
ENDBRANCH   7  24
TORSDOF 4
