REMARK  2 active torsions:
REMARK  status: ('A' for Active; 'I' for Inactive)
REMARK       I    between atoms: N_4  and  C_1 
REMARK    1  A    between atoms: C_10  and  C_1 
REMARK    2  A    between atoms: C_7  and  N_4 
ROOT
ATOM      1  N   UNL d   1       2.883  -6.120   0.112  0.00  0.00    -0.359 N 
ATOM      2  HN  UNL d   1       3.610  -6.267   0.812  1.00  0.00     0.166 HD
ATOM      3  C   UNL d   1       2.175  -4.975   0.085  0.00  0.00     0.042 A 
ATOM      4  C   UNL d   1       1.159  -4.742  -0.860  0.00  0.00    -0.007 A 
ATOM      5  C   UNL d   1       0.786  -2.497   0.018  0.00  0.00     0.035 A 
ATOM      6  C   UNL d   1       0.470  -3.516  -0.882  0.00  0.00     0.043 A 
ATOM      7  C   UNL d   1       2.452  -3.965   0.998  0.00  0.00     0.033 A 
ATOM      8  C   UNL d   1       2.608  -7.073  -0.814  0.00  0.00     0.005 A 
ATOM      9  C   UNL d   1       0.876  -5.752  -1.785  0.00  0.00     0.015 A 
ATOM     10  C   UNL d   1       1.780  -2.734   0.968  0.00  0.00     0.032 A 
ATOM     11  C   UNL d   1       1.609  -6.931  -1.766  0.00  0.00     0.025 A 
ATOM     12  C   UNL d   1       3.444  -8.319  -0.790  0.00  0.00     0.068 C 
ENDROOT
BRANCH   5  13
ATOM     13  N   UNL d   1       0.200  -1.211  -0.034  0.00  0.00    -0.323 N 
ATOM     14  C   UNL d   1      -0.880  -0.843  -0.818  0.00  0.00     0.256 C 
ATOM     15  O   UNL d   1      -1.657  -1.610  -1.380  0.00  0.00    -0.267 OA
ATOM     16  H   UNL d   1       0.596  -0.509   0.576  0.00  0.00     0.169 HD
BRANCH  14  17
ATOM     17  C   UNL d   1      -1.113   0.620  -0.968  0.00  0.00     0.032 A 
ATOM     18  C   UNL d   1      -0.058   1.541  -0.978  0.00  0.00     0.017 A 
ATOM     19  C   UNL d   1      -0.316   2.892  -1.235  0.00  0.00     0.001 A 
ATOM     20  C   UNL d   1      -1.619   3.323  -1.485  0.00  0.00     0.000 A 
ATOM     21  C   UNL d   1      -2.672   2.409  -1.476  0.00  0.00     0.001 A 
ATOM     22  C   UNL d   1      -2.419   1.060  -1.221  0.00  0.00     0.017 A 
ENDBRANCH  14  17
ENDBRANCH   5  13
TORSDOF 2
