REMARK  7 active torsions:
REMARK  status: ('A' for Active; 'I' for Inactive)
REMARK    1  A    between atoms: C_3  and  C_1 
REMARK       I    between atoms: N_4  and  C_3 
REMARK    2  A    between atoms: C_10  and  N_4 
REMARK    3  A    between atoms: C_11  and  N_4 
REMARK    4  A    between atoms: C_6  and  C_10 
REMARK    5  A    between atoms: C_18  and  C_11 
REMARK    6  A    between atoms: O_27  and  C_19 
REMARK    7  A    between atoms: O_28  and  C_20 
ROOT
ATOM      1  C   UNL d   1      -3.721  -0.317   0.358  0.00  0.00     0.271 C 
ATOM      2  N   UNL d   1      -4.599  -1.275  -0.170  0.00  0.00    -0.337 N 
ATOM      3  O   UNL d   1      -4.159   0.701   0.899  0.00  0.00    -0.266 OA
ENDROOT
BRANCH   2   4
ATOM      4  C   UNL d   1      -6.023  -0.944  -0.193  0.00  0.00     0.183 C 
BRANCH   4   5
ATOM      5  C   UNL d   1      -6.569  -0.970  -1.591  0.00  0.00     0.029 A 
ATOM      6  N   UNL d   1      -6.328  -0.011  -2.554  0.00  0.00    -0.363 N 
ATOM      7  C   UNL d   1      -7.014  -0.326  -3.702  0.00  0.00     0.090 A 
ATOM      8  C   UNL d   1      -5.557   1.208  -2.428  0.00  0.00     0.155 C 
ATOM      9  C   UNL d   1      -7.766  -1.451  -3.461  0.00  0.00     0.019 A 
ATOM     10  C   UNL d   1      -7.489  -1.855  -2.136  0.00  0.00     0.028 A 
ENDBRANCH   4   5
ENDBRANCH   2   4
BRANCH   2  11
ATOM     11  C   UNL d   1      -4.251  -2.696  -0.311  0.00  0.00     0.165 C 
BRANCH  11  12
ATOM     12  C   UNL d   1      -3.954  -3.435   0.981  0.00  0.00    -0.040 A 
ATOM     13  C   UNL d   1      -4.604  -3.147   2.190  0.00  0.00     0.011 A 
ATOM     14  C   UNL d   1      -4.368  -3.914   3.341  0.00  0.00     0.037 A 
ATOM     15  C   UNL d   1      -3.477  -4.984   3.302  0.00  0.00     0.068 A 
ATOM     16  C   UNL d   1      -2.833  -5.287   2.104  0.00  0.00     0.037 A 
ATOM     17  C   UNL d   1      -3.063  -4.520   0.957  0.00  0.00     0.011 A 
BRANCH  15  18
ATOM     18  O   UNL d   1      -3.192  -5.824   4.343  0.00  0.00    -0.356 OA
ATOM     19  C   UNL d   1      -3.396  -5.291   5.647  0.00  0.00     0.210 C 
ENDBRANCH  15  18
ENDBRANCH  11  12
ENDBRANCH   2  11
BRANCH   1  20
ATOM     20  C   UNL d   1      -2.287  -0.503   0.235  0.00  0.00     0.102 A 
ATOM     21  N   UNL d   1      -1.618  -1.069  -0.827  0.00  0.00    -0.351 N 
ATOM     22  C   UNL d   1      -0.258  -1.044  -0.632  0.00  0.00     0.043 A 
ATOM     23  H   UNL d   1      -2.059  -1.418  -1.664  0.00  0.00     0.166 HD
ATOM     24  C   UNL d   1       0.778  -1.555  -1.419  0.00  0.00     0.033 A 
ATOM     25  C   UNL d   1      -0.028  -0.349   0.550  0.00  0.00    -0.004 A 
ATOM     26  C   UNL d   1       2.093  -1.327  -0.992  0.00  0.00     0.039 A 
ATOM     27  C   UNL d   1       2.361  -0.606   0.172  0.00  0.00     0.069 A 
ATOM     28  C   UNL d   1       1.302  -0.120   0.953  0.00  0.00     0.050 A 
ATOM     29  C   UNL d   1      -1.302  -0.010   1.080  0.00  0.00     0.049 A 
BRANCH  27  30
ATOM     30  O   UNL d   1       3.608  -0.308   0.657  0.00  0.00    -0.356 OA
ATOM     31  C   UNL d   1       4.718  -0.707  -0.137  0.00  0.00     0.210 C 
ENDBRANCH  27  30
ENDBRANCH   1  20
TORSDOF 7
