REMARK  3 active torsions:
REMARK  status: ('A' for Active; 'I' for Inactive)
REMARK    1  A    between atoms: C_10  and  C_2 
REMARK    2  A    between atoms: C_11  and  C_9 
REMARK       I    between atoms: N_12  and  C_11 
REMARK    3  A    between atoms: C_17  and  N_12 
ROOT
ATOM      1  C   UNL d   1      -0.111   0.409  -0.124  0.00  0.00     0.034 A 
ATOM      2  C   UNL d   1      -1.490   0.607  -0.097  0.00  0.00     0.145 A 
ATOM      3  C   UNL d   1       0.130  -0.901  -0.041  0.00  0.00     0.104 A 
ATOM      4  N   UNL d   1      -2.098  -0.612  -0.010  0.00  0.00    -0.293 N 
ATOM      5  HN  UNL d   1      -3.098  -0.808   0.025  1.00  0.00     0.187 HD
ATOM      6  N   UNL d   1      -1.071  -1.513   0.018  0.00  0.00    -0.288 N 
ATOM      7  S   UNL d   1       1.742  -1.300  -0.026  0.00  0.00    -0.065 SA
ATOM      8  C   UNL d   1       1.023   1.209  -0.198  0.00  0.00     0.041 A 
ATOM      9  C   UNL d   1       2.162   0.398  -0.121  0.00  0.00     0.076 A 
ATOM     10  C   UNL d   1      -1.366  -2.921   0.097  0.00  0.00     0.178 C 
ENDROOT
BRANCH   9  11
ATOM     11  C   UNL d   1       3.548   0.865  -0.075  0.00  0.00     0.263 C 
ATOM     12  N   UNL d   1       4.500  -0.130   0.083  0.00  0.00    -0.323 N 
ATOM     13  H   UNL d   1       4.157  -1.080   0.009  0.00  0.00     0.169 HD
ATOM     14  O   UNL d   1       3.809   2.061  -0.163  0.00  0.00    -0.267 OA
BRANCH  12  15
ATOM     15  C   UNL d   1       5.869   0.028   0.380  0.00  0.00     0.035 A 
ATOM     16  C   UNL d   1       6.455   1.258   0.694  0.00  0.00     0.032 A 
ATOM     17  C   UNL d   1       7.808   1.333   1.042  0.00  0.00     0.044 A 
ATOM     18  C   UNL d   1       8.575   0.177   1.068  0.00  0.00     0.116 A 
ATOM     19  C   UNL d   1       8.016  -1.053   0.750  0.00  0.00     0.044 A 
ATOM     20  F   UNL d   1       9.868   0.248   1.409  0.00  0.00    -0.206 F 
ATOM     21  C   UNL d   1       6.661  -1.128   0.410  0.00  0.00     0.032 A 
ENDBRANCH  12  15
ENDBRANCH   9  11
BRANCH   2  22
ATOM     22  C   UNL d   1      -2.256   1.897  -0.131  0.00  0.00     0.434 C 
ATOM     23  F   UNL d   1      -1.439   2.984  -0.210  0.00  0.00    -0.165 F 
ATOM     24  F   UNL d   1      -3.095   1.974  -1.199  0.00  0.00    -0.165 F 
ATOM     25  F   UNL d   1      -3.017   2.076   0.983  0.00  0.00    -0.165 F 
ENDBRANCH   2  22
TORSDOF 3
