REMARK  1 active torsions:
REMARK  status: ('A' for Active; 'I' for Inactive)
REMARK    1  A    between atoms: C_6  and  C_8 
ROOT
ATOM      1  C   UNL d   1      -1.233   0.103  -0.116  0.00  0.00     0.117 C 
ATOM      2  C   UNL d   1      -0.614  -1.208   0.117  0.00  0.00     0.302 C 
ATOM      3  C   UNL d   1      -0.501   1.299   0.321  0.00  0.00     0.302 C 
ATOM      4  O   UNL d   1       0.726  -1.185   0.257  0.00  0.00    -0.280 OA
ATOM      5  O   UNL d   1       0.842   1.201   0.233  0.00  0.00    -0.280 OA
ATOM      6  C   UNL d   1       1.431  -0.026  -0.194  0.00  0.00     0.175 C 
ATOM      7  C   UNL d   1      -2.445   0.098  -0.703  0.00  0.00     0.061 C 
ATOM      8  O   UNL d   1      -1.033   2.291   0.800  0.00  0.00    -0.259 OA
ATOM      9  O   UNL d   1      -1.252  -2.252   0.182  0.00  0.00    -0.259 OA
ATOM     10  C   UNL d   1       1.585  -0.054  -1.718  0.00  0.00     0.080 C 
ATOM     11  C   UNL d   1       2.815  -0.081   0.456  0.00  0.00     0.080 C 
ENDROOT
BRANCH   7  12
ATOM     12  C   UNL d   1      -3.158   1.268  -1.076  0.00  0.00     0.078 A 
ATOM     13  O   UNL d   1      -2.556   2.433  -1.494  0.00  0.00    -0.310 OA
ATOM     14  C   UNL d   1      -3.520   3.367  -1.694  0.00  0.00     0.086 A 
ATOM     15  C   UNL d   1      -3.298   4.697  -2.043  0.00  0.00     0.038 A 
ATOM     16  C   UNL d   1      -4.773   2.814  -1.488  0.00  0.00     0.000 A 
ATOM     17  C   UNL d   1      -4.434   5.503  -2.174  0.00  0.00     0.003 A 
ATOM     18  C   UNL d   1      -5.716   4.981  -1.979  0.00  0.00     0.001 A 
ATOM     19  C   UNL d   1      -5.905   3.633  -1.642  0.00  0.00     0.014 A 
ATOM     20  C   UNL d   1      -4.534   1.462  -1.132  0.00  0.00     0.051 A 
ENDBRANCH   7  12
TORSDOF 1
