REMARK  9 active torsions:
REMARK  status: ('A' for Active; 'I' for Inactive)
REMARK    1  A    between atoms: C_8  and  N_1 
REMARK    2  A    between atoms: C_7  and  C_2 
REMARK    3  A    between atoms: O_21  and  C_7 
REMARK       I    between atoms: C_9  and  N_11 
REMARK    4  A    between atoms: C_19  and  C_9 
REMARK    5  A    between atoms: C_10  and  C_20 
REMARK    6  A    between atoms: O_23  and  C_10 
REMARK    7  A    between atoms: N_11  and  C_17 
REMARK    8  A    between atoms: C_20  and  C_19 
REMARK    9  A    between atoms: C_26  and  O_21 
ROOT
ATOM      1  C   UNL d   1      -0.541  -2.521  -0.004  0.00  0.00     0.056 A 
ATOM      2  C   UNL d   1       0.045  -3.319   0.996  0.00  0.00     0.034 A 
ATOM      3  C   UNL d   1      -1.314  -3.165  -0.970  0.00  0.00     0.034 A 
ATOM      4  C   UNL d   1      -0.934  -5.341   0.056  0.00  0.00     0.034 A 
ATOM      5  C   UNL d   1      -0.154  -4.711   1.028  0.00  0.00     0.032 A 
ATOM      6  C   UNL d   1      -1.511  -4.553  -0.935  0.00  0.00     0.032 A 
ENDROOT
BRANCH   1   7
ATOM      7  N   UNL d   1      -0.311  -1.101  -0.001  0.00  0.00    -0.260 N 
ATOM      8  N   UNL d   1       0.598  -0.604   0.879  0.00  0.00    -0.297 N 
ATOM      9  C   UNL d   1       0.673   0.703   0.635  0.00  0.00     0.041 A 
ATOM     10  HN  UNL d   1       1.119  -1.127   1.583  1.00  0.00     0.187 HD
ATOM     11  C   UNL d   1       1.631   1.530   1.418  0.00  0.00     0.071 C 
ATOM     12  C   UNL d   1      -0.232   1.112  -0.374  0.00  0.00     0.087 A 
ATOM     13  C   UNL d   1      -0.870  -0.071  -0.763  0.00  0.00     0.049 A 
ATOM     14  C   UNL d   1      -1.958  -0.242  -1.764  0.00  0.00     0.071 C 
BRANCH  12  15
ATOM     15  C   UNL d   1      -0.477   2.458  -0.894  0.00  0.00     0.297 C 
ATOM     16  O   UNL d   1      -1.294   2.715  -1.770  0.00  0.00    -0.259 OA
BRANCH  15  17
ATOM     17  O   UNL d   1       0.298   3.407  -0.291  0.00  0.00    -0.318 OA
BRANCH  17  18
ATOM     18  C   UNL d   1       0.071   4.764  -0.703  0.00  0.00     0.174 C 
ATOM     19  C   UNL d   1       0.852   5.078  -1.966  0.00  0.00     0.034 C 
ENDBRANCH  17  18
ENDBRANCH  15  17
ENDBRANCH  12  15
ENDBRANCH   1   7
BRANCH   4  20
ATOM     20  N   UNL d   1      -1.096  -6.744   0.125  0.00  0.00    -0.327 N 
ATOM     21  C   UNL d   1      -1.689  -7.547  -0.829  0.00  0.00     0.222 C 
ATOM     22  O   UNL d   1      -2.144  -7.187  -1.914  0.00  0.00    -0.273 OA
ATOM     23  H   UNL d   1      -0.635  -7.202   0.903  0.00  0.00     0.169 HD
BRANCH  21  24
ATOM     24  C   UNL d   1      -1.665  -9.026  -0.500  0.00  0.00     0.113 C 
BRANCH  24  25
ATOM     25  C   UNL d   1      -1.183  -9.792  -1.726  0.00  0.00     0.119 C 
BRANCH  25  26
ATOM     26  C   UNL d   1       0.237  -9.402  -2.043  0.00  0.00     0.139 C 
ATOM     27  O   UNL d   1       1.210  -9.941  -1.537  0.00  0.00    -0.650 OA
BRANCH  26  28
ATOM     28  O   UNL d   1       0.340  -8.347  -2.879  0.00  0.00    -0.776 OA
ATOM     29  H   UNL d   1      -0.520  -7.929  -3.113  0.00  0.00     0.167 HD
ENDBRANCH  26  28
ENDBRANCH  25  26
ENDBRANCH  24  25
ENDBRANCH  21  24
ENDBRANCH   4  20
TORSDOF 9
