REMARK  6 active torsions:
REMARK  status: ('A' for Active; 'I' for Inactive)
REMARK    1  A    between atoms: C_10  and  N_1 
REMARK    2  A    between atoms: C_8  and  C_2 
REMARK    3  A    between atoms: C_7  and  C_9 
REMARK    4  A    between atoms: C_11  and  N_15 
REMARK    5  A    between atoms: N_15  and  C_13 
REMARK    6  A    between atoms: O_27  and  C_14 
ROOT
ATOM      1  C   UNL d   1       2.346  -1.321  -0.038  0.00  0.00     0.068 C 
ATOM      2  C   UNL d   1       2.486  -2.640  -0.218  0.00  0.00     0.092 C 
ENDROOT
BRANCH   2   3
ATOM      3  N   UNL d   1       3.660  -3.353  -0.238  0.00  0.00    -0.364 N 
ATOM      4  H   UNL d   1       4.513  -2.831  -0.097  0.00  0.00     0.165 HD
BRANCH   3   5
ATOM      5  C   UNL d   1       3.821  -4.704  -0.607  0.00  0.00     0.066 A 
ATOM      6  C   UNL d   1       2.915  -5.261  -1.541  0.00  0.00     0.048 A 
ATOM      7  C   UNL d   1       2.942  -6.612  -1.918  0.00  0.00     0.050 A 
ATOM      8  C   UNL d   1       3.898  -7.445  -1.338  0.00  0.00     0.019 A 
ATOM      9  C   UNL d   1       4.806  -6.918  -0.420  0.00  0.00     0.040 A 
ATOM     10  C   UNL d   1       4.786  -5.563  -0.041  0.00  0.00     0.094 A 
BRANCH   7  11
ATOM     11  C   UNL d   1       1.958  -7.158  -2.921  0.00  0.00     0.417 C 
ATOM     12  F   UNL d   1       1.117  -6.216  -3.429  0.00  0.00    -0.166 F 
ATOM     13  F   UNL d   1       2.573  -7.726  -3.995  0.00  0.00    -0.166 F 
ATOM     14  F   UNL d   1       1.160  -8.127  -2.394  0.00  0.00    -0.166 F 
ENDBRANCH   7  11
BRANCH  10  15
ATOM     15  O   UNL d   1       5.763  -5.313   0.883  0.00  0.00    -0.354 OA
ATOM     16  C   UNL d   1       5.894  -4.048   1.497  0.00  0.00     0.210 C 
ENDBRANCH  10  15
ENDBRANCH   3   5
ENDBRANCH   2   3
BRANCH   1  17
ATOM     17  C   UNL d   1       1.053  -0.739   0.017  0.00  0.00     0.139 C 
ATOM     18  N   UNL d   1       0.838   0.624  -0.173  0.00  0.00    -0.225 N 
ATOM     19  N   UNL d   1      -0.406   0.915   0.279  0.00  0.00     0.001 NA
ATOM     20  N   UNL d   1      -0.983  -0.247   0.531  0.00  0.00    -0.007 NA
ATOM     21  N   UNL d   1      -0.101  -1.280   0.365  0.00  0.00    -0.270 N 
ATOM     22  HN  UNL d   1      -0.296  -2.274   0.487  1.00  0.00     0.185 HD
BRANCH  18  23
ATOM     23  C   UNL d   1       1.660   1.630  -0.742  0.00  0.00     0.056 A 
ATOM     24  C   UNL d   1       2.628   1.315  -1.707  0.00  0.00     0.033 A 
ATOM     25  C   UNL d   1       3.447   2.321  -2.228  0.00  0.00     0.026 A 
ATOM     26  C   UNL d   1       3.302   3.634  -1.787  0.00  0.00     0.034 A 
ATOM     27  C   UNL d   1       2.319   3.961  -0.855  0.00  0.00     0.026 A 
ATOM     28 CL   UNL d   1       4.341   4.859  -2.401  0.00  0.00    -0.084 Cl
ATOM     29  C   UNL d   1       1.482   2.964  -0.345  0.00  0.00     0.033 A 
ENDBRANCH  18  23
ENDBRANCH   1  17
TORSDOF 6
