REMARK  4 active torsions:
REMARK  status: ('A' for Active; 'I' for Inactive)
REMARK    1  A    between atoms: C_12  and  N_3 
REMARK    2  A    between atoms: O_11  and  C_9 
REMARK    3  A    between atoms: C_19  and  O_11 
REMARK    4  A    between atoms: C_24  and  C_12 
ROOT
ATOM      1  C   UNL d   1      -0.146  -0.741  -0.096  0.00  0.00     0.147 A 
ATOM      2  C   UNL d   1      -0.364   0.606  -0.114  0.00  0.00     0.151 A 
ATOM      3  N   UNL d   1       1.966   0.941   0.032  0.00  0.00    -0.260 N 
ATOM      4  N   UNL d   1      -1.280  -1.454  -0.260  0.00  0.00    -0.305 N 
ATOM      5  HN  UNL d   1      -1.385  -2.468  -0.257  1.00  0.00     0.171 HD
ATOM      6  N   UNL d   1       1.101  -1.284   0.051  0.00  0.00    -0.287 N 
ATOM      7  C   UNL d   1       2.205  -0.443   0.132  0.00  0.00     0.333 A 
ATOM      8  C   UNL d   1       0.705   1.549  -0.038  0.00  0.00     0.282 A 
ATOM      9  C   UNL d   1      -2.217  -0.548  -0.425  0.00  0.00     0.233 C 
ATOM     10  N   UNL d   1      -1.727   0.725  -0.228  0.00  0.00    -0.309 N 
ATOM     11  O   UNL d   1       3.341  -0.905   0.282  0.00  0.00    -0.246 OA
ATOM     12  O   UNL d   1       0.529   2.764  -0.042  0.00  0.00    -0.265 OA
ATOM     13  C   UNL d   1       1.302  -2.720   0.054  0.00  0.00     0.163 C 
ATOM     14  C   UNL d   1      -2.539   1.912  -0.136  0.00  0.00     0.160 C 
ENDROOT
BRANCH   9  15
ATOM     15  O   UNL d   1      -3.489  -0.801  -0.733  0.00  0.00    -0.279 OA
BRANCH  15  16
ATOM     16  C   UNL d   1      -3.888  -2.107  -0.935  0.00  0.00     0.082 A 
ATOM     17  C   UNL d   1      -5.019  -2.522  -0.233  0.00  0.00     0.077 A 
ATOM     18  C   UNL d   1      -5.425  -3.826  -0.399  0.00  0.00     0.107 A 
ATOM     19  O   UNL d   1      -6.486  -4.406   0.224  0.00  0.00    -0.323 OA
ATOM     20  C   UNL d   1      -4.764  -4.698  -1.234  0.00  0.00     0.105 A 
ATOM     21  C   UNL d   1      -6.466  -5.716  -0.378  0.00  0.00     0.352 A 
ATOM     22  O   UNL d   1      -5.333  -5.934  -1.244  0.00  0.00    -0.323 OA
ATOM     23  C   UNL d   1      -3.656  -4.312  -1.958  0.00  0.00     0.042 A 
ATOM     24  C   UNL d   1      -3.220  -2.990  -1.813  0.00  0.00     0.040 A 
ENDBRANCH  15  16
ENDBRANCH   9  15
BRANCH   3  25
ATOM     25  C   UNL d   1       3.141   1.805   0.016  0.00  0.00     0.175 C 
BRANCH  25  26
ATOM     26  C   UNL d   1       3.704   1.985  -1.381  0.00  0.00    -0.040 A 
ATOM     27  C   UNL d   1       3.298   3.066  -2.180  0.00  0.00     0.012 A 
ATOM     28  C   UNL d   1       3.807   3.223  -3.472  0.00  0.00     0.043 A 
ATOM     29  C   UNL d   1       4.714   2.297  -3.973  0.00  0.00     0.116 A 
ATOM     30  C   UNL d   1       5.127   1.217  -3.204  0.00  0.00     0.043 A 
ATOM     31  F   UNL d   1       5.196   2.447  -5.214  0.00  0.00    -0.206 F 
ATOM     32  C   UNL d   1       4.624   1.061  -1.911  0.00  0.00     0.012 A 
ENDBRANCH  25  26
ENDBRANCH   3  25
TORSDOF 4
