REMARK  6 active torsions:
REMARK  status: ('A' for Active; 'I' for Inactive)
REMARK    1  A    between atoms: C_7  and  C_1 
REMARK    2  A    between atoms: S_2  and  N_9 
REMARK    3  A    between atoms: C_13  and  S_2 
REMARK    4  A    between atoms: C_18  and  C_3 
REMARK    5  A    between atoms: N_6  and  C_12 
REMARK       I    between atoms: N_10  and  C_7 
REMARK    6  A    between atoms: N_9  and  N_10 
ROOT
ATOM      1  C   UNL d   1      -2.368  -0.238  -0.122  0.00  0.00     0.115 A 
ATOM      2  C   UNL d   1      -1.474  -1.314  -0.106  0.00  0.00     0.019 A 
ATOM      3  N   UNL d   1      -1.584   0.907  -0.080  0.00  0.00    -0.350 N 
ATOM      4  C   UNL d   1      -0.142  -0.772   0.012  0.00  0.00     0.006 A 
ATOM      5  C   UNL d   1      -0.241   0.612  -0.022  0.00  0.00     0.044 A 
ATOM      6  C   UNL d   1       1.144  -1.352   0.126  0.00  0.00     0.050 A 
ATOM      7  C   UNL d   1       2.276  -0.531   0.103  0.00  0.00     0.103 A 
ATOM      8  C   UNL d   1       0.881   1.454  -0.003  0.00  0.00     0.033 A 
ATOM      9  C   UNL d   1       2.151   0.858   0.039  0.00  0.00     0.038 A 
ATOM     10  H   UNL d   1      -1.938   1.851  -0.144  0.00  0.00     0.166 HD
ENDROOT
BRANCH   1  11
ATOM     11  C   UNL d   1      -3.823  -0.206  -0.241  0.00  0.00     0.288 C 
ATOM     12  N   UNL d   1      -4.452   0.923   0.264  0.00  0.00    -0.255 N 
ATOM     13  H   UNL d   1      -3.977   1.686   0.746  0.00  0.00     0.191 HD
ATOM     14  O   UNL d   1      -4.494  -1.101  -0.759  0.00  0.00    -0.264 OA
BRANCH  12  15
ATOM     15  N   UNL d   1      -5.913   1.036   0.138  0.00  0.00    -0.220 N 
ATOM     16  H   UNL d   1      -6.386   0.315  -0.424  0.00  0.00     0.200 HD
BRANCH  15  17
ATOM     17  S   UNL d   1      -6.617   2.566   0.265  0.00  0.00     0.276 S 
ATOM     18  O   UNL d   1      -6.276   3.084   1.574  0.00  0.00    -0.199 OA
ATOM     19  O   UNL d   1      -6.250   3.298  -0.929  0.00  0.00    -0.199 OA
BRANCH  17  20
ATOM     20  C   UNL d   1      -8.364   2.249   0.209  0.00  0.00     0.081 A 
ATOM     21  C   UNL d   1      -9.077   2.098   1.402  0.00  0.00     0.026 A 
ATOM     22  C   UNL d   1     -10.473   2.016   1.372  0.00  0.00     0.008 A 
ATOM     23  C   UNL d   1     -11.167   2.096   0.156  0.00  0.00    -0.062 A 
ATOM     24  C   UNL d   1     -10.443   2.226  -1.036  0.00  0.00     0.008 A 
ATOM     25  C   UNL d   1     -12.669   2.095   0.153  0.00  0.00     0.048 C 
ATOM     26  C   UNL d   1      -9.044   2.309  -1.012  0.00  0.00     0.026 A 
ENDBRANCH  17  20
ENDBRANCH  15  17
ENDBRANCH  12  15
ENDBRANCH   1  11
BRANCH   2  27
ATOM     27  C   UNL d   1      -1.787  -2.749  -0.157  0.00  0.00    -0.023 A 
ATOM     28  C   UNL d   1      -0.915  -3.612  -0.849  0.00  0.00     0.012 A 
ATOM     29  C   UNL d   1      -0.995  -4.997  -0.703  0.00  0.00     0.001 A 
ATOM     30  C   UNL d   1      -2.005  -5.548   0.075  0.00  0.00     0.000 A 
ATOM     31  C   UNL d   1      -2.938  -4.712   0.687  0.00  0.00     0.001 A 
ATOM     32  C   UNL d   1      -2.823  -3.320   0.586  0.00  0.00     0.012 A 
ENDBRANCH   2  27
BRANCH   7  33
ATOM     33  N   UNL d   1       3.606  -1.155   0.109  0.00  0.00    -0.116 N 
ATOM     34  O   UNL d   1       3.663  -2.395   0.068  0.00  0.00    -0.532 OA
ATOM     35  O   UNL d   1       4.594  -0.410   0.147  0.00  0.00    -0.532 OA
ENDBRANCH   7  33
TORSDOF 6
