REMARK  0 active torsions:
REMARK  status: ('A' for Active; 'I' for Inactive)
ROOT
ATOM      1  C   UNL d   1       0.009  -0.671  -0.001  0.00  0.00     0.069 A 
ATOM      2  C   UNL d   1       1.303  -1.369  -0.002  0.00  0.00     0.301 A 
ATOM      3  C   UNL d   1       0.020   0.718  -0.002  0.00  0.00     0.068 A 
ATOM      4  N   UNL d   1       1.230   1.416  -0.005  0.00  0.00    -0.338 N 
ATOM      5  HN  UNL d   1       1.250   2.436  -0.006  1.00  0.00     0.168 HD
ATOM      6  O   UNL d   1       2.425  -0.616  -0.005  0.00  0.00    -0.262 OA
ATOM      7  C   UNL d   1       2.321   0.729  -0.006  0.00  0.00     0.124 A 
ATOM      8  C   UNL d   1      -1.212   1.391  -0.001  0.00  0.00     0.040 A 
ATOM      9  C   UNL d   1      -2.419   0.685   0.001  0.00  0.00     0.040 A 
ATOM     10  C   UNL d   1      -1.190  -1.395   0.001  0.00  0.00     0.039 A 
ATOM     11  O   UNL d   1       1.347  -2.593  -0.000  0.00  0.00    -0.259 OA
ATOM     12  C   UNL d   1      -2.399  -0.707   0.002  0.00  0.00     0.013 A 
ATOM     13 BR   UNL d   1      -1.295   3.290  -0.002  0.00  0.00    -0.049 Br
ATOM     14 BR   UNL d   1      -4.026  -1.668   0.003  0.00  0.00    -0.051 Br
ATOM     15  C   UNL d   1       3.662   1.390  -0.010  0.00  0.00     0.098 C 
ENDROOT
TORSDOF 0
