REMARK  4 active torsions:
REMARK  status: ('A' for Active; 'I' for Inactive)
REMARK    1  A    between atoms: N_2  and  S_1 
REMARK    2  A    between atoms: C_5  and  S_1 
REMARK    3  A    between atoms: C_3  and  C_11 
REMARK       I    between atoms: N_4  and  C_3 
REMARK    4  A    between atoms: C_11  and  N_6 
ROOT
ATOM      1  N   UNL d   1       0.773  -0.872  -1.082  0.00  0.00    -0.203 NA
ATOM      2  N   UNL d   1      -1.060  -3.023  -0.121  0.00  0.00     0.099 N 
ATOM      3  C   UNL d   1      -0.693  -0.714  -1.272  0.00  0.00     0.138 C 
ATOM      4  C   UNL d   1       1.135  -2.302  -1.285  0.00  0.00     0.138 C 
ATOM      5  C   UNL d   1       0.386  -3.228  -0.310  0.00  0.00     0.288 C 
ATOM      6  C   UNL d   1      -1.491  -1.611  -0.290  0.00  0.00     0.288 C 
ENDROOT
BRANCH   1   7
ATOM      7  S   UNL d   1       1.449  -0.093   0.281  0.00  0.00     0.243 S 
ATOM      8  O   UNL d   1       2.673  -0.787   0.625  0.00  0.00    -0.206 OA
ATOM      9  O   UNL d   1       0.412   0.137   1.270  0.00  0.00    -0.206 OA
BRANCH   7  10
ATOM     10  C   UNL d   1       1.961   1.496  -0.351  0.00  0.00     0.074 A 
ATOM     11  C   UNL d   1       1.446   2.673   0.212  0.00  0.00     0.025 A 
ATOM     12  C   UNL d   1       1.995   3.909  -0.154  0.00  0.00     0.008 A 
ATOM     13  C   UNL d   1       3.057   3.977  -1.065  0.00  0.00    -0.062 A 
ATOM     14  C   UNL d   1       3.536   2.796  -1.646  0.00  0.00     0.008 A 
ATOM     15  C   UNL d   1       3.671   5.304  -1.413  0.00  0.00     0.048 C 
ATOM     16  C   UNL d   1       2.995   1.557  -1.286  0.00  0.00     0.025 A 
ENDBRANCH   7  10
ENDBRANCH   1   7
BRANCH   2  17
ATOM     17  C   UNL d   1      -1.951  -3.930  -0.861  0.00  0.00     0.374 C 
BRANCH  17  18
ATOM     18  C   UNL d   1      -1.720  -5.446  -0.733  0.00  0.00     0.248 C 
ATOM     19  N   UNL d   1      -1.570  -6.094   0.479  0.00  0.00    -0.347 N 
ATOM     20  C   UNL d   1      -1.362  -7.548   0.477  0.00  0.00     0.152 C 
ATOM     21  C   UNL d   1      -1.264  -5.504   1.788  0.00  0.00     0.152 C 
ATOM     22  C   UNL d   1       0.078  -7.864   0.890  0.00  0.00     0.187 C 
ATOM     23  O   UNL d   1       0.364  -7.311   2.188  0.00  0.00    -0.388 OA
ATOM     24  C   UNL d   1       0.172  -5.883   2.201  0.00  0.00     0.187 C 
ATOM     25  O   UNL d   1      -1.776  -6.107  -1.782  0.00  0.00    -0.271 OA
ENDBRANCH  17  18
ENDBRANCH   2  17
TORSDOF 4
