REMARK  2 active torsions:
REMARK  status: ('A' for Active; 'I' for Inactive)
REMARK    1  A    between atoms: C_2  and  C_1 
REMARK    2  A    between atoms: C_8  and  N_3 
ROOT
ATOM      1  C   UNL d   1      -1.854   5.118  -0.773  0.00  0.00     0.072 A 
ATOM      2  N   UNL d   1      -3.647   4.210  -2.416  0.00  0.00    -0.191 NA
ATOM      3  C   UNL d   1      -2.833   4.568  -1.670  0.00  0.00     0.102 C 
ATOM      4  C   UNL d   1      -1.020   4.290   0.002  0.00  0.00     0.053 A 
ATOM      5  C   UNL d   1      -1.758   6.519  -0.674  0.00  0.00     0.048 A 
ATOM      6  C   UNL d   1      -0.122   4.904   0.893  0.00  0.00     0.033 A 
ATOM      7  C   UNL d   1      -0.838   7.096   0.198  0.00  0.00     0.035 A 
ATOM      8  C   UNL d   1      -0.019   6.293   0.983  0.00  0.00     0.026 A 
ATOM      9 CL   UNL d   1      -0.726   8.807   0.328  0.00  0.00    -0.084 Cl
ENDROOT
BRANCH   4  10
ATOM     10  N   UNL d   1      -1.144   2.885  -0.053  0.00  0.00    -0.364 N 
ATOM     11  C   UNL d   1      -0.079   2.150   0.017  0.00  0.00     0.103 C 
ATOM     12  HN  UNL d   1      -2.063   2.452  -0.146  1.00  0.00     0.165 HD
BRANCH  11  13
ATOM     13  C   UNL d   1      -0.107   0.670   0.025  0.00  0.00     0.023 A 
ATOM     14  C   UNL d   1      -1.021  -0.075  -0.734  0.00  0.00     0.047 A 
ATOM     15 CL   UNL d   1      -2.188   0.630  -1.794  0.00  0.00    -0.083 Cl
ATOM     16  C   UNL d   1      -0.979  -1.477  -0.707  0.00  0.00     0.025 A 
ATOM     17  C   UNL d   1      -0.035  -2.146   0.070  0.00  0.00     0.003 A 
ATOM     18  C   UNL d   1       0.876  -1.415   0.826  0.00  0.00     0.025 A 
ATOM     19  C   UNL d   1       0.844  -0.015   0.805  0.00  0.00     0.047 A 
ATOM     20 CL   UNL d   1       2.002   0.799   1.805  0.00  0.00    -0.083 Cl
ENDBRANCH  11  13
ENDBRANCH   4  10
TORSDOF 2
