REMARK  5 active torsions:
REMARK  status: ('A' for Active; 'I' for Inactive)
REMARK    1  A    between atoms: C_5  and  C_1 
REMARK    2  A    between atoms: C_3  and  C_2 
REMARK    3  A    between atoms: C_4  and  C_9 
REMARK       I    between atoms: N_10  and  C_5 
REMARK    4  A    between atoms: C_9  and  N_10 
REMARK    5  A    between atoms: O_21  and  C_11 
ROOT
ATOM      1  C   UNL d   1       0.655   1.230   0.056  0.00  0.00     0.062 A 
ATOM      2  C   UNL d   1      -0.599   0.808   0.519  0.00  0.00     0.069 A 
ATOM      3  C   UNL d   1       1.478   0.269  -0.538  0.00  0.00     0.108 A 
ATOM      4  N   UNL d   1       1.144  -1.032  -0.727  0.00  0.00    -0.346 N 
ATOM      5  HN  UNL d   1       1.781  -1.689  -1.176  1.00  0.00     0.167 HD
ATOM      6  C   UNL d   1      -0.069  -1.411  -0.292  0.00  0.00     0.142 A 
ATOM      7  C   UNL d   1      -0.955  -0.545   0.324  0.00  0.00     0.073 A 
ENDROOT
BRANCH   1   8
ATOM      8  C   UNL d   1       1.247   2.590   0.137  0.00  0.00     0.254 C 
ATOM      9  N   UNL d   1       0.424   3.656  -0.116  0.00  0.00    -0.352 N 
ATOM     10  H   UNL d   1      -0.575   3.524  -0.176  0.00  0.00     0.163 HD
ATOM     11  O   UNL d   1       2.446   2.708   0.362  0.00  0.00    -0.268 OA
BRANCH   9  12
ATOM     12  C   UNL d   1       0.872   5.023   0.026  0.00  0.00     0.165 C 
BRANCH  12  13
ATOM     13  C   UNL d   1       0.013   6.096  -0.619  0.00  0.00     0.003 A 
ATOM     14  C   UNL d   1      -1.166   5.883  -1.364  0.00  0.00     0.043 A 
ATOM     15 CL   UNL d   1      -1.881   4.330  -1.649  0.00  0.00    -0.084 Cl
ATOM     16  C   UNL d   1      -1.871   6.957  -1.937  0.00  0.00     0.024 A 
ATOM     17  C   UNL d   1      -1.428   8.262  -1.783  0.00  0.00     0.003 A 
ATOM     18  C   UNL d   1      -0.278   8.507  -1.049  0.00  0.00     0.024 A 
ATOM     19  C   UNL d   1       0.431   7.444  -0.475  0.00  0.00     0.043 A 
ATOM     20 CL   UNL d   1       1.848   7.871   0.429  0.00  0.00    -0.084 Cl
ENDBRANCH  12  13
ENDBRANCH   9  12
ENDBRANCH   1   8
BRANCH   2  21
ATOM     21  C   UNL d   1      -1.610   1.652   1.239  0.00  0.00     0.418 C 
ATOM     22  F   UNL d   1      -1.217   2.909   1.559  0.00  0.00    -0.166 F 
ATOM     23  F   UNL d   1      -2.746   1.804   0.502  0.00  0.00    -0.166 F 
ATOM     24  F   UNL d   1      -2.009   1.089   2.414  0.00  0.00    -0.166 F 
ENDBRANCH   2  21
BRANCH   6  25
ATOM     25  O   UNL d   1      -0.485  -2.717  -0.433  0.00  0.00    -0.341 OA
ATOM     26  C   UNL d   1       0.478  -3.541  -1.083  0.00  0.00     0.211 C 
ENDBRANCH   6  25
TORSDOF 5
