REMARK  2 active torsions:
REMARK  status: ('A' for Active; 'I' for Inactive)
REMARK    1  A    between atoms: C_4  and  C_1 
REMARK    2  A    between atoms: C_9  and  C_8 
ROOT
ATOM      1  C   UNL d   1       2.512   1.611   0.043  0.00  0.00     0.051 A 
ATOM      2  S   UNL d   1       3.820   1.524  -1.043  0.00  0.00    -0.084 SA
ATOM      3  C   UNL d   1       4.606   2.866  -0.326  0.00  0.00     0.041 A 
ATOM      4  C   UNL d   1       2.676   2.621   0.968  0.00  0.00     0.024 A 
ATOM      5  C   UNL d   1       3.891   3.343   0.756  0.00  0.00     0.023 A 
ENDROOT
BRANCH   1   6
ATOM      6  C   UNL d   1       1.317   0.717  -0.018  0.00  0.00     0.144 A 
ATOM      7  N   UNL d   1       0.239   0.871   0.823  0.00  0.00    -0.323 N 
ATOM      8  C   UNL d   1      -0.597  -0.032   0.367  0.00  0.00     0.144 A 
ATOM      9  HN  UNL d   1       0.120   1.520   1.601  1.00  0.00     0.169 HD
ATOM     10  C   UNL d   1      -1.982  -0.320   0.772  0.00  0.00     0.100 C 
ATOM     11  O   UNL d   1      -0.097  -0.766  -0.666  0.00  0.00    -0.223 OA
ATOM     12  N   UNL d   1       1.178  -0.266  -0.922  0.00  0.00    -0.242 N 
ATOM     13  HN  UNL d   1       1.847  -0.573  -1.629  1.00  0.00     0.196 HD
ENDBRANCH   1   6
BRANCH   3  14
ATOM     14  C   UNL d   1       5.848   3.379  -0.837  0.00  0.00     0.117 A 
ATOM     15  O   UNL d   1       6.483   4.463  -0.283  0.00  0.00    -0.237 OA
ATOM     16  N   UNL d   1       7.653   4.735  -0.971  0.00  0.00    -0.272 N 
ATOM     17  C   UNL d   1       7.716   3.818  -1.936  0.00  0.00     0.117 A 
ATOM     18  HN  UNL d   1       8.324   5.480  -0.780  1.00  0.00     0.194 HD
ATOM     19  C   UNL d   1       6.616   2.949  -1.903  0.00  0.00     0.059 A 
ENDBRANCH   3  14
TORSDOF 2
