REMARK  5 active torsions:
REMARK  status: ('A' for Active; 'I' for Inactive)
REMARK    1  A    between atoms: C_7  and  C_4 
REMARK    2  A    between atoms: C_14  and  C_5 
REMARK    3  A    between atoms: C_10  and  C_7 
REMARK    4  A    between atoms: O_27  and  C_15 
REMARK    5  A    between atoms: O_28  and  C_18 
ROOT
ATOM      1  C   UNL d   1      -0.792   0.600   0.055  0.00  0.00     0.068 A 
ATOM      2  N   UNL d   1      -1.602  -0.529   0.075  0.00  0.00    -0.341 N 
ATOM      3  C   UNL d   1      -1.656   1.682   0.014  0.00  0.00     0.085 A 
ATOM      4  C   UNL d   1      -2.952  -0.204   0.102  0.00  0.00     0.100 A 
ATOM      5  C   UNL d   1      -3.010   1.195   0.032  0.00  0.00     0.028 A 
ATOM      6  C   UNL d   1       0.684   0.453   0.036  0.00  0.00     0.002 A 
ATOM      7  C   UNL d   1       1.211  -0.805  -0.313  0.00  0.00    -0.041 A 
ATOM      8  C   UNL d   1       1.586   1.467   0.389  0.00  0.00     0.054 A 
ATOM      9  C   UNL d   1      -1.254   3.057  -0.059  0.00  0.00     0.102 C 
ATOM     10  C   UNL d   1      -1.013  -1.865   0.055  0.00  0.00     0.134 C 
ATOM     11  N   UNL d   1      -0.926   4.167  -0.139  0.00  0.00    -0.191 NA
ATOM     12  C   UNL d   1       2.979   1.233   0.404  0.00  0.00     0.102 A 
ATOM     13  C   UNL d   1       2.593  -1.026  -0.301  0.00  0.00     0.047 A 
ATOM     14  C   UNL d   1       3.492  -0.026   0.076  0.00  0.00     0.102 A 
ATOM     15  C   UNL d   1       0.290  -1.922  -0.724  0.00  0.00     0.060 C 
ENDROOT
BRANCH   5  16
ATOM     16  C   UNL d   1      -4.248   1.988  -0.005  0.00  0.00    -0.022 A 
ATOM     17  C   UNL d   1      -4.369   3.075  -0.883  0.00  0.00     0.014 A 
ATOM     18  C   UNL d   1      -5.498   3.901  -0.866  0.00  0.00     0.024 A 
ATOM     19  C   UNL d   1      -6.545   3.628   0.014  0.00  0.00     0.034 A 
ATOM     20  C   UNL d   1      -6.460   2.530   0.869  0.00  0.00     0.024 A 
ATOM     21 CL   UNL d   1      -7.929   4.644   0.051  0.00  0.00    -0.084 Cl
ATOM     22  C   UNL d   1      -5.315   1.727   0.873  0.00  0.00     0.014 A 
ENDBRANCH   5  16
BRANCH   4  23
ATOM     23  C   UNL d   1      -4.068  -1.163   0.070  0.00  0.00     0.216 C 
ATOM     24  O   UNL d   1      -5.037  -0.999  -0.664  0.00  0.00    -0.284 OA
BRANCH  23  25
ATOM     25  C   UNL d   1      -3.932  -2.326   0.947  0.00  0.00     0.057 A 
ATOM     26  S   UNL d   1      -4.551  -3.836   0.405  0.00  0.00    -0.098 SA
ATOM     27  C   UNL d   1      -3.896  -4.668   1.746  0.00  0.00     0.050 A 
ATOM     28  C   UNL d   1      -3.289  -3.812   2.635  0.00  0.00     0.009 A 
ATOM     29  C   UNL d   1      -3.344  -2.454   2.195  0.00  0.00     0.023 A 
ENDBRANCH  23  25
ENDBRANCH   4  23
BRANCH  12  30
ATOM     30  O   UNL d   1       3.772   2.238   0.895  0.00  0.00    -0.353 OA
ATOM     31  C   UNL d   1       4.192   3.141  -0.129  0.00  0.00     0.210 C 
ENDBRANCH  12  30
BRANCH  14  32
ATOM     32  O   UNL d   1       4.777  -0.485   0.103  0.00  0.00    -0.353 OA
ATOM     33  C   UNL d   1       5.846   0.421   0.311  0.00  0.00     0.210 C 
ENDBRANCH  14  32
TORSDOF 5
