REMARK  9 active torsions:
REMARK  status: ('A' for Active; 'I' for Inactive)
REMARK    1  A    between atoms: C_11  and  N_2 
REMARK    2  A    between atoms: N_17  and  C_9 
REMARK    3  A    between atoms: C_12  and  C_11 
REMARK    4  A    between atoms: C_26  and  N_17 
REMARK    5  A    between atoms: O_25  and  C_27 
REMARK    6  A    between atoms: C_28  and  C_26 
REMARK    7  A    between atoms: C_27  and  C_29 
REMARK    8  A    between atoms: C_30  and  C_28 
REMARK    9  A    between atoms: C_29  and  C_30 
ROOT
ATOM      1  C   UNL d   1      -0.210  -0.875   0.019  0.00  0.00     0.160 A 
ATOM      2  N   UNL d   1       1.871   0.858   0.030  0.00  0.00    -0.260 N 
ATOM      3  C   UNL d   1      -0.458   0.463  -0.035  0.00  0.00     0.164 A 
ATOM      4  N   UNL d   1      -1.345  -1.607   0.021  0.00  0.00    -0.174 N 
ATOM      5  HN  UNL d   1      -1.425  -2.624   0.049  1.00  0.00     0.186 HD
ATOM      6  N   UNL d   1       1.060  -1.387   0.079  0.00  0.00    -0.287 N 
ATOM      7  C   UNL d   1       2.146  -0.520   0.117  0.00  0.00     0.333 A 
ATOM      8  C   UNL d   1       0.590   1.431  -0.049  0.00  0.00     0.283 A 
ATOM      9  C   UNL d   1      -2.325  -0.734  -0.021  0.00  0.00     0.682 A 
ATOM     10  N   UNL d   1      -1.831   0.559  -0.063  0.00  0.00    -0.178 N 
ATOM     11  O   UNL d   1       3.300  -0.946   0.209  0.00  0.00    -0.246 OA
ATOM     12  O   UNL d   1       0.392   2.638  -0.131  0.00  0.00    -0.265 OA
ATOM     13  C   UNL d   1       1.300  -2.816   0.109  0.00  0.00     0.163 C 
ATOM     14  C   UNL d   1      -2.626   1.760  -0.071  0.00  0.00     0.176 C 
ENDROOT
BRANCH   2  15
ATOM     15  C   UNL d   1       3.019   1.756   0.019  0.00  0.00     0.177 C 
BRANCH  15  16
ATOM     16  C   UNL d   1       3.634   2.010  -1.352  0.00  0.00    -0.018 A 
ATOM     17  C   UNL d   1       4.786   2.813  -1.470  0.00  0.00     0.043 A 
ATOM     18  C   UNL d   1       5.341   3.107  -2.719  0.00  0.00     0.048 A 
ATOM     19 CL   UNL d   1       5.571   3.484  -0.081  0.00  0.00    -0.084 Cl
ATOM     20  C   UNL d   1       4.754   2.596  -3.871  0.00  0.00     0.035 A 
ATOM     21  C   UNL d   1       3.632   1.779  -3.783  0.00  0.00     0.024 A 
ATOM     22 CL   UNL d   1       5.411   2.983  -5.412  0.00  0.00    -0.084 Cl
ATOM     23  C   UNL d   1       3.076   1.487  -2.534  0.00  0.00     0.012 A 
ENDBRANCH  15  16
ENDBRANCH   2  15
BRANCH   9  24
ATOM     24  N   UNL d   1      -3.645  -1.031   0.006  0.00  0.00    -0.226 N 
ATOM     25  H   UNL d   1      -4.346  -0.311   0.139  0.00  0.00     0.177 HD
BRANCH  24  26
ATOM     26  C   UNL d   1      -3.987  -2.345   0.546  0.00  0.00     0.138 C 
BRANCH  26  27
ATOM     27  C   UNL d   1      -5.487  -2.620   0.501  0.00  0.00     0.020 C 
BRANCH  27  28
ATOM     28  C   UNL d   1      -6.014  -2.800  -0.923  0.00  0.00     0.004 C 
BRANCH  28  29
ATOM     29  C   UNL d   1      -7.490  -3.212  -0.913  0.00  0.00     0.026 C 
BRANCH  29  30
ATOM     30  C   UNL d   1      -8.055  -3.360  -2.320  0.00  0.00     0.164 C 
BRANCH  30  31
ATOM     31  O   UNL d   1      -8.011  -2.108  -2.988  0.00  0.00    -0.401 OA
ATOM     32  H   UNL d   1      -8.328  -2.257  -3.895  0.00  0.00     0.209 HD
ENDBRANCH  30  31
ENDBRANCH  29  30
ENDBRANCH  28  29
ENDBRANCH  27  28
ENDBRANCH  26  27
ENDBRANCH  24  26
ENDBRANCH   9  24
TORSDOF 9
