REMARK  3 active torsions:
REMARK  status: ('A' for Active; 'I' for Inactive)
REMARK    1  A    between atoms: C_14  and  C_5 
REMARK    2  A    between atoms: C_16  and  C_6 
REMARK    3  A    between atoms: C_15  and  N_7 
ROOT
ATOM      1  N   UNL d   1      -0.284   0.760  -0.106  0.00  0.00    -0.126 N 
ATOM      2  C   UNL d   1       0.051  -0.603  -0.061  0.00  0.00     0.715 A 
ATOM      3  N   UNL d   1       1.236  -1.107  -0.025  0.00  0.00    -0.152 N 
ATOM      4  HN  UNL d   1       1.367  -2.117   0.018  1.00  0.00     0.187 HD
ATOM      5  C   UNL d   1      -1.687   0.854  -0.058  0.00  0.00     0.155 A 
ATOM      6  C   UNL d   1       0.790   1.653  -0.040  0.00  0.00     0.095 A 
ATOM      7  N   UNL d   1      -1.191  -1.235  -0.001  0.00  0.00    -0.084 N 
ATOM      8  N   UNL d   1      -2.257  -0.342   0.037  0.00  0.00    -0.262 N 
ATOM      9  HN  UNL d   1      -3.251  -0.557   0.119  1.00  0.00     0.190 HD
ATOM     10  C   UNL d   1       2.066   1.202   0.006  0.00  0.00     0.141 A 
ATOM     11  C   UNL d   1       2.317  -0.267  -0.046  0.00  0.00     0.282 A 
ATOM     12  C   UNL d   1       3.216   2.038   0.092  0.00  0.00     0.107 C 
ATOM     13  N   UNL d   1       4.125   2.753   0.160  0.00  0.00    -0.191 NA
ATOM     14  O   UNL d   1       3.463  -0.695  -0.095  0.00  0.00    -0.266 OA
ENDROOT
BRANCH   6  15
ATOM     15  C   UNL d   1       0.597   3.115  -0.002  0.00  0.00    -0.006 A 
ATOM     16  C   UNL d   1       0.801   3.871  -1.170  0.00  0.00     0.014 A 
ATOM     17  C   UNL d   1       0.708   5.262  -1.139  0.00  0.00     0.001 A 
ATOM     18  C   UNL d   1       0.447   5.911   0.066  0.00  0.00     0.000 A 
ATOM     19  C   UNL d   1       0.281   5.172   1.237  0.00  0.00     0.001 A 
ATOM     20  C   UNL d   1       0.353   3.777   1.208  0.00  0.00     0.014 A 
ENDBRANCH   6  15
BRANCH   5  21
ATOM     21  C   UNL d   1      -2.563   2.049  -0.086  0.00  0.00     0.010 A 
ATOM     22  C   UNL d   1      -2.361   3.095  -0.983  0.00  0.00     0.015 A 
ATOM     23  C   UNL d   1      -3.179   4.228  -0.946  0.00  0.00     0.001 A 
ATOM     24  C   UNL d   1      -4.263   4.279  -0.074  0.00  0.00     0.000 A 
ATOM     25  C   UNL d   1      -4.539   3.190   0.750  0.00  0.00     0.001 A 
ATOM     26  C   UNL d   1      -3.690   2.079   0.749  0.00  0.00     0.015 A 
ENDBRANCH   5  21
BRANCH   7  27
ATOM     27  C   UNL d   1      -1.421  -2.629   0.135  0.00  0.00     0.074 A 
ATOM     28  C   UNL d   1      -2.619  -3.120   0.680  0.00  0.00     0.032 A 
ATOM     29  C   UNL d   1      -2.822  -4.493   0.875  0.00  0.00     0.002 A 
ATOM     30  C   UNL d   1      -1.838  -5.406   0.506  0.00  0.00     0.000 A 
ATOM     31  C   UNL d   1      -0.658  -4.950  -0.068  0.00  0.00     0.002 A 
ATOM     32  C   UNL d   1      -0.457  -3.579  -0.251  0.00  0.00     0.032 A 
ENDBRANCH   7  27
TORSDOF 3
