REMARK  5 active torsions:
REMARK  status: ('A' for Active; 'I' for Inactive)
REMARK    1  A    between atoms: C_14  and  N_1 
REMARK    2  A    between atoms: C_15  and  C_2 
REMARK    3  A    between atoms: S_18  and  C_5 
REMARK    4  A    between atoms: N_8  and  C_16 
REMARK    5  A    between atoms: C_9  and  C_17 
ROOT
ATOM      1  N   UNL d   1      -0.274  -1.127  -0.448  0.00  0.00    -0.275 N 
ATOM      2  C   UNL d   1       0.952  -0.611   0.003  0.00  0.00     0.139 A 
ATOM      3  N   UNL d   1       0.754   0.612   0.467  0.00  0.00    -0.282 N 
ATOM      4  HN  UNL d   1       1.461   1.200   0.909  1.00  0.00     0.188 HD
ATOM      5  C   UNL d   1      -1.155  -0.066  -0.291  0.00  0.00     0.165 A 
ATOM      6  N   UNL d   1      -0.549   0.959   0.260  0.00  0.00    -0.278 N 
ATOM      7  HN  UNL d   1      -0.976   1.855   0.493  1.00  0.00     0.189 HD
ENDROOT
BRANCH   2   8
ATOM      8  C   UNL d   1       2.285  -1.228  -0.068  0.00  0.00     0.010 A 
ATOM      9  C   UNL d   1       2.670  -2.072  -1.117  0.00  0.00     0.017 A 
ATOM     10  C   UNL d   1       3.912  -2.711  -1.108  0.00  0.00     0.031 A 
ATOM     11  C   UNL d   1       4.844  -2.440  -0.109  0.00  0.00     0.039 A 
ATOM     12  C   UNL d   1       4.508  -1.524   0.898  0.00  0.00     0.031 A 
ATOM     13  C   UNL d   1       3.235  -0.941   0.922  0.00  0.00     0.017 A 
BRANCH  11  14
ATOM     14  N   UNL d   1       6.126  -3.081  -0.119  0.00  0.00    -0.320 N 
ATOM     15  C   UNL d   1       6.848  -3.526   0.995  0.00  0.00     0.013 A 
ATOM     16  C   UNL d   1       8.030  -4.090   0.552  0.00  0.00     0.027 A 
ATOM     17  C   UNL d   1       6.395  -3.500   2.417  0.00  0.00     0.068 C 
ATOM     18  C   UNL d   1       8.040  -4.034  -0.846  0.00  0.00     0.027 A 
ATOM     19  C   UNL d   1       6.881  -3.403  -1.257  0.00  0.00     0.013 A 
ATOM     20  C   UNL d   1       6.553  -3.054  -2.671  0.00  0.00     0.068 C 
ENDBRANCH  11  14
ENDBRANCH   2   8
BRANCH   1  21
ATOM     21  C   UNL d   1      -0.535  -2.438  -0.947  0.00  0.00     0.043 A 
ATOM     22  C   UNL d   1       0.083  -3.551  -0.355  0.00  0.00     0.031 A 
ATOM     23  C   UNL d   1      -0.078  -4.827  -0.907  0.00  0.00     0.018 A 
ATOM     24  C   UNL d   1      -0.887  -5.021  -2.033  0.00  0.00     0.048 A 
ATOM     25  C   UNL d   1      -1.534  -3.912  -2.597  0.00  0.00     0.018 A 
ATOM     26  C   UNL d   1      -1.349  -2.628  -2.068  0.00  0.00     0.031 A 
BRANCH  24  27
ATOM     27  C   UNL d   1      -1.067  -6.392  -2.644  0.00  0.00     0.417 C 
ATOM     28  F   UNL d   1      -0.278  -7.348  -2.079  0.00  0.00    -0.166 F 
ATOM     29  F   UNL d   1      -2.345  -6.846  -2.532  0.00  0.00    -0.166 F 
ATOM     30  F   UNL d   1      -0.778  -6.408  -3.974  0.00  0.00    -0.166 F 
ENDBRANCH  24  27
ENDBRANCH   1  21
BRANCH   5  31
ATOM     31  S   UNL d   1      -2.868  -0.069  -0.582  0.00  0.00    -0.105 SA
ATOM     32  H   UNL d   1      -3.095  -1.387  -0.620  0.00  0.00     0.110 HD
ENDBRANCH   5  31
TORSDOF 5
