REMARK  7 active torsions:
REMARK  status: ('A' for Active; 'I' for Inactive)
REMARK    1  A    between atoms: N_6  and  C_1 
REMARK       I    between atoms: C_8  and  N_6 
REMARK    2  A    between atoms: C_13  and  C_8 
REMARK    3  A    between atoms: N_10  and  C_13 
REMARK    4  A    between atoms: C_15  and  N_10 
REMARK    5  A    between atoms: C_16  and  N_10 
REMARK    6  A    between atoms: C_20  and  C_15 
REMARK    7  A    between atoms: C_19  and  C_16 
ROOT
ATOM      1  C   UNL d   1       4.900  -0.385   0.982  0.00  0.00     0.098 C 
ATOM      2  C   UNL d   1       5.003   0.963   1.329  0.00  0.00     0.085 C 
ATOM      3  C   UNL d   1       6.359   1.305   1.761  0.00  0.00    -0.021 C 
ATOM      4  C   UNL d   1       7.151   0.178   1.780  0.00  0.00    -0.007 C 
ATOM      5  S   UNL d   1       6.458  -1.089   0.935  0.00  0.00    -0.075 SA
ATOM      6  C   UNL d   1       3.895   1.882   1.328  0.00  0.00     0.103 C 
ATOM      7  N   UNL d   1       2.995   2.625   1.331  0.00  0.00    -0.191 NA
ATOM      8  C   UNL d   1       6.924   2.616   2.240  0.00  0.00     0.042 C 
ATOM      9  C   UNL d   1       8.512   0.010   2.365  0.00  0.00     0.051 C 
ATOM     10  C   UNL d   1       8.473   2.556   2.337  0.00  0.00     0.009 C 
ATOM     11  C   UNL d   1       9.007   1.292   3.050  0.00  0.00    -0.014 C 
ATOM     12  C   UNL d   1       8.679   1.297   4.546  0.00  0.00     0.010 C 
ENDROOT
BRANCH   1  13
ATOM     13  N   UNL d   1       3.796  -1.206   0.707  0.00  0.00    -0.319 N 
ATOM     14  C   UNL d   1       3.898  -2.574   0.435  0.00  0.00     0.251 C 
ATOM     15  O   UNL d   1       4.936  -3.201   0.212  0.00  0.00    -0.271 OA
ATOM     16  H   UNL d   1       2.859  -0.822   0.809  0.00  0.00     0.169 HD
BRANCH  14  17
ATOM     17  C   UNL d   1       2.629  -3.400   0.529  0.00  0.00     0.375 C 
BRANCH  17  18
ATOM     18  N   UNL d   1       1.442  -2.914  -0.195  0.00  0.00     0.105 N 
BRANCH  18  19
ATOM     19  C   UNL d   1       1.684  -2.474  -1.585  0.00  0.00     0.311 C 
BRANCH  19  20
ATOM     20  C   UNL d   1       2.328  -3.417  -2.585  0.00  0.00    -0.030 A 
ATOM     21  C   UNL d   1       1.549  -4.279  -3.375  0.00  0.00     0.009 A 
ATOM     22  C   UNL d   1       2.130  -5.029  -4.404  0.00  0.00     0.001 A 
ATOM     23  C   UNL d   1       3.496  -4.934  -4.657  0.00  0.00     0.000 A 
ATOM     24  C   UNL d   1       4.287  -4.105  -3.867  0.00  0.00     0.001 A 
ATOM     25  C   UNL d   1       3.707  -3.353  -2.842  0.00  0.00     0.009 A 
ENDBRANCH  19  20
ENDBRANCH  18  19
BRANCH  18  26
ATOM     26  C   UNL d   1       0.398  -3.972  -0.151  0.00  0.00     0.311 C 
BRANCH  26  27
ATOM     27  C   UNL d   1       0.007  -4.393   1.257  0.00  0.00    -0.030 A 
ATOM     28  C   UNL d   1      -0.573  -3.474   2.142  0.00  0.00     0.009 A 
ATOM     29  C   UNL d   1      -0.867  -3.845   3.457  0.00  0.00     0.001 A 
ATOM     30  C   UNL d   1      -0.591  -5.138   3.899  0.00  0.00     0.000 A 
ATOM     31  C   UNL d   1      -0.030  -6.066   3.026  0.00  0.00     0.001 A 
ATOM     32  C   UNL d   1       0.266  -5.698   1.711  0.00  0.00     0.009 A 
ENDBRANCH  26  27
ENDBRANCH  18  26
ENDBRANCH  17  18
ENDBRANCH  14  17
ENDBRANCH   1  13
TORSDOF 7
