REMARK  9 active torsions:
REMARK  status: ('A' for Active; 'I' for Inactive)
REMARK    1  A    between atoms: C_4  and  C_1 
REMARK    2  A    between atoms: C_6  and  N_2 
REMARK    3  A    between atoms: N_3  and  C_5 
REMARK    4  A    between atoms: C_7  and  N_12 
REMARK    5  A    between atoms: N_15  and  C_7 
REMARK    6  A    between atoms: N_12  and  C_27 
REMARK    7  A    between atoms: C_29  and  N_15 
REMARK    8  A    between atoms: C_30  and  C_29 
REMARK    9  A    between atoms: C_31  and  C_30 
ROOT
ATOM      1  C   UNL d   1      -1.529  -8.949   2.132  0.00  0.00     0.103 A 
ATOM      2  N   UNL d   1      -2.166  -9.888   1.404  0.00  0.00    -0.350 N 
ATOM      3  HN  UNL d   1      -2.305  -9.767   0.401  1.00  0.00     0.166 HD
ATOM      4  C   UNL d   1      -1.356  -9.117   3.509  0.00  0.00     0.051 A 
ATOM      5  C   UNL d   1      -2.620 -11.006   2.048  0.00  0.00     0.119 A 
ATOM      6  C   UNL d   1      -2.499 -11.233   3.414  0.00  0.00     0.050 A 
ATOM      7  C   UNL d   1      -1.862 -10.248   4.155  0.00  0.00     0.035 A 
ENDROOT
BRANCH   1   8
ATOM      8  N   UNL d   1      -1.123  -7.743   1.554  0.00  0.00    -0.364 N 
ATOM      9  C   UNL d   1      -1.819  -7.341   0.314  0.00  0.00     0.144 C 
ATOM     10  C   UNL d   1      -1.148  -7.851  -0.982  0.00  0.00     0.144 C 
ATOM     11  N   UNL d   1       0.303  -7.585  -0.991  0.00  0.00    -0.364 N 
ATOM     12  C   UNL d   1       0.992  -8.063   0.223  0.00  0.00     0.144 C 
ATOM     13  C   UNL d   1       0.341  -7.512   1.511  0.00  0.00     0.144 C 
BRANCH  11  14
ATOM     14  C   UNL d   1       0.882  -6.587  -1.749  0.00  0.00     0.103 A 
ATOM     15  C   UNL d   1       0.416  -6.282  -3.030  0.00  0.00     0.049 A 
ATOM     16  C   UNL d   1       1.086  -5.352  -3.833  0.00  0.00     0.021 A 
ATOM     17  C   UNL d   1       2.229  -4.722  -3.353  0.00  0.00     0.063 A 
ATOM     18  C   UNL d   1       2.626  -5.056  -2.070  0.00  0.00     0.106 A 
ATOM     19  N   UNL d   1       1.984  -5.956  -1.279  0.00  0.00    -0.352 N 
ATOM     20  HN  UNL d   1       2.329  -6.155  -0.340  1.00  0.00     0.166 HD
BRANCH  17  21
ATOM     21  C   UNL d   1       3.016  -3.763  -4.188  0.00  0.00     0.418 C 
ATOM     22  F   UNL d   1       4.066  -3.193  -3.533  0.00  0.00    -0.166 F 
ATOM     23  F   UNL d   1       2.261  -2.727  -4.650  0.00  0.00    -0.166 F 
ATOM     24  F   UNL d   1       3.549  -4.352  -5.296  0.00  0.00    -0.166 F 
ENDBRANCH  17  21
ENDBRANCH  11  14
ENDBRANCH   1   8
BRANCH   6  25
ATOM     25  N   UNL d   1      -3.081 -12.322   4.100  0.00  0.00    -0.332 N 
ATOM     26  H   UNL d   1      -3.138 -12.235   5.106  0.00  0.00     0.168 HD
BRANCH  25  27
ATOM     27  C   UNL d   1      -3.365 -13.580   3.637  0.00  0.00     0.172 C 
ATOM     28  S   UNL d   1      -2.578 -14.413   2.424  0.00  0.00    -0.041 SA
BRANCH  27  29
ATOM     29  N   UNL d   1      -4.383 -14.226   4.288  0.00  0.00    -0.367 N 
ATOM     30  H   UNL d   1      -4.564 -15.151   3.912  0.00  0.00     0.161 HD
BRANCH  29  31
ATOM     31  C   UNL d   1      -5.486 -13.604   5.011  0.00  0.00     0.126 C 
BRANCH  31  32
ATOM     32  C   UNL d   1      -6.412 -12.776   4.094  0.00  0.00    -0.001 C 
ATOM     33  C   UNL d   1      -7.466 -12.065   4.948  0.00  0.00     0.011 C 
BRANCH  32  34
ATOM     34  C   UNL d   1      -7.064 -13.657   3.008  0.00  0.00     0.001 C 
ATOM     35  C   UNL d   1      -7.828 -12.859   1.960  0.00  0.00     0.005 C 
ENDBRANCH  32  34
ENDBRANCH  31  32
ENDBRANCH  29  31
ENDBRANCH  27  29
ENDBRANCH  25  27
ENDBRANCH   6  25
TORSDOF 9
