REMARK  7 active torsions:
REMARK  status: ('A' for Active; 'I' for Inactive)
REMARK       I    between atoms: N_2  and  C_4 
REMARK    1  A    between atoms: C_3  and  N_2 
REMARK    2  A    between atoms: C_4  and  C_12 
REMARK    3  A    between atoms: S_6  and  C_7 
REMARK    4  A    between atoms: C_12  and  S_6 
REMARK    5  A    between atoms: C_21  and  C_14 
REMARK    6  A    between atoms: C_22  and  C_21 
REMARK    7  A    between atoms: C_23  and  C_22 
ROOT
ATOM      1  N   UNL d   1      -0.902   6.089   0.078  0.00  0.00    -0.326 N 
ATOM      2  C   UNL d   1      -0.673   7.384  -0.334  0.00  0.00     0.231 C 
ATOM      3  O   UNL d   1      -1.562   8.196  -0.611  0.00  0.00    -0.272 OA
ATOM      4  H   UNL d   1      -0.113   5.598   0.484  0.00  0.00     0.169 HD
ENDROOT
BRANCH   1   5
ATOM      5  C   UNL d   1      -2.157   5.436   0.085  0.00  0.00     0.040 A 
ATOM      6  C   UNL d   1      -2.405   4.378   0.979  0.00  0.00    -0.035 A 
ATOM      7  C   UNL d   1      -3.636   3.690   0.906  0.00  0.00     0.016 A 
ATOM      8  C   UNL d   1      -1.456   3.964   2.070  0.00  0.00     0.050 C 
ATOM      9  C   UNL d   1      -4.627   4.046  -0.018  0.00  0.00    -0.058 A 
ATOM     10  C   UNL d   1      -4.375   5.111  -0.882  0.00  0.00     0.009 A 
ATOM     11  C   UNL d   1      -3.156   5.797  -0.829  0.00  0.00     0.030 A 
BRANCH   9  12
ATOM     12  C   UNL d   1      -5.925   3.279  -0.112  0.00  0.00     0.038 C 
BRANCH  12  13
ATOM     13  C   UNL d   1      -6.782   3.291   1.158  0.00  0.00     0.004 C 
BRANCH  13  14
ATOM     14  C   UNL d   1      -7.338   4.676   1.495  0.00  0.00    -0.004 C 
ATOM     15  C   UNL d   1      -8.220   4.631   2.734  0.00  0.00     0.005 C 
ENDBRANCH  13  14
ENDBRANCH  12  13
ENDBRANCH   9  12
ENDBRANCH   1   5
BRANCH   2  16
ATOM     16  C   UNL d   1       0.768   7.866  -0.323  0.00  0.00     0.182 C 
BRANCH  16  17
ATOM     17  S   UNL d   1       2.024   6.556  -0.472  0.00  0.00    -0.119 SA
BRANCH  17  18
ATOM     18  C   UNL d   1       3.459   7.614  -0.747  0.00  0.00     0.024 A 
ATOM     19  C   UNL d   1       4.070   8.403   0.252  0.00  0.00     0.072 A 
ATOM     20  C   UNL d   1       5.133   9.256  -0.090  0.00  0.00     0.057 A 
ATOM     21 CL   UNL d   1       3.533   8.305   1.903  0.00  0.00    -0.081 Cl
ATOM     22 CL   UNL d   1       5.904  10.293   1.061  0.00  0.00    -0.083 Cl
ATOM     23  C   UNL d   1       5.599   9.312  -1.408  0.00  0.00     0.026 A 
ATOM     24  C   UNL d   1       5.021   8.511  -2.388  0.00  0.00     0.003 A 
ATOM     25  C   UNL d   1       3.957   7.665  -2.058  0.00  0.00     0.020 A 
ENDBRANCH  17  18
ENDBRANCH  16  17
ENDBRANCH   2  16
TORSDOF 7
