REMARK  7 active torsions:
REMARK  status: ('A' for Active; 'I' for Inactive)
REMARK    1  A    between atoms: C_12  and  C_3 
REMARK    2  A    between atoms: N_13  and  C_7 
REMARK    3  A    between atoms: C_16  and  N_10 
REMARK    4  A    between atoms: C_14  and  C_11 
REMARK    5  A    between atoms: O_20  and  C_12 
REMARK    6  A    between atoms: C_19  and  N_13 
REMARK    7  A    between atoms: C_24  and  O_20 
ROOT
ATOM      1  N   UNL d   1      -0.205  -0.661  -0.129  0.00  0.00    -0.085 N 
ATOM      2  C   UNL d   1      -0.331   0.673  -0.054  0.00  0.00     0.717 A 
ATOM      3  C   UNL d   1      -1.450  -1.189   0.030  0.00  0.00     0.223 A 
ATOM      4  N   UNL d   1       0.707   1.438  -0.145  0.00  0.00    -0.173 N 
ATOM      5  HN  UNL d   1       0.595   2.445  -0.262  1.00  0.00     0.186 HD
ATOM      6  C   UNL d   1       0.939  -1.234  -0.576  0.00  0.00     0.286 C 
ATOM      7  C   UNL d   1       1.986   0.870  -0.082  0.00  0.00     0.141 C 
ATOM      8  N   UNL d   1      -2.390  -0.306   0.202  0.00  0.00    -0.258 N 
ATOM      9  HN  UNL d   1      -3.386  -0.455   0.366  1.00  0.00     0.190 HD
ATOM     10  N   UNL d   1      -1.687   0.899   0.105  0.00  0.00    -0.084 N 
ATOM     11  C   UNL d   1       2.138  -0.483  -0.169  0.00  0.00     0.123 C 
ATOM     12  O   UNL d   1       0.988  -2.141  -1.401  0.00  0.00    -0.266 OA
ENDROOT
BRANCH   7  13
ATOM     13  N   UNL d   1       3.095   1.711   0.113  0.00  0.00    -0.341 N 
ATOM     14  H   UNL d   1       3.995   1.245  -0.022  0.00  0.00     0.167 HD
BRANCH  13  15
ATOM     15  C   UNL d   1       3.105   3.104  -0.160  0.00  0.00     0.033 A 
ATOM     16  C   UNL d   1       2.079   3.954   0.277  0.00  0.00     0.029 A 
ATOM     17  C   UNL d   1       1.999   5.286  -0.141  0.00  0.00     0.002 A 
ATOM     18  C   UNL d   1       2.966   5.804  -0.994  0.00  0.00     0.000 A 
ATOM     19  C   UNL d   1       4.026   4.995  -1.401  0.00  0.00     0.002 A 
ATOM     20  C   UNL d   1       4.096   3.656  -0.985  0.00  0.00     0.029 A 
ENDBRANCH  13  15
ENDBRANCH   7  13
BRANCH  11  21
ATOM     21  C   UNL d   1       3.375  -1.259   0.142  0.00  0.00     0.165 C 
ATOM     22  O   UNL d   1       4.476  -0.710   0.168  0.00  0.00    -0.292 OA
ATOM     23  C   UNL d   1       3.207  -2.710   0.577  0.00  0.00     0.097 C 
ENDBRANCH  11  21
BRANCH  10  24
ATOM     24  C   UNL d   1      -2.405   2.116   0.106  0.00  0.00     0.074 A 
ATOM     25  C   UNL d   1      -1.822   3.336  -0.267  0.00  0.00     0.032 A 
ATOM     26  C   UNL d   1      -2.568   4.520  -0.289  0.00  0.00     0.002 A 
ATOM     27  C   UNL d   1      -3.913   4.508   0.067  0.00  0.00     0.000 A 
ATOM     28  C   UNL d   1      -4.514   3.314   0.448  0.00  0.00     0.002 A 
ATOM     29  C   UNL d   1      -3.767   2.135   0.465  0.00  0.00     0.032 A 
ENDBRANCH  10  24
BRANCH   3  30
ATOM     30  C   UNL d   1      -1.602  -2.681   0.073  0.00  0.00     0.330 C 
ATOM     31  O   UNL d   1      -0.755  -3.385   0.595  0.00  0.00    -0.256 OA
BRANCH  30  32
ATOM     32  O   UNL d   1      -2.754  -3.052  -0.509  0.00  0.00    -0.316 OA
BRANCH  32  33
ATOM     33  C   UNL d   1      -2.971  -4.467  -0.595  0.00  0.00     0.175 C 
ATOM     34  C   UNL d   1      -3.394  -5.051   0.742  0.00  0.00     0.034 C 
ENDBRANCH  32  33
ENDBRANCH  30  32
ENDBRANCH   3  30
TORSDOF 7
