REMARK  5 active torsions:
REMARK  status: ('A' for Active; 'I' for Inactive)
REMARK    1  A    between atoms: C_2  and  C_1 
REMARK       I    between atoms: N_6  and  C_2 
REMARK    2  A    between atoms: O_9  and  C_3 
REMARK    3  A    between atoms: C_4  and  C_5 
REMARK    4  A    between atoms: C_14  and  N_6 
REMARK    5  A    between atoms: C_15  and  O_9 
ROOT
ATOM      1  C   UNL d   1       1.147   1.486   0.319  0.00  0.00     0.098 C 
ATOM      2  C   UNL d   1      -0.226   1.133   0.174  0.00  0.00     0.164 C 
ATOM      3  C   UNL d   1       2.020   0.365   0.296  0.00  0.00     0.069 C 
ATOM      4  N   UNL d   1      -0.704  -0.152   0.230  0.00  0.00    -0.346 N 
ATOM      5  HN  UNL d   1      -1.709  -0.323   0.247  1.00  0.00     0.167 HD
ATOM      6  C   UNL d   1       0.144  -1.172   0.262  0.00  0.00     0.091 C 
ATOM      7  C   UNL d   1       1.493  -0.961   0.257  0.00  0.00     0.034 C 
ENDROOT
BRANCH   1   8
ATOM      8  C   UNL d   1       1.548   2.980   0.473  0.00  0.00     0.261 C 
ATOM      9  N   UNL d   1       2.766   3.319   1.100  0.00  0.00    -0.323 N 
ATOM     10  H   UNL d   1       3.418   2.574   1.313  0.00  0.00     0.169 HD
ATOM     11  O   UNL d   1       0.772   3.824   0.076  0.00  0.00    -0.267 OA
BRANCH   9  12
ATOM     12  C   UNL d   1       3.280   4.612   1.481  0.00  0.00     0.035 A 
ATOM     13  C   UNL d   1       2.621   5.830   1.299  0.00  0.00     0.031 A 
ATOM     14  C   UNL d   1       3.161   7.042   1.801  0.00  0.00     0.026 A 
ATOM     15  C   UNL d   1       4.370   7.048   2.493  0.00  0.00     0.034 A 
ATOM     16  C   UNL d   1       5.070   5.859   2.640  0.00  0.00     0.026 A 
ATOM     17 CL   UNL d   1       4.987   8.507   3.168  0.00  0.00    -0.084 Cl
ATOM     18  C   UNL d   1       4.534   4.659   2.130  0.00  0.00     0.031 A 
ENDBRANCH   9  12
ENDBRANCH   1   8
BRANCH   2  19
ATOM     19  O   UNL d   1      -1.222   2.068  -0.096  0.00  0.00    -0.293 OA
BRANCH  19  20
ATOM     20  C   UNL d   1      -2.312   1.596  -0.832  0.00  0.00     0.077 A 
ATOM     21  C   UNL d   1      -3.600   1.747  -0.310  0.00  0.00     0.037 A 
ATOM     22  C   UNL d   1      -4.718   1.312  -1.044  0.00  0.00     0.003 A 
ATOM     23  C   UNL d   1      -4.554   0.730  -2.300  0.00  0.00     0.000 A 
ATOM     24  C   UNL d   1      -3.273   0.563  -2.821  0.00  0.00     0.003 A 
ATOM     25  C   UNL d   1      -2.156   1.001  -2.094  0.00  0.00     0.037 A 
ENDBRANCH  19  20
ENDBRANCH   2  19
BRANCH   3  26
ATOM     26  C   UNL d   1       3.519   0.355   0.210  0.00  0.00     0.418 C 
ATOM     27  F   UNL d   1       4.127   1.558   0.262  0.00  0.00    -0.166 F 
ATOM     28  F   UNL d   1       4.067  -0.372   1.224  0.00  0.00    -0.166 F 
ATOM     29  F   UNL d   1       3.954  -0.236  -0.938  0.00  0.00    -0.166 F 
ENDBRANCH   3  26
TORSDOF 5
