REMARK  6 active torsions:
REMARK  status: ('A' for Active; 'I' for Inactive)
REMARK    1  A    between atoms: C_8  and  C_1 
REMARK    2  A    between atoms: C_9  and  C_1 
REMARK    3  A    between atoms: C_2  and  C_5 
REMARK    4  A    between atoms: C_3  and  C_6 
REMARK    5  A    between atoms: N_10  and  C_4 
REMARK    6  A    between atoms: C_11  and  N_10 
ROOT
ATOM      1  C   UNL d   1      -1.469  -1.015  -5.077  0.00  0.00     0.050 A 
ATOM      2  C   UNL d   1       0.070  -2.898  -5.239  0.00  0.00     0.050 A 
ATOM      3  C   UNL d   1      -1.048  -2.193  -5.709  0.00  0.00     0.032 A 
ATOM      4  C   UNL d   1       0.374  -1.223  -3.481  0.00  0.00     0.033 A 
ATOM      5  C   UNL d   1      -0.758  -0.554  -3.957  0.00  0.00     0.045 A 
ATOM      6  C   UNL d   1       0.778  -2.393  -4.135  0.00  0.00     0.045 A 
ENDROOT
BRANCH   4   7
ATOM      7  N   UNL d   1       1.039  -0.841  -2.308  0.00  0.00    -0.365 N 
ATOM      8  H   UNL d   1       2.045  -1.036  -2.265  0.00  0.00     0.165 HD
BRANCH   7   9
ATOM      9  C   UNL d   1       0.517  -0.204  -1.205  0.00  0.00     0.107 C 
ATOM     10  C   UNL d   1       1.146   0.165  -0.072  0.00  0.00     0.070 C 
BRANCH  10  11
ATOM     11  C   UNL d   1       0.365   0.800   1.034  0.00  0.00     0.160 C 
ATOM     12  O   UNL d   1       0.939   1.552   1.828  0.00  0.00    -0.293 OA
ATOM     13  C   UNL d   1      -1.111   0.522   1.206  0.00  0.00     0.097 C 
ENDBRANCH  10  11
BRANCH  10  14
ATOM     14  C   UNL d   1       2.630  -0.060   0.019  0.00  0.00     0.160 C 
ATOM     15  O   UNL d   1       3.295  -0.292  -0.998  0.00  0.00    -0.293 OA
ATOM     16  C   UNL d   1       3.316  -0.059   1.360  0.00  0.00     0.097 C 
ENDBRANCH  10  14
ENDBRANCH   7   9
ENDBRANCH   4   7
BRANCH   1  17
ATOM     17  C   UNL d   1      -2.674  -0.245  -5.557  0.00  0.00     0.417 C 
ATOM     18  F   UNL d   1      -3.281  -0.803  -6.639  0.00  0.00    -0.166 F 
ATOM     19  F   UNL d   1      -3.636  -0.145  -4.598  0.00  0.00    -0.166 F 
ATOM     20  F   UNL d   1      -2.368   1.032  -5.913  0.00  0.00    -0.166 F 
ENDBRANCH   1  17
BRANCH   2  21
ATOM     21  C   UNL d   1       0.496  -4.203  -5.867  0.00  0.00     0.417 C 
ATOM     22  F   UNL d   1      -0.312  -4.602  -6.888  0.00  0.00    -0.166 F 
ATOM     23  F   UNL d   1       1.754  -4.151  -6.382  0.00  0.00    -0.166 F 
ATOM     24  F   UNL d   1       0.497  -5.230  -4.972  0.00  0.00    -0.166 F 
ENDBRANCH   2  21
TORSDOF 6
