REMARK  6 active torsions:
REMARK  status: ('A' for Active; 'I' for Inactive)
REMARK    1  A    between atoms: C_4  and  S_1 
REMARK    2  A    between atoms: N_8  and  S_1 
REMARK    3  A    between atoms: S_2  and  C_3 
REMARK    4  A    between atoms: C_16  and  S_2 
REMARK    5  A    between atoms: C_19  and  N_8 
REMARK    6  A    between atoms: C_18  and  C_19 
ROOT
ATOM      1  S   UNL d   1       1.146  -0.033  -0.111  0.00  0.00     0.248 S 
ATOM      2  O   UNL d   1       0.590   0.559  -1.306  0.00  0.00    -0.205 OA
ATOM      3  O   UNL d   1       2.562  -0.284   0.034  0.00  0.00    -0.205 OA
ENDROOT
BRANCH   1   4
ATOM      4  C   UNL d   1       0.346  -1.616   0.017  0.00  0.00     0.116 A 
ATOM      5  S   UNL d   1       0.690  -2.549   1.406  0.00  0.00    -0.065 SA
ATOM      6  C   UNL d   1      -0.381  -3.798   0.923  0.00  0.00     0.106 A 
ATOM      7  C   UNL d   1      -0.992  -3.496  -0.282  0.00  0.00     0.033 A 
ATOM      8  C   UNL d   1      -0.555  -2.249  -0.813  0.00  0.00     0.034 A 
BRANCH   6   9
ATOM      9  S   UNL d   1      -0.511  -5.218   1.996  0.00  0.00     0.213 S 
ATOM     10  O   UNL d   1      -0.321  -4.740   3.353  0.00  0.00    -0.217 OA
ATOM     11  O   UNL d   1      -1.747  -5.864   1.591  0.00  0.00    -0.217 OA
BRANCH   9  12
ATOM     12  C   UNL d   1       0.841  -6.273   1.556  0.00  0.00     0.064 A 
ATOM     13  C   UNL d   1       2.063  -6.130   2.220  0.00  0.00     0.024 A 
ATOM     14  C   UNL d   1       3.129  -6.962   1.883  0.00  0.00     0.002 A 
ATOM     15  C   UNL d   1       2.969  -7.942   0.904  0.00  0.00     0.000 A 
ATOM     16  C   UNL d   1       1.740  -8.100   0.261  0.00  0.00     0.002 A 
ATOM     17  C   UNL d   1       0.669  -7.265   0.586  0.00  0.00     0.024 A 
ENDBRANCH   9  12
ENDBRANCH   6   9
ENDBRANCH   1   4
BRANCH   1  18
ATOM     18  N   UNL d   1       0.651   0.881   1.222  0.00  0.00    -0.213 NA
ATOM     19  H   UNL d   1       1.432   1.445   1.572  0.00  0.00     0.140 HD
BRANCH  18  20
ATOM     20  C   UNL d   1      -0.589   1.667   1.010  0.00  0.00     0.139 C 
BRANCH  20  21
ATOM     21  C   UNL d   1      -0.955   2.453   2.282  0.00  0.00     0.167 C 
ATOM     22  O   UNL d   1       0.109   3.355   2.645  0.00  0.00    -0.340 OA
ATOM     23  C   UNL d   1       0.089   4.512   1.908  0.00  0.00     0.102 A 
ATOM     24  C   UNL d   1       1.240   5.296   1.946  0.00  0.00     0.039 A 
ATOM     25  C   UNL d   1      -0.997   4.896   1.114  0.00  0.00     0.102 A 
ATOM     26  C   UNL d   1       1.329   6.436   1.146  0.00  0.00     0.003 A 
ATOM     27  C   UNL d   1       0.265   6.792   0.316  0.00  0.00     0.003 A 
ATOM     28  C   UNL d   1      -0.901   6.024   0.303  0.00  0.00     0.039 A 
ATOM     29  O   UNL d   1      -2.167   4.183   1.048  0.00  0.00    -0.346 OA
ATOM     30  C   UNL d   1      -2.261   3.224   2.109  0.00  0.00     0.209 C 
ENDBRANCH  20  21
ENDBRANCH  18  20
ENDBRANCH   1  18
TORSDOF 6
