REMARK  2 active torsions:
REMARK  status: ('A' for Active; 'I' for Inactive)
REMARK    1  A    between atoms: C_12  and  C_3 
REMARK       I    between atoms: C_8  and  N_9 
REMARK       I    between atoms: N_10  and  C_8 
REMARK    2  A    between atoms: C_11  and  N_10 
ROOT
ATOM      1  S   UNL d   1      -1.798   0.661  -0.018  0.00  0.00    -0.037 SA
ATOM      2  C   UNL d   1      -0.169   1.087   0.273  0.00  0.00     0.169 A 
ATOM      3  C   UNL d   1      -1.457  -0.838   0.748  0.00  0.00     0.074 A 
ATOM      4  N   UNL d   1      -0.207  -0.958   1.150  0.00  0.00    -0.296 N 
ATOM      5  HN  UNL d   1       0.162  -1.787   1.616  1.00  0.00     0.187 HD
ATOM      6  N   UNL d   1       0.547   0.165   0.870  0.00  0.00    -0.279 N 
ATOM      7  HN  UNL d   1       1.536   0.265   1.099  1.00  0.00     0.189 HD
ATOM      8  C   UNL d   1       1.468   2.856  -0.104  0.00  0.00     0.327 C 
ATOM      9  N   UNL d   1       0.206   2.329  -0.141  0.00  0.00    -0.287 N 
ATOM     10  N   UNL d   1       2.437   2.121   0.526  0.00  0.00    -0.303 N 
ATOM     11  O   UNL d   1       1.642   3.956  -0.623  0.00  0.00    -0.247 OA
ATOM     12  H   UNL d   1      -0.488   2.915  -0.586  0.00  0.00     0.172 HD
ATOM     13  H   UNL d   1       2.153   1.403   1.183  0.00  0.00     0.171 HD
ENDROOT
BRANCH  10  14
ATOM     14  C   UNL d   1       3.767   2.468   0.515  0.00  0.00     0.077 A 
ATOM     15  S   UNL d   1       4.672   1.820   1.800  0.00  0.00    -0.084 SA
ATOM     16  C   UNL d   1       6.097   2.603   1.259  0.00  0.00     0.052 A 
ATOM     17  C   UNL d   1       5.893   3.279   0.075  0.00  0.00     0.010 A 
ATOM     18  C   UNL d   1       4.528   3.226  -0.342  0.00  0.00     0.038 A 
ENDBRANCH  10  14
BRANCH   3  19
ATOM     19  C   UNL d   1      -2.447  -1.976   1.015  0.00  0.00     0.044 A 
ATOM     20  C   UNL d   1      -3.499  -2.364  -0.003  0.00  0.00     0.012 A 
ATOM     21  C   UNL d   1      -3.915  -1.676   1.251  0.00  0.00     0.012 A 
ENDBRANCH   3  19
TORSDOF 2
