REMARK  2 active torsions:
REMARK  status: ('A' for Active; 'I' for Inactive)
REMARK    1  A    between atoms: C_7  and  C_2 
REMARK    2  A    between atoms: O_15  and  C_12 
ROOT
ATOM      1  N   UNL d   1      -1.894   0.851  -0.540  0.00  0.00    -0.311 N 
ATOM      2  C   UNL d   1      -1.874  -0.418  -0.027  0.00  0.00     0.134 A 
ATOM      3  N   UNL d   1      -0.716  -0.778   0.454  0.00  0.00    -0.282 N 
ATOM      4  HN  UNL d   1      -0.473  -1.663   0.900  1.00  0.00     0.188 HD
ATOM      5  C   UNL d   1      -0.606   1.312  -0.388  0.00  0.00     0.194 A 
ATOM      6  N   UNL d   1       0.097   0.293   0.229  0.00  0.00    -0.274 N 
ATOM      7  S   UNL d   1       0.060   2.771  -0.809  0.00  0.00    -0.039 SA
ATOM      8  C   UNL d   1      -3.007   1.653  -1.022  0.00  0.00     0.160 C 
ATOM      9  H   UNL d   1       1.071   0.304   0.504  0.00  0.00     0.189 HD
ENDROOT
BRANCH   2  10
ATOM     10  C   UNL d   1      -3.051  -1.309   0.013  0.00  0.00     0.010 A 
ATOM     11  C   UNL d   1      -3.952  -1.398  -1.053  0.00  0.00     0.018 A 
ATOM     12  C   UNL d   1      -5.059  -2.244  -0.962  0.00  0.00     0.037 A 
ATOM     13  C   UNL d   1      -5.239  -3.027   0.173  0.00  0.00     0.065 A 
ATOM     14  C   UNL d   1      -4.323  -2.990   1.219  0.00  0.00     0.037 A 
ATOM     15  C   UNL d   1      -3.225  -2.130   1.137  0.00  0.00     0.018 A 
BRANCH  13  16
ATOM     16  O   UNL d   1      -6.334  -3.837   0.215  0.00  0.00    -0.361 OA
ATOM     17  H   UNL d   1      -6.321  -4.340   1.046  0.00  0.00     0.217 HD
ENDBRANCH  13  16
ENDBRANCH   2  10
TORSDOF 2
