REMARK  5 active torsions:
REMARK  status: ('A' for Active; 'I' for Inactive)
REMARK    1  A    between atoms: C_5  and  C_1 
REMARK       I    between atoms: C_2  and  N_4 
REMARK    2  A    between atoms: C_3  and  C_2 
REMARK    3  A    between atoms: N_4  and  C_20 
REMARK    4  A    between atoms: C_9  and  O_14 
REMARK    5  A    between atoms: O_14  and  C_15 
ROOT
ATOM      1  N   UNL d   1       1.609  -5.261  -2.869  0.00  0.00    -0.344 N 
ATOM      2  HN  UNL d   1       0.811  -5.879  -3.021  1.00  0.00     0.167 HD
ATOM      3  C   UNL d   1       1.863  -4.716  -1.660  0.00  0.00     0.148 A 
ATOM      4  C   UNL d   1       3.556  -4.093  -3.744  0.00  0.00     0.050 A 
ATOM      5  C   UNL d   1       2.463  -4.949  -3.869  0.00  0.00     0.119 A 
ATOM      6  C   UNL d   1       2.908  -3.835  -1.431  0.00  0.00     0.059 A 
ATOM      7  C   UNL d   1       3.765  -3.523  -2.489  0.00  0.00     0.035 A 
ENDROOT
BRANCH   3   8
ATOM      8  O   UNL d   1       1.050  -5.005  -0.569  0.00  0.00    -0.294 OA
BRANCH   8   9
ATOM      9  C   UNL d   1       0.233  -6.111  -0.633  0.00  0.00     0.078 A 
ATOM     10  C   UNL d   1       0.647  -7.343  -1.148  0.00  0.00     0.053 A 
ATOM     11  C   UNL d   1      -0.242  -8.425  -1.210  0.00  0.00     0.050 A 
ATOM     12  C   UNL d   1      -1.530  -8.275  -0.674  0.00  0.00     0.016 A 
ATOM     13  C   UNL d   1      -1.924  -7.063  -0.104  0.00  0.00     0.004 A 
ATOM     14  C   UNL d   1      -1.043  -5.981  -0.087  0.00  0.00     0.037 A 
BRANCH  11  15
ATOM     15  C   UNL d   1       0.167  -9.719  -1.865  0.00  0.00     0.417 C 
ATOM     16  F   UNL d   1       1.424  -9.697  -2.392  0.00  0.00    -0.166 F 
ATOM     17  F   UNL d   1      -0.658 -10.066  -2.893  0.00  0.00    -0.166 F 
ATOM     18  F   UNL d   1       0.146 -10.771  -1.000  0.00  0.00    -0.166 F 
ENDBRANCH  11  15
ENDBRANCH   8   9
ENDBRANCH   3   8
BRANCH   4  19
ATOM     19  N   UNL d   1       4.352  -3.856  -4.880  0.00  0.00    -0.321 N 
ATOM     20  C   UNL d   1       5.457  -3.027  -4.992  0.00  0.00     0.263 C 
ATOM     21  O   UNL d   1       5.944  -2.401  -4.055  0.00  0.00    -0.267 OA
ATOM     22  H   UNL d   1       4.078  -4.324  -5.737  0.00  0.00     0.169 HD
BRANCH  20  23
ATOM     23  C   UNL d   1       6.011  -2.926  -6.342  0.00  0.00     0.072 A 
ATOM     24  S   UNL d   1       5.402  -3.833  -7.665  0.00  0.00    -0.097 SA
ATOM     25  C   UNL d   1       6.503  -3.116  -8.758  0.00  0.00     0.050 A 
ATOM     26  C   UNL d   1       7.333  -2.212  -8.135  0.00  0.00     0.009 A 
ATOM     27  C   UNL d   1       7.056  -2.111  -6.741  0.00  0.00     0.025 A 
ENDBRANCH  20  23
ENDBRANCH   4  19
TORSDOF 5
