REMARK  4 active torsions:
REMARK  status: ('A' for Active; 'I' for Inactive)
REMARK    1  A    between atoms: C_19  and  N_5 
REMARK    2  A    between atoms: N_13  and  N_9 
REMARK    3  A    between atoms: N_10  and  C_15 
REMARK    4  A    between atoms: C_24  and  C_21 
ROOT
ATOM      1  C   UNL d   1      -0.177  -0.650   0.032  0.00  0.00     0.144 A 
ATOM      2  C   UNL d   1      -0.270   0.731   0.003  0.00  0.00     0.072 A 
ATOM      3  N   UNL d   1       0.969  -1.385   0.115  0.00  0.00    -0.335 N 
ATOM      4  HN  UNL d   1       0.995  -2.404   0.144  1.00  0.00     0.168 HD
ATOM      5  N   UNL d   1      -1.483  -1.137  -0.053  0.00  0.00    -0.239 N 
ATOM      6  C   UNL d   1       0.914   1.559   0.088  0.00  0.00     0.137 A 
ATOM      7  N   UNL d   1      -2.375  -0.102  -0.172  0.00  0.00    -0.302 N 
ATOM      8  HN  UNL d   1      -3.388  -0.165  -0.275  1.00  0.00     0.186 HD
ATOM      9  N   UNL d   1       2.090   0.774   0.112  0.00  0.00    -0.235 N 
ATOM     10  C   UNL d   1      -1.635   1.002  -0.125  0.00  0.00     0.127 A 
ATOM     11  C   UNL d   1       2.024  -0.626   0.153  0.00  0.00     0.210 A 
ATOM     12  N   UNL d   1       0.802   2.849   0.139  0.00  0.00    -0.383 N 
ATOM     13  HN  UNL d   1       1.593   3.491   0.187  1.00  0.00     0.157 HD
ATOM     14  H   UNL d   1      -0.177   3.142   0.125  0.00  0.00     0.157 HD
ENDROOT
BRANCH   9  15
ATOM     15  N   UNL d   1       3.354   1.329   0.303  0.00  0.00    -0.302 N 
ATOM     16  C   UNL d   1       3.610   2.443  -0.305  0.00  0.00     0.119 C 
ATOM     17  HN  UNL d   1       4.049   0.876   0.897  1.00  0.00     0.186 HD
BRANCH  16  18
ATOM     18  C   UNL d   1       4.888   3.147  -0.089  0.00  0.00    -0.019 A 
ATOM     19  C   UNL d   1       5.867   2.596   0.747  0.00  0.00     0.015 A 
ATOM     20  C   UNL d   1       7.075   3.265   0.945  0.00  0.00     0.037 A 
ATOM     21  C   UNL d   1       7.296   4.491   0.302  0.00  0.00     0.102 A 
ATOM     22  C   UNL d   1       6.312   5.053  -0.527  0.00  0.00     0.037 A 
ATOM     23  C   UNL d   1       5.104   4.376  -0.721  0.00  0.00     0.015 A 
BRANCH  21  24
ATOM     24  N   UNL d   1       8.571   5.190   0.496  0.00  0.00    -0.116 N 
ATOM     25  O   UNL d   1       9.412   4.660   1.238  0.00  0.00    -0.532 OA
ATOM     26  O   UNL d   1       8.735   6.265  -0.097  0.00  0.00    -0.532 OA
ENDBRANCH  21  24
ENDBRANCH  16  18
ENDBRANCH   9  15
BRANCH   5  27
ATOM     27  C   UNL d   1      -1.960  -2.483  -0.042  0.00  0.00     0.058 A 
ATOM     28  C   UNL d   1      -1.103  -3.573   0.155  0.00  0.00     0.031 A 
ATOM     29  C   UNL d   1      -1.603  -4.879   0.139  0.00  0.00     0.002 A 
ATOM     30  C   UNL d   1      -2.960  -5.108  -0.071  0.00  0.00     0.000 A 
ATOM     31  C   UNL d   1      -3.825  -4.032  -0.256  0.00  0.00     0.002 A 
ATOM     32  C   UNL d   1      -3.330  -2.726  -0.237  0.00  0.00     0.031 A 
ENDBRANCH   5  27
TORSDOF 4
