REMARK  1 active torsions:
REMARK  status: ('A' for Active; 'I' for Inactive)
REMARK    1  A    between atoms: C_4  and  N_2 
ROOT
ATOM      1  C   UNL d   1       3.087   1.191   0.134  0.00  0.00     0.040 A 
ATOM      2  C   UNL d   1       2.829   2.125   1.154  0.00  0.00    -0.035 A 
ATOM      3  C   UNL d   1       3.601   3.302   1.233  0.00  0.00     0.015 A 
ATOM      4  C   UNL d   1       4.183   1.416  -0.711  0.00  0.00     0.030 A 
ATOM      5  C   UNL d   1       4.642   3.550   0.332  0.00  0.00    -0.061 A 
ATOM      6  C   UNL d   1       4.940   2.587  -0.631  0.00  0.00     0.009 A 
ATOM      7  C   UNL d   1       1.761   1.910   2.192  0.00  0.00     0.050 C 
ATOM      8  C   UNL d   1       5.442   4.813   0.433  0.00  0.00     0.048 C 
ENDROOT
BRANCH   1   9
ATOM      9  N   UNL d   1       2.328   0.011   0.041  0.00  0.00    -0.337 N 
ATOM     10  C   UNL d   1       1.742  -0.360  -1.051  0.00  0.00     0.140 C 
ATOM     11  N   UNL d   1       1.023  -1.521  -1.134  0.00  0.00    -0.370 N 
ATOM     12  S   UNL d   1       1.688   0.477  -2.603  0.00  0.00    -0.093 SA
ATOM     13  C   UNL d   1       0.219  -1.682  -2.324  0.00  0.00     0.132 C 
ATOM     14  H   UNL d   1       0.685  -1.877  -0.248  0.00  0.00     0.161 HD
ATOM     15  C   UNL d   1       0.986  -0.980  -3.438  0.00  0.00     0.102 C 
ATOM     16  HN  UNL d   1       2.235  -0.577   0.869  1.00  0.00     0.168 HD
ENDBRANCH   1   9
TORSDOF 1
