REMARK  1 active torsions:
REMARK  status: ('A' for Active; 'I' for Inactive)
REMARK    1  A    between atoms: C_11  and  C_6 
ROOT
ATOM      1  N   UNL d   1       0.187  -1.174  -0.028  0.00  0.00    -0.307 N 
ATOM      2  C   UNL d   1       0.996  -0.082  -0.031  0.00  0.00     0.146 A 
ATOM      3  C   UNL d   1      -1.462   0.480  -0.045  0.00  0.00     0.078 A 
ATOM      4  C   UNL d   1      -1.169  -0.979  -0.077  0.00  0.00     0.264 A 
ATOM      5  S   UNL d   1       0.026   1.371  -0.062  0.00  0.00    -0.055 SA
ATOM      6  C   UNL d   1      -2.661   1.069   0.008  0.00  0.00     0.054 C 
ATOM      7  S   UNL d   1       2.650  -0.163  -0.018  0.00  0.00    -0.052 SA
ATOM      8  O   UNL d   1      -1.977  -1.887  -0.177  0.00  0.00    -0.267 OA
ATOM      9  H   UNL d   1       0.559  -2.111  -0.044  0.00  0.00     0.170 HD
ENDROOT
BRANCH   6  10
ATOM     10  C   UNL d   1      -3.933   0.364   0.086  0.00  0.00     0.033 A 
ATOM     11  N   UNL d   1      -4.389   0.135   1.337  0.00  0.00    -0.366 N 
ATOM     12  C   UNL d   1      -5.590  -0.476   1.444  0.00  0.00     0.088 A 
ATOM     13  HN  UNL d   1      -3.853   0.409   2.161  1.00  0.00     0.165 HD
ATOM     14  C   UNL d   1      -6.372  -0.837   0.359  0.00  0.00     0.017 A 
ATOM     15  C   UNL d   1      -5.886  -0.578  -0.917  0.00  0.00     0.004 A 
ATOM     16  C   UNL d   1      -4.641   0.028  -1.062  0.00  0.00     0.029 A 
ENDBRANCH   6  10
TORSDOF 1
