REMARK  11 active torsions:
REMARK  status: ('A' for Active; 'I' for Inactive)
REMARK       I    between atoms: N_2  and  C_1 
REMARK    1  A    between atoms: C_11  and  C_1 
REMARK    2  A    between atoms: C_4  and  N_2 
REMARK    3  A    between atoms: C_12  and  C_11 
REMARK    4  A    between atoms: C_19  and  C_12 
REMARK    5  A    between atoms: C_13  and  C_14 
REMARK    6  A    between atoms: C_14  and  C_18 
REMARK    7  A    between atoms: C_15  and  C_20 
REMARK    8  A    between atoms: C_16  and  C_15 
REMARK    9  A    between atoms: C_17  and  C_16 
REMARK   10  A    between atoms: C_18  and  C_17 
REMARK   11  A    between atoms: C_20  and  C_19 
ROOT
ATOM      1  C   UNL d   1       0.828   0.115  -0.358  0.00  0.00     0.222 C 
ATOM      2  N   UNL d   1       0.224  -1.086  -0.691  0.00  0.00    -0.327 N 
ATOM      3  O   UNL d   1       0.232   1.167  -0.137  0.00  0.00    -0.273 OA
ATOM      4  H   UNL d   1       0.790  -1.924  -0.668  0.00  0.00     0.169 HD
ENDROOT
BRANCH   1   5
ATOM      5  C   UNL d   1       2.355   0.106  -0.245  0.00  0.00     0.103 C 
BRANCH   5   6
ATOM      6  C   UNL d   1       3.064  -1.163  -0.693  0.00  0.00     0.009 C 
BRANCH   6   7
ATOM      7  C   UNL d   1       4.592  -1.059  -0.667  0.00  0.00     0.000 C 
BRANCH   7   8
ATOM      8  C   UNL d   1       5.161  -2.384  -1.176  0.00  0.00     0.000 C 
BRANCH   8   9
ATOM      9  C   UNL d   1       6.682  -2.451  -1.166  0.00  0.00     0.000 C 
BRANCH   9  10
ATOM     10  C   UNL d   1       7.132  -3.817  -1.694  0.00  0.00     0.000 C 
BRANCH  10  11
ATOM     11  C   UNL d   1       8.650  -3.939  -1.694  0.00  0.00     0.000 C 
BRANCH  11  12
ATOM     12  C   UNL d   1       9.110  -5.301  -2.217  0.00  0.00     0.000 C 
BRANCH  12  13
ATOM     13  C   UNL d   1      10.635  -5.374  -2.198  0.00  0.00    -0.000 C 
BRANCH  13  14
ATOM     14  C   UNL d   1      11.156  -6.714  -2.710  0.00  0.00    -0.005 C 
ATOM     15  C   UNL d   1      12.676  -6.746  -2.673  0.00  0.00     0.005 C 
ENDBRANCH  13  14
ENDBRANCH  12  13
ENDBRANCH  11  12
ENDBRANCH  10  11
ENDBRANCH   9  10
ENDBRANCH   8   9
ENDBRANCH   7   8
ENDBRANCH   6   7
ENDBRANCH   5   6
ENDBRANCH   1   5
BRANCH   2  16
ATOM     16  C   UNL d   1      -1.122  -1.284  -1.081  0.00  0.00     0.034 A 
ATOM     17  C   UNL d   1      -2.021  -0.240  -1.294  0.00  0.00     0.031 A 
ATOM     18  C   UNL d   1      -3.315  -0.496  -1.768  0.00  0.00     0.026 A 
ATOM     19  C   UNL d   1      -3.712  -1.801  -2.030  0.00  0.00     0.034 A 
ATOM     20  C   UNL d   1      -2.837  -2.858  -1.795  0.00  0.00     0.026 A 
ATOM     21 CL   UNL d   1      -5.282  -2.108  -2.662  0.00  0.00    -0.084 Cl
ATOM     22  C   UNL d   1      -1.542  -2.600  -1.323  0.00  0.00     0.031 A 
ENDBRANCH   2  16
TORSDOF 11
