REMARK  1 active torsions:
REMARK  status: ('A' for Active; 'I' for Inactive)
REMARK    1  A    between atoms: C_2  and  C_1 
ROOT
ATOM      1  C   UNL d   1      -1.636  -2.401   0.285  0.00  0.00     0.095 C 
ATOM      2  S   UNL d   1      -2.575  -1.933   1.784  0.00  0.00    -0.117 SA
ATOM      3  N   UNL d   1      -4.835  -2.873  -0.235  0.00  0.00    -0.326 N 
ATOM      4  C   UNL d   1      -3.734  -3.614  -0.580  0.00  0.00     0.223 C 
ATOM      5  C   UNL d   1      -2.467  -2.862  -0.907  0.00  0.00     0.123 C 
ATOM      6  C   UNL d   1      -3.884  -0.976   1.041  0.00  0.00     0.028 A 
ATOM      7  C   UNL d   1      -4.863  -1.534   0.199  0.00  0.00     0.051 A 
ATOM      8  O   UNL d   1      -3.832  -4.827  -0.768  0.00  0.00    -0.273 OA
ATOM      9  C   UNL d   1      -4.003   0.360   1.449  0.00  0.00     0.021 A 
ATOM     10  C   UNL d   1      -5.956  -0.755  -0.196  0.00  0.00     0.031 A 
ATOM     11  C   UNL d   1      -5.067   1.143   1.008  0.00  0.00     0.002 A 
ATOM     12  C   UNL d   1      -6.043   0.585   0.186  0.00  0.00     0.002 A 
ATOM     13  H   UNL d   1      -5.717  -3.352  -0.379  0.00  0.00     0.169 HD
ENDROOT
BRANCH   1  14
ATOM     14  C   UNL d   1      -0.671  -1.274  -0.075  0.00  0.00    -0.030 A 
ATOM     15  C   UNL d   1       0.646  -1.165   0.357  0.00  0.00    -0.013 A 
ATOM     16  S   UNL d   1       1.442   0.201  -0.309  0.00  0.00    -0.100 SA
ATOM     17  C   UNL d   1       1.423  -2.047   1.280  0.00  0.00     0.057 C 
ATOM     18  C   UNL d   1       0.040   0.717  -1.123  0.00  0.00    -0.020 A 
ATOM     19  C   UNL d   1      -1.014  -0.138  -0.896  0.00  0.00     0.023 A 
ATOM     20  C   UNL d   1       0.064   1.948  -1.962  0.00  0.00     0.056 C 
ENDBRANCH   1  14
TORSDOF 1
