REMARK  0 active torsions:
REMARK  status: ('A' for Active; 'I' for Inactive)
ROOT
ATOM      1  N   UNL d   1      -1.555   0.620   0.029  0.00  0.00    -0.202 N 
ATOM      2  C   UNL d   1      -1.531  -0.763  -0.028  0.00  0.00     0.153 A 
ATOM      3  C   UNL d   1      -0.411   1.439   0.070  0.00  0.00     0.276 A 
ATOM      4  C   UNL d   1       0.883   0.681   0.039  0.00  0.00     0.034 A 
ATOM      5  N   UNL d   1      -0.330  -1.386  -0.049  0.00  0.00    -0.342 N 
ATOM      6  N   UNL d   1      -2.830   1.106   0.043  0.00  0.00    -0.299 N 
ATOM      7  HN  UNL d   1      -3.131   2.079   0.082  1.00  0.00     0.186 HD
ATOM      8  C   UNL d   1      -2.839  -1.179  -0.049  0.00  0.00     0.107 A 
ATOM      9  C   UNL d   1       0.857  -0.671  -0.015  0.00  0.00     0.022 A 
ATOM     10  C   UNL d   1      -3.592   0.008  -0.006  0.00  0.00     0.134 A 
ATOM     11  C   UNL d   1      -3.314  -2.518  -0.102  0.00  0.00     0.105 C 
ATOM     12  N   UNL d   1      -3.684  -3.617  -0.145  0.00  0.00    -0.191 NA
ATOM     13  O   UNL d   1      -0.493   2.659   0.125  0.00  0.00    -0.266 OA
ATOM     14  C   UNL d   1       2.146   1.496   0.052  0.00  0.00     0.046 C 
ATOM     15  C   UNL d   1       2.136  -1.480  -0.033  0.00  0.00     0.058 C 
ATOM     16  C   UNL d   1       3.375   0.679  -0.355  0.00  0.00     0.005 C 
ATOM     17  C   UNL d   1       3.376  -0.672   0.350  0.00  0.00     0.006 C 
ATOM     18  H   UNL d   1      -0.244  -2.402  -0.093  0.00  0.00     0.167 HD
ENDROOT
TORSDOF 0
