REMARK  4 active torsions:
REMARK  status: ('A' for Active; 'I' for Inactive)
REMARK    1  A    between atoms: C_6  and  N_1 
REMARK    2  A    between atoms: C_10  and  C_2 
REMARK    3  A    between atoms: C_11  and  C_5 
REMARK    4  A    between atoms: N_9  and  C_8 
ROOT
ATOM      1  N   UNL d   1       0.848  -0.729   0.064  0.00  0.00    -0.232 N 
ATOM      2  C   UNL d   1      -0.460  -1.157   0.082  0.00  0.00     0.144 A 
ATOM      3  N   UNL d   1       0.925   0.629   0.098  0.00  0.00    -0.288 N 
ATOM      4  HN  UNL d   1       1.773   1.195   0.145  1.00  0.00     0.187 HD
ATOM      5  C   UNL d   1      -0.343   1.075   0.055  0.00  0.00     0.135 A 
ATOM      6  C   UNL d   1      -1.242  -0.016   0.036  0.00  0.00     0.072 A 
ENDROOT
BRANCH   1   7
ATOM      7  C   UNL d   1       2.044  -1.491  -0.104  0.00  0.00     0.160 A 
ATOM      8  C   UNL d   1       3.268  -1.049   0.385  0.00  0.00     0.148 A 
ATOM      9  C   UNL d   1       4.423  -1.810   0.163  0.00  0.00     0.041 A 
ATOM     10  C   UNL d   1       4.316  -2.997  -0.554  0.00  0.00     0.020 A 
ATOM     11  C   UNL d   1       3.068  -3.370  -1.023  0.00  0.00     0.090 A 
ATOM     12  N   UNL d   1       1.942  -2.643  -0.828  0.00  0.00    -0.349 N 
ATOM     13  HN  UNL d   1       1.047  -2.947  -1.210  1.00  0.00     0.167 HD
BRANCH   8  14
ATOM     14  N   UNL d   1       3.375   0.074   1.289  0.00  0.00    -0.112 N 
ATOM     15  O   UNL d   1       2.768  -0.012   2.358  0.00  0.00    -0.532 OA
ATOM     16  O   UNL d   1       4.158   0.982   0.960  0.00  0.00    -0.532 OA
ENDBRANCH   8  14
ENDBRANCH   1   7
BRANCH   2  17
ATOM     17  C   UNL d   1      -0.895  -2.561   0.226  0.00  0.00     0.434 C 
ATOM     18  F   UNL d   1       0.068  -3.469   0.498  0.00  0.00    -0.165 F 
ATOM     19  F   UNL d   1      -1.774  -2.659   1.263  0.00  0.00    -0.165 F 
ATOM     20  F   UNL d   1      -1.565  -2.986  -0.874  0.00  0.00    -0.165 F 
ENDBRANCH   2  17
BRANCH   5  21
ATOM     21  C   UNL d   1      -0.713   2.539   0.045  0.00  0.00     0.434 C 
ATOM     22  F   UNL d   1       0.358   3.372   0.089  0.00  0.00    -0.165 F 
ATOM     23  F   UNL d   1      -1.415   2.862  -1.075  0.00  0.00    -0.165 F 
ATOM     24  F   UNL d   1      -1.508   2.859   1.101  0.00  0.00    -0.165 F 
ENDBRANCH   5  21
TORSDOF 4
