REMARK  2 active torsions:
REMARK  status: ('A' for Active; 'I' for Inactive)
REMARK    1  A    between atoms: C_2  and  N_1 
REMARK    2  A    between atoms: C_4  and  C_3 
ROOT
ATOM      1  C   UNL d   1      -1.812  -0.025   0.138  0.00  0.00     0.008 A 
ATOM      2  S   UNL d   1      -2.309  -1.623  -0.264  0.00  0.00    -0.083 SA
ATOM      3  C   UNL d   1      -3.042  -1.838   1.247  0.00  0.00     0.052 A 
ATOM      4  C   UNL d   1      -2.954  -0.735   2.053  0.00  0.00     0.028 A 
ATOM      5  C   UNL d   1      -2.248   0.323   1.405  0.00  0.00     0.021 A 
ATOM      6 BR   UNL d   1      -3.898  -3.425   1.753  0.00  0.00    -0.043 Br
ENDROOT
BRANCH   1   7
ATOM      7  C   UNL d   1      -1.089   0.765  -0.797  0.00  0.00     0.050 C 
ATOM      8  C   UNL d   1       0.256   0.727  -0.849  0.00  0.00     0.078 C 
ATOM      9  C   UNL d   1       1.198  -0.115  -0.052  0.00  0.00     0.075 C 
BRANCH   8  10
ATOM     10  N   UNL d   1       0.889   1.636  -1.800  0.00  0.00    -0.120 N 
ATOM     11  O   UNL d   1       0.259   1.941  -2.821  0.00  0.00    -0.532 OA
ATOM     12  O   UNL d   1       2.018   2.062  -1.511  0.00  0.00    -0.532 OA
ENDBRANCH   8  10
ENDBRANCH   1   7
TORSDOF 2
