REMARK  4 active torsions:
REMARK  status: ('A' for Active; 'I' for Inactive)
REMARK    1  A    between atoms: N_2  and  S_1 
REMARK    2  A    between atoms: C_4  and  S_1 
REMARK    3  A    between atoms: C_3  and  C_6 
REMARK    4  A    between atoms: C_10  and  C_5 
ROOT
ATOM      1  S   UNL d   1       1.488  -0.053   0.142  0.00  0.00     0.261 S 
ATOM      2  O   UNL d   1       1.478   1.264  -0.447  0.00  0.00    -0.200 OA
ATOM      3  O   UNL d   1       2.739  -0.760   0.327  0.00  0.00    -0.200 OA
ENDROOT
BRANCH   1   4
ATOM      4  N   UNL d   1       0.455  -1.043  -0.755  0.00  0.00    -0.298 N 
ATOM      5  C   UNL d   1      -0.983  -0.760  -0.989  0.00  0.00     0.130 C 
ATOM      6  C   UNL d   1      -1.680  -1.777  -0.080  0.00  0.00     0.033 C 
ATOM      7  C   UNL d   1      -0.800  -3.014  -0.179  0.00  0.00     0.023 C 
ATOM      8  C   UNL d   1       0.580  -2.514  -0.600  0.00  0.00     0.136 C 
BRANCH   5   9
ATOM      9  C   UNL d   1      -1.515   0.647  -0.982  0.00  0.00    -0.019 A 
ATOM     10  C   UNL d   1      -2.454   1.117  -0.067  0.00  0.00     0.096 A 
ATOM     11  N   UNL d   1      -3.056   2.329  -0.134  0.00  0.00    -0.375 N 
ATOM     12  C   UNL d   1      -2.708   3.124  -1.167  0.00  0.00     0.087 A 
ATOM     13  HN  UNL d   1      -3.739   2.625   0.562  1.00  0.00     0.164 HD
ATOM     14  C   UNL d   1      -1.771   2.774  -2.120  0.00  0.00     0.018 A 
ATOM     15  C   UNL d   1      -1.167   1.523  -2.020  0.00  0.00     0.012 A 
ENDBRANCH   5   9
ENDBRANCH   1   4
BRANCH   1  16
ATOM     16  C   UNL d   1       0.732   0.065   1.754  0.00  0.00     0.080 A 
ATOM     17  C   UNL d   1       0.506  -1.088   2.511  0.00  0.00     0.041 A 
ATOM     18  C   UNL d   1      -0.212  -1.014   3.715  0.00  0.00     0.049 A 
ATOM     19  C   UNL d   1      -0.605   0.246   4.192  0.00  0.00     0.016 A 
ATOM     20  C   UNL d   1      -0.306   1.404   3.470  0.00  0.00     0.002 A 
ATOM     21  C   UNL d   1       0.349   1.316   2.243  0.00  0.00     0.025 A 
BRANCH  18  22
ATOM     22  C   UNL d   1      -0.615  -2.265   4.459  0.00  0.00     0.417 C 
ATOM     23  F   UNL d   1      -0.198  -3.410   3.850  0.00  0.00    -0.166 F 
ATOM     24  F   UNL d   1      -0.131  -2.311   5.728  0.00  0.00    -0.166 F 
ATOM     25  F   UNL d   1      -1.969  -2.381   4.564  0.00  0.00    -0.166 F 
ENDBRANCH  18  22
ENDBRANCH   1  16
TORSDOF 4
