REMARK  3 active torsions:
REMARK  status: ('A' for Active; 'I' for Inactive)
REMARK    1  A    between atoms: N_2  and  S_1 
REMARK    2  A    between atoms: C_3  and  S_1 
REMARK       I    between atoms: C_15  and  N_16 
REMARK    3  A    between atoms: N_16  and  C_17 
ROOT
ATOM      1  S   UNL d   1       1.013   0.232   0.211  0.00  0.00     0.267 S 
ATOM      2  O   UNL d   1       0.771   1.270  -0.767  0.00  0.00    -0.200 OA
ATOM      3  O   UNL d   1       0.639  -1.138  -0.095  0.00  0.00    -0.200 OA
ENDROOT
BRANCH   1   4
ATOM      4  N   UNL d   1       0.193   0.664   1.657  0.00  0.00    -0.265 N 
ATOM      5  C   UNL d   1       0.380   1.985   2.160  0.00  0.00     0.072 A 
ATOM      6  C   UNL d   1       1.327   2.279   3.149  0.00  0.00     0.062 A 
ATOM      7  C   UNL d   1      -0.440   2.998   1.647  0.00  0.00     0.033 A 
ATOM      8  N   UNL d   1       2.076   1.342   3.887  0.00  0.00    -0.325 N 
ATOM      9  C   UNL d   1       1.514   3.619   3.522  0.00  0.00     0.032 A 
ATOM     10  C   UNL d   1       1.813   0.054   4.219  0.00  0.00     0.224 C 
ATOM     11  H   UNL d   1       2.737   1.737   4.548  0.00  0.00     0.169 HD
ATOM     12  C   UNL d   1       0.991  -0.899   3.394  0.00  0.00     0.129 C 
ATOM     13  O   UNL d   1       2.376  -0.375   5.236  0.00  0.00    -0.273 OA
ATOM     14  C   UNL d   1      -0.197  -0.370   2.632  0.00  0.00     0.107 C 
ATOM     15  C   UNL d   1      -1.323   0.124   3.557  0.00  0.00     0.034 C 
ATOM     16  C   UNL d   1       0.681   4.622   3.025  0.00  0.00     0.002 A 
ATOM     17  C   UNL d   1      -0.313   4.307   2.106  0.00  0.00     0.002 A 
ENDBRANCH   1   4
BRANCH   1  18
ATOM     18  C   UNL d   1       2.762   0.315   0.579  0.00  0.00     0.101 A 
ATOM     19  C   UNL d   1       3.625  -0.780   0.655  0.00  0.00     0.059 A 
ATOM     20  C   UNL d   1       4.981  -0.575   0.992  0.00  0.00     0.055 A 
ATOM     21 CL   UNL d   1       3.191  -2.417   0.333  0.00  0.00    -0.083 Cl
ATOM     22  C   UNL d   1       5.491   0.706   1.233  0.00  0.00     0.036 A 
ATOM     23  C   UNL d   1       4.644   1.795   1.065  0.00  0.00     0.031 A 
ATOM     24  C   UNL d   1       3.305   1.602   0.711  0.00  0.00     0.029 A 
BRANCH  22  25
ATOM     25  N   UNL d   1       6.854   0.826   1.589  0.00  0.00    -0.327 N 
ATOM     26  C   UNL d   1       7.500   1.975   2.013  0.00  0.00     0.218 C 
ATOM     27  O   UNL d   1       6.975   3.057   2.257  0.00  0.00    -0.274 OA
ATOM     28  C   UNL d   1       8.991   1.802   2.173  0.00  0.00     0.117 C 
ATOM     29  H   UNL d   1       7.394  -0.030   1.591  0.00  0.00     0.169 HD
ENDBRANCH  22  25
ENDBRANCH   1  18
TORSDOF 3
