REMARK  5 active torsions:
REMARK  status: ('A' for Active; 'I' for Inactive)
REMARK    1  A    between atoms: C_12  and  C_4 
REMARK    2  A    between atoms: C_10  and  C_6 
REMARK       I    between atoms: N_17  and  C_12 
REMARK    3  A    between atoms: C_13  and  C_14 
REMARK    4  A    between atoms: N_15  and  N_17 
REMARK    5  A    between atoms: C_29  and  C_28 
ROOT
ATOM      1  C   UNL d   1      -3.853   0.060  -0.047  0.00  0.00     0.288 C 
ATOM      2  N   UNL d   1      -4.469   1.304  -0.094  0.00  0.00    -0.265 N 
ATOM      3  O   UNL d   1      -4.446  -1.016  -0.011  0.00  0.00    -0.264 OA
ATOM      4  H   UNL d   1      -3.896   2.142  -0.118  0.00  0.00     0.190 HD
ENDROOT
BRANCH   1   5
ATOM      5  C   UNL d   1      -2.390   0.120  -0.045  0.00  0.00     0.120 A 
ATOM      6  C   UNL d   1      -1.556  -0.979   0.003  0.00  0.00     0.133 A 
ATOM      7  N   UNL d   1      -0.280  -0.493  -0.012  0.00  0.00    -0.314 N 
ATOM      8  C   UNL d   1      -0.373   0.894  -0.073  0.00  0.00     0.134 A 
ATOM      9  C   UNL d   1       0.919  -1.199   0.030  0.00  0.00     0.114 A 
ATOM     10  N   UNL d   1      -1.638   1.286  -0.092  0.00  0.00    -0.335 N 
ATOM     11  C   UNL d   1       0.866   1.602  -0.102  0.00  0.00     0.079 A 
ATOM     12  HN  UNL d   1      -1.987   2.244  -0.132  1.00  0.00     0.168 HD
ATOM     13 CL   UNL d   1       0.840   3.321  -0.192  0.00  0.00    -0.080 Cl
ATOM     14  C   UNL d   1       2.037   0.931  -0.063  0.00  0.00     0.045 A 
ATOM     15  C   UNL d   1       2.093  -0.534   0.010  0.00  0.00     0.065 A 
BRANCH  15  16
ATOM     16  C   UNL d   1       3.423  -1.235   0.061  0.00  0.00     0.418 C 
ATOM     17  F   UNL d   1       4.475  -0.381   0.006  0.00  0.00    -0.166 F 
ATOM     18  F   UNL d   1       3.558  -1.956   1.202  0.00  0.00    -0.166 F 
ATOM     19  F   UNL d   1       3.565  -2.103  -0.973  0.00  0.00    -0.166 F 
ENDBRANCH  15  16
ENDBRANCH   1   5
BRANCH   2  20
ATOM     20  N   UNL d   1      -5.830   1.357  -0.114  0.00  0.00    -0.308 N 
ATOM     21  C   UNL d   1      -6.400   2.517  -0.136  0.00  0.00     0.118 C 
ATOM     22  HN  UNL d   1      -6.386   0.502  -0.112  1.00  0.00     0.186 HD
BRANCH  21  23
ATOM     23  C   UNL d   1      -7.882   2.605  -0.157  0.00  0.00    -0.019 A 
ATOM     24  C   UNL d   1      -8.647   1.434  -0.203  0.00  0.00     0.013 A 
ATOM     25  C   UNL d   1     -10.042   1.501  -0.206  0.00  0.00     0.017 A 
ATOM     26  C   UNL d   1     -10.694   2.741  -0.162  0.00  0.00     0.048 A 
ATOM     27  C   UNL d   1      -9.917   3.913  -0.122  0.00  0.00     0.017 A 
ATOM     28  C   UNL d   1      -8.516   3.848  -0.120  0.00  0.00     0.013 A 
BRANCH  26  29
ATOM     29  C   UNL d   1     -12.203   2.820  -0.152  0.00  0.00     0.417 C 
ATOM     30  F   UNL d   1     -12.815   1.604  -0.190  0.00  0.00    -0.166 F 
ATOM     31  F   UNL d   1     -12.684   3.443   0.960  0.00  0.00    -0.166 F 
ATOM     32  F   UNL d   1     -12.696   3.518  -1.213  0.00  0.00    -0.166 F 
ENDBRANCH  26  29
ENDBRANCH  21  23
ENDBRANCH   2  20
TORSDOF 5
