REMARK  2 active torsions:
REMARK  status: ('A' for Active; 'I' for Inactive)
REMARK    1  A    between atoms: C_10  and  C_1 
REMARK    2  A    between atoms: C_2  and  C_6 
ROOT
ATOM      1  C   UNL d   1      -1.354  -4.507  -0.904  0.00  0.00     0.090 A 
ATOM      2  N   UNL d   1      -0.519  -5.160  -0.075  0.00  0.00    -0.343 N 
ATOM      3  HN  UNL d   1      -0.273  -6.138  -0.231  1.00  0.00     0.167 HD
ATOM      4  C   UNL d   1      -0.018  -4.467   0.975  0.00  0.00     0.071 A 
ATOM      5  N   UNL d   1      -1.730  -3.226  -0.723  0.00  0.00    -0.355 N 
ATOM      6  HN  UNL d   1      -2.390  -2.772  -1.354  1.00  0.00     0.166 HD
ATOM      7  C   UNL d   1      -0.322  -3.143   1.207  0.00  0.00     0.049 A 
ATOM      8  C   UNL d   1      -1.198  -2.571   0.323  0.00  0.00     0.092 A 
ENDROOT
BRANCH   1   9
ATOM      9  C   UNL d   1      -2.000  -5.285  -2.048  0.00  0.00     0.019 C 
ATOM     10  C   UNL d   1      -3.265  -6.011  -1.523  0.00  0.00     0.022 C 
ATOM     11  C   UNL d   1      -3.955  -6.792  -2.657  0.00  0.00    -0.013 C 
ATOM     12  C   UNL d   1      -4.358  -5.818  -3.776  0.00  0.00     0.009 C 
ATOM     13  C   UNL d   1      -2.978  -7.834  -3.225  0.00  0.00     0.009 C 
ATOM     14  C   UNL d   1      -3.112  -5.115  -4.336  0.00  0.00    -0.013 C 
ATOM     15  C   UNL d   1      -2.424  -4.335  -3.205  0.00  0.00     0.022 C 
ATOM     16  C   UNL d   1      -2.138  -6.163  -4.892  0.00  0.00     0.009 C 
ATOM     17  C   UNL d   1      -1.724  -7.136  -3.777  0.00  0.00    -0.013 C 
ATOM     18  C   UNL d   1      -1.039  -6.351  -2.642  0.00  0.00     0.022 C 
ENDBRANCH   1   9
BRANCH   4  19
ATOM     19  C   UNL d   1       0.819  -5.239   1.879  0.00  0.00     0.126 A 
ATOM     20  C   UNL d   1       1.260  -6.549   1.936  0.00  0.00     0.043 A 
ATOM     21  N   UNL d   1       1.994  -6.746   3.086  0.00  0.00    -0.342 N 
ATOM     22  C   UNL d   1       1.010  -7.660   0.995  0.00  0.00     0.071 C 
ATOM     23  C   UNL d   1       1.964  -5.576   3.689  0.00  0.00     0.120 A 
ATOM     24  HN  UNL d   1       2.455  -7.601   3.397  1.00  0.00     0.167 HD
ATOM     25  O   UNL d   1       1.282  -4.607   3.009  0.00  0.00    -0.294 OA
ATOM     26  C   UNL d   1       2.524  -5.209   5.003  0.00  0.00     0.098 C 
ENDBRANCH   4  19
TORSDOF 2
