REMARK  6 active torsions:
REMARK  status: ('A' for Active; 'I' for Inactive)
REMARK    1  A    between atoms: N_2  and  S_1 
REMARK    2  A    between atoms: C_5  and  S_1 
REMARK    3  A    between atoms: C_3  and  N_2 
REMARK    4  A    between atoms: O_10  and  C_4 
REMARK    5  A    between atoms: C_16  and  O_10 
REMARK    6  A    between atoms: O_25  and  C_19 
ROOT
ATOM      1  C   UNL d   1       0.804  -1.511  -2.179  0.00  0.00     0.074 A 
ATOM      2  C   UNL d   1      -0.194  -1.890  -3.083  0.00  0.00     0.170 A 
ATOM      3  N   UNL d   1       0.030  -2.038  -4.415  0.00  0.00    -0.345 N 
ATOM      4  HN  UNL d   1      -0.711  -2.345  -5.045  1.00  0.00     0.167 HD
ATOM      5  C   UNL d   1       2.081  -1.257  -2.686  0.00  0.00     0.030 A 
ATOM      6  C   UNL d   1       1.268  -1.763  -4.871  0.00  0.00     0.090 A 
ATOM      7  C   UNL d   1       2.313  -1.369  -4.055  0.00  0.00     0.019 A 
ENDROOT
BRANCH   1   8
ATOM      8  N   UNL d   1       0.594  -1.450  -0.757  0.00  0.00    -0.177 NA
ATOM      9  H   UNL d   1       1.086  -0.668  -0.322  0.00  0.00     0.146 HD
BRANCH   8  10
ATOM     10  S   UNL d   1       1.067  -2.852   0.081  0.00  0.00     0.246 S 
ATOM     11  O   UNL d   1       2.057  -2.410   1.046  0.00  0.00    -0.206 OA
ATOM     12  O   UNL d   1       1.333  -3.939  -0.832  0.00  0.00    -0.206 OA
BRANCH  10  13
ATOM     13  C   UNL d   1      -0.416  -3.240   0.973  0.00  0.00     0.077 A 
ATOM     14  C   UNL d   1      -1.376  -4.055   0.367  0.00  0.00     0.070 A 
ATOM     15  C   UNL d   1      -2.522  -4.385   1.080  0.00  0.00     0.156 A 
ATOM     16  F   UNL d   1      -3.451  -5.159   0.504  0.00  0.00    -0.203 F 
ATOM     17  C   UNL d   1      -2.706  -3.921   2.379  0.00  0.00     0.154 A 
ATOM     18  C   UNL d   1      -1.742  -3.122   2.989  0.00  0.00     0.047 A 
ATOM     19  F   UNL d   1      -3.814  -4.244   3.059  0.00  0.00    -0.203 F 
ATOM     20  C   UNL d   1      -0.585  -2.781   2.287  0.00  0.00     0.028 A 
ENDBRANCH  10  13
ENDBRANCH   8  10
ENDBRANCH   1   8
BRANCH   2  21
ATOM     21  O   UNL d   1      -1.494  -2.064  -2.608  0.00  0.00    -0.292 OA
BRANCH  21  22
ATOM     22  C   UNL d   1      -2.511  -1.747  -3.489  0.00  0.00     0.078 A 
ATOM     23  C   UNL d   1      -3.605  -2.610  -3.573  0.00  0.00     0.040 A 
ATOM     24  C   UNL d   1      -4.630  -2.362  -4.501  0.00  0.00     0.039 A 
ATOM     25  C   UNL d   1      -4.561  -1.250  -5.344  0.00  0.00     0.068 A 
ATOM     26  C   UNL d   1      -3.497  -0.358  -5.208  0.00  0.00     0.039 A 
ATOM     27  C   UNL d   1      -2.490  -0.589  -4.271  0.00  0.00     0.040 A 
BRANCH  25  28
ATOM     28  O   UNL d   1      -5.441  -0.918  -6.335  0.00  0.00    -0.356 OA
ATOM     29  C   UNL d   1      -6.528  -1.799  -6.575  0.00  0.00     0.210 C 
ENDBRANCH  25  28
ENDBRANCH  21  22
ENDBRANCH   2  21
TORSDOF 6
