REMARK  5 active torsions:
REMARK  status: ('A' for Active; 'I' for Inactive)
REMARK    1  A    between atoms: C_6  and  C_1 
REMARK    2  A    between atoms: C_19  and  C_5 
REMARK       I    between atoms: C_7  and  N_13 
REMARK       I    between atoms: N_8  and  C_7 
REMARK    3  A    between atoms: C_9  and  N_8 
REMARK    4  A    between atoms: C_18  and  C_12 
REMARK    5  A    between atoms: N_13  and  C_19 
ROOT
ATOM      1  C   UNL d   1       4.838   1.480  -0.231  0.00  0.00     0.321 C 
ATOM      2  N   UNL d   1       4.923   2.843  -0.188  0.00  0.00    -0.308 N 
ATOM      3  N   UNL d   1       3.589   0.941  -0.183  0.00  0.00    -0.337 N 
ATOM      4  O   UNL d   1       5.867   0.810  -0.315  0.00  0.00    -0.247 OA
ATOM      5  H   UNL d   1       5.868   3.098   0.058  0.00  0.00     0.170 HD
ATOM      6  H   UNL d   1       2.874   1.503   0.256  0.00  0.00     0.164 HD
ENDROOT
BRANCH   3   7
ATOM      7  C   UNL d   1       3.391  -0.491  -0.166  0.00  0.00     0.181 C 
BRANCH   7   8
ATOM      8  C   UNL d   1       3.641  -1.050  -1.526  0.00  0.00     0.034 A 
ATOM      9  N   UNL d   1       2.632  -1.019  -2.493  0.00  0.00    -0.351 N 
ATOM     10  C   UNL d   1       3.061  -1.552  -3.618  0.00  0.00     0.091 A 
ATOM     11  HN  UNL d   1       1.697  -0.637  -2.347  1.00  0.00     0.166 HD
ATOM     12  S   UNL d   1       4.691  -2.104  -3.592  0.00  0.00    -0.081 SA
ATOM     13  C   UNL d   1       4.827  -1.612  -1.963  0.00  0.00     0.078 A 
BRANCH  10  14
ATOM     14  C   UNL d   1       2.211  -1.636  -4.784  0.00  0.00     0.038 A 
ATOM     15  S   UNL d   1       2.454  -2.788  -6.037  0.00  0.00    -0.099 SA
ATOM     16  C   UNL d   1       1.102  -2.228  -6.917  0.00  0.00     0.050 A 
ATOM     17  C   UNL d   1       0.467  -1.188  -6.277  0.00  0.00     0.008 A 
ATOM     18  C   UNL d   1       1.105  -0.848  -5.046  0.00  0.00     0.022 A 
ENDBRANCH  10  14
ENDBRANCH   7   8
ENDBRANCH   3   7
BRANCH   2  19
ATOM     19  C   UNL d   1       3.883   3.707   0.196  0.00  0.00     0.047 A 
ATOM     20  C   UNL d   1       3.786   4.245   1.504  0.00  0.00     0.001 A 
ATOM     21  C   UNL d   1       2.682   5.088   1.754  0.00  0.00     0.014 A 
ATOM     22  C   UNL d   1       1.727   5.379   0.771  0.00  0.00     0.001 A 
ATOM     23  C   UNL d   1       1.854   4.842  -0.503  0.00  0.00     0.002 A 
ATOM     24  C   UNL d   1       2.928   4.008  -0.790  0.00  0.00     0.030 A 
BRANCH  20  25
ATOM     25  C   UNL d   1       4.689   3.869   2.629  0.00  0.00    -0.024 A 
ATOM     26  C   UNL d   1       6.087   3.811   2.498  0.00  0.00     0.012 A 
ATOM     27  C   UNL d   1       6.904   3.352   3.537  0.00  0.00     0.001 A 
ATOM     28  C   UNL d   1       6.348   3.004   4.762  0.00  0.00     0.000 A 
ATOM     29  C   UNL d   1       4.975   3.115   4.947  0.00  0.00     0.001 A 
ATOM     30  C   UNL d   1       4.157   3.529   3.890  0.00  0.00     0.012 A 
ENDBRANCH  20  25
ENDBRANCH   2  19
TORSDOF 5
