REMARK  1 active torsions:
REMARK  status: ('A' for Active; 'I' for Inactive)
REMARK    1  A    between atoms: O_8  and  C_3 
ROOT
ATOM      1  C   UNL d   1       0.480   0.286  -0.007  0.00  0.00     0.055 A 
ATOM      2  C   UNL d   1      -0.850  -0.276  -0.001  0.00  0.00    -0.006 A 
ATOM      3  C   UNL d   1       0.669   1.682  -0.002  0.00  0.00     0.086 A 
ATOM      4  C   UNL d   1      -1.960   0.606   0.016  0.00  0.00    -0.024 A 
ATOM      5  C   UNL d   1      -0.465   2.505   0.013  0.00  0.00     0.039 A 
ATOM      6  C   UNL d   1      -1.754   1.984   0.023  0.00  0.00     0.015 A 
ATOM      7 BR   UNL d   1       1.944  -0.956  -0.018  0.00  0.00    -0.047 Br
ATOM      8  C   UNL d   1      -1.159  -1.665  -0.010  0.00  0.00     0.014 A 
ATOM      9  C   UNL d   1      -3.277   0.112   0.026  0.00  0.00     0.012 A 
ATOM     10  C   UNL d   1      -2.472  -2.146  -0.001  0.00  0.00     0.001 A 
ATOM     11  C   UNL d   1      -3.532  -1.256   0.018  0.00  0.00     0.001 A 
ENDROOT
BRANCH   3  12
ATOM     12  O   UNL d   1       1.792   2.460  -0.007  0.00  0.00    -0.355 OA
ATOM     13  C   UNL d   1       3.099   1.924  -0.024  0.00  0.00     0.210 C 
ENDBRANCH   3  12
TORSDOF 1
