REMARK  6 active torsions:
REMARK  status: ('A' for Active; 'I' for Inactive)
REMARK    1  A    between atoms: C_13  and  N_1 
REMARK    2  A    between atoms: S_15  and  C_2 
REMARK    3  A    between atoms: O_22  and  C_3 
REMARK    4  A    between atoms: C_10  and  C_20 
REMARK    5  A    between atoms: C_16  and  C_13 
REMARK    6  A    between atoms: C_20  and  S_15 
ROOT
ATOM      1  N   UNL d   1      -0.166  -1.149   0.036  0.00  0.00    -0.285 N 
ATOM      2  C   UNL d   1       1.037  -0.518  -0.140  0.00  0.00     0.165 A 
ATOM      3  C   UNL d   1      -1.076  -0.123   0.163  0.00  0.00     0.240 A 
ATOM      4  N   UNL d   1       0.867   0.781  -0.173  0.00  0.00    -0.277 N 
ATOM      5  HN  UNL d   1       1.595   1.480  -0.323  1.00  0.00     0.189 HD
ATOM      6  N   UNL d   1      -0.468   1.031   0.030  0.00  0.00    -0.263 N 
ATOM      7  HN  UNL d   1      -0.908   1.950   0.070  1.00  0.00     0.190 HD
ENDROOT
BRANCH   2   8
ATOM      8  S   UNL d   1       2.561  -1.322  -0.225  0.00  0.00    -0.086 SA
BRANCH   8   9
ATOM      9  C   UNL d   1       3.559  -0.169   0.768  0.00  0.00     0.147 C 
BRANCH   9  10
ATOM     10  C   UNL d   1       3.213  -0.197   2.229  0.00  0.00     0.061 A 
ATOM     11  N   UNL d   1       3.132  -1.289   2.964  0.00  0.00    -0.352 N 
ATOM     12  C   UNL d   1       3.022  -0.951   4.303  0.00  0.00     0.050 A 
ATOM     13  HN  UNL d   1       3.147  -2.242   2.600  1.00  0.00     0.166 HD
ATOM     14  C   UNL d   1       3.009  -1.854   5.386  0.00  0.00     0.031 A 
ATOM     15  C   UNL d   1       2.964   0.417   4.572  0.00  0.00     0.033 A 
ATOM     16  C   UNL d   1       2.986  -1.369   6.698  0.00  0.00     0.002 A 
ATOM     17  C   UNL d   1       2.941  -0.000   6.942  0.00  0.00     0.002 A 
ATOM     18  C   UNL d   1       2.907   0.915   5.885  0.00  0.00     0.021 A 
ATOM     19  S   UNL d   1       3.005   1.280   3.085  0.00  0.00    -0.074 SA
ENDBRANCH   9  10
ENDBRANCH   8   9
ENDBRANCH   2   8
BRANCH   1  20
ATOM     20  C   UNL d   1      -0.407  -2.567   0.205  0.00  0.00     0.200 C 
BRANCH  20  21
ATOM     21  C   UNL d   1      -1.452  -3.050  -0.733  0.00  0.00     0.070 A 
ATOM     22  O   UNL d   1      -2.742  -2.951  -0.294  0.00  0.00    -0.325 OA
ATOM     23  C   UNL d   1      -3.538  -3.420  -1.289  0.00  0.00     0.142 A 
ATOM     24  C   UNL d   1      -2.779  -3.816  -2.364  0.00  0.00     0.027 A 
ATOM     25  C   UNL d   1      -1.428  -3.580  -2.006  0.00  0.00     0.036 A 
ENDBRANCH  20  21
ENDBRANCH   1  20
BRANCH   3  26
ATOM     26  O   UNL d   1      -2.370  -0.235   0.412  0.00  0.00    -0.331 OA
ATOM     27  H   UNL d   1      -2.650  -1.160   0.293  0.00  0.00     0.221 HD
ENDBRANCH   3  26
TORSDOF 6
