REMARK  3 active torsions:
REMARK  status: ('A' for Active; 'I' for Inactive)
REMARK    1  A    between atoms: C_8  and  C_2 
REMARK    2  A    between atoms: C_7  and  C_5 
REMARK    3  A    between atoms: O_16  and  C_8 
ROOT
ATOM      1  S   UNL d   1       1.371  -0.310  -0.033  0.00  0.00    -0.071 SA
ATOM      2  C   UNL d   1      -0.188  -1.045   0.017  0.00  0.00     0.035 A 
ATOM      3  N   UNL d   1      -0.661   1.243   0.082  0.00  0.00    -0.353 N 
ATOM      4  HN  UNL d   1      -1.239   2.081   0.154  1.00  0.00     0.166 HD
ATOM      5  C   UNL d   1       0.653   1.249   0.005  0.00  0.00     0.085 A 
ATOM      6  C   UNL d   1      -1.156  -0.051   0.050  0.00  0.00     0.022 A 
ATOM      7  C   UNL d   1      -2.636  -0.198   0.045  0.00  0.00     0.069 C 
ENDROOT
BRANCH   5   8
ATOM      8  C   UNL d   1       1.469   2.472  -0.003  0.00  0.00    -0.002 A 
ATOM      9  C   UNL d   1       1.006   3.604   0.691  0.00  0.00     0.016 A 
ATOM     10  C   UNL d   1       1.737   4.795   0.691  0.00  0.00     0.024 A 
ATOM     11  C   UNL d   1       2.934   4.871  -0.014  0.00  0.00     0.034 A 
ATOM     12  C   UNL d   1       3.407   3.765  -0.717  0.00  0.00     0.024 A 
ATOM     13 CL   UNL d   1       3.829   6.340  -0.029  0.00  0.00    -0.084 Cl
ATOM     14  C   UNL d   1       2.678   2.572  -0.712  0.00  0.00     0.016 A 
ENDBRANCH   5   8
BRANCH   2  15
ATOM     15  C   UNL d   1      -0.335  -2.538  -0.010  0.00  0.00     0.156 C 
ATOM     16  C   UNL d   1       0.338  -3.242   1.161  0.00  0.00     0.045 C 
BRANCH  15  17
ATOM     17  O   UNL d   1       0.227  -3.006  -1.233  0.00  0.00    -0.391 OA
ATOM     18  H   UNL d   1       1.143  -2.679  -1.267  0.00  0.00     0.210 HD
ENDBRANCH  15  17
ENDBRANCH   2  15
TORSDOF 3
