REMARK  1 active torsions:
REMARK  status: ('A' for Active; 'I' for Inactive)
REMARK    1  A    between atoms: C_5  and  N_1 
ROOT
ATOM      1  N   UNL d   1       0.530   1.097  -0.674  0.00  0.00    -0.222 N 
ATOM      2  N   UNL d   1       1.025  -0.221  -0.867  0.00  0.00    -0.260 N 
ATOM      3  C   UNL d   1      -0.753   1.264  -0.123  0.00  0.00     0.243 C 
ATOM      4  C   UNL d   1       0.604  -1.276  -0.104  0.00  0.00     0.236 C 
ATOM      5  O   UNL d   1      -1.310   2.329   0.139  0.00  0.00    -0.271 OA
ATOM      6  C   UNL d   1      -1.527  -0.026   0.019  0.00  0.00     0.114 C 
ATOM      7  O   UNL d   1       1.276  -2.302  -0.024  0.00  0.00    -0.272 OA
ATOM      8  C   UNL d   1      -0.677  -1.097   0.655  0.00  0.00     0.114 C 
ATOM      9  H   UNL d   1       1.992  -0.310  -1.158  0.00  0.00     0.190 HD
ENDROOT
BRANCH   1  10
ATOM     10  C   UNL d   1       1.299   2.190  -1.204  0.00  0.00     0.059 A 
ATOM     11  C   UNL d   1       1.141   3.505  -0.743  0.00  0.00     0.031 A 
ATOM     12  C   UNL d   1       1.861   4.565  -1.309  0.00  0.00     0.002 A 
ATOM     13  C   UNL d   1       2.754   4.330  -2.349  0.00  0.00     0.000 A 
ATOM     14  C   UNL d   1       2.937   3.034  -2.815  0.00  0.00     0.002 A 
ATOM     15  C   UNL d   1       2.221   1.975  -2.245  0.00  0.00     0.031 A 
ENDBRANCH   1  10
TORSDOF 1
