REMARK  2 active torsions:
REMARK  status: ('A' for Active; 'I' for Inactive)
REMARK    1  A    between atoms: C_2  and  C_1 
REMARK       I    between atoms: N_3  and  C_2 
REMARK    2  A    between atoms: C_4  and  N_3 
ROOT
ATOM      1  C   UNL d   1      -0.528   2.167   0.501  0.00  0.00     0.076 A 
ATOM      2  C   UNL d   1      -1.031   1.815  -0.751  0.00  0.00     0.076 A 
ATOM      3  C   UNL d   1      -0.574   4.521  -0.162  0.00  0.00     0.067 A 
ATOM      4  C   UNL d   1      -0.323   3.528   0.780  0.00  0.00     0.144 A 
ATOM      5  C   UNL d   1      -1.290   2.807  -1.699  0.00  0.00     0.136 A 
ATOM      6  C   UNL d   1      -1.054   4.152  -1.415  0.00  0.00     0.052 A 
ATOM      7  F   UNL d   1       0.148   3.885   1.986  0.00  0.00    -0.204 F 
ATOM      8  F   UNL d   1      -1.768   2.438  -2.896  0.00  0.00    -0.205 F 
ATOM      9 BR   UNL d   1      -1.371   5.483  -2.719  0.00  0.00    -0.048 Br
ENDROOT
BRANCH   1  10
ATOM     10  N   UNL d   1      -0.190   1.248   1.519  0.00  0.00    -0.321 N 
ATOM     11  C   UNL d   1      -0.159  -0.141   1.440  0.00  0.00     0.277 C 
ATOM     12  O   UNL d   1      -0.445  -0.758   0.410  0.00  0.00    -0.268 OA
ATOM     13  H   UNL d   1       0.123   1.672   2.394  0.00  0.00     0.169 HD
BRANCH  11  14
ATOM     14  C   UNL d   1       0.324  -0.882   2.718  0.00  0.00     0.269 C 
ATOM     15 CL   UNL d   1       0.420   0.221   4.124  0.00  0.00    -0.073 Cl
ATOM     16 CL   UNL d   1       1.948  -1.540   2.385  0.00  0.00    -0.073 Cl
ATOM     17 CL   UNL d   1      -0.819  -2.196   3.090  0.00  0.00    -0.073 Cl
ENDBRANCH  11  14
ENDBRANCH   1  10
TORSDOF 2
