REMARK  3 active torsions:
REMARK  status: ('A' for Active; 'I' for Inactive)
REMARK    1  A    between atoms: N_10  and  C_3 
REMARK    2  A    between atoms: C_12  and  C_4 
REMARK    3  A    between atoms: C_11  and  C_5 
ROOT
ATOM      1  N   UNL d   1       1.292   0.360  -0.011  0.00  0.00    -0.187 N 
ATOM      2  HN  UNL d   1       2.252   0.681  -0.137  1.00  0.00     0.184 HD
ATOM      3  C   UNL d   1       0.294   1.234   0.195  0.00  0.00     0.695 A 
ATOM      4  C   UNL d   1       0.987  -0.969  -0.048  0.00  0.00     0.088 A 
ATOM      5  C   UNL d   1      -0.322  -1.419   0.133  0.00  0.00     0.087 A 
ATOM      6  N   UNL d   1      -1.306  -0.504   0.246  0.00  0.00    -0.283 N 
ATOM      7  HN  UNL d   1      -2.280  -0.801   0.305  1.00  0.00     0.187 HD
ATOM      8  N   UNL d   1      -0.988   0.824   0.279  0.00  0.00    -0.132 N 
ATOM      9  HN  UNL d   1      -1.731   1.516   0.369  1.00  0.00     0.205 HD
ENDROOT
BRANCH   3  10
ATOM     10  N   UNL d   1       0.604   2.547   0.451  0.00  0.00    -0.212 N 
ATOM     11  C   UNL d   1       1.912   3.088   0.090  0.00  0.00     0.167 C 
ATOM     12  C   UNL d   1       2.273   4.208   1.082  0.00  0.00     0.188 C 
ATOM     13  O   UNL d   1       1.245   5.212   1.152  0.00  0.00    -0.388 OA
ATOM     14  C   UNL d   1      -0.002   4.626   1.564  0.00  0.00     0.188 C 
ATOM     15  C   UNL d   1      -0.464   3.537   0.582  0.00  0.00     0.167 C 
ENDBRANCH   3  10
BRANCH   4  16
ATOM     16  C   UNL d   1       2.167  -1.848  -0.231  0.00  0.00    -0.006 A 
ATOM     17  C   UNL d   1       3.369  -1.568   0.447  0.00  0.00     0.014 A 
ATOM     18  C   UNL d   1       4.470  -2.425   0.365  0.00  0.00     0.001 A 
ATOM     19  C   UNL d   1       4.394  -3.584  -0.401  0.00  0.00     0.000 A 
ATOM     20  C   UNL d   1       3.233  -3.865  -1.115  0.00  0.00     0.001 A 
ATOM     21  C   UNL d   1       2.140  -2.994  -1.046  0.00  0.00     0.014 A 
ENDBRANCH   4  16
BRANCH   5  22
ATOM     22  C   UNL d   1      -0.767  -2.811   0.302  0.00  0.00    -0.006 A 
ATOM     23  C   UNL d   1      -0.121  -3.697   1.184  0.00  0.00     0.014 A 
ATOM     24  C   UNL d   1      -0.549  -5.017   1.329  0.00  0.00     0.001 A 
ATOM     25  C   UNL d   1      -1.653  -5.474   0.616  0.00  0.00     0.000 A 
ATOM     26  C   UNL d   1      -2.331  -4.608  -0.240  0.00  0.00     0.001 A 
ATOM     27  C   UNL d   1      -1.893  -3.290  -0.392  0.00  0.00     0.014 A 
ENDBRANCH   5  22
TORSDOF 3
