REMARK  2 active torsions:
REMARK  status: ('A' for Active; 'I' for Inactive)
REMARK    1  A    between atoms: N_11  and  N_2 
REMARK    2  A    between atoms: C_14  and  N_11 
ROOT
ATOM      1  C   UNL d   1       3.131  -0.974  -0.995  0.00  0.00     0.209 C 
ATOM      2  N   UNL d   1       2.353  -1.575  -1.842  0.00  0.00    -0.282 N 
ATOM      3  HN  UNL d   1       2.730  -2.287  -2.467  1.00  0.00     0.188 HD
ATOM      4  N   UNL d   1       5.630  -1.689  -1.063  0.00  0.00    -0.189 NA
ATOM      5  N   UNL d   1       2.216   0.829   0.634  0.00  0.00    -0.189 NA
ATOM      6  C   UNL d   1       4.508  -1.382  -1.045  0.00  0.00     0.130 C 
ATOM      7  C   UNL d   1       2.634   0.013  -0.085  0.00  0.00     0.130 C 
ENDROOT
BRANCH   2   8
ATOM      8  N   UNL d   1       1.022  -1.249  -1.895  0.00  0.00    -0.299 N 
ATOM      9  H   UNL d   1       0.710  -0.286  -1.747  0.00  0.00     0.187 HD
BRANCH   8  10
ATOM     10  C   UNL d   1       0.244  -1.942  -2.853  0.00  0.00     0.051 A 
ATOM     11  C   UNL d   1      -0.865  -1.322  -3.446  0.00  0.00     0.070 A 
ATOM     12  C   UNL d   1      -1.645  -2.008  -4.382  0.00  0.00     0.104 A 
ATOM     13  O   UNL d   1      -2.699  -1.319  -4.928  0.00  0.00    -0.346 OA
ATOM     14  C   UNL d   1      -1.330  -3.323  -4.731  0.00  0.00     0.102 A 
ATOM     15  C   UNL d   1      -3.618  -2.200  -5.585  0.00  0.00     0.202 C 
ATOM     16  C   UNL d   1      -2.885  -3.218  -6.444  0.00  0.00     0.202 C 
ATOM     17  O   UNL d   1      -2.044  -4.055  -5.644  0.00  0.00    -0.346 OA
ATOM     18  C   UNL d   1      -0.250  -3.959  -4.130  0.00  0.00     0.042 A 
ATOM     19  C   UNL d   1       0.536  -3.269  -3.204  0.00  0.00     0.034 A 
ENDBRANCH   8  10
ENDBRANCH   2   8
TORSDOF 2
