REMARK  4 active torsions:
REMARK  status: ('A' for Active; 'I' for Inactive)
REMARK    1  A    between atoms: N_11  and  C_3 
REMARK    2  A    between atoms: C_4  and  C_12 
REMARK    3  A    between atoms: N_21  and  C_7 
REMARK    4  A    between atoms: C_10  and  N_11 
ROOT
ATOM      1  N   UNL d   1      -2.356  -0.049   0.086  0.00  0.00    -0.190 N 
ATOM      2  H   UNL d   1      -1.583   0.043   0.732  0.00  0.00     0.184 HD
ENDROOT
BRANCH   1   3
ATOM      3  C   UNL d   1      -3.011  -1.294   0.042  0.00  0.00     0.071 A 
ATOM      4  C   UNL d   1      -3.851  -1.641  -1.029  0.00  0.00     0.048 A 
ATOM      5  C   UNL d   1      -4.582  -2.838  -1.057  0.00  0.00     0.050 A 
ATOM      6  C   UNL d   1      -4.456  -3.726   0.016  0.00  0.00     0.018 A 
ATOM      7  C   UNL d   1      -3.620  -3.414   1.090  0.00  0.00     0.027 A 
ATOM      8  C   UNL d   1      -2.909  -2.208   1.104  0.00  0.00     0.061 A 
ATOM      9 CL   UNL d   1      -1.906  -1.866   2.472  0.00  0.00    -0.082 Cl
BRANCH   5  10
ATOM     10  C   UNL d   1      -5.485  -3.151  -2.225  0.00  0.00     0.417 C 
ATOM     11  F   UNL d   1      -5.529  -2.163  -3.164  0.00  0.00    -0.166 F 
ATOM     12  F   UNL d   1      -5.104  -4.276  -2.889  0.00  0.00    -0.166 F 
ATOM     13  F   UNL d   1      -6.776  -3.357  -1.845  0.00  0.00    -0.166 F 
ENDBRANCH   5  10
ENDBRANCH   1   3
BRANCH   1  14
ATOM     14  C   UNL d   1      -2.627   1.142  -0.583  0.00  0.00     0.685 A 
ATOM     15  N   UNL d   1      -3.762   1.270  -1.265  0.00  0.00    -0.166 N 
ATOM     16  C   UNL d   1      -3.963   2.417  -1.883  0.00  0.00     0.170 A 
ATOM     17  HN  UNL d   1      -4.446   0.515  -1.307  1.00  0.00     0.187 HD
ATOM     18  N   UNL d   1      -3.108   3.422  -1.899  0.00  0.00    -0.328 N 
ATOM     19  C   UNL d   1      -2.013   3.211  -1.177  0.00  0.00     0.200 A 
ATOM     20  HN  UNL d   1      -3.273   4.284  -2.419  1.00  0.00     0.169 HD
ATOM     21  N   UNL d   1      -1.719   2.108  -0.492  0.00  0.00    -0.188 N 
ATOM     22  HN  UNL d   1      -0.866   2.012   0.059  1.00  0.00     0.185 HD
BRANCH  16  23
ATOM     23  N   UNL d   1      -5.133   2.538  -2.601  0.00  0.00    -0.273 NA
ATOM     24  H   UNL d   1      -5.499   1.624  -2.834  0.00  0.00     0.127 HD
ATOM     25  H   UNL d   1      -5.029   3.200  -3.356  0.00  0.00     0.127 HD
ENDBRANCH  16  23
ENDBRANCH   1  14
TORSDOF 4
