REMARK  3 active torsions:
REMARK  status: ('A' for Active; 'I' for Inactive)
REMARK    1  A    between atoms: C_2  and  S_1 
REMARK    2  A    between atoms: C_10  and  S_1 
REMARK    3  A    between atoms: C_3  and  C_4 
ROOT
ATOM      1  C   UNL d   1       0.406   1.707   0.239  0.00  0.00     0.147 C 
ATOM      2  C   UNL d   1      -0.383   2.257  -0.711  0.00  0.00     0.068 C 
ATOM      3  C   UNL d   1       0.868   0.366   0.184  0.00  0.00     0.112 C 
ATOM      4  N   UNL d   1       1.257  -0.725   0.090  0.00  0.00    -0.191 NA
ENDROOT
BRANCH   1   5
ATOM      5  S   UNL d   1       0.757   2.674   1.634  0.00  0.00     0.232 S 
ATOM      6  O   UNL d   1      -0.198   2.335   2.675  0.00  0.00    -0.215 OA
ATOM      7  O   UNL d   1       0.888   4.066   1.223  0.00  0.00    -0.215 OA
BRANCH   5   8
ATOM      8  C   UNL d   1       2.364   2.228   2.278  0.00  0.00     0.134 A 
ATOM      9  N   UNL d   1       3.044   1.290   1.583  0.00  0.00    -0.356 N 
ATOM     10  C   UNL d   1       4.230   0.903   2.099  0.00  0.00     0.089 A 
ATOM     11  HN  UNL d   1       2.681   0.895   0.715  1.00  0.00     0.166 HD
ATOM     12  C   UNL d   1       4.781   1.450   3.247  0.00  0.00     0.017 A 
ATOM     13  C   UNL d   1       4.071   2.445   3.917  0.00  0.00     0.004 A 
ATOM     14  C   UNL d   1       2.828   2.842   3.433  0.00  0.00     0.042 A 
ENDBRANCH   5   8
ENDBRANCH   1   5
BRANCH   2  15
ATOM     15  C   UNL d   1      -0.877   1.562  -1.863  0.00  0.00     0.073 A 
ATOM     16  N   UNL d   1      -1.206   0.266  -1.821  0.00  0.00    -0.298 N 
ATOM     17  N   UNL d   1      -1.505  -0.050  -3.087  0.00  0.00    -0.306 N 
ATOM     18  HN  UNL d   1      -1.225  -0.346  -1.005  1.00  0.00     0.187 HD
ATOM     19  C   UNL d   1      -1.755  -1.429  -3.433  0.00  0.00     0.177 C 
ATOM     20  C   UNL d   1      -1.491   1.020  -3.929  0.00  0.00     0.135 A 
ATOM     21  C   UNL d   1      -1.089   2.091  -3.164  0.00  0.00     0.079 A 
ATOM     22 CL   UNL d   1      -0.838   3.682  -3.693  0.00  0.00    -0.080 Cl
ENDBRANCH   2  15
TORSDOF 3
