REMARK  4 active torsions:
REMARK  status: ('A' for Active; 'I' for Inactive)
REMARK    1  A    between atoms: C_5  and  S_1 
REMARK    2  A    between atoms: N_10  and  S_1 
REMARK       I    between atoms: C_2  and  N_4 
REMARK    3  A    between atoms: C_3  and  C_2 
REMARK    4  A    between atoms: N_4  and  C_17 
ROOT
ATOM      1  C   UNL d   1       0.592   1.548  -0.379  0.00  0.00     0.074 A 
ATOM      2  C   UNL d   1      -0.721   1.724  -0.818  0.00  0.00     0.027 A 
ATOM      3  C   UNL d   1       1.396   2.653  -0.099  0.00  0.00     0.027 A 
ATOM      4  C   UNL d   1      -0.444   4.137  -0.662  0.00  0.00     0.035 A 
ATOM      5  C   UNL d   1      -1.230   3.015  -0.965  0.00  0.00     0.031 A 
ATOM      6  C   UNL d   1       0.875   3.946  -0.241  0.00  0.00     0.031 A 
ENDROOT
BRANCH   4   7
ATOM      7  N   UNL d   1      -1.056   5.401  -0.803  0.00  0.00    -0.323 N 
ATOM      8  C   UNL d   1      -0.511   6.636  -0.498  0.00  0.00     0.256 C 
ATOM      9  O   UNL d   1       0.609   6.858  -0.059  0.00  0.00    -0.267 OA
ATOM     10  H   UNL d   1      -1.988   5.384  -1.195  0.00  0.00     0.169 HD
BRANCH   8  11
ATOM     11  C   UNL d   1      -1.393   7.803  -0.785  0.00  0.00     0.035 A 
ATOM     12  C   UNL d   1      -2.783   7.746  -0.627  0.00  0.00     0.041 A 
ATOM     13  C   UNL d   1      -3.559   8.853  -0.972  0.00  0.00     0.036 A 
ATOM     14 CL   UNL d   1      -5.271   8.771  -0.813  0.00  0.00    -0.084 Cl
ATOM     15  C   UNL d   1      -2.967  10.018  -1.453  0.00  0.00     0.047 A 
ATOM     16  C   UNL d   1      -1.581  10.081  -1.569  0.00  0.00     0.036 A 
ATOM     17  C   UNL d   1      -0.790   8.985  -1.233  0.00  0.00     0.041 A 
ATOM     18 CL   UNL d   1      -0.840  11.520  -2.152  0.00  0.00    -0.084 Cl
ENDBRANCH   8  11
ENDBRANCH   4   7
BRANCH   1  19
ATOM     19  S   UNL d   1       1.228  -0.084  -0.143  0.00  0.00     0.239 S 
ATOM     20  O   UNL d   1       0.281  -1.043  -0.663  0.00  0.00    -0.206 OA
ATOM     21  O   UNL d   1       1.778  -0.179   1.188  0.00  0.00    -0.206 OA
BRANCH  19  22
ATOM     22  N   UNL d   1       2.531  -0.135  -1.200  0.00  0.00    -0.225 NA
ATOM     23  H   UNL d   1       2.336  -0.795  -1.953  0.00  0.00     0.136 HD
ATOM     24  H   UNL d   1       3.381  -0.352  -0.677  0.00  0.00     0.136 HD
ENDBRANCH  19  22
ENDBRANCH   1  19
TORSDOF 4
