REMARK  2 active torsions:
REMARK  status: ('A' for Active; 'I' for Inactive)
REMARK    1  A    between atoms: C_2  and  N_1 
REMARK    2  A    between atoms: C_14  and  C_9 
ROOT
ATOM      1  N   UNL d   1      -0.126  -1.059   0.004  0.00  0.00    -0.200 N 
ATOM      2  N   UNL d   1      -1.454  -0.682  -0.067  0.00  0.00    -0.296 N 
ATOM      3  HN  UNL d   1      -2.263  -1.302  -0.122  1.00  0.00     0.187 HD
ATOM      4  C   UNL d   1       0.772   0.008   0.082  0.00  0.00     0.250 A 
ATOM      5  C   UNL d   1      -1.469   0.616  -0.051  0.00  0.00     0.021 A 
ATOM      6  C   UNL d   1      -0.102   1.225   0.049  0.00  0.00     0.160 A 
ATOM      7  O   UNL d   1       1.988   0.046   0.172  0.00  0.00    -0.271 OA
ENDROOT
BRANCH   1   8
ATOM      8  C   UNL d   1       0.290  -2.376   0.092  0.00  0.00     0.174 A 
ATOM      9  N   UNL d   1       1.526  -2.806   0.205  0.00  0.00    -0.334 N 
ATOM     10  C   UNL d   1       1.544  -4.182   0.323  0.00  0.00     0.051 A 
ATOM     11  HN  UNL d   1       2.353  -2.210   0.206  1.00  0.00     0.168 HD
ATOM     12  C   UNL d   1       2.693  -4.983   0.481  0.00  0.00     0.032 A 
ATOM     13  C   UNL d   1       0.294  -4.801   0.284  0.00  0.00     0.036 A 
ATOM     14  C   UNL d   1       2.562  -6.371   0.601  0.00  0.00     0.026 A 
ATOM     15  C   UNL d   1       1.302  -6.959   0.561  0.00  0.00     0.035 A 
ATOM     16  C   UNL d   1       0.145  -6.192   0.402  0.00  0.00     0.045 A 
ATOM     17 CL   UNL d   1       1.161  -8.669   0.710  0.00  0.00    -0.084 Cl
ATOM     18  S   UNL d   1      -0.916  -3.595   0.082  0.00  0.00    -0.050 SA
ENDBRANCH   1   8
BRANCH   5  19
ATOM     19  C   UNL d   1      -2.746   1.442  -0.013  0.00  0.00    -0.011 C 
ATOM     20  C   UNL d   1      -3.186   1.541   1.454  0.00  0.00     0.021 C 
ATOM     21  C   UNL d   1      -2.512   2.847  -0.582  0.00  0.00     0.021 C 
ATOM     22  C   UNL d   1      -3.849   0.755  -0.833  0.00  0.00     0.021 C 
ENDBRANCH   5  19
TORSDOF 2
