REMARK  6 active torsions:
REMARK  status: ('A' for Active; 'I' for Inactive)
REMARK    1  A    between atoms: C_8  and  N_2 
REMARK    2  A    between atoms: C_18  and  C_6 
REMARK    3  A    between atoms: C_17  and  C_7 
REMARK    4  A    between atoms: C_10  and  C_8 
REMARK       I    between atoms: N_14  and  C_10 
REMARK       I    between atoms: C_11  and  N_13 
REMARK       I    between atoms: N_15  and  C_11 
REMARK    5  A    between atoms: N_13  and  N_14 
REMARK    6  A    between atoms: C_21  and  N_15 
ROOT
ATOM      1  C   UNL d   1      -0.615   1.329  -0.256  0.00  0.00     0.127 C 
ATOM      2  N   UNL d   1      -0.698  -1.067   0.090  0.00  0.00    -0.247 N 
ATOM      3  N   UNL d   1       0.678  -1.120   0.209  0.00  0.00    -0.294 N 
ATOM      4  HN  UNL d   1       1.152  -2.006   0.380  1.00  0.00     0.187 HD
ATOM      5  C   UNL d   1      -1.323   0.050  -0.446  0.00  0.00     0.284 C 
ATOM      6  C   UNL d   1       0.712   1.332  -0.043  0.00  0.00     0.029 C 
ATOM      7  C   UNL d   1       1.355  -0.016   0.099  0.00  0.00     0.071 C 
ATOM      8  C   UNL d   1      -1.403   2.509  -0.346  0.00  0.00     0.106 C 
ATOM      9  N   UNL d   1      -2.026   3.491  -0.402  0.00  0.00    -0.191 NA
ATOM     10  O   UNL d   1      -2.408   0.023  -1.024  0.00  0.00    -0.265 OA
ENDROOT
BRANCH   6  11
ATOM     11  C   UNL d   1       1.423   2.618   0.044  0.00  0.00    -0.022 A 
ATOM     12  C   UNL d   1       1.757   3.186   1.277  0.00  0.00     0.012 A 
ATOM     13  C   UNL d   1       2.383   4.434   1.319  0.00  0.00     0.001 A 
ATOM     14  C   UNL d   1       2.685   5.111   0.136  0.00  0.00     0.000 A 
ATOM     15  C   UNL d   1       2.345   4.555  -1.094  0.00  0.00     0.001 A 
ATOM     16  C   UNL d   1       1.701   3.322  -1.140  0.00  0.00     0.012 A 
ENDBRANCH   6  11
BRANCH   2  17
ATOM     17  C   UNL d   1      -1.352  -2.361  -0.068  0.00  0.00     0.257 C 
BRANCH  17  18
ATOM     18  C   UNL d   1      -2.808  -2.339   0.411  0.00  0.00     0.256 C 
ATOM     19  N   UNL d   1      -3.690  -2.595  -0.623  0.00  0.00    -0.265 N 
ATOM     20  H   UNL d   1      -3.344  -3.053  -1.467  0.00  0.00     0.190 HD
ATOM     21  O   UNL d   1      -3.148  -2.050   1.555  0.00  0.00    -0.270 OA
BRANCH  19  22
ATOM     22  N   UNL d   1      -5.041  -2.874  -0.357  0.00  0.00    -0.249 N 
ATOM     23  C   UNL d   1      -5.546  -3.899  -1.125  0.00  0.00     0.339 C 
ATOM     24  N   UNL d   1      -6.923  -3.935  -1.206  0.00  0.00    -0.308 N 
ATOM     25  O   UNL d   1      -4.773  -4.652  -1.722  0.00  0.00    -0.245 OA
ATOM     26  H   UNL d   1      -7.369  -3.030  -1.167  0.00  0.00     0.170 HD
ATOM     27  H   UNL d   1      -5.601  -2.114   0.011  0.00  0.00     0.192 HD
BRANCH  24  28
ATOM     28  C   UNL d   1      -7.524  -4.906  -2.041  0.00  0.00     0.036 A 
ATOM     29  C   UNL d   1      -7.072  -6.232  -2.024  0.00  0.00     0.031 A 
ATOM     30  C   UNL d   1      -7.485  -7.130  -3.005  0.00  0.00     0.026 A 
ATOM     31  C   UNL d   1      -8.368  -6.705  -3.991  0.00  0.00     0.034 A 
ATOM     32  C   UNL d   1      -8.892  -5.411  -3.961  0.00  0.00     0.026 A 
ATOM     33 CL   UNL d   1      -8.782  -7.771  -5.275  0.00  0.00    -0.084 Cl
ATOM     34  C   UNL d   1      -8.490  -4.512  -2.967  0.00  0.00     0.031 A 
ENDBRANCH  24  28
ENDBRANCH  19  22
ENDBRANCH  17  18
ENDBRANCH   2  17
BRANCH   7  35
ATOM     35  C   UNL d   1       2.852  -0.128   0.135  0.00  0.00    -0.007 A 
ATOM     36  C   UNL d   1       3.679   0.609  -0.722  0.00  0.00     0.014 A 
ATOM     37  C   UNL d   1       5.069   0.486  -0.656  0.00  0.00     0.001 A 
ATOM     38  C   UNL d   1       5.645  -0.422   0.227  0.00  0.00     0.000 A 
ATOM     39  C   UNL d   1       4.832  -1.213   1.036  0.00  0.00     0.001 A 
ATOM     40  C   UNL d   1       3.441  -1.067   0.992  0.00  0.00     0.014 A 
ENDBRANCH   7  35
TORSDOF 6
