REMARK  3 active torsions:
REMARK  status: ('A' for Active; 'I' for Inactive)
REMARK    1  A    between atoms: C_10  and  C_4 
REMARK    2  A    between atoms: N_5  and  C_7 
REMARK       I    between atoms: C_6  and  N_5 
REMARK    3  A    between atoms: C_11  and  C_6 
ROOT
ATOM      1  C   UNL d   1      -3.800  -3.007   0.457  0.00  0.00     0.118 A 
ATOM      2  C   UNL d   1      -3.170  -2.347  -0.618  0.00  0.00     0.009 A 
ATOM      3  N   UNL d   1      -5.137  -2.971   0.651  0.00  0.00    -0.352 N 
ATOM      4  HN  UNL d   1      -5.558  -3.444   1.451  1.00  0.00     0.166 HD
ATOM      5  C   UNL d   1      -4.010  -1.680  -1.526  0.00  0.00     0.016 A 
ATOM      6  C   UNL d   1      -5.902  -2.300  -0.227  0.00  0.00     0.090 A 
ATOM      7  C   UNL d   1      -5.390  -1.649  -1.328  0.00  0.00     0.018 A 
ENDROOT
BRANCH   2   8
ATOM      8  C   UNL d   1      -1.736  -2.450  -0.970  0.00  0.00     0.033 C 
ATOM      9  C   UNL d   1      -0.666  -2.114  -0.228  0.00  0.00     0.045 C 
ATOM     10  C   UNL d   1      -0.679  -1.504   1.152  0.00  0.00     0.257 C 
ATOM     11  C   UNL d   1       0.738  -2.439  -0.528  0.00  0.00     0.006 A 
ATOM     12  N   UNL d   1       0.613  -1.641   1.618  0.00  0.00    -0.322 N 
ATOM     13  O   UNL d   1      -1.629  -1.065   1.762  0.00  0.00    -0.267 OA
ATOM     14  C   UNL d   1       1.446  -2.189   0.651  0.00  0.00     0.046 A 
ATOM     15  H   UNL d   1       0.891  -1.352   2.544  0.00  0.00     0.169 HD
ATOM     16  C   UNL d   1       2.791  -2.468   0.794  0.00  0.00     0.030 A 
ATOM     17  C   UNL d   1       3.455  -2.986  -0.317  0.00  0.00     0.002 A 
ATOM     18  C   UNL d   1       2.769  -3.199  -1.530  0.00  0.00     0.001 A 
ATOM     19  C   UNL d   1       1.397  -2.932  -1.641  0.00  0.00     0.015 A 
ENDBRANCH   2   8
BRANCH   1  20
ATOM     20  N   UNL d   1      -3.038  -3.706   1.413  0.00  0.00    -0.312 N 
ATOM     21  C   UNL d   1      -3.583  -4.587   2.314  0.00  0.00     0.230 C 
ATOM     22  O   UNL d   1      -4.593  -5.258   2.088  0.00  0.00    -0.272 OA
ATOM     23  H   UNL d   1      -2.078  -3.433   1.511  0.00  0.00     0.170 HD
BRANCH  21  24
ATOM     24  C   UNL d   1      -2.766  -4.839   3.597  0.00  0.00     0.030 C 
ATOM     25  C   UNL d   1      -1.833  -3.689   4.007  0.00  0.00     0.025 C 
ATOM     26  C   UNL d   1      -3.778  -5.050   4.739  0.00  0.00     0.025 C 
ATOM     27  C   UNL d   1      -1.933  -6.110   3.383  0.00  0.00     0.025 C 
ENDBRANCH  21  24
ENDBRANCH   1  20
TORSDOF 3
