REMARK  0 active torsions:
REMARK  status: ('A' for Active; 'I' for Inactive)
ROOT
ATOM      1  C   UNL d   1       0.976  -1.950   0.121  0.00  0.00     0.021 A 
ATOM      2  C   UNL d   1      -0.159  -1.134   0.074  0.00  0.00     0.009 A 
ATOM      3  N   UNL d   1       1.293   0.706  -0.550  0.00  0.00    -0.359 N 
ATOM      4  HN  UNL d   1       1.410   1.696  -0.763  1.00  0.00     0.166 HD
ATOM      5  C   UNL d   1       2.239  -1.459  -0.226  0.00  0.00    -0.018 A 
ATOM      6  C   UNL d   1       0.068   0.211  -0.269  0.00  0.00     0.044 A 
ATOM      7  C   UNL d   1       2.362  -0.122  -0.546  0.00  0.00     0.013 A 
ATOM      8  S   UNL d   1       1.090  -3.659   0.624  0.00  0.00    -0.128 SA
ATOM      9  C   UNL d   1      -1.478  -1.584   0.326  0.00  0.00     0.022 A 
ATOM     10  C   UNL d   1      -1.022   1.068  -0.326  0.00  0.00     0.031 A 
ATOM     11  C   UNL d   1      -2.568  -0.715   0.219  0.00  0.00    -0.061 A 
ATOM     12  C   UNL d   1       2.900  -3.559   0.752  0.00  0.00     0.084 C 
ATOM     13  C   UNL d   1       3.307  -2.512  -0.279  0.00  0.00     0.052 C 
ATOM     14  C   UNL d   1      -2.328   0.621  -0.091  0.00  0.00     0.009 A 
ATOM     15  C   UNL d   1       3.689   0.486  -0.886  0.00  0.00     0.068 C 
ATOM     16  C   UNL d   1      -3.972  -1.203   0.418  0.00  0.00     0.048 C 
ENDROOT
TORSDOF 0
