REMARK  2 active torsions:
REMARK  status: ('A' for Active; 'I' for Inactive)
REMARK    1  A    between atoms: C_9  and  C_1 
REMARK    2  A    between atoms: O_13  and  C_11 
ROOT
ATOM      1  C   UNL d   1      -2.693  -0.500  -0.029  0.00  0.00     0.048 A 
ATOM      2  C   UNL d   1      -1.841   0.717  -0.012  0.00  0.00     0.197 A 
ATOM      3  C   UNL d   1      -0.386   0.497   0.007  0.00  0.00     0.049 A 
ATOM      4  C   UNL d   1      -2.078  -1.692  -0.037  0.00  0.00     0.159 A 
ATOM      5  C   UNL d   1       0.103  -0.809  -0.016  0.00  0.00     0.091 A 
ATOM      6  O   UNL d   1      -0.720  -1.909  -0.038  0.00  0.00    -0.321 OA
ATOM      7  C   UNL d   1       0.496   1.582   0.040  0.00  0.00     0.021 A 
ATOM      8  C   UNL d   1       1.479  -1.041  -0.020  0.00  0.00     0.074 A 
ATOM      9  O   UNL d   1      -2.308   1.851  -0.014  0.00  0.00    -0.286 OA
ATOM     10  C   UNL d   1       2.352   0.045   0.003  0.00  0.00     0.068 A 
ATOM     11  C   UNL d   1       1.871   1.352   0.038  0.00  0.00     0.037 A 
ENDROOT
BRANCH   1  12
ATOM     12  C   UNL d   1      -4.156  -0.402  -0.031  0.00  0.00    -0.020 A 
ATOM     13  C   UNL d   1      -4.862  -0.364   1.178  0.00  0.00     0.012 A 
ATOM     14  C   UNL d   1      -6.250  -0.214   1.177  0.00  0.00     0.001 A 
ATOM     15  C   UNL d   1      -6.941  -0.105  -0.029  0.00  0.00     0.000 A 
ATOM     16  C   UNL d   1      -6.247  -0.158  -1.237  0.00  0.00     0.001 A 
ATOM     17  C   UNL d   1      -4.858  -0.310  -1.240  0.00  0.00     0.012 A 
ENDBRANCH   1  12
BRANCH  10  18
ATOM     18  O   UNL d   1       3.704  -0.128  -0.012  0.00  0.00    -0.361 OA
ATOM     19  H   UNL d   1       3.902  -1.077  -0.082  0.00  0.00     0.217 HD
ENDBRANCH  10  18
TORSDOF 2
