REMARK  3 active torsions:
REMARK  status: ('A' for Active; 'I' for Inactive)
REMARK    1  A    between atoms: C_4  and  C_1 
REMARK       I    between atoms: N_5  and  C_1 
REMARK    2  A    between atoms: C_3  and  C_2 
REMARK    3  A    between atoms: C_11  and  N_5 
ROOT
ATOM      1  C   UNL d   1       0.824  -0.014   0.056  0.00  0.00     0.262 C 
ATOM      2  N   UNL d   1       0.059   0.100  -1.099  0.00  0.00    -0.323 N 
ATOM      3  O   UNL d   1       0.365   0.021   1.193  0.00  0.00    -0.267 OA
ATOM      4  H   UNL d   1       0.522  -0.061  -1.987  0.00  0.00     0.169 HD
ENDROOT
BRANCH   2   5
ATOM      5  C   UNL d   1      -1.313   0.427  -1.163  0.00  0.00     0.035 A 
ATOM      6  C   UNL d   1      -2.052   0.869  -0.062  0.00  0.00     0.047 A 
ATOM      7  C   UNL d   1      -3.414   1.241  -0.159  0.00  0.00     0.067 A 
ATOM      8  C   UNL d   1      -4.032   1.142  -1.407  0.00  0.00     0.026 A 
ATOM      9  C   UNL d   1      -3.304   0.689  -2.518  0.00  0.00     0.022 A 
ATOM     10 BR   UNL d   1      -5.844   1.601  -1.728  0.00  0.00    -0.050 Br
ATOM     11  C   UNL d   1      -1.954   0.344  -2.399  0.00  0.00     0.031 A 
BRANCH   7  12
ATOM     12  C   UNL d   1      -4.060   1.713   1.119  0.00  0.00     0.418 C 
ATOM     13  F   UNL d   1      -5.328   2.187   1.016  0.00  0.00    -0.166 F 
ATOM     14  F   UNL d   1      -4.117   0.724   2.057  0.00  0.00    -0.166 F 
ATOM     15  F   UNL d   1      -3.350   2.725   1.700  0.00  0.00    -0.166 F 
ENDBRANCH   7  12
ENDBRANCH   2   5
BRANCH   1  16
ATOM     16  C   UNL d   1       2.291  -0.210  -0.106  0.00  0.00     0.109 A 
ATOM     17  C   UNL d   1       2.938  -0.095  -1.338  0.00  0.00     0.135 A 
ATOM     18  F   UNL d   1       2.249   0.180  -2.457  0.00  0.00    -0.205 F 
ATOM     19  C   UNL d   1       4.322  -0.259  -1.453  0.00  0.00     0.043 A 
ATOM     20  C   UNL d   1       5.086  -0.544  -0.325  0.00  0.00     0.006 A 
ATOM     21  C   UNL d   1       4.460  -0.659   0.913  0.00  0.00     0.043 A 
ATOM     22  C   UNL d   1       3.079  -0.491   1.017  0.00  0.00     0.135 A 
ATOM     23  F   UNL d   1       2.546  -0.614   2.241  0.00  0.00    -0.205 F 
ENDBRANCH   1  16
TORSDOF 3
