REMARK  5 active torsions:
REMARK  status: ('A' for Active; 'I' for Inactive)
REMARK    1  A    between atoms: C_2  and  C_1 
REMARK       I    between atoms: N_6  and  C_2 
REMARK    2  A    between atoms: S_7  and  C_3 
REMARK    3  A    between atoms: C_4  and  C_5 
REMARK    4  A    between atoms: C_14  and  N_6 
REMARK    5  A    between atoms: C_15  and  S_7 
ROOT
ATOM      1  C   UNL d   1       0.708   1.518   0.000  0.00  0.00     0.081 C 
ATOM      2  C   UNL d   1      -0.524   1.519  -0.684  0.00  0.00     0.091 C 
ATOM      3  C   UNL d   1       1.366   0.283   0.128  0.00  0.00     0.067 C 
ATOM      4  N   UNL d   1      -1.224   0.378  -0.933  0.00  0.00    -0.359 N 
ATOM      5  HN  UNL d   1      -2.139   0.408  -1.383  1.00  0.00     0.166 HD
ATOM      6  C   UNL d   1      -0.670  -0.791  -0.566  0.00  0.00     0.089 C 
ATOM      7  C   UNL d   1       0.629  -0.892  -0.104  0.00  0.00     0.034 C 
ENDROOT
BRANCH   1   8
ATOM      8  C   UNL d   1       0.995   2.744   0.831  0.00  0.00     0.259 C 
ATOM      9  N   UNL d   1       2.202   2.858   1.498  0.00  0.00    -0.323 N 
ATOM     10  H   UNL d   1       3.000   2.337   1.164  0.00  0.00     0.169 HD
ATOM     11  O   UNL d   1       0.087   3.558   0.945  0.00  0.00    -0.267 OA
BRANCH   9  12
ATOM     12  C   UNL d   1       2.510   3.821   2.494  0.00  0.00     0.035 A 
ATOM     13  C   UNL d   1       1.560   4.630   3.126  0.00  0.00     0.031 A 
ATOM     14  C   UNL d   1       1.948   5.592   4.067  0.00  0.00     0.026 A 
ATOM     15  C   UNL d   1       3.292   5.740   4.390  0.00  0.00     0.034 A 
ATOM     16  C   UNL d   1       4.246   4.915   3.804  0.00  0.00     0.026 A 
ATOM     17 CL   UNL d   1       3.777   6.950   5.513  0.00  0.00    -0.084 Cl
ATOM     18  C   UNL d   1       3.855   3.951   2.868  0.00  0.00     0.031 A 
ENDBRANCH   9  12
ENDBRANCH   1   8
BRANCH   2  19
ATOM     19  S   UNL d   1      -0.765   2.803  -1.943  0.00  0.00    -0.072 SA
BRANCH  19  20
ATOM     20  C   UNL d   1      -2.199   3.767  -1.504  0.00  0.00     0.007 A 
ATOM     21  C   UNL d   1      -2.099   5.156  -1.688  0.00  0.00     0.019 A 
ATOM     22  C   UNL d   1      -3.216   5.987  -1.563  0.00  0.00     0.001 A 
ATOM     23  C   UNL d   1      -4.454   5.437  -1.251  0.00  0.00     0.000 A 
ATOM     24  C   UNL d   1      -4.566   4.059  -1.052  0.00  0.00     0.001 A 
ATOM     25  C   UNL d   1      -3.441   3.224  -1.181  0.00  0.00     0.019 A 
ENDBRANCH  19  20
ENDBRANCH   2  19
BRANCH   3  26
ATOM     26  C   UNL d   1       2.841   0.121   0.353  0.00  0.00     0.418 C 
ATOM     27  F   UNL d   1       3.559   1.256   0.115  0.00  0.00    -0.166 F 
ATOM     28  F   UNL d   1       3.153  -0.258   1.619  0.00  0.00    -0.166 F 
ATOM     29  F   UNL d   1       3.391  -0.818  -0.468  0.00  0.00    -0.166 F 
ENDBRANCH   3  26
TORSDOF 5
