REMARK  3 active torsions:
REMARK  status: ('A' for Active; 'I' for Inactive)
REMARK    1  A    between atoms: S_2  and  N_1 
REMARK    2  A    between atoms: C_9  and  S_2 
REMARK    3  A    between atoms: C_8  and  C_3 
ROOT
ATOM      1  N   UNL d   1       1.604   1.139  -0.014  0.00  0.00    -0.176 N 
ATOM      2  C   UNL d   1       1.661  -1.006   0.042  0.00  0.00     0.147 C 
ATOM      3  N   UNL d   1       2.457   0.077   0.098  0.00  0.00    -0.279 N 
ATOM      4  HN  UNL d   1       3.471   0.100   0.201  1.00  0.00     0.188 HD
ATOM      5  C   UNL d   1       0.289  -0.634   0.028  0.00  0.00     0.042 A 
ATOM      6  C   UNL d   1       0.270   0.763   0.027  0.00  0.00     0.084 A 
ATOM      7  N   UNL d   1      -2.097  -0.674   0.014  0.00  0.00    -0.374 N 
ATOM      8  HN  UNL d   1      -2.979  -1.186   0.010  1.00  0.00     0.164 HD
ATOM      9  C   UNL d   1      -0.921  -1.341   0.017  0.00  0.00     0.103 A 
ATOM     10  C   UNL d   1      -0.946   1.460   0.027  0.00  0.00     0.050 A 
ATOM     11  C   UNL d   1      -2.089   0.674   0.016  0.00  0.00     0.090 A 
ENDROOT
BRANCH   1  12
ATOM     12  S   UNL d   1       2.148   2.795  -0.042  0.00  0.00     0.282 S 
ATOM     13  O   UNL d   1       3.487   2.771  -0.597  0.00  0.00    -0.198 OA
ATOM     14  O   UNL d   1       1.083   3.564  -0.659  0.00  0.00    -0.198 OA
BRANCH  12  15
ATOM     15  C   UNL d   1       2.278   3.257   1.666  0.00  0.00     0.081 A 
ATOM     16  C   UNL d   1       3.147   2.558   2.514  0.00  0.00     0.028 A 
ATOM     17  C   UNL d   1       3.258   2.946   3.851  0.00  0.00     0.044 A 
ATOM     18  C   UNL d   1       2.519   4.028   4.321  0.00  0.00     0.116 A 
ATOM     19  C   UNL d   1       1.677   4.743   3.474  0.00  0.00     0.044 A 
ATOM     20  F   UNL d   1       2.626   4.393   5.605  0.00  0.00    -0.206 F 
ATOM     21  C   UNL d   1       1.557   4.362   2.137  0.00  0.00     0.028 A 
ENDBRANCH  12  15
ENDBRANCH   1  12
BRANCH   2  22
ATOM     22  C   UNL d   1       2.183  -2.417   0.029  0.00  0.00     0.434 C 
ATOM     23  F   UNL d   1       3.538  -2.496   0.028  0.00  0.00    -0.165 F 
ATOM     24  F   UNL d   1       1.748  -3.115   1.111  0.00  0.00    -0.165 F 
ATOM     25  F   UNL d   1       1.748  -3.097  -1.066  0.00  0.00    -0.165 F 
ENDBRANCH   2  22
TORSDOF 3
