REMARK  5 active torsions:
REMARK  status: ('A' for Active; 'I' for Inactive)
REMARK    1  A    between atoms: C_10  and  N_3 
REMARK    2  A    between atoms: N_8  and  C_6 
REMARK    3  A    between atoms: C_11  and  C_6 
REMARK    4  A    between atoms: C_12  and  N_8 
REMARK    5  A    between atoms: O_19  and  C_14 
ROOT
ATOM      1  C   UNL d   1      -0.004  -0.752   0.210  0.00  0.00     0.080 C 
ATOM      2  C   UNL d   1      -1.319  -0.122   0.494  0.00  0.00     0.281 C 
ATOM      3  N   UNL d   1      -1.111   1.215   0.147  0.00  0.00    -0.220 N 
ATOM      4  N   UNL d   1       0.218   1.524  -0.128  0.00  0.00    -0.294 N 
ATOM      5  HN  UNL d   1       0.597   2.441  -0.365  1.00  0.00     0.187 HD
ATOM      6  C   UNL d   1       0.178  -2.087   0.119  0.00  0.00     0.041 C 
ATOM      7  C   UNL d   1       0.885   0.403  -0.023  0.00  0.00     0.040 C 
ATOM      8  O   UNL d   1      -2.287  -0.673   0.995  0.00  0.00    -0.265 OA
ATOM      9  C   UNL d   1       2.370   0.349  -0.173  0.00  0.00     0.071 C 
ENDROOT
BRANCH   6  10
ATOM     10  N   UNL d   1      -0.825  -3.061   0.027  0.00  0.00    -0.258 NA
ATOM     11  H   UNL d   1      -1.157  -3.327   0.952  0.00  0.00     0.134 HD
BRANCH  10  12
ATOM     12  C   UNL d   1      -1.922  -2.926  -0.871  0.00  0.00     0.013 A 
ATOM     13  C   UNL d   1      -1.750  -2.431  -2.171  0.00  0.00     0.026 A 
ATOM     14  C   UNL d   1      -2.845  -2.233  -3.019  0.00  0.00     0.038 A 
ATOM     15  C   UNL d   1      -4.130  -2.539  -2.578  0.00  0.00     0.068 A 
ATOM     16  C   UNL d   1      -4.305  -3.103  -1.315  0.00  0.00     0.038 A 
ATOM     17  C   UNL d   1      -3.208  -3.303  -0.469  0.00  0.00     0.026 A 
BRANCH  15  18
ATOM     18  O   UNL d   1      -5.271  -2.362  -3.313  0.00  0.00    -0.356 OA
ATOM     19  C   UNL d   1      -5.243  -1.252  -4.205  0.00  0.00     0.210 C 
ENDBRANCH  15  18
ENDBRANCH  10  12
ENDBRANCH   6  10
BRANCH   6  20
ATOM     20  C   UNL d   1       1.525  -2.686   0.096  0.00  0.00    -0.014 A 
ATOM     21  C   UNL d   1       2.137  -3.035   1.309  0.00  0.00     0.013 A 
ATOM     22  C   UNL d   1       3.382  -3.664   1.317  0.00  0.00     0.001 A 
ATOM     23  C   UNL d   1       4.026  -3.945   0.114  0.00  0.00     0.000 A 
ATOM     24  C   UNL d   1       3.424  -3.605  -1.098  0.00  0.00     0.001 A 
ATOM     25  C   UNL d   1       2.171  -2.986  -1.109  0.00  0.00     0.013 A 
ENDBRANCH   6  20
BRANCH   3  26
ATOM     26  C   UNL d   1      -2.076   2.252   0.135  0.00  0.00     0.060 A 
ATOM     27  C   UNL d   1      -3.328   2.096   0.747  0.00  0.00     0.031 A 
ATOM     28  C   UNL d   1      -4.284   3.116   0.707  0.00  0.00     0.002 A 
ATOM     29  C   UNL d   1      -4.011   4.300   0.029  0.00  0.00     0.000 A 
ATOM     30  C   UNL d   1      -2.777   4.468  -0.595  0.00  0.00     0.002 A 
ATOM     31  C   UNL d   1      -1.812   3.458  -0.529  0.00  0.00     0.031 A 
ENDBRANCH   3  26
TORSDOF 5
