REMARK  3 active torsions:
REMARK  status: ('A' for Active; 'I' for Inactive)
REMARK    1  A    between atoms: C_5  and  C_1 
REMARK       I    between atoms: C_4  and  N_6 
REMARK    2  A    between atoms: C_8  and  C_4 
REMARK       I    between atoms: N_11  and  C_5 
REMARK       I    between atoms: N_6  and  C_10 
REMARK       I    between atoms: C_10  and  N_12 
REMARK    3  A    between atoms: N_12  and  N_11 
ROOT
ATOM      1  C   UNL d   1       4.281  -5.098   1.656  0.00  0.00     0.261 C 
ATOM      2  N   UNL d   1       4.910  -4.745   0.475  0.00  0.00    -0.274 N 
ATOM      3  C   UNL d   1       4.801  -3.602  -0.269  0.00  0.00     0.341 C 
ATOM      4  N   UNL d   1       3.857  -2.689   0.108  0.00  0.00    -0.248 N 
ATOM      5  O   UNL d   1       3.487  -4.376   2.250  0.00  0.00    -0.267 OA
ATOM      6  O   UNL d   1       5.534  -3.434  -1.246  0.00  0.00    -0.245 OA
ATOM      7  H   UNL d   1       5.588  -5.381   0.082  0.00  0.00     0.173 HD
ATOM      8  H   UNL d   1       3.406  -2.744   1.027  0.00  0.00     0.192 HD
ENDROOT
BRANCH   4   9
ATOM      9  N   UNL d   1       3.835  -1.450  -0.559  0.00  0.00    -0.261 N 
ATOM     10  C   UNL d   1       3.211  -0.368   0.038  0.00  0.00     0.278 C 
ATOM     11  O   UNL d   1       2.585  -0.528   1.089  0.00  0.00    -0.265 OA
ATOM     12  H   UNL d   1       4.451  -1.350  -1.363  0.00  0.00     0.190 HD
BRANCH  10  13
ATOM     13  C   UNL d   1       3.365   0.926  -0.620  0.00  0.00     0.097 A 
ATOM     14  S   UNL d   1       4.326   1.107  -2.028  0.00  0.00    -0.082 SA
ATOM     15  C   UNL d   1       4.119   2.814  -2.071  0.00  0.00     0.017 A 
ATOM     16  C   UNL d   1       4.703   3.719  -2.982  0.00  0.00     0.020 A 
ATOM     17  C   UNL d   1       3.271   3.248  -1.051  0.00  0.00     0.004 A 
ATOM     18  C   UNL d   1       4.449   5.086  -2.840  0.00  0.00     0.001 A 
ATOM     19  C   UNL d   1       3.613   5.545  -1.835  0.00  0.00     0.001 A 
ATOM     20  C   UNL d   1       3.013   4.642  -0.954  0.00  0.00     0.014 A 
ATOM     21  C   UNL d   1       2.819   2.140  -0.247  0.00  0.00     0.068 A 
ATOM     22 CL   UNL d   1       1.734   2.391   1.069  0.00  0.00    -0.082 Cl
ENDBRANCH  10  13
ENDBRANCH   4   9
BRANCH   1  23
ATOM     23  C   UNL d   1       4.708  -6.400   2.253  0.00  0.00     0.054 A 
ATOM     24  C   UNL d   1       5.033  -7.543   1.506  0.00  0.00     0.049 A 
ATOM     25 CL   UNL d   1       4.822  -7.648  -0.207  0.00  0.00    -0.083 Cl
ATOM     26  C   UNL d   1       5.531  -8.684   2.146  0.00  0.00     0.025 A 
ATOM     27  C   UNL d   1       5.686  -8.705   3.532  0.00  0.00     0.002 A 
ATOM     28  C   UNL d   1       5.319  -7.594   4.287  0.00  0.00     0.001 A 
ATOM     29  C   UNL d   1       4.828  -6.449   3.653  0.00  0.00     0.019 A 
ENDBRANCH   1  23
TORSDOF 3
