REMARK  11 active torsions:
REMARK  status: ('A' for Active; 'I' for Inactive)
REMARK    1  A    between atoms: C1*_3  and  N_1 
REMARK    2  A    between atoms: N_17  and  C_2 
REMARK    3  A    between atoms: C2*_8  and  O2*_24 
REMARK    4  A    between atoms: C3*_10  and  O3*_28 
REMARK    5  A    between atoms: C4*_11  and  C5*_32 
REMARK    6  A    between atoms: N_27  and  C_14 
REMARK    7  A    between atoms: N_18  and  N_17 
REMARK    8  A    between atoms: O_31  and  C_21 
REMARK    9  A    between atoms: O_33  and  C_22 
REMARK   10  A    between atoms: C_29  and  C_26 
REMARK   11  A    between atoms: O5*_34  and  C5*_32 
ROOT
ATOM      1  N   UNL d   1       1.625   1.159  -0.041  0.00  0.00    -0.134 N 
ATOM      2  C   UNL d   1       2.446   0.063   0.130  0.00  0.00     0.703 C 
ATOM      3  C   UNL d   1       0.334   0.720   0.105  0.00  0.00     0.158 A 
ATOM      4  N   UNL d   1       1.742  -1.053   0.132  0.00  0.00    -0.182 N 
ATOM      5  HN  UNL d   1       2.099  -2.008   0.150  1.00  0.00     0.184 HD
ATOM      6  C   UNL d   1       0.427  -0.658   0.104  0.00  0.00     0.137 A 
ATOM      7  N   UNL d   1      -0.788   1.458   0.144  0.00  0.00    -0.336 N 
ATOM      8  HN  UNL d   1      -0.810   2.478   0.161  1.00  0.00     0.168 HD
ATOM      9  C   UNL d   1      -0.780  -1.373   0.056  0.00  0.00     0.131 A 
ATOM     10  N   UNL d   1      -1.941  -0.680   0.108  0.00  0.00    -0.337 N 
ATOM     11  HN  UNL d   1      -2.839  -1.163   0.108  1.00  0.00     0.168 HD
ATOM     12  C   UNL d   1      -1.881   0.668   0.160  0.00  0.00     0.183 A 
ENDROOT
BRANCH   2  13
ATOM     13  N   UNL d   1       3.797   0.192   0.197  0.00  0.00    -0.132 N 
ATOM     14  H   UNL d   1       4.181   1.141   0.232  0.00  0.00     0.205 HD
BRANCH  13  15
ATOM     15  N   UNL d   1       4.601  -0.818  -0.242  0.00  0.00    -0.297 N 
ATOM     16  C   UNL d   1       5.878  -0.604  -0.184  0.00  0.00     0.119 C 
ATOM     17  HN  UNL d   1       4.218  -1.694  -0.596  1.00  0.00     0.186 HD
BRANCH  16  18
ATOM     18  C   UNL d   1       6.829  -1.620  -0.677  0.00  0.00    -0.017 A 
ATOM     19  C   UNL d   1       8.204  -1.374  -0.599  0.00  0.00     0.052 A 
ATOM     20  C   UNL d   1       9.109  -2.331  -1.073  0.00  0.00     0.102 A 
ATOM     21  C   UNL d   1       8.611  -3.522  -1.627  0.00  0.00     0.099 A 
ATOM     22  C   UNL d   1       7.239  -3.767  -1.709  0.00  0.00     0.040 A 
ATOM     23  C   UNL d   1       6.347  -2.812  -1.230  0.00  0.00     0.016 A 
BRANCH  20  24
ATOM     24  O   UNL d   1      10.473  -2.209  -1.046  0.00  0.00    -0.353 OA
ATOM     25  C   UNL d   1      11.024  -1.026  -0.489  0.00  0.00     0.210 C 
ENDBRANCH  20  24
BRANCH  21  26
ATOM     26  O   UNL d   1       9.492  -4.460  -2.096  0.00  0.00    -0.358 OA
ATOM     27  H   UNL d   1       8.994  -5.215  -2.448  0.00  0.00     0.217 HD
ENDBRANCH  21  26
ENDBRANCH  16  18
ENDBRANCH  13  15
ENDBRANCH   2  13
BRANCH   1  28
ATOM     28  C1* UNL d   1       1.990   2.525  -0.373  0.00  0.00     0.279 C 
ATOM     29  C2* UNL d   1       1.227   3.171  -1.541  0.00  0.00     0.199 C 
ATOM     30  C3* UNL d   1       2.106   2.886  -2.746  0.00  0.00     0.182 C 
ATOM     31  C4* UNL d   1       3.510   2.868  -2.155  0.00  0.00     0.179 C 
ATOM     32  O4* UNL d   1       3.399   2.588  -0.737  0.00  0.00    -0.353 OA
BRANCH  29  33
ATOM     33  O2* UNL d   1       1.112   4.601  -1.393  0.00  0.00    -0.388 OA
ATOM     34  H2* UNL d   1       1.912   4.932  -0.939  0.00  0.00     0.210 HD
ENDBRANCH  29  33
BRANCH  30  35
ATOM     35  O3* UNL d   1       1.988   3.903  -3.741  0.00  0.00    -0.390 OA
ATOM     36  H3* UNL d   1       1.548   4.663  -3.307  0.00  0.00     0.210 HD
ENDBRANCH  30  35
BRANCH  31  37
ATOM     37  C5* UNL d   1       4.419   1.848  -2.851  0.00  0.00     0.198 C 
BRANCH  37  38
ATOM     38  O5* UNL d   1       3.840   0.548  -2.874  0.00  0.00    -0.398 OA
ATOM     39  H5* UNL d   1       3.923   0.142  -1.982  0.00  0.00     0.209 HD
ENDBRANCH  37  38
ENDBRANCH  31  37
ENDBRANCH   1  28
BRANCH   9  40
ATOM     40  N   UNL d   1      -0.836  -2.751  -0.065  0.00  0.00    -0.383 N 
ATOM     41  H   UNL d   1       0.019  -3.230   0.195  0.00  0.00     0.157 HD
ATOM     42  H   UNL d   1      -1.724  -3.149   0.203  0.00  0.00     0.157 HD
ENDBRANCH   9  40
TORSDOF 11
