REMARK  2 active torsions:
REMARK  status: ('A' for Active; 'I' for Inactive)
REMARK    1  A    between atoms: C_11  and  C_5 
REMARK    2  A    between atoms: O_21  and  C_15 
ROOT
ATOM      1  N   UNL d   1       0.922   0.504  -0.055  0.00  0.00    -0.322 N 
ATOM      2  C   UNL d   1       1.724  -0.613  -0.135  0.00  0.00     0.044 A 
ATOM      3  N   UNL d   1      -0.340  -2.009  -0.042  0.00  0.00    -0.374 N 
ATOM      4  C   UNL d   1      -1.079  -0.831   0.023  0.00  0.00     0.059 A 
ATOM      5  C   UNL d   1       1.087  -1.950  -0.340  0.00  0.00     0.165 C 
ATOM      6  C   UNL d   1      -0.489   0.441  -0.057  0.00  0.00     0.065 A 
ATOM      7  C   UNL d   1      -2.476  -0.905   0.082  0.00  0.00     0.068 A 
ATOM      8  C   UNL d   1       1.736   1.611   0.047  0.00  0.00     0.097 A 
ATOM      9  C   UNL d   1       3.045  -0.211  -0.070  0.00  0.00     0.029 A 
ATOM     10  C   UNL d   1      -1.274   1.600  -0.083  0.00  0.00     0.035 A 
ATOM     11  C   UNL d   1       3.050   1.195   0.055  0.00  0.00     0.020 A 
ATOM     12  C   UNL d   1      -3.275   0.245   0.049  0.00  0.00     0.070 A 
ATOM     13  C   UNL d   1      -2.666   1.497  -0.039  0.00  0.00     0.039 A 
ATOM     14  H   UNL d   1      -0.636  -2.744   0.590  0.00  0.00     0.160 HD
ENDROOT
BRANCH   5  15
ATOM     15  C   UNL d   1       1.796  -3.084   0.392  0.00  0.00    -0.029 A 
ATOM     16  C   UNL d   1       1.996  -3.046   1.784  0.00  0.00     0.012 A 
ATOM     17  C   UNL d   1       2.646  -4.096   2.436  0.00  0.00     0.043 A 
ATOM     18  C   UNL d   1       3.090  -5.190   1.702  0.00  0.00     0.116 A 
ATOM     19  C   UNL d   1       2.896  -5.256   0.329  0.00  0.00     0.043 A 
ATOM     20  F   UNL d   1       3.714  -6.196   2.329  0.00  0.00    -0.206 F 
ATOM     21  C   UNL d   1       2.248  -4.207  -0.326  0.00  0.00     0.012 A 
ENDBRANCH   5  15
BRANCH  12  22
ATOM     22  O   UNL d   1      -4.621   0.012   0.098  0.00  0.00    -0.356 OA
ATOM     23  C   UNL d   1      -5.474   1.147   0.004  0.00  0.00     0.210 C 
ENDBRANCH  12  22
TORSDOF 2
