REMARK  3 active torsions:
REMARK  status: ('A' for Active; 'I' for Inactive)
REMARK    1  A    between atoms: C_6  and  C_1 
REMARK    2  A    between atoms: C_7  and  N_2 
REMARK    3  A    between atoms: C_8  and  C_6 
ROOT
ATOM      1  C   UNL d   1      -0.303   1.146  -0.034  0.00  0.00     0.044 A 
ATOM      2  N   UNL d   1       0.980  -0.737  -0.002  0.00  0.00    -0.319 N 
ATOM      3  C   UNL d   1       1.007   0.666  -0.018  0.00  0.00     0.027 A 
ATOM      4  C   UNL d   1      -0.361  -1.124  -0.034  0.00  0.00     0.014 A 
ATOM      5  C   UNL d   1      -1.144   0.013  -0.048  0.00  0.00     0.042 A 
ATOM      6  C   UNL d   1       2.250   1.500  -0.127  0.00  0.00     0.070 C 
ATOM      7  C   UNL d   1      -0.871  -2.525   0.049  0.00  0.00     0.068 C 
ENDROOT
BRANCH   2   8
ATOM      8  C   UNL d   1       2.117  -1.608   0.018  0.00  0.00     0.042 A 
ATOM      9  C   UNL d   1       3.259  -1.278   0.762  0.00  0.00     0.054 A 
ATOM     10  C   UNL d   1       4.393  -2.094   0.710  0.00  0.00     0.037 A 
ATOM     11 CL   UNL d   1       5.812  -1.632   1.567  0.00  0.00    -0.084 Cl
ATOM     12  C   UNL d   1       4.394  -3.267  -0.037  0.00  0.00     0.048 A 
ATOM     13  C   UNL d   1       3.249  -3.616  -0.744  0.00  0.00     0.037 A 
ATOM     14  C   UNL d   1       2.121  -2.792  -0.733  0.00  0.00     0.054 A 
ATOM     15 CL   UNL d   1       3.228  -5.069  -1.667  0.00  0.00    -0.084 Cl
ENDBRANCH   2   8
BRANCH   1  16
ATOM     16  C   UNL d   1      -0.689   2.572  -0.046  0.00  0.00     0.267 C 
ATOM     17  O   UNL d   1       0.085   3.427   0.387  0.00  0.00    -0.282 OA
BRANCH  16  18
ATOM     18  C   UNL d   1      -2.067   2.959  -0.597  0.00  0.00     0.456 C 
ATOM     19  F   UNL d   1      -2.710   1.965  -1.273  0.00  0.00    -0.163 F 
ATOM     20  F   UNL d   1      -2.920   3.355   0.389  0.00  0.00    -0.163 F 
ATOM     21  F   UNL d   1      -1.991   4.003  -1.473  0.00  0.00    -0.163 F 
ENDBRANCH  16  18
ENDBRANCH   1  16
TORSDOF 3
