REMARK  8 active torsions:
REMARK  status: ('A' for Active; 'I' for Inactive)
REMARK    1  A    between atoms: C_7  and  C_1 
REMARK    2  A    between atoms: O_8  and  C_1 
REMARK    3  A    between atoms: C_2  and  O_6 
REMARK    4  A    between atoms: C_11  and  C_2 
REMARK    5  A    between atoms: C_3  and  C_12 
REMARK    6  A    between atoms: N_13  and  C_3 
REMARK    7  A    between atoms: O_6  and  N_4 
REMARK    8  A    between atoms: C_12  and  O_8 
ROOT
ATOM      1  C   UNL d   1      -1.379  -2.351   1.182  0.00  0.00     0.100 C 
ATOM      2  N   UNL d   1      -0.613  -3.330   1.551  0.00  0.00    -0.248 N 
ATOM      3  HN  UNL d   1      -0.957  -4.233   1.880  1.00  0.00     0.196 HD
ENDROOT
BRANCH   1   4
ATOM      4  C   UNL d   1      -2.900  -2.584   1.247  0.00  0.00     0.250 C 
BRANCH   4   5
ATOM      5  O   UNL d   1      -3.434  -3.264   0.110  0.00  0.00    -0.314 OA
BRANCH   5   6
ATOM      6  C   UNL d   1      -3.469  -2.558  -1.049  0.00  0.00     0.266 C 
ATOM      7  O   UNL d   1      -3.015  -1.424  -1.174  0.00  0.00    -0.264 OA
BRANCH   6   8
ATOM      8  C   UNL d   1      -4.119  -3.350  -2.195  0.00  0.00     0.037 C 
ATOM      9  C   UNL d   1      -4.823  -4.632  -1.721  0.00  0.00     0.025 C 
ATOM     10  C   UNL d   1      -5.158  -2.449  -2.880  0.00  0.00     0.025 C 
ATOM     11  C   UNL d   1      -3.020  -3.725  -3.197  0.00  0.00     0.025 C 
ENDBRANCH   6   8
ENDBRANCH   5   6
ENDBRANCH   4   5
ENDBRANCH   1   4
BRANCH   1  12
ATOM     12  N   UNL d   1      -0.945  -1.130   0.717  0.00  0.00    -0.289 NA
ATOM     13  H   UNL d   1      -1.561  -0.721   0.009  0.00  0.00     0.125 HD
ATOM     14  H   UNL d   1       0.025  -1.136   0.426  0.00  0.00     0.125 HD
ENDBRANCH   1  12
BRANCH   2  15
ATOM     15  O   UNL d   1       0.753  -2.995   1.444  0.00  0.00    -0.194 OA
BRANCH  15  16
ATOM     16  C   UNL d   1       1.516  -4.000   1.976  0.00  0.00     0.315 C 
ATOM     17  O   UNL d   1       1.133  -5.039   2.496  0.00  0.00    -0.257 OA
BRANCH  16  18
ATOM     18  C   UNL d   1       2.956  -3.638   1.897  0.00  0.00     0.041 A 
ATOM     19  C   UNL d   1       3.458  -2.753   0.932  0.00  0.00     0.017 A 
ATOM     20  C   UNL d   1       4.822  -2.459   0.897  0.00  0.00     0.001 A 
ATOM     21  C   UNL d   1       5.692  -3.047   1.819  0.00  0.00     0.000 A 
ATOM     22  C   UNL d   1       5.201  -3.935   2.775  0.00  0.00     0.001 A 
ATOM     23  C   UNL d   1       3.837  -4.234   2.811  0.00  0.00     0.017 A 
ENDBRANCH  16  18
ENDBRANCH  15  16
ENDBRANCH   2  15
TORSDOF 8
