REMARK  1 active torsions:
REMARK  status: ('A' for Active; 'I' for Inactive)
REMARK    1  A    between atoms: C_5  and  N_1 
ROOT
ATOM      1  N   UNL d   1       0.373  -1.046  -0.020  0.00  0.00    -0.266 N 
ATOM      2  C   UNL d   1       1.577  -0.363  -0.013  0.00  0.00     0.148 A 
ATOM      3  C   UNL d   1      -0.788  -0.279  -0.015  0.00  0.00     0.239 A 
ATOM      4  S   UNL d   1       1.292   1.367   0.108  0.00  0.00    -0.090 SA
ATOM      5  S   UNL d   1       3.132  -0.954  -0.192  0.00  0.00    -0.052 SA
ATOM      6  C   UNL d   1      -0.494   1.193   0.073  0.00  0.00     0.185 A 
ATOM      7  O   UNL d   1      -1.940  -0.699  -0.041  0.00  0.00    -0.272 OA
ENDROOT
BRANCH   1   8
ATOM      8  C   UNL d   1       0.270  -2.466  -0.039  0.00  0.00     0.044 A 
ATOM      9  C   UNL d   1      -0.484  -3.107  -1.032  0.00  0.00     0.032 A 
ATOM     10  C   UNL d   1      -0.586  -4.502  -1.053  0.00  0.00     0.026 A 
ATOM     11  C   UNL d   1       0.035  -5.257  -0.061  0.00  0.00     0.034 A 
ATOM     12  C   UNL d   1       0.764  -4.631   0.948  0.00  0.00     0.026 A 
ATOM     13 CL   UNL d   1      -0.106  -6.971  -0.076  0.00  0.00    -0.084 Cl
ATOM     14  C   UNL d   1       0.888  -3.239   0.954  0.00  0.00     0.032 A 
ENDBRANCH   1   8
TORSDOF 1
