REMARK  6 active torsions:
REMARK  status: ('A' for Active; 'I' for Inactive)
REMARK    1  A    between atoms: C_2  and  C_1 
REMARK    2  A    between atoms: N_3  and  C_1 
REMARK       I    between atoms: N_9  and  C_2 
REMARK       I    between atoms: C_5  and  N_3 
REMARK    3  A    between atoms: C_6  and  C_4 
REMARK    4  A    between atoms: C_12  and  C_5 
REMARK    5  A    between atoms: N_7  and  N_9 
REMARK    6  A    between atoms: C_15  and  C_14 
ROOT
ATOM      1  C   UNL d   1       0.727  -0.172  -0.012  0.00  0.00     0.106 C 
ATOM      2  C   UNL d   1       2.079  -0.112  -0.018  0.00  0.00     0.048 C 
ENDROOT
BRANCH   1   3
ATOM      3  C   UNL d   1      -0.073  -0.778   1.167  0.00  0.00     0.286 C 
ATOM      4  N   UNL d   1       0.651  -0.858   2.335  0.00  0.00    -0.265 N 
ATOM      5  H   UNL d   1       1.550  -0.393   2.319  0.00  0.00     0.190 HD
ATOM      6  O   UNL d   1      -1.250  -1.066   0.993  0.00  0.00    -0.264 OA
BRANCH   4   7
ATOM      7  N   UNL d   1       0.514  -1.473   3.519  0.00  0.00    -0.308 N 
ATOM      8  C   UNL d   1      -0.382  -2.093   4.217  0.00  0.00     0.118 C 
ATOM      9  HN  UNL d   1       1.396  -1.443   4.032  1.00  0.00     0.186 HD
BRANCH   8  10
ATOM     10  C   UNL d   1      -1.800  -2.498   4.217  0.00  0.00    -0.019 A 
ATOM     11  C   UNL d   1      -2.614  -2.738   3.118  0.00  0.00     0.014 A 
ATOM     12  C   UNL d   1      -3.926  -3.215   3.301  0.00  0.00     0.024 A 
ATOM     13  C   UNL d   1      -4.417  -3.478   4.580  0.00  0.00     0.034 A 
ATOM     14  C   UNL d   1      -3.611  -3.269   5.689  0.00  0.00     0.024 A 
ATOM     15 CL   UNL d   1      -6.011  -4.093   4.791  0.00  0.00    -0.084 Cl
ATOM     16  C   UNL d   1      -2.315  -2.781   5.503  0.00  0.00     0.014 A 
ENDBRANCH   8  10
ENDBRANCH   4   7
ENDBRANCH   1   3
BRANCH   1  17
ATOM     17  N   UNL d   1      -0.037   0.279  -1.087  0.00  0.00    -0.318 N 
ATOM     18  C   UNL d   1       0.128  -0.287  -2.347  0.00  0.00     0.256 C 
ATOM     19  O   UNL d   1       0.814  -1.274  -2.590  0.00  0.00    -0.267 OA
ATOM     20  H   UNL d   1      -1.016   0.450  -0.866  0.00  0.00     0.169 HD
BRANCH  18  21
ATOM     21  C   UNL d   1      -0.649   0.321  -3.455  0.00  0.00     0.032 A 
ATOM     22  C   UNL d   1      -0.732   1.709  -3.603  0.00  0.00     0.017 A 
ATOM     23  C   UNL d   1      -1.356   2.247  -4.733  0.00  0.00     0.001 A 
ATOM     24  C   UNL d   1      -1.901   1.403  -5.704  0.00  0.00     0.000 A 
ATOM     25  C   UNL d   1      -1.824   0.020  -5.553  0.00  0.00     0.001 A 
ATOM     26  C   UNL d   1      -1.190  -0.522  -4.435  0.00  0.00     0.017 A 
ENDBRANCH  18  21
ENDBRANCH   1  17
BRANCH   2  27
ATOM     27  C   UNL d   1       2.924   0.676  -0.946  0.00  0.00    -0.012 A 
ATOM     28  C   UNL d   1       3.221   2.032  -0.707  0.00  0.00     0.044 A 
ATOM     29 CL   UNL d   1       2.593   2.873   0.670  0.00  0.00    -0.083 Cl
ATOM     30  C   UNL d   1       4.071   2.741  -1.564  0.00  0.00     0.024 A 
ATOM     31  C   UNL d   1       4.635   2.109  -2.671  0.00  0.00     0.002 A 
ATOM     32  C   UNL d   1       4.351   0.766  -2.915  0.00  0.00     0.001 A 
ATOM     33  C   UNL d   1       3.512   0.053  -2.053  0.00  0.00     0.013 A 
ENDBRANCH   2  27
TORSDOF 6
