REMARK  3 active torsions:
REMARK  status: ('A' for Active; 'I' for Inactive)
REMARK       I    between atoms: N_2  and  C_1 
REMARK    1  A    between atoms: C_5  and  C_1 
REMARK       I    between atoms: C_4  and  N_2 
REMARK    2  A    between atoms: C_3  and  C_4 
REMARK    3  A    between atoms: O_13  and  C_8 
ROOT
ATOM      1  C   UNL d   1       1.078  -0.051   0.273  0.00  0.00     0.261 C 
ATOM      2  N   UNL d   1       0.484   1.168   0.533  0.00  0.00    -0.289 N 
ATOM      3  C   UNL d   1       1.147   2.214   1.150  0.00  0.00     0.260 C 
ATOM      4  O   UNL d   1       2.189  -0.402   0.667  0.00  0.00    -0.267 OA
ATOM      5  O   UNL d   1       2.333   2.205   1.461  0.00  0.00    -0.267 OA
ATOM      6  H   UNL d   1      -0.493   1.280   0.330  0.00  0.00     0.172 HD
ENDROOT
BRANCH   1   7
ATOM      7  C   UNL d   1       0.284  -1.060  -0.479  0.00  0.00     0.065 A 
ATOM      8  C   UNL d   1       0.557  -2.425  -0.280  0.00  0.00     0.081 A 
ATOM      9  C   UNL d   1      -0.144  -3.405  -0.976  0.00  0.00     0.037 A 
ATOM     10  C   UNL d   1      -1.113  -3.033  -1.905  0.00  0.00     0.003 A 
ATOM     11  C   UNL d   1      -1.382  -1.682  -2.130  0.00  0.00     0.001 A 
ATOM     12  C   UNL d   1      -0.689  -0.694  -1.421  0.00  0.00     0.020 A 
BRANCH   8  13
ATOM     13  O   UNL d   1       1.518  -2.878   0.587  0.00  0.00    -0.360 OA
ATOM     14  H   UNL d   1       2.090  -2.115   0.833  0.00  0.00     0.217 HD
ENDBRANCH   8  13
ENDBRANCH   1   7
BRANCH   3  15
ATOM     15  C   UNL d   1       0.337   3.400   1.402  0.00  0.00     0.056 A 
ATOM     16  C   UNL d   1       0.829   4.509   2.068  0.00  0.00     0.158 A 
ATOM     17  O   UNL d   1      -0.108   5.483   2.163  0.00  0.00    -0.334 OA
ATOM     18  C   UNL d   1      -1.223   5.012   1.554  0.00  0.00     0.142 A 
ATOM     19  C   UNL d   1      -1.011   3.739   1.075  0.00  0.00     0.043 A 
ENDBRANCH   3  15
TORSDOF 3
