REMARK  2 active torsions:
REMARK  status: ('A' for Active; 'I' for Inactive)
REMARK    1  A    between atoms: N_9  and  C_3 
REMARK    2  A    between atoms: C_10  and  C_5 
ROOT
ATOM      1  N   UNL d   1      -1.711   1.380   0.028  0.00  0.00    -0.325 N 
ATOM      2  HN  UNL d   1      -2.290   2.220   0.035  1.00  0.00     0.169 HD
ATOM      3  C   UNL d   1      -0.358   1.472   0.010  0.00  0.00     0.129 A 
ATOM      4  C   UNL d   1       0.433   0.311   0.023  0.00  0.00     0.100 A 
ATOM      5  C   UNL d   1      -2.278   0.148   0.036  0.00  0.00     0.134 A 
ATOM      6  N   UNL d   1      -1.574  -1.000   0.018  0.00  0.00    -0.343 N 
ATOM      7  HN  UNL d   1      -2.043  -1.906   0.006  1.00  0.00     0.167 HD
ATOM      8  C   UNL d   1      -0.231  -0.909   0.018  0.00  0.00     0.032 A 
ATOM      9 CL   UNL d   1       2.162   0.343   0.124  0.00  0.00    -0.078 Cl
ATOM     10  C   UNL d   1       0.499  -2.221   0.015  0.00  0.00     0.070 C 
ENDROOT
BRANCH   5  11
ATOM     11  C   UNL d   1      -3.765   0.037   0.049  0.00  0.00     0.076 A 
ATOM     12  N   UNL d   1      -4.295  -1.221   0.139  0.00  0.00    -0.363 N 
ATOM     13  C   UNL d   1      -5.639  -1.361   0.132  0.00  0.00     0.088 A 
ATOM     14  HN  UNL d   1      -3.688  -2.038   0.210  1.00  0.00     0.165 HD
ATOM     15  C   UNL d   1      -6.519  -0.299   0.036  0.00  0.00     0.017 A 
ATOM     16  C   UNL d   1      -5.987   0.978  -0.050  0.00  0.00     0.004 A 
ATOM     17  C   UNL d   1      -4.599   1.153  -0.041  0.00  0.00     0.033 A 
ENDBRANCH   5  11
BRANCH   3  18
ATOM     18  N   UNL d   1       0.220   2.751   0.005  0.00  0.00    -0.366 N 
ATOM     19  C   UNL d   1      -0.608   3.912   0.350  0.00  0.00     0.124 C 
ATOM     20  C   UNL d   1      -0.431   4.888  -0.809  0.00  0.00     0.021 C 
ATOM     21  C   UNL d   1       0.967   4.587  -1.307  0.00  0.00     0.021 C 
ATOM     22  C   UNL d   1       1.083   3.075  -1.142  0.00  0.00     0.124 C 
ENDBRANCH   3  18
TORSDOF 2
