REMARK  9 active torsions:
REMARK  status: ('A' for Active; 'I' for Inactive)
REMARK    1  A    between atoms: C_18  and  N_1 
REMARK    2  A    between atoms: C_14  and  C_4 
REMARK    3  A    between atoms: C_23  and  C_5 
REMARK    4  A    between atoms: C_6  and  C_21 
REMARK    5  A    between atoms: C_22  and  N_7 
REMARK    6  A    between atoms: S_16  and  C_10 
REMARK    7  A    between atoms: C_15  and  C_31 
REMARK       I    between atoms: N_25  and  C_15 
REMARK    8  A    between atoms: C_31  and  S_16 
REMARK    9  A    between atoms: N_19  and  N_25 
ROOT
ATOM      1  C   UNL d   1      -5.131  -1.860   0.103  0.00  0.00     0.245 C 
ATOM      2  N   UNL d   1      -5.819  -0.693  -0.252  0.00  0.00    -0.270 N 
ATOM      3  O   UNL d   1      -5.711  -2.882   0.485  0.00  0.00    -0.271 OA
ATOM      4  H   UNL d   1      -5.327   0.196  -0.216  0.00  0.00     0.190 HD
ENDROOT
BRANCH   1   5
ATOM      5  C   UNL d   1      -3.606  -1.766  -0.029  0.00  0.00     0.186 C 
BRANCH   5   6
ATOM      6  S   UNL d   1      -2.883  -3.411   0.307  0.00  0.00    -0.083 SA
BRANCH   6   7
ATOM      7  C   UNL d   1      -1.175  -3.181   0.180  0.00  0.00     0.168 A 
ATOM      8  N   UNL d   1      -0.211  -4.007   0.759  0.00  0.00    -0.275 N 
ATOM      9  C   UNL d   1       1.003  -3.362   0.462  0.00  0.00     0.139 A 
ATOM     10  N   UNL d   1       0.737  -2.243  -0.195  0.00  0.00    -0.282 N 
ATOM     11  N   UNL d   1      -0.613  -2.138  -0.380  0.00  0.00    -0.278 N 
ATOM     12  HN  UNL d   1       1.430  -1.565  -0.511  1.00  0.00     0.188 HD
ATOM     13  HN  UNL d   1      -1.097  -1.384  -0.868  1.00  0.00     0.189 HD
BRANCH   8  14
ATOM     14  C   UNL d   1      -0.394  -5.213   1.510  0.00  0.00     0.043 A 
ATOM     15  C   UNL d   1       0.418  -5.483   2.624  0.00  0.00     0.030 A 
ATOM     16  C   UNL d   1       0.336  -6.711   3.287  0.00  0.00     0.002 A 
ATOM     17  C   UNL d   1      -0.598  -7.658   2.883  0.00  0.00     0.000 A 
ATOM     18  C   UNL d   1      -1.439  -7.385   1.807  0.00  0.00     0.002 A 
ATOM     19  C   UNL d   1      -1.334  -6.172   1.113  0.00  0.00     0.030 A 
ENDBRANCH   8  14
BRANCH   9  20
ATOM     20  C   UNL d   1       2.376  -3.802   0.775  0.00  0.00     0.013 A 
ATOM     21  C   UNL d   1       2.773  -5.143   0.770  0.00  0.00     0.032 A 
ATOM     22  C   UNL d   1       4.050  -5.468   1.202  0.00  0.00     0.088 A 
ATOM     23  N   UNL d   1       4.972  -4.553   1.561  0.00  0.00    -0.375 N 
ATOM     24  C   UNL d   1       4.604  -3.258   1.476  0.00  0.00     0.088 A 
ATOM     25  HN  UNL d   1       5.901  -4.827   1.882  1.00  0.00     0.164 HD
ATOM     26  C   UNL d   1       3.338  -2.840   1.100  0.00  0.00     0.032 A 
ENDBRANCH   9  20
ENDBRANCH   6   7
ENDBRANCH   5   6
ENDBRANCH   1   5
BRANCH   2  27
ATOM     27  N   UNL d   1      -7.196  -0.576  -0.080  0.00  0.00    -0.308 N 
ATOM     28  C   UNL d   1      -7.890  -1.595  -0.489  0.00  0.00     0.122 C 
ATOM     29  HN  UNL d   1      -7.627   0.249   0.337  1.00  0.00     0.186 HD
BRANCH  28  30
ATOM     30  C   UNL d   1      -9.317  -1.666  -0.286  0.00  0.00     0.028 A 
ATOM     31  C   UNL d   1     -10.279  -2.397  -1.027  0.00  0.00     0.078 A 
ATOM     32  N   UNL d   1     -11.486  -2.370  -0.443  0.00  0.00    -0.292 N 
ATOM     33  N   UNL d   1     -11.339  -1.535   0.622  0.00  0.00    -0.266 N 
ATOM     34  HN  UNL d   1     -12.329  -2.865  -0.733  1.00  0.00     0.187 HD
ATOM     35  C   UNL d   1     -10.033  -1.129   0.761  0.00  0.00     0.132 A 
BRANCH  31  36
ATOM     36  C   UNL d   1     -10.044  -3.140  -2.319  0.00  0.00     0.034 A 
ATOM     37  S   UNL d   1      -8.777  -2.796  -3.420  0.00  0.00    -0.100 SA
ATOM     38  C   UNL d   1      -9.250  -4.050  -4.475  0.00  0.00     0.050 A 
ATOM     39  C   UNL d   1     -10.364  -4.711  -4.013  0.00  0.00     0.008 A 
ATOM     40  C   UNL d   1     -10.840  -4.169  -2.780  0.00  0.00     0.021 A 
ENDBRANCH  31  36
BRANCH  33  41
ATOM     41  C   UNL d   1     -12.449  -1.173   1.440  0.00  0.00     0.056 A 
ATOM     42  C   UNL d   1     -12.278  -0.323   2.546  0.00  0.00     0.031 A 
ATOM     43  C   UNL d   1     -13.376   0.049   3.327  0.00  0.00     0.002 A 
ATOM     44  C   UNL d   1     -14.647  -0.427   3.016  0.00  0.00     0.000 A 
ATOM     45  C   UNL d   1     -14.825  -1.277   1.925  0.00  0.00     0.002 A 
ATOM     46  C   UNL d   1     -13.731  -1.652   1.139  0.00  0.00     0.031 A 
ENDBRANCH  33  41
ENDBRANCH  28  30
ENDBRANCH   2  27
TORSDOF 9
