REMARK  3 active torsions:
REMARK  status: ('A' for Active; 'I' for Inactive)
REMARK    1  A    between atoms: N_6  and  C_1 
REMARK       I    between atoms: C_8  and  N_6 
REMARK    2  A    between atoms: C_11  and  C_8 
REMARK    3  A    between atoms: N_10  and  C_11 
ROOT
ATOM      1  C   UNL d   1      -1.770  -2.197  -0.322  0.00  0.00     0.078 C 
ATOM      2  C   UNL d   1      -2.573  -2.491  -1.397  0.00  0.00     0.080 C 
ATOM      3  S   UNL d   1      -2.486  -1.121   0.774  0.00  0.00    -0.081 SA
ATOM      4  C   UNL d   1      -3.599  -1.472  -1.512  0.00  0.00    -0.026 C 
ATOM      5  C   UNL d   1      -3.724  -0.748  -0.332  0.00  0.00    -0.012 C 
ATOM      6  C   UNL d   1      -2.268  -3.482  -2.394  0.00  0.00     0.102 C 
ATOM      7  N   UNL d   1      -2.082  -4.271  -3.220  0.00  0.00    -0.191 NA
ATOM      8  C   UNL d   1      -4.365  -1.137  -2.754  0.00  0.00     0.051 C 
ATOM      9  C   UNL d   1      -4.691   0.340  -0.007  0.00  0.00     0.057 C 
ENDROOT
BRANCH   1  10
ATOM     10  N   UNL d   1      -0.410  -2.328  -0.136  0.00  0.00    -0.221 NA
ATOM     11  C   UNL d   1       0.132  -3.423   0.508  0.00  0.00     0.219 C 
ATOM     12  O   UNL d   1      -0.433  -4.503   0.658  0.00  0.00    -0.278 OA
ATOM     13  H   UNL d   1      -0.009  -1.484   0.259  0.00  0.00     0.137 HD
BRANCH  11  14
ATOM     14  C   UNL d   1       1.590  -3.177   0.978  0.00  0.00     0.214 C 
BRANCH  14  15
ATOM     15  N   UNL d   1       1.958  -1.776   1.276  0.00  0.00    -0.400 N 
ATOM     16  C   UNL d   1       1.297  -1.111   2.397  0.00  0.00     0.143 C 
ATOM     17  C   UNL d   1       1.604   0.392   2.539  0.00  0.00     0.187 C 
ATOM     18  O   UNL d   1       1.603   1.046   1.266  0.00  0.00    -0.388 OA
ATOM     19  C   UNL d   1       2.668   0.525   0.468  0.00  0.00     0.187 C 
ATOM     20  C   UNL d   1       2.465  -0.970   0.167  0.00  0.00     0.143 C 
ENDBRANCH  14  15
ENDBRANCH  11  14
ENDBRANCH   1  10
TORSDOF 3
