REMARK  6 active torsions:
REMARK  status: ('A' for Active; 'I' for Inactive)
REMARK    1  A    between atoms: C_3  and  C_1 
REMARK    2  A    between atoms: C_12  and  N_2 
REMARK    3  A    between atoms: S_16  and  C_6 
REMARK    4  A    between atoms: C_27  and  S_16 
REMARK    5  A    between atoms: C_20  and  C_22 
REMARK    6  A    between atoms: C_22  and  C_27 
ROOT
ATOM      1  C   UNL d   1      -0.157  -1.380  -0.018  0.00  0.00     0.145 A 
ATOM      2  N   UNL d   1       1.131  -0.865  -0.019  0.00  0.00    -0.305 N 
ATOM      3  N   UNL d   1      -1.007  -0.375  -0.131  0.00  0.00    -0.282 N 
ATOM      4  HN  UNL d   1      -2.023  -0.456  -0.171  1.00  0.00     0.188 HD
ATOM      5  C   UNL d   1       0.986   0.499  -0.124  0.00  0.00     0.163 A 
ATOM      6  N   UNL d   1      -0.293   0.797  -0.186  0.00  0.00    -0.278 N 
ATOM      7  HN  UNL d   1      -0.687   1.735  -0.261  1.00  0.00     0.189 HD
ENDROOT
BRANCH   5   8
ATOM      8  S   UNL d   1       2.264   1.649  -0.317  0.00  0.00    -0.085 SA
BRANCH   8   9
ATOM      9  C   UNL d   1       1.351   3.223  -0.326  0.00  0.00     0.166 C 
BRANCH   9  10
ATOM     10  C   UNL d   1       2.274   4.420  -0.540  0.00  0.00     0.169 C 
ATOM     11  O   UNL d   1       3.494   4.330  -0.645  0.00  0.00    -0.291 OA
BRANCH  10  12
ATOM     12  C   UNL d   1       1.655   5.785  -0.633  0.00  0.00     0.013 A 
ATOM     13  C   UNL d   1       2.499   6.882  -0.881  0.00  0.00     0.055 A 
ATOM     14  C   UNL d   1       1.927   8.132  -1.008  0.00  0.00     0.105 A 
ATOM     15  O   UNL d   1       2.591   9.290  -1.269  0.00  0.00    -0.323 OA
ATOM     16  C   UNL d   1       0.573   8.323  -0.887  0.00  0.00     0.105 A 
ATOM     17  C   UNL d   1       1.493  10.223  -1.352  0.00  0.00     0.352 A 
ATOM     18  O   UNL d   1       0.213   9.623  -1.062  0.00  0.00    -0.323 OA
ATOM     19  C   UNL d   1      -0.285   7.278  -0.623  0.00  0.00     0.040 A 
ATOM     20  C   UNL d   1       0.264   5.994  -0.496  0.00  0.00     0.018 A 
ENDBRANCH  10  12
ENDBRANCH   9  10
ENDBRANCH   8   9
ENDBRANCH   5   8
BRANCH   2  21
ATOM     21  C   UNL d   1       2.333  -1.678   0.037  0.00  0.00     0.094 A 
ATOM     22  C   UNL d   1       3.004  -1.940   1.371  0.00  0.00     0.028 A 
ATOM     23  C   UNL d   1       3.762  -1.262   0.274  0.00  0.00     0.028 A 
ENDBRANCH   2  21
BRANCH   1  24
ATOM     24  C   UNL d   1      -0.580  -2.742   0.144  0.00  0.00     0.092 A 
ATOM     25  C   UNL d   1      -1.681  -3.402  -0.396  0.00  0.00     0.044 A 
ATOM     26  N   UNL d   1      -1.810  -4.737  -0.012  0.00  0.00    -0.298 N 
ATOM     27  C   UNL d   1      -2.721  -2.880  -1.317  0.00  0.00     0.071 C 
ATOM     28  N   UNL d   1      -0.871  -5.103   0.837  0.00  0.00    -0.269 N 
ATOM     29  HN  UNL d   1      -2.546  -5.358  -0.349  1.00  0.00     0.187 HD
ATOM     30  S   UNL d   1       0.165  -3.861   1.220  0.00  0.00     0.007 SA
ATOM     31  HN  UNL d   1      -0.788  -6.046   1.218  1.00  0.00     0.195 HD
ENDBRANCH   1  24
TORSDOF 6
