REMARK  2 active torsions:
REMARK  status: ('A' for Active; 'I' for Inactive)
REMARK    1  A    between atoms: C_8  and  N_1 
REMARK    2  A    between atoms: S_10  and  C_2 
ROOT
ATOM      1  N   UNL d   1       2.433  -0.637  -0.040  0.00  0.00    -0.257 N 
ATOM      2  C   UNL d   1       2.334   0.751   0.057  0.00  0.00     0.152 A 
ATOM      3  C   UNL d   1       1.267  -1.416  -0.076  0.00  0.00     0.267 A 
ATOM      4  N   UNL d   1       1.217   1.400   0.115  0.00  0.00    -0.336 N 
ATOM      5  HN  UNL d   1       1.212   2.417   0.201  1.00  0.00     0.168 HD
ATOM      6  C   UNL d   1      -0.017  -0.697  -0.026  0.00  0.00     0.059 A 
ATOM      7  C   UNL d   1       0.018   0.689   0.059  0.00  0.00     0.049 A 
ATOM      8  O   UNL d   1       1.235  -2.646  -0.119  0.00  0.00    -0.267 OA
ATOM      9  C   UNL d   1      -1.235  -1.388  -0.071  0.00  0.00     0.019 A 
ATOM     10  C   UNL d   1      -1.188   1.394   0.066  0.00  0.00     0.030 A 
ATOM     11  C   UNL d   1      -2.433  -0.675  -0.055  0.00  0.00     0.001 A 
ATOM     12  C   UNL d   1      -2.409   0.717   0.005  0.00  0.00     0.002 A 
ENDROOT
BRANCH   1  13
ATOM     13  C   UNL d   1       3.675  -1.346  -0.085  0.00  0.00     0.060 A 
ATOM     14  C   UNL d   1       4.674  -1.177   0.873  0.00  0.00     0.117 A 
ATOM     15  N   UNL d   1       5.869  -1.815   0.849  0.00  0.00    -0.373 N 
ATOM     16  C   UNL d   1       6.074  -2.689  -0.160  0.00  0.00     0.088 A 
ATOM     17  HN  UNL d   1       6.581  -1.643   1.560  1.00  0.00     0.164 HD
ATOM     18  C   UNL d   1       5.141  -2.951  -1.147  0.00  0.00     0.019 A 
ATOM     19  C   UNL d   1       3.926  -2.273  -1.102  0.00  0.00     0.033 A 
ENDBRANCH   1  13
BRANCH   2  20
ATOM     20  S   UNL d   1       3.763   1.773   0.008  0.00  0.00    -0.106 SA
ATOM     21  H   UNL d   1       4.535   0.985  -0.750  0.00  0.00     0.110 HD
ENDBRANCH   2  20
TORSDOF 2
