REMARK  5 active torsions:
REMARK  status: ('A' for Active; 'I' for Inactive)
REMARK    1  A    between atoms: N_2  and  C_1 
REMARK    2  A    between atoms: N_8  and  C_1 
REMARK    3  A    between atoms: C_4  and  N_2 
REMARK    4  A    between atoms: N_3  and  C_5 
REMARK    5  A    between atoms: C_12  and  N_8 
ROOT
ATOM      1  C   UNL d   1       0.572   0.258  -0.037  0.00  0.00     0.176 C 
ATOM      2  S   UNL d   1      -0.704   1.195   0.505  0.00  0.00    -0.041 SA
ENDROOT
BRANCH   1   3
ATOM      3  N   UNL d   1       0.203  -0.963  -0.555  0.00  0.00    -0.331 N 
ATOM      4  H   UNL d   1      -0.780  -0.957  -0.812  0.00  0.00     0.168 HD
BRANCH   3   5
ATOM      5  C   UNL d   1       0.968  -2.015  -1.103  0.00  0.00     0.061 A 
ATOM      6  C   UNL d   1       2.150  -2.574  -0.535  0.00  0.00     0.057 A 
ATOM      7  C   UNL d   1       2.782  -3.585  -1.282  0.00  0.00     0.031 A 
ATOM      8  C   UNL d   1       2.291  -4.060  -2.498  0.00  0.00     0.002 A 
ATOM      9  C   UNL d   1       1.116  -3.531  -3.019  0.00  0.00     0.002 A 
ATOM     10  C   UNL d   1       0.453  -2.533  -2.314  0.00  0.00     0.032 A 
BRANCH   6  11
ATOM     11  N   UNL d   1       2.653  -2.250   0.722  0.00  0.00    -0.375 N 
ATOM     12  C   UNL d   1       1.787  -1.910   1.864  0.00  0.00     0.149 C 
ATOM     13  C   UNL d   1       2.329  -2.517   3.170  0.00  0.00     0.187 C 
ATOM     14  O   UNL d   1       3.707  -2.179   3.384  0.00  0.00    -0.388 OA
ATOM     15  C   UNL d   1       4.508  -2.688   2.306  0.00  0.00     0.187 C 
ATOM     16  C   UNL d   1       4.099  -2.081   0.960  0.00  0.00     0.149 C 
ENDBRANCH   6  11
ENDBRANCH   3   5
ENDBRANCH   1   3
BRANCH   1  17
ATOM     17  N   UNL d   1       1.908   0.561  -0.100  0.00  0.00    -0.333 N 
ATOM     18  H   UNL d   1       2.487  -0.263  -0.217  0.00  0.00     0.168 HD
BRANCH  17  19
ATOM     19  C   UNL d   1       2.601   1.786  -0.222  0.00  0.00     0.035 C 
ATOM     20  C   UNL d   1       1.991   3.041  -0.273  0.00  0.00     0.043 C 
ATOM     21  C   UNL d   1       2.697   4.129  -0.818  0.00  0.00    -0.006 A 
ATOM     22  C   UNL d   1       2.322   5.449  -1.182  0.00  0.00     0.030 A 
ATOM     23  C   UNL d   1       4.031   3.962  -1.177  0.00  0.00     0.042 A 
ATOM     24  C   UNL d   1       3.380   6.005  -1.863  0.00  0.00     0.089 A 
ATOM     25  N   UNL d   1       4.424   5.119  -1.812  0.00  0.00    -0.365 N 
ATOM     26  H   UNL d   1       5.322   5.250  -2.256  0.00  0.00     0.165 HD
ATOM     27  C   UNL d   1       4.728   2.778  -0.939  0.00  0.00     0.033 C 
ATOM     28  C   UNL d   1       3.980   1.692  -0.477  0.00  0.00     0.032 C 
ENDBRANCH  17  19
ENDBRANCH   1  17
TORSDOF 5
