REMARK  5 active torsions:
REMARK  status: ('A' for Active; 'I' for Inactive)
REMARK    1  A    between atoms: C_11  and  N_7 
REMARK    2  A    between atoms: N_13  and  C_10 
REMARK    3  A    between atoms: C_20  and  C_11 
REMARK    4  A    between atoms: N_15  and  N_13 
REMARK    5  A    between atoms: C_21  and  C_19 
ROOT
ATOM      1  C   UNL d   1      -0.228  -0.834   0.035  0.00  0.00     0.160 A 
ATOM      2  C   UNL d   1      -0.525   0.492   0.035  0.00  0.00     0.165 A 
ATOM      3  N   UNL d   1      -1.333  -1.600  -0.001  0.00  0.00    -0.172 N 
ATOM      4  HN  UNL d   1      -1.372  -2.620  -0.011  1.00  0.00     0.186 HD
ATOM      5  N   UNL d   1       1.059  -1.310   0.026  0.00  0.00    -0.287 N 
ATOM      6  N   UNL d   1       1.795   0.959   0.018  0.00  0.00    -0.269 N 
ATOM      7  N   UNL d   1      -1.908   0.546   0.061  0.00  0.00    -0.168 N 
ATOM      8  C   UNL d   1       2.119  -0.408   0.024  0.00  0.00     0.332 A 
ATOM      9  C   UNL d   1       0.495   1.490  -0.014  0.00  0.00     0.282 A 
ATOM     10  C   UNL d   1      -2.355  -0.770  -0.022  0.00  0.00     0.701 A 
ATOM     11  O   UNL d   1       3.289  -0.802   0.017  0.00  0.00    -0.246 OA
ATOM     12  O   UNL d   1       0.266   2.693  -0.103  0.00  0.00    -0.265 OA
ATOM     13  C   UNL d   1       1.338  -2.730   0.007  0.00  0.00     0.163 C 
ATOM     14  C   UNL d   1       2.887   1.914   0.000  0.00  0.00     0.164 C 
ENDROOT
BRANCH  10  15
ATOM     15  N   UNL d   1      -3.650  -1.154  -0.165  0.00  0.00    -0.132 N 
ATOM     16  H   UNL d   1      -4.423  -0.533   0.046  0.00  0.00     0.205 HD
BRANCH  15  17
ATOM     17  N   UNL d   1      -3.901  -2.369  -0.744  0.00  0.00    -0.297 N 
ATOM     18  C   UNL d   1      -5.104  -2.840  -0.719  0.00  0.00     0.119 C 
ATOM     19  HN  UNL d   1      -3.149  -2.894  -1.190  1.00  0.00     0.186 HD
BRANCH  18  20
ATOM     20  C   UNL d   1      -5.424  -4.128  -1.384  0.00  0.00    -0.019 A 
ATOM     21  C   UNL d   1      -4.423  -4.879  -2.015  0.00  0.00     0.013 A 
ATOM     22  C   UNL d   1      -4.750  -6.061  -2.685  0.00  0.00     0.001 A 
ATOM     23  C   UNL d   1      -6.074  -6.498  -2.725  0.00  0.00     0.000 A 
ATOM     24  C   UNL d   1      -7.070  -5.759  -2.085  0.00  0.00     0.001 A 
ATOM     25  C   UNL d   1      -6.748  -4.576  -1.411  0.00  0.00     0.013 A 
ENDBRANCH  18  20
ENDBRANCH  15  17
ENDBRANCH  10  15
BRANCH   7  26
ATOM     26  C   UNL d   1      -2.711   1.761   0.003  0.00  0.00     0.186 C 
BRANCH  26  27
ATOM     27  C   UNL d   1      -3.039   2.299   1.378  0.00  0.00    -0.039 A 
ATOM     28  C   UNL d   1      -2.152   3.156   2.050  0.00  0.00     0.009 A 
ATOM     29  C   UNL d   1      -2.428   3.606   3.343  0.00  0.00     0.001 A 
ATOM     30  C   UNL d   1      -3.604   3.222   3.977  0.00  0.00     0.000 A 
ATOM     31  C   UNL d   1      -4.514   2.404   3.310  0.00  0.00     0.001 A 
ATOM     32  C   UNL d   1      -4.235   1.947   2.019  0.00  0.00     0.009 A 
ENDBRANCH  26  27
ENDBRANCH   7  26
TORSDOF 5
