REMARK  0 active torsions:
REMARK  status: ('A' for Active; 'I' for Inactive)
ROOT
ATOM      1  N   UNL d   1       1.440  -1.643   0.057  0.00  0.00    -0.358 N 
ATOM      2  HN  UNL d   1       1.189  -2.630   0.111  1.00  0.00     0.166 HD
ATOM      3  C   UNL d   1       0.471  -0.696   0.103  0.00  0.00     0.049 A 
ATOM      4  C   UNL d   1       3.106   0.039  -0.120  0.00  0.00    -0.003 A 
ATOM      5  C   UNL d   1       2.132   1.017  -0.051  0.00  0.00    -0.012 A 
ATOM      6  C   UNL d   1       0.782   0.683   0.041  0.00  0.00     0.000 A 
ATOM      7  C   UNL d   1       2.743  -1.285  -0.059  0.00  0.00     0.014 A 
ATOM      8  O   UNL d   1       4.199   2.088  -0.221  0.00  0.00    -0.382 OA
ATOM      9  C   UNL d   1      -0.876  -1.061   0.210  0.00  0.00    -0.034 A 
ATOM     10  C   UNL d   1       4.437   0.664  -0.277  0.00  0.00     0.209 A 
ATOM     11  C   UNL d   1       2.784   2.350  -0.090  0.00  0.00     0.208 A 
ATOM     12  C   UNL d   1      -0.241   1.651   0.058  0.00  0.00     0.014 A 
ATOM     13  C   UNL d   1       3.732  -2.404  -0.150  0.00  0.00     0.069 C 
ATOM     14  C   UNL d   1      -1.575   1.264   0.126  0.00  0.00     0.002 A 
ATOM     15  C   UNL d   1      -1.891  -0.087   0.204  0.00  0.00     0.009 A 
ATOM     16  C   UNL d   1      -1.287  -2.509   0.300  0.00  0.00     0.050 C 
ENDROOT
TORSDOF 0
