REMARK  1 active torsions:
REMARK  status: ('A' for Active; 'I' for Inactive)
REMARK    1  A    between atoms: O_12  and  C_2 
ROOT
ATOM      1  C   UNL d   1      -0.022  -0.765   0.048  0.00  0.00     0.043 A 
ATOM      2  C   UNL d   1       1.245  -1.355   0.093  0.00  0.00     0.153 A 
ATOM      3  N   UNL d   1       2.400  -0.679   0.102  0.00  0.00    -0.332 N 
ATOM      4  HN  UNL d   1       3.305  -1.147   0.146  1.00  0.00     0.168 HD
ATOM      5  C   UNL d   1       0.005   0.637  -0.005  0.00  0.00     0.047 A 
ATOM      6  N   UNL d   1       1.142   1.341  -0.007  0.00  0.00    -0.352 N 
ATOM      7  HN  UNL d   1       1.137   2.360  -0.051  1.00  0.00     0.166 HD
ATOM      8  C   UNL d   1       2.287   0.649   0.050  0.00  0.00     0.182 A 
ATOM      9  C   UNL d   1      -1.270  -1.443   0.060  0.00  0.00     0.037 A 
ATOM     10  C   UNL d   1      -1.201   1.325  -0.058  0.00  0.00     0.032 A 
ATOM     11  C   UNL d   1      -2.461  -0.723  -0.001  0.00  0.00     0.012 A 
ATOM     12  C   UNL d   1      -2.432   0.663  -0.061  0.00  0.00     0.021 A 
ATOM     13 BR   UNL d   1      -4.115  -1.633  -0.003  0.00  0.00    -0.051 Br
ENDROOT
BRANCH   2  14
ATOM     14  O   UNL d   1       1.427  -2.709   0.133  0.00  0.00    -0.345 OA
ATOM     15  H   UNL d   1       0.619  -3.147  -0.164  0.00  0.00     0.219 HD
ENDBRANCH   2  14
TORSDOF 1
