REMARK  4 active torsions:
REMARK  status: ('A' for Active; 'I' for Inactive)
REMARK    1  A    between atoms: C_7  and  C_2 
REMARK    2  A    between atoms: N_5  and  C_7 
REMARK    3  A    between atoms: C_8  and  N_5 
REMARK    4  A    between atoms: O_14  and  C_9 
ROOT
ATOM      1  N   UNL d   1       0.265   3.524  -0.278  0.00  0.00    -0.287 NA
ATOM      2  H   UNL d   1      -0.576   3.033   0.018  0.00  0.00     0.128 HD
ENDROOT
BRANCH   1   3
ATOM      3  C   UNL d   1       0.724   3.027  -1.579  0.00  0.00     0.149 C 
BRANCH   3   4
ATOM      4  C   UNL d   1       2.206   2.972  -1.738  0.00  0.00     0.022 A 
ATOM      5  N   UNL d   1       3.031   2.784  -0.654  0.00  0.00    -0.368 N 
ATOM      6  C   UNL d   1       4.337   2.795  -1.062  0.00  0.00     0.088 A 
ATOM      7  H   UNL d   1       2.697   2.703   0.300  0.00  0.00     0.165 HD
ATOM      8  C   UNL d   1       4.356   3.001  -2.422  0.00  0.00     0.019 A 
ATOM      9  C   UNL d   1       3.012   3.110  -2.852  0.00  0.00     0.027 A 
ENDBRANCH   3   4
ENDBRANCH   1   3
BRANCH   1  10
ATOM     10  C   UNL d   1       0.095   4.911  -0.129  0.00  0.00     0.008 A 
ATOM     11  C   UNL d   1      -0.815   5.387   0.827  0.00  0.00     0.026 A 
ATOM     12  C   UNL d   1      -1.007   6.760   1.041  0.00  0.00     0.038 A 
ATOM     13  C   UNL d   1      -0.262   7.689   0.320  0.00  0.00     0.068 A 
ATOM     14  C   UNL d   1       0.694   7.228  -0.581  0.00  0.00     0.038 A 
ATOM     15  C   UNL d   1       0.883   5.859  -0.790  0.00  0.00     0.026 A 
BRANCH  13  16
ATOM     16  O   UNL d   1      -0.355   9.049   0.404  0.00  0.00    -0.356 OA
ATOM     17  C   UNL d   1      -1.341   9.577   1.278  0.00  0.00     0.210 C 
ENDBRANCH  13  16
ENDBRANCH   1  10
TORSDOF 4
