REMARK  6 active torsions:
REMARK  status: ('A' for Active; 'I' for Inactive)
REMARK    1  A    between atoms: C_9  and  N_1 
REMARK    2  A    between atoms: C_13  and  C_6 
REMARK    3  A    between atoms: C_11  and  N_16 
REMARK    4  A    between atoms: C_20  and  C_13 
REMARK    5  A    between atoms: N_16  and  N_14 
REMARK    6  A    between atoms: C_28  and  C_27 
ROOT
ATOM      1  N   UNL d   1      -0.399  -1.259   0.011  0.00  0.00    -0.227 N 
ATOM      2  N   UNL d   1       0.688   0.598   0.141  0.00  0.00    -0.226 N 
ATOM      3  HN  UNL d   1       1.453   1.270   0.203  1.00  0.00     0.210 HD
ATOM      4  N   UNL d   1       0.840  -0.713   0.148  0.00  0.00    -0.220 N 
ATOM      5  HN  UNL d   1       1.720  -1.220   0.239  1.00  0.00     0.210 HD
ATOM      6  C   UNL d   1      -1.306  -0.199  -0.028  0.00  0.00     0.125 A 
ATOM      7  N   UNL d   1      -0.625   0.932   0.041  0.00  0.00    -0.271 N 
ATOM      8  HN  UNL d   1      -1.012   1.876   0.021  1.00  0.00     0.190 HD
ENDROOT
BRANCH   6   9
ATOM      9  C   UNL d   1      -2.783  -0.235  -0.100  0.00  0.00     0.126 C 
BRANCH   9  10
ATOM     10  C   UNL d   1      -3.363  -0.697   1.208  0.00  0.00     0.087 C 
ATOM     11  N   UNL d   1      -4.155  -1.719   1.229  0.00  0.00    -0.315 N 
ATOM     12  HN  UNL d   1      -4.374  -2.253   0.388  1.00  0.00     0.185 HD
BRANCH  11  13
ATOM     13  N   UNL d   1      -4.674  -2.035   2.435  0.00  0.00    -0.300 N 
ATOM     14  H   UNL d   1      -4.381  -1.595   3.308  0.00  0.00     0.187 HD
BRANCH  13  15
ATOM     15  C   UNL d   1      -5.421  -3.225   2.586  0.00  0.00     0.069 A 
ATOM     16  C   UNL d   1      -6.018  -3.551   3.821  0.00  0.00     0.063 A 
ATOM     17  C   UNL d   1      -6.799  -4.702   3.971  0.00  0.00     0.050 A 
ATOM     18 CL   UNL d   1      -5.801  -2.528   5.200  0.00  0.00    -0.082 Cl
ATOM     19  C   UNL d   1      -7.000  -5.540   2.879  0.00  0.00     0.035 A 
ATOM     20  C   UNL d   1      -6.440  -5.234   1.643  0.00  0.00     0.026 A 
ATOM     21 CL   UNL d   1      -7.955  -6.961   3.054  0.00  0.00    -0.084 Cl
ATOM     22  C   UNL d   1      -5.666  -4.078   1.497  0.00  0.00     0.034 A 
ENDBRANCH  13  15
ENDBRANCH  11  13
ENDBRANCH   9  10
ENDBRANCH   6   9
BRANCH   1  23
ATOM     23  C   UNL d   1      -0.540  -2.676  -0.031  0.00  0.00     0.059 A 
ATOM     24  C   UNL d   1       0.584  -3.477   0.250  0.00  0.00     0.032 A 
ATOM     25  C   UNL d   1       0.481  -4.872   0.294  0.00  0.00     0.009 A 
ATOM     26  C   UNL d   1      -0.744  -5.499   0.057  0.00  0.00    -0.058 A 
ATOM     27  C   UNL d   1      -1.847  -4.708  -0.278  0.00  0.00     0.009 A 
ATOM     28  C   UNL d   1      -1.746  -3.313  -0.328  0.00  0.00     0.032 A 
BRANCH  26  29
ATOM     29  C   UNL d   1      -0.883  -6.996   0.154  0.00  0.00     0.034 C 
ATOM     30  C   UNL d   1      -0.654  -7.689  -1.178  0.00  0.00     0.010 C 
ENDBRANCH  26  29
ENDBRANCH   1  23
TORSDOF 6
