REMARK  4 active torsions:
REMARK  status: ('A' for Active; 'I' for Inactive)
REMARK    1  A    between atoms: C_11  and  C_3 
REMARK    2  A    between atoms: C_14  and  C_4 
REMARK    3  A    between atoms: N_10  and  C_5 
REMARK       I    between atoms: C_12  and  N_10 
REMARK    4  A    between atoms: C_13  and  C_12 
ROOT
ATOM      1  C   UNL d   1       0.124   0.713  -0.181  0.00  0.00     0.077 A 
ATOM      2  C   UNL d   1      -0.133  -0.603  -0.090  0.00  0.00     0.071 A 
ATOM      3  C   UNL d   1      -2.265   0.289  -0.146  0.00  0.00     0.103 A 
ATOM      4  C   UNL d   1      -1.528  -0.902  -0.049  0.00  0.00     0.025 A 
ATOM      5  C   UNL d   1       2.044  -0.659  -0.094  0.00  0.00     0.153 A 
ATOM      6  S   UNL d   1      -1.216   1.687  -0.227  0.00  0.00    -0.075 SA
ATOM      7  S   UNL d   1       1.757   1.036  -0.218  0.00  0.00    -0.044 SA
ATOM      8  N   UNL d   1       0.966  -1.425  -0.043  0.00  0.00    -0.334 N 
ATOM      9  HN  UNL d   1       0.953  -2.443   0.019  1.00  0.00     0.168 HD
ENDROOT
BRANCH   5  10
ATOM     10  N   UNL d   1       3.316  -1.185  -0.006  0.00  0.00    -0.303 N 
ATOM     11  C   UNL d   1       4.493  -0.474  -0.067  0.00  0.00     0.257 C 
ATOM     12  O   UNL d   1       4.614   0.718  -0.333  0.00  0.00    -0.267 OA
ATOM     13  H   UNL d   1       3.317  -2.189   0.087  0.00  0.00     0.171 HD
BRANCH  11  14
ATOM     14  C   UNL d   1       5.754  -1.236   0.203  0.00  0.00     0.032 A 
ATOM     15  C   UNL d   1       6.965  -0.677  -0.242  0.00  0.00     0.018 A 
ATOM     16  C   UNL d   1       8.184  -1.302   0.028  0.00  0.00     0.025 A 
ATOM     17  C   UNL d   1       8.201  -2.493   0.748  0.00  0.00     0.034 A 
ATOM     18  C   UNL d   1       7.009  -3.060   1.199  0.00  0.00     0.025 A 
ATOM     19 CL   UNL d   1       9.700  -3.257   1.101  0.00  0.00    -0.084 Cl
ATOM     20  C   UNL d   1       5.785  -2.432   0.934  0.00  0.00     0.018 A 
ENDBRANCH  11  14
ENDBRANCH   5  10
BRANCH   4  21
ATOM     21  C   UNL d   1      -2.135  -2.232   0.008  0.00  0.00    -0.022 A 
ATOM     22  C   UNL d   1      -3.186  -2.527   0.887  0.00  0.00     0.012 A 
ATOM     23  C   UNL d   1      -3.804  -3.782   0.862  0.00  0.00     0.001 A 
ATOM     24  C   UNL d   1      -3.350  -4.768  -0.010  0.00  0.00     0.000 A 
ATOM     25  C   UNL d   1      -2.271  -4.506  -0.850  0.00  0.00     0.001 A 
ATOM     26  C   UNL d   1      -1.667  -3.246  -0.841  0.00  0.00     0.012 A 
ENDBRANCH   4  21
BRANCH   3  27
ATOM     27  C   UNL d   1      -3.734   0.573  -0.184  0.00  0.00     0.424 C 
ATOM     28  F   UNL d   1      -4.507  -0.515  -0.420  0.00  0.00    -0.166 F 
ATOM     29  F   UNL d   1      -4.160   1.099   0.996  0.00  0.00    -0.166 F 
ATOM     30  F   UNL d   1      -4.058   1.474  -1.149  0.00  0.00    -0.166 F 
ENDBRANCH   3  27
TORSDOF 4
