REMARK  4 active torsions:
REMARK  status: ('A' for Active; 'I' for Inactive)
REMARK    1  A    between atoms: C_7  and  C_1 
REMARK    2  A    between atoms: C_2  and  C_6 
REMARK       I    between atoms: N_8  and  C_2 
REMARK    3  A    between atoms: C_6  and  C_7 
REMARK    4  A    between atoms: C_9  and  N_8 
ROOT
ATOM      1  C   UNL d   1       0.474   5.046  -0.133  0.00  0.00     0.245 C 
ATOM      2  N   UNL d   1      -0.847   5.406   0.057  0.00  0.00    -0.324 N 
ATOM      3  O   UNL d   1       1.413   5.810  -0.322  0.00  0.00    -0.268 OA
ATOM      4  H   UNL d   1      -1.493   4.686   0.354  0.00  0.00     0.169 HD
ENDROOT
BRANCH   2   5
ATOM      5  C   UNL d   1      -1.340   6.734   0.053  0.00  0.00     0.036 A 
ATOM      6  C   UNL d   1      -0.621   7.820  -0.455  0.00  0.00     0.055 A 
ATOM      7  C   UNL d   1      -1.120   9.123  -0.350  0.00  0.00     0.058 A 
ATOM      8 CL   UNL d   1      -0.156  10.409  -0.988  0.00  0.00    -0.082 Cl
ATOM      9  C   UNL d   1      -2.354   9.348   0.261  0.00  0.00     0.055 A 
ATOM     10  C   UNL d   1      -3.103   8.262   0.722  0.00  0.00     0.028 A 
ATOM     11 CL   UNL d   1      -3.005  10.932   0.488  0.00  0.00    -0.083 Cl
ATOM     12  C   UNL d   1      -2.605   6.960   0.605  0.00  0.00     0.031 A 
ENDBRANCH   2   5
BRANCH   1  13
ATOM     13  C   UNL d   1       0.695   3.577  -0.047  0.00  0.00     0.075 C 
BRANCH  13  14
ATOM     14  C   UNL d   1       1.963   3.133  -0.042  0.00  0.00     0.024 C 
BRANCH  14  15
ATOM     15  C   UNL d   1       2.308   1.754  -0.041  0.00  0.00     0.004 A 
ATOM     16  S   UNL d   1       3.983   1.329   0.026  0.00  0.00    -0.102 SA
ATOM     17  C   UNL d   1       3.651  -0.341  -0.066  0.00  0.00     0.050 A 
ATOM     18  C   UNL d   1       2.304  -0.594  -0.129  0.00  0.00     0.008 A 
ATOM     19  C   UNL d   1       1.531   0.606  -0.105  0.00  0.00     0.019 A 
ENDBRANCH  14  15
ENDBRANCH  13  14
ENDBRANCH   1  13
TORSDOF 4
