REMARK  7 active torsions:
REMARK  status: ('A' for Active; 'I' for Inactive)
REMARK    1  A    between atoms: C_2  and  C_1 
REMARK       I    between atoms: N_3  and  C_2 
REMARK       I    between atoms: C_9  and  N_3 
REMARK    2  A    between atoms: S_16  and  C_6 
REMARK    3  A    between atoms: S_17  and  C_7 
REMARK       I    between atoms: N_11  and  C_9 
REMARK    4  A    between atoms: C_10  and  C_13 
REMARK    5  A    between atoms: O_21  and  C_10 
REMARK    6  A    between atoms: C_20  and  N_11 
REMARK    7  A    between atoms: C_26  and  O_21 
ROOT
ATOM      1  C   UNL d   1      -4.750   2.499  -2.724  0.00  0.00     0.243 C 
ATOM      2  N   UNL d   1      -4.103   1.279  -2.590  0.00  0.00    -0.175 NA
ATOM      3  C   UNL d   1      -3.781   0.653  -1.398  0.00  0.00     0.305 C 
ATOM      4  N   UNL d   1      -2.917   1.346  -0.590  0.00  0.00    -0.313 N 
ATOM      5  O   UNL d   1      -5.779   2.575  -3.391  0.00  0.00    -0.273 OA
ATOM      6  O   UNL d   1      -4.275  -0.443  -1.168  0.00  0.00    -0.253 OA
ATOM      7  H   UNL d   1      -4.678   0.613  -3.096  0.00  0.00     0.141 HD
ATOM      8  H   UNL d   1      -2.529   2.198  -0.966  0.00  0.00     0.170 HD
ENDROOT
BRANCH   4   9
ATOM      9  C   UNL d   1      -2.545   1.037   0.736  0.00  0.00     0.035 A 
ATOM     10  C   UNL d   1      -2.823  -0.175   1.368  0.00  0.00     0.030 A 
ATOM     11  C   UNL d   1      -2.461  -0.379   2.710  0.00  0.00     0.020 A 
ATOM     12  C   UNL d   1      -1.833   0.639   3.436  0.00  0.00     0.039 A 
ATOM     13  C   UNL d   1      -1.542   1.850   2.797  0.00  0.00     0.020 A 
ATOM     14  C   UNL d   1      -1.882   2.040   1.453  0.00  0.00     0.030 A 
BRANCH  12  15
ATOM     15  C   UNL d   1      -1.480   0.507   4.876  0.00  0.00     0.293 C 
ATOM     16  O   UNL d   1      -1.029   1.429   5.538  0.00  0.00    -0.259 OA
BRANCH  15  17
ATOM     17  O   UNL d   1      -1.731  -0.748   5.324  0.00  0.00    -0.318 OA
BRANCH  17  18
ATOM     18  C   UNL d   1      -1.466  -0.970   6.718  0.00  0.00     0.174 C 
ATOM     19  C   UNL d   1       0.002  -1.286   6.939  0.00  0.00     0.034 C 
ENDBRANCH  17  18
ENDBRANCH  15  17
ENDBRANCH  12  15
ENDBRANCH   4   9
BRANCH   1  20
ATOM     20  C   UNL d   1      -4.151   3.675  -2.124  0.00  0.00     0.085 A 
ATOM     21  C   UNL d   1      -3.233   4.492  -2.774  0.00  0.00     0.075 A 
ATOM     22  S   UNL d   1      -2.791   5.756  -1.706  0.00  0.00    -0.006 SA
ATOM     23  N   UNL d   1      -3.768   5.297  -0.461  0.00  0.00    -0.319 N 
ATOM     24  C   UNL d   1      -4.450   4.217  -0.829  0.00  0.00     0.092 A 
ATOM     25  HN  UNL d   1      -3.838   5.764   0.443  1.00  0.00     0.175 HD
BRANCH  21  26
ATOM     26  S   UNL d   1      -2.562   4.270  -4.386  0.00  0.00    -0.125 SA
ATOM     27  C   UNL d   1      -2.154   5.956  -4.904  0.00  0.00     0.096 C 
ENDBRANCH  21  26
BRANCH  24  28
ATOM     28  S   UNL d   1      -5.599   3.483   0.287  0.00  0.00    -0.115 SA
ATOM     29  C   UNL d   1      -5.172   4.296   1.845  0.00  0.00     0.097 C 
ENDBRANCH  24  28
ENDBRANCH   1  20
TORSDOF 7
