REMARK  4 active torsions:
REMARK  status: ('A' for Active; 'I' for Inactive)
REMARK    1  A    between atoms: N_3  and  C_1 
REMARK    2  A    between atoms: N_4  and  C_2 
REMARK    3  A    between atoms: N_9  and  C_5 
REMARK    4  A    between atoms: O_14  and  C_8 
ROOT
ATOM      1  C   UNL d   1       1.371  -0.266   0.129  0.00  0.00     0.132 A 
ATOM      2  C   UNL d   1      -0.502   1.244   0.159  0.00  0.00     0.138 A 
ATOM      3  C   UNL d   1       0.534  -1.396   0.040  0.00  0.00     0.066 A 
ATOM      4  C   UNL d   1       0.877   1.047   0.199  0.00  0.00     0.077 A 
ATOM      5  C   UNL d   1      -0.856  -1.118  -0.016  0.00  0.00     0.071 A 
ATOM      6  C   UNL d   1      -1.393   0.178   0.029  0.00  0.00     0.103 A 
ENDROOT
BRANCH   3   7
ATOM      7  N   UNL d   1       0.916  -2.720   0.011  0.00  0.00    -0.379 N 
ATOM      8  C   UNL d   1       2.072  -3.333   0.665  0.00  0.00     0.123 C 
ATOM      9  C   UNL d   1       2.547  -4.366  -0.349  0.00  0.00     0.021 C 
ATOM     10  C   UNL d   1       1.248  -4.868  -0.955  0.00  0.00     0.021 C 
ATOM     11  C   UNL d   1       0.364  -3.623  -1.012  0.00  0.00     0.123 C 
ENDBRANCH   3   7
BRANCH   1  12
ATOM     12  N   UNL d   1       2.813  -0.375   0.036  0.00  0.00    -0.113 N 
ATOM     13  O   UNL d   1       3.288  -0.814  -1.020  0.00  0.00    -0.532 OA
ATOM     14  O   UNL d   1       3.466   0.032   1.006  0.00  0.00    -0.532 OA
ENDBRANCH   1  12
BRANCH   6  15
ATOM     15  O   UNL d   1      -2.725   0.466  -0.070  0.00  0.00    -0.353 OA
ATOM     16  C   UNL d   1      -3.630  -0.622  -0.230  0.00  0.00     0.210 C 
ENDBRANCH   6  15
BRANCH   2  17
ATOM     17  N   UNL d   1      -0.998   2.603   0.244  0.00  0.00    -0.113 N 
ATOM     18  O   UNL d   1      -0.608   3.392  -0.631  0.00  0.00    -0.532 OA
ATOM     19  O   UNL d   1      -1.709   2.897   1.214  0.00  0.00    -0.532 OA
ENDBRANCH   2  17
TORSDOF 4
