REMARK  7 active torsions:
REMARK  status: ('A' for Active; 'I' for Inactive)
REMARK    1  A    between atoms: N_3  and  S_1 
REMARK    2  A    between atoms: C_6  and  S_1 
REMARK    3  A    between atoms: S_2  and  N_3 
REMARK    4  A    between atoms: C_5  and  S_2 
REMARK    5  A    between atoms: C_7  and  N_3 
REMARK    6  A    between atoms: S_4  and  C_8 
REMARK    7  A    between atoms: N_17  and  S_4 
ROOT
ATOM      1  N   UNL d   1       0.111  -1.517  -0.038  0.00  0.00    -0.157 N 
ENDROOT
BRANCH   1   2
ATOM      2  S   UNL d   1      -0.606  -2.240   1.317  0.00  0.00     0.278 S 
ATOM      3  O   UNL d   1      -1.336  -3.422   0.898  0.00  0.00    -0.199 OA
ATOM      4  O   UNL d   1       0.361  -2.325   2.388  0.00  0.00    -0.199 OA
BRANCH   2   5
ATOM      5  C   UNL d   1      -1.870  -1.075   1.781  0.00  0.00     0.082 A 
ATOM      6  C   UNL d   1      -2.857  -0.758   0.842  0.00  0.00     0.049 A 
ATOM      7  C   UNL d   1      -3.817   0.196   1.166  0.00  0.00     0.035 A 
ATOM      8 CL   UNL d   1      -5.004   0.632   0.001  0.00  0.00    -0.084 Cl
ATOM      9  C   UNL d   1      -3.813   0.810   2.419  0.00  0.00     0.024 A 
ATOM     10  C   UNL d   1      -2.844   0.462   3.364  0.00  0.00     0.003 A 
ATOM     11  C   UNL d   1      -1.868  -0.486   3.050  0.00  0.00     0.025 A 
ENDBRANCH   2   5
ENDBRANCH   1   2
BRANCH   1  12
ATOM     12  S   UNL d   1       1.035  -0.135   0.269  0.00  0.00     0.278 S 
ATOM     13  O   UNL d   1       2.405  -0.482   0.588  0.00  0.00    -0.199 OA
ATOM     14  O   UNL d   1       0.298   0.771   1.125  0.00  0.00    -0.199 OA
BRANCH  12  15
ATOM     15  C   UNL d   1       1.080   0.666  -1.331  0.00  0.00     0.082 A 
ATOM     16  C   UNL d   1       2.159   0.440  -2.191  0.00  0.00     0.049 A 
ATOM     17  C   UNL d   1       2.212   1.121  -3.406  0.00  0.00     0.035 A 
ATOM     18 CL   UNL d   1       3.541   0.866  -4.468  0.00  0.00    -0.084 Cl
ATOM     19  C   UNL d   1       1.208   2.022  -3.761  0.00  0.00     0.024 A 
ATOM     20  C   UNL d   1       0.149   2.268  -2.884  0.00  0.00     0.003 A 
ATOM     21  C   UNL d   1       0.087   1.597  -1.662  0.00  0.00     0.025 A 
ENDBRANCH  12  15
ENDBRANCH   1  12
BRANCH   1  22
ATOM     22  C   UNL d   1       0.649  -2.465  -0.981  0.00  0.00     0.062 A 
ATOM     23  C   UNL d   1      -0.168  -2.853  -2.054  0.00  0.00     0.033 A 
ATOM     24  C   UNL d   1       0.284  -3.787  -2.990  0.00  0.00     0.027 A 
ATOM     25  C   UNL d   1       1.552  -4.351  -2.842  0.00  0.00     0.074 A 
ATOM     26  C   UNL d   1       2.365  -3.996  -1.763  0.00  0.00     0.027 A 
ATOM     27  C   UNL d   1       1.898  -3.078  -0.817  0.00  0.00     0.033 A 
BRANCH  25  28
ATOM     28  S   UNL d   1       2.149  -5.506  -4.044  0.00  0.00     0.239 S 
ATOM     29  O   UNL d   1       1.404  -5.339  -5.270  0.00  0.00    -0.206 OA
ATOM     30  O   UNL d   1       3.594  -5.519  -4.005  0.00  0.00    -0.206 OA
BRANCH  28  31
ATOM     31  N   UNL d   1       1.651  -6.966  -3.387  0.00  0.00    -0.225 NA
ATOM     32  H   UNL d   1       0.998  -7.431  -4.019  0.00  0.00     0.136 HD
ATOM     33  H   UNL d   1       2.461  -7.536  -3.139  0.00  0.00     0.136 HD
ENDBRANCH  28  31
ENDBRANCH  25  28
ENDBRANCH   1  22
TORSDOF 7
