REMARK  7 active torsions:
REMARK  status: ('A' for Active; 'I' for Inactive)
REMARK    1  A    between atoms: N_3  and  C_1 
REMARK    2  A    between atoms: C_2  and  N_3 
REMARK       I    between atoms: C_4  and  N_12 
REMARK    3  A    between atoms: O_6  and  C_4 
REMARK    4  A    between atoms: C_10  and  O_6 
REMARK    5  A    between atoms: C_19  and  N_11 
REMARK    6  A    between atoms: N_12  and  C_18 
REMARK    7  A    between atoms: C_18  and  C_19 
ROOT
ATOM      1  C   UNL d   1       2.051  -0.903   0.942  0.00  0.00     0.172 C 
ATOM      2  S   UNL d   1       3.143  -1.633   1.973  0.00  0.00    -0.041 SA
ATOM      3  N   UNL d   1       2.278   0.209   0.191  0.00  0.00    -0.365 N 
ATOM      4  H   UNL d   1       1.678   0.331  -0.616  0.00  0.00     0.161 HD
ENDROOT
BRANCH   3   5
ATOM      5  C   UNL d   1       3.251   1.265   0.445  0.00  0.00     0.141 C 
BRANCH   5   6
ATOM      6  C   UNL d   1       4.659   1.013  -0.111  0.00  0.00     0.144 C 
BRANCH   6   7
ATOM      7  N   UNL d   1       4.710   0.779  -1.538  0.00  0.00    -0.335 N 
ATOM      8  C   UNL d   1       4.356   1.718  -2.459  0.00  0.00     0.361 C 
ATOM      9  O   UNL d   1       3.820   2.781  -2.206  0.00  0.00    -0.238 OA
ATOM     10  H   UNL d   1       5.267   0.016  -1.893  0.00  0.00     0.164 HD
BRANCH   8  11
ATOM     11  O   UNL d   1       4.731   1.279  -3.680  0.00  0.00    -0.294 OA
BRANCH  11  12
ATOM     12  C   UNL d   1       4.557   2.123  -4.857  0.00  0.00     0.061 C 
ATOM     13  C   UNL d   1       5.233   3.484  -4.676  0.00  0.00     0.046 C 
ATOM     14  C   UNL d   1       5.251   1.350  -5.989  0.00  0.00     0.046 C 
ATOM     15  C   UNL d   1       3.072   2.272  -5.187  0.00  0.00     0.046 C 
ENDBRANCH  11  12
ENDBRANCH   8  11
ENDBRANCH   6   7
ENDBRANCH   5   6
ENDBRANCH   3   5
BRANCH   1  16
ATOM     16  N   UNL d   1       0.828  -1.488   0.769  0.00  0.00    -0.332 N 
ATOM     17  H   UNL d   1       0.810  -2.486   0.960  0.00  0.00     0.168 HD
BRANCH  16  18
ATOM     18  C   UNL d   1      -0.457  -0.912   0.569  0.00  0.00     0.062 A 
ATOM     19  C   UNL d   1      -1.440  -1.749  -0.011  0.00  0.00     0.061 A 
ATOM     20 CL   UNL d   1      -1.039  -3.338  -0.588  0.00  0.00    -0.082 Cl
ATOM     21  C   UNL d   1      -2.761  -1.332  -0.165  0.00  0.00     0.026 A 
ATOM     22  C   UNL d   1      -3.143  -0.070   0.269  0.00  0.00     0.002 A 
ATOM     23  C   UNL d   1      -2.195   0.768   0.848  0.00  0.00     0.009 A 
ATOM     24  C   UNL d   1      -0.851   0.365   1.025  0.00  0.00    -0.034 A 
ATOM     25  C   UNL d   1      -0.003   1.345   1.791  0.00  0.00     0.050 C 
ENDBRANCH  16  18
ENDBRANCH   1  16
TORSDOF 7
