REMARK  3 active torsions:
REMARK  status: ('A' for Active; 'I' for Inactive)
REMARK    1  A    between atoms: C_7  and  C_1 
REMARK    2  A    between atoms: N_10  and  C_15 
REMARK    3  A    between atoms: C_17  and  C_13 
ROOT
ATOM      1  N   UNL d   1       6.085   7.129  -8.481  0.00  0.00    -0.191 NA
ATOM      2  C   UNL d   1       5.481   6.665  -7.605  0.00  0.00     0.099 C 
ATOM      3  C   UNL d   1       4.731   6.091  -6.526  0.00  0.00     0.044 A 
ATOM      4  C   UNL d   1       3.259   4.979  -4.426  0.00  0.00    -0.021 A 
ATOM      5  C   UNL d   1       4.686   6.734  -5.284  0.00  0.00     0.023 A 
ATOM      6  C   UNL d   1       4.039   4.888  -6.713  0.00  0.00     0.023 A 
ATOM      7  C   UNL d   1       3.953   6.178  -4.234  0.00  0.00     0.014 A 
ATOM      8  C   UNL d   1       3.302   4.330  -5.663  0.00  0.00     0.014 A 
ENDROOT
BRANCH   4   9
ATOM      9  C   UNL d   1       2.454   4.396  -3.333  0.00  0.00     0.099 C 
ATOM     10  N   UNL d   1       2.443   4.923  -2.152  0.00  0.00    -0.365 N 
ATOM     11  HN  UNL d   1       3.017   5.742  -1.955  1.00  0.00     0.165 HD
BRANCH  10  12
ATOM     12  C   UNL d   1       1.643   4.369  -1.139  0.00  0.00     0.032 A 
ATOM     13  C   UNL d   1       1.388   3.000  -1.001  0.00  0.00     0.044 A 
ATOM     14  C   UNL d   1       0.569   2.510   0.032  0.00  0.00     0.012 A 
ATOM     15  C   UNL d   1       0.045   3.411   0.968  0.00  0.00     0.015 A 
ATOM     16  C   UNL d   1       0.320   4.775   0.862  0.00  0.00     0.003 A 
ATOM     17  C   UNL d   1       1.109   5.245  -0.189  0.00  0.00     0.029 A 
BRANCH  14  18
ATOM     18  C   UNL d   1       0.264   1.085   0.097  0.00  0.00     0.137 A 
ATOM     19  N   UNL d   1       0.757   0.187  -0.829  0.00  0.00    -0.329 N 
ATOM     20  C   UNL d   1       0.226  -0.941  -0.433  0.00  0.00     0.261 A 
ATOM     21  HN  UNL d   1       1.377   0.359  -1.621  1.00  0.00     0.168 HD
ATOM     22  O   UNL d   1      -0.561  -0.823   0.663  0.00  0.00    -0.231 OA
ATOM     23  N   UNL d   1      -0.538   0.525   1.020  0.00  0.00    -0.243 N 
ATOM     24  HN  UNL d   1      -1.017   0.979   1.797  1.00  0.00     0.196 HD
ENDBRANCH  14  18
ENDBRANCH  10  12
ENDBRANCH   4   9
TORSDOF 3
