REMARK  6 active torsions:
REMARK  status: ('A' for Active; 'I' for Inactive)
REMARK    1  A    between atoms: C_8  and  C_1 
REMARK    2  A    between atoms: N_7  and  C_2 
REMARK    3  A    between atoms: C_9  and  C_4 
REMARK       I    between atoms: C_6  and  N_7 
REMARK       I    between atoms: N_10  and  C_6 
REMARK    4  A    between atoms: O_20  and  C_8 
REMARK    5  A    between atoms: C_19  and  N_10 
REMARK    6  A    between atoms: C_11  and  C_12 
ROOT
ATOM      1  C   UNL d   1       4.620  -0.124  -0.805  0.00  0.00     0.107 C 
ATOM      2  C   UNL d   1       3.337   0.307  -0.488  0.00  0.00     0.060 C 
ATOM      3  S   UNL d   1       4.784  -1.837  -0.577  0.00  0.00    -0.081 SA
ATOM      4  C   UNL d   1       3.125  -2.048  -0.281  0.00  0.00     0.018 C 
ATOM      5  C   UNL d   1       2.483  -0.828  -0.230  0.00  0.00     0.051 C 
ENDROOT
BRANCH   2   6
ATOM      6  N   UNL d   1       2.773   1.586  -0.391  0.00  0.00    -0.307 N 
ATOM      7  C   UNL d   1       3.391   2.827  -0.428  0.00  0.00     0.325 C 
ATOM      8  N   UNL d   1       2.462   3.841  -0.173  0.00  0.00    -0.309 N 
ATOM      9  O   UNL d   1       4.580   3.015  -0.619  0.00  0.00    -0.247 OA
ATOM     10  H   UNL d   1       1.704   3.599   0.446  0.00  0.00     0.170 HD
ATOM     11  H   UNL d   1       1.777   1.602  -0.235  0.00  0.00     0.170 HD
BRANCH   8  12
ATOM     12  C   UNL d   1       2.676   5.227  -0.374  0.00  0.00     0.036 A 
ATOM     13  C   UNL d   1       3.592   5.721  -1.295  0.00  0.00     0.030 A 
ATOM     14  C   UNL d   1       3.741   7.104  -1.485  0.00  0.00     0.010 A 
ATOM     15  C   UNL d   1       2.994   8.047  -0.751  0.00  0.00    -0.051 A 
ATOM     16  C   UNL d   1       2.062   7.532   0.163  0.00  0.00     0.010 A 
ATOM     17  C   UNL d   1       1.893   6.144   0.337  0.00  0.00     0.030 A 
BRANCH  15  18
ATOM     18  C   UNL d   1       3.213   9.556  -0.983  0.00  0.00    -0.024 C 
ATOM     19  C   UNL d   1       2.418  10.470  -0.022  0.00  0.00     0.019 C 
ATOM     20  C   UNL d   1       4.706   9.916  -0.802  0.00  0.00     0.019 C 
ATOM     21  C   UNL d   1       2.784   9.926  -2.420  0.00  0.00     0.019 C 
ENDBRANCH  15  18
ENDBRANCH   8  12
ENDBRANCH   2   6
BRANCH   1  22
ATOM     22  C   UNL d   1       5.812   0.522  -1.318  0.00  0.00     0.302 C 
ATOM     23  O   UNL d   1       6.959   0.286  -0.948  0.00  0.00    -0.259 OA
BRANCH  22  24
ATOM     24  O   UNL d   1       5.501   1.273  -2.415  0.00  0.00    -0.322 OA
ATOM     25  C   UNL d   1       6.612   1.889  -3.072  0.00  0.00     0.213 C 
ENDBRANCH  22  24
ENDBRANCH   1  22
BRANCH   4  26
ATOM     26  C   UNL d   1       2.542  -3.386  -0.171  0.00  0.00    -0.019 A 
ATOM     27  C   UNL d   1       2.904  -4.280   0.850  0.00  0.00     0.014 A 
ATOM     28  C   UNL d   1       2.291  -5.538   0.938  0.00  0.00     0.024 A 
ATOM     29  C   UNL d   1       1.323  -5.908   0.007  0.00  0.00     0.034 A 
ATOM     30  C   UNL d   1       0.964  -5.036  -1.019  0.00  0.00     0.024 A 
ATOM     31 CL   UNL d   1       0.558  -7.443   0.124  0.00  0.00    -0.084 Cl
ATOM     32  C   UNL d   1       1.572  -3.782  -1.103  0.00  0.00     0.014 A 
ENDBRANCH   4  26
TORSDOF 6
