REMARK  0 active torsions:
REMARK  status: ('A' for Active; 'I' for Inactive)
ROOT
ATOM      1  C   UNL d   1      -0.914  -0.331   0.022  0.00  0.00     0.070 A 
ATOM      2  C   UNL d   1      -1.714   0.794  -0.004  0.00  0.00     0.025 A 
ATOM      3  N   UNL d   1      -1.782  -1.388   0.034  0.00  0.00    -0.298 N 
ATOM      4  C   UNL d   1       0.540  -0.381   0.019  0.00  0.00     0.011 A 
ATOM      5  N   UNL d   1      -3.074  -1.028   0.013  0.00  0.00    -0.285 N 
ATOM      6  HN  UNL d   1      -3.895  -1.634   0.022  1.00  0.00     0.188 HD
ATOM      7  C   UNL d   1      -3.037   0.298  -0.024  0.00  0.00     0.122 A 
ATOM      8  S   UNL d   1       0.541   2.469   0.101  0.00  0.00    -0.124 SA
ATOM      9  C   UNL d   1      -1.261   2.199  -0.038  0.00  0.00     0.124 A 
ATOM     10  C   UNL d   1       1.268   0.827   0.035  0.00  0.00     0.013 A 
ATOM     11  C   UNL d   1       1.236  -1.601  -0.004  0.00  0.00     0.039 A 
ATOM     12  N   UNL d   1      -4.137   1.053  -0.081  0.00  0.00    -0.384 N 
ATOM     13  C   UNL d   1       2.672   0.786   0.023  0.00  0.00     0.021 A 
ATOM     14  C   UNL d   1       2.632  -1.618  -0.013  0.00  0.00     0.035 A 
ATOM     15  C   UNL d   1       3.353  -0.431  -0.002  0.00  0.00     0.025 A 
ATOM     16 CL   UNL d   1       3.466  -3.123  -0.035  0.00  0.00    -0.084 Cl
ATOM     17  H   UNL d   1      -1.569  -2.378   0.052  0.00  0.00     0.187 HD
ATOM     18  H   UNL d   1      -4.143   2.048   0.094  0.00  0.00     0.157 HD
ATOM     19  H   UNL d   1      -5.030   0.590   0.049  0.00  0.00     0.157 HD
ENDROOT
TORSDOF 0
