REMARK  2 active torsions:
REMARK  status: ('A' for Active; 'I' for Inactive)
REMARK    1  A    between atoms: C_8  and  C_1 
REMARK    2  A    between atoms: C_10  and  C_8 
ROOT
ATOM      1  C   UNL d   1       0.527   1.311  -0.010  0.00  0.00     0.017 A 
ATOM      2  N   UNL d   1       0.599  -1.121  -0.102  0.00  0.00    -0.266 N 
ATOM      3  C   UNL d   1       1.316   0.049  -0.067  0.00  0.00     0.266 A 
ATOM      4  N   UNL d   1      -0.760  -1.230  -0.045  0.00  0.00    -0.302 N 
ATOM      5  HN  UNL d   1      -1.227  -2.137  -0.043  1.00  0.00     0.186 HD
ATOM      6  C   UNL d   1      -0.811   1.223  -0.007  0.00  0.00     0.039 A 
ATOM      7  C   UNL d   1      -1.427  -0.121   0.006  0.00  0.00     0.022 A 
ATOM      8  O   UNL d   1       2.543   0.062  -0.086  0.00  0.00    -0.266 OA
ATOM      9  C   UNL d   1      -2.928  -0.174   0.116  0.00  0.00     0.070 C 
ATOM     10  H   UNL d   1       1.122  -1.988  -0.137  0.00  0.00     0.190 HD
ENDROOT
BRANCH   1  11
ATOM     11  C   UNL d   1       1.347   2.571   0.044  0.00  0.00     0.083 C 
BRANCH  11  12
ATOM     12  C   UNL d   1       0.574   3.874   0.100  0.00  0.00    -0.054 A 
ATOM     13  C   UNL d   1       0.125   4.385   1.328  0.00  0.00     0.009 A 
ATOM     14  C   UNL d   1      -0.551   5.606   1.381  0.00  0.00     0.024 A 
ATOM     15  C   UNL d   1      -0.785   6.319   0.208  0.00  0.00     0.034 A 
ATOM     16  C   UNL d   1      -0.374   5.810  -1.022  0.00  0.00     0.024 A 
ATOM     17 CL   UNL d   1      -1.577   7.845   0.279  0.00  0.00    -0.084 Cl
ATOM     18  C   UNL d   1       0.298   4.587  -1.077  0.00  0.00     0.009 A 
ENDBRANCH  11  12
ENDBRANCH   1  11
TORSDOF 2
