REMARK  6 active torsions:
REMARK  status: ('A' for Active; 'I' for Inactive)
REMARK    1  A    between atoms: C_7  and  C_2 
REMARK    2  A    between atoms: C_11  and  C_5 
REMARK    3  A    between atoms: C_13  and  CA_6 
REMARK    4  A    between atoms: O_12  and  C_7 
REMARK    5  A    between atoms: C_17  and  O_12 
REMARK    6  A    between atoms: O_14  and  C_13 
ROOT
ATOM      1  C   UNL d   1      -0.760  -1.030  -0.319  0.00  0.00     0.166 C 
ATOM      2  C   UNL d   1      -1.540  -2.057  -0.698  0.00  0.00     0.170 C 
ATOM      3  O   UNL d   1       0.624  -1.144  -0.422  0.00  0.00    -0.322 OA
ATOM      4  N   UNL d   1      -1.112   0.232   0.088  0.00  0.00    -0.360 N 
ATOM      5  C   UNL d   1       1.170   0.189  -0.196  0.00  0.00     0.188 C 
ATOM      6  CA  UNL d   1      -0.034   1.163  -0.217  0.00  0.00     0.141 C 
ATOM      7  C   UNL d   1      -0.967  -3.287  -1.120  0.00  0.00     0.110 C 
ATOM      8  N   UNL d   1      -0.503  -4.286  -1.484  0.00  0.00    -0.191 NA
ATOM      9  H   UNL d   1      -2.089   0.501  -0.032  0.00  0.00     0.162 HD
ENDROOT
BRANCH   2  10
ATOM     10  C   UNL d   1      -3.010  -1.896  -0.701  0.00  0.00     0.308 C 
ATOM     11  O   UNL d   1      -3.605  -0.875  -0.382  0.00  0.00    -0.258 OA
BRANCH  10  12
ATOM     12  O   UNL d   1      -3.595  -3.061  -1.078  0.00  0.00    -0.317 OA
BRANCH  12  13
ATOM     13  C   UNL d   1      -4.982  -3.209  -0.752  0.00  0.00     0.174 C 
ATOM     14  C   UNL d   1      -5.060  -3.804   0.641  0.00  0.00     0.034 C 
ENDBRANCH  12  13
ENDBRANCH  10  12
ENDBRANCH   2  10
BRANCH   5  15
ATOM     15  C   UNL d   1       2.272   0.455  -1.196  0.00  0.00    -0.027 A 
ATOM     16  C   UNL d   1       2.270  -0.163  -2.458  0.00  0.00     0.010 A 
ATOM     17  C   UNL d   1       3.260   0.126  -3.396  0.00  0.00     0.001 A 
ATOM     18  C   UNL d   1       4.267   1.033  -3.082  0.00  0.00     0.000 A 
ATOM     19  C   UNL d   1       4.289   1.645  -1.830  0.00  0.00     0.001 A 
ATOM     20  C   UNL d   1       3.297   1.359  -0.890  0.00  0.00     0.010 A 
ENDBRANCH   5  15
BRANCH   6  21
ATOM     21  C   UNL d   1      -0.304   1.853  -1.567  0.00  0.00     0.192 C 
BRANCH  21  22
ATOM     22  O   UNL d   1      -1.442   2.714  -1.475  0.00  0.00    -0.399 OA
ATOM     23  H   UNL d   1      -2.223   2.149  -1.345  0.00  0.00     0.209 HD
ENDBRANCH  21  22
ENDBRANCH   6  21
TORSDOF 6
