REMARK  2 active torsions:
REMARK  status: ('A' for Active; 'I' for Inactive)
REMARK    1  A    between atoms: C_13  and  C_10 
REMARK    2  A    between atoms: O_19  and  C_14 
ROOT
ATOM      1  N   UNL d   1      -0.199   0.757   0.049  0.00  0.00    -0.224 N 
ATOM      2  C   UNL d   1      -0.062  -0.572   0.104  0.00  0.00     0.158 A 
ATOM      3  N   UNL d   1      -1.133  -1.290   0.136  0.00  0.00    -0.332 N 
ATOM      4  HN  UNL d   1      -1.217  -2.305   0.184  1.00  0.00     0.168 HD
ATOM      5  C   UNL d   1      -1.539   1.046   0.050  0.00  0.00     0.283 A 
ATOM      6  C   UNL d   1      -2.143  -0.339   0.089  0.00  0.00     0.104 A 
ATOM      7  C   UNL d   1       0.932   1.542   0.014  0.00  0.00     0.246 A 
ATOM      8  S   UNL d   1       1.577  -1.075   0.121  0.00  0.00    -0.079 SA
ATOM      9  C   UNL d   1       2.176   0.660   0.035  0.00  0.00     0.144 A 
ATOM     10  C   UNL d   1      -3.446  -0.646   0.058  0.00  0.00     0.046 C 
ATOM     11  O   UNL d   1      -2.107   2.117   0.041  0.00  0.00    -0.265 OA
ATOM     12  O   UNL d   1       0.977   2.765  -0.029  0.00  0.00    -0.271 OA
ATOM     13  C   UNL d   1       3.054   0.985   1.229  0.00  0.00     0.032 C 
ENDROOT
BRANCH  10  14
ATOM     14  C   UNL d   1      -4.529   0.329  -0.053  0.00  0.00    -0.034 A 
ATOM     15  C   UNL d   1      -4.984   0.719  -1.317  0.00  0.00     0.014 A 
ATOM     16  C   UNL d   1      -5.991   1.683  -1.442  0.00  0.00     0.037 A 
ATOM     17  C   UNL d   1      -6.548   2.267  -0.304  0.00  0.00     0.068 A 
ATOM     18  C   UNL d   1      -6.101   1.864   0.957  0.00  0.00     0.037 A 
ATOM     19  C   UNL d   1      -5.097   0.900   1.087  0.00  0.00     0.014 A 
BRANCH  17  20
ATOM     20  O   UNL d   1      -7.517   3.232  -0.290  0.00  0.00    -0.356 OA
ATOM     21  C   UNL d   1      -7.961   3.713  -1.552  0.00  0.00     0.210 C 
ENDBRANCH  17  20
ENDBRANCH  10  14
TORSDOF 2
