REMARK  3 active torsions:
REMARK  status: ('A' for Active; 'I' for Inactive)
REMARK    1  A    between atoms: C_15  and  C_5 
REMARK    2  A    between atoms: O_25  and  C_6 
REMARK    3  A    between atoms: C_10  and  C_14 
ROOT
ATOM      1  S   UNL d   1      -2.639   0.713  -0.515  0.00  0.00     0.149 S 
ATOM      2  N   UNL d   1       2.434   0.719   0.043  0.00  0.00    -0.322 N 
ATOM      3  HN  UNL d   1       3.321   1.223   0.080  1.00  0.00     0.169 HD
ATOM      4  C   UNL d   1       0.013   0.751  -0.002  0.00  0.00     0.029 A 
ATOM      5  C   UNL d   1       2.370  -0.619  -0.020  0.00  0.00     0.117 A 
ATOM      6  C   UNL d   1       1.256   1.344   0.052  0.00  0.00     0.150 A 
ATOM      7  N   UNL d   1       1.216  -1.315  -0.043  0.00  0.00    -0.344 N 
ATOM      8  HN  UNL d   1       1.223  -2.335  -0.074  1.00  0.00     0.167 HD
ATOM      9  C   UNL d   1       0.051  -0.632  -0.023  0.00  0.00     0.023 A 
ATOM     10  C   UNL d   1      -1.213   1.607   0.047  0.00  0.00     0.185 C 
ATOM     11  O   UNL d   1      -2.509   0.450  -1.934  0.00  0.00    -0.228 OA
ATOM     12  O   UNL d   1      -3.818   1.374   0.011  0.00  0.00    -0.228 OA
ATOM     13  C   UNL d   1      -1.178  -1.501  -0.087  0.00  0.00     0.073 C 
ATOM     14  C   UNL d   1      -2.449  -0.815   0.360  0.00  0.00     0.146 C 
ENDROOT
BRANCH   5  15
ATOM     15  C   UNL d   1       3.634  -1.379  -0.051  0.00  0.00     0.008 A 
ATOM     16  C   UNL d   1       3.638  -2.784  -0.134  0.00  0.00     0.016 A 
ATOM     17  C   UNL d   1       4.831  -3.515  -0.154  0.00  0.00     0.017 A 
ATOM     18  C   UNL d   1       6.066  -2.862  -0.094  0.00  0.00     0.048 A 
ATOM     19  C   UNL d   1       6.083  -1.464  -0.016  0.00  0.00     0.017 A 
ATOM     20  C   UNL d   1       4.886  -0.737   0.003  0.00  0.00     0.016 A 
BRANCH  18  21
ATOM     21  C   UNL d   1       7.358  -3.641  -0.112  0.00  0.00     0.417 C 
ATOM     22  F   UNL d   1       7.180  -4.990  -0.184  0.00  0.00    -0.166 F 
ATOM     23  F   UNL d   1       8.151  -3.312  -1.169  0.00  0.00    -0.166 F 
ATOM     24  F   UNL d   1       8.111  -3.425   1.002  0.00  0.00    -0.166 F 
ENDBRANCH  18  21
ENDBRANCH   5  15
BRANCH   6  25
ATOM     25  O   UNL d   1       1.370   2.694   0.147  0.00  0.00    -0.346 OA
ATOM     26  H   UNL d   1       2.340   2.794   0.159  0.00  0.00     0.219 HD
ENDBRANCH   6  25
TORSDOF 3
