REMARK  5 active torsions:
REMARK  status: ('A' for Active; 'I' for Inactive)
REMARK       I    between atoms: N_8  and  C_1 
REMARK    1  A    between atoms: O_10  and  C_1 
REMARK    2  A    between atoms: N_2  and  O_10 
REMARK    3  A    between atoms: C_4  and  C_6 
REMARK    4  A    between atoms: C_17  and  N_8 
REMARK    5  A    between atoms: O_19  and  C_16 
ROOT
ATOM      1  N   UNL d   1      -0.820  -0.400  -1.076  0.00  0.00    -0.260 N 
ATOM      2  HN  UNL d   1       0.198  -0.366  -1.029  1.00  0.00     0.194 HD
ATOM      3  C   UNL d   1      -1.528  -0.793  -2.106  0.00  0.00     0.039 C 
ATOM      4  C   UNL d   1      -3.053  -0.812  -2.087  0.00  0.00     0.071 C 
ENDROOT
BRANCH   3   5
ATOM      5  C   UNL d   1      -0.850  -1.277  -3.344  0.00  0.00    -0.011 A 
ATOM      6  C   UNL d   1      -1.429  -1.098  -4.609  0.00  0.00     0.025 A 
ATOM      7  C   UNL d   1      -0.817  -1.615  -5.764  0.00  0.00    -0.025 A 
ATOM      8  C   UNL d   1      -1.397  -1.464  -7.034  0.00  0.00     0.015 A 
ATOM      9  C   UNL d   1       0.407  -2.307  -5.646  0.00  0.00    -0.023 A 
ATOM     10  C   UNL d   1      -0.779  -1.986  -8.175  0.00  0.00     0.037 A 
ATOM     11  C   UNL d   1       0.430  -2.668  -8.064  0.00  0.00     0.069 A 
ATOM     12  C   UNL d   1       1.014  -2.824  -6.803  0.00  0.00     0.049 A 
ATOM     13  C   UNL d   1       0.990  -2.462  -4.377  0.00  0.00     0.013 A 
ATOM     14  C   UNL d   1       0.368  -1.950  -3.234  0.00  0.00     0.014 A 
BRANCH  11  15
ATOM     15  O   UNL d   1       1.137  -3.224  -9.094  0.00  0.00    -0.356 OA
ATOM     16  C   UNL d   1       0.589  -3.090 -10.400  0.00  0.00     0.210 C 
ENDBRANCH  11  15
ENDBRANCH   3   5
BRANCH   1  17
ATOM     17  O   UNL d   1      -1.708  -0.031  -0.041  0.00  0.00    -0.181 OA
BRANCH  17  18
ATOM     18  C   UNL d   1      -1.123   0.396   1.129  0.00  0.00     0.387 C 
ATOM     19  N   UNL d   1       0.249   0.510   1.107  0.00  0.00    -0.301 N 
ATOM     20  H   UNL d   1       0.648   0.350   0.189  0.00  0.00     0.171 HD
ATOM     21  O   UNL d   1      -1.856   0.679   2.077  0.00  0.00    -0.236 OA
BRANCH  19  22
ATOM     22  C   UNL d   1       1.063   0.950   2.175  0.00  0.00     0.036 A 
ATOM     23  C   UNL d   1       0.608   1.020   3.497  0.00  0.00     0.029 A 
ATOM     24  C   UNL d   1       1.431   1.494   4.523  0.00  0.00     0.002 A 
ATOM     25  C   UNL d   1       2.727   1.907   4.239  0.00  0.00     0.000 A 
ATOM     26  C   UNL d   1       3.203   1.826   2.932  0.00  0.00     0.002 A 
ATOM     27  C   UNL d   1       2.380   1.337   1.905  0.00  0.00     0.029 A 
ENDBRANCH  19  22
ENDBRANCH  17  18
ENDBRANCH   1  17
TORSDOF 5
