REMARK  8 active torsions:
REMARK  status: ('A' for Active; 'I' for Inactive)
REMARK    1  A    between atoms: N_3  and  C_1 
REMARK    2  A    between atoms: N_8  and  C_1 
REMARK       I    between atoms: C_2  and  N_9 
REMARK    3  A    between atoms: O_5  and  C_2 
REMARK    4  A    between atoms: C_10  and  N_3 
REMARK    5  A    between atoms: C_7  and  O_5 
REMARK    6  A    between atoms: C_12  and  N_8 
REMARK    7  A    between atoms: N_9  and  C_11 
REMARK    8  A    between atoms: C_11  and  C_12 
ROOT
ATOM      1  N   UNL d   1       1.979  -0.302  -0.513  0.00  0.00    -0.366 N 
ATOM      2  H   UNL d   1       2.209  -0.811  -1.373  0.00  0.00     0.161 HD
ENDROOT
BRANCH   1   3
ATOM      3  C   UNL d   1       0.756   0.308  -0.614  0.00  0.00     0.167 C 
ATOM      4  S   UNL d   1      -0.157   0.004  -1.979  0.00  0.00    -0.041 SA
BRANCH   3   5
ATOM      5  N   UNL d   1       0.403   1.134   0.422  0.00  0.00    -0.363 N 
ATOM      6  H   UNL d   1       0.859   0.957   1.304  0.00  0.00     0.162 HD
BRANCH   5   7
ATOM      7  C   UNL d   1      -0.703   2.111   0.431  0.00  0.00     0.083 C 
ATOM      8  C   UNL d   1      -0.292   3.414  -0.267  0.00  0.00     0.025 C 
ATOM      9  C   UNL d   1       0.776   4.168   0.520  0.00  0.00     0.002 C 
ATOM     10  C   UNL d   1       0.324   4.487   1.941  0.00  0.00     0.000 C 
ATOM     11  C   UNL d   1      -0.268   3.292   2.684  0.00  0.00     0.002 C 
ATOM     12  C   UNL d   1      -1.208   2.423   1.848  0.00  0.00     0.025 C 
ENDBRANCH   5   7
ENDBRANCH   3   5
ENDBRANCH   1   3
BRANCH   1  13
ATOM     13  C   UNL d   1       3.146   0.231   0.179  0.00  0.00     0.141 C 
BRANCH  13  14
ATOM     14  C   UNL d   1       4.347  -0.734   0.246  0.00  0.00     0.144 C 
BRANCH  14  15
ATOM     15  N   UNL d   1       5.180  -0.891  -0.939  0.00  0.00    -0.335 N 
ATOM     16  C   UNL d   1       4.744  -1.281  -2.168  0.00  0.00     0.361 C 
ATOM     17  O   UNL d   1       3.572  -1.312  -2.517  0.00  0.00    -0.238 OA
ATOM     18  H   UNL d   1       6.165  -1.053  -0.814  0.00  0.00     0.164 HD
BRANCH  16  19
ATOM     19  O   UNL d   1       5.814  -1.629  -2.926  0.00  0.00    -0.294 OA
BRANCH  19  20
ATOM     20  C   UNL d   1       5.683  -1.862  -4.356  0.00  0.00     0.061 C 
ATOM     21  C   UNL d   1       5.257  -0.563  -5.052  0.00  0.00     0.046 C 
ATOM     22  C   UNL d   1       7.093  -2.252  -4.844  0.00  0.00     0.046 C 
ATOM     23  C   UNL d   1       4.737  -3.020  -4.690  0.00  0.00     0.046 C 
ENDBRANCH  19  20
ENDBRANCH  16  19
ENDBRANCH  14  15
ENDBRANCH  13  14
ENDBRANCH   1  13
TORSDOF 8
