REMARK  2 active torsions:
REMARK  status: ('A' for Active; 'I' for Inactive)
REMARK    1  A    between atoms: C_6  and  C_1 
REMARK       I    between atoms: N_9  and  C_6 
REMARK    2  A    between atoms: C_8  and  C_10 
ROOT
ATOM      1  C   UNL d   1      -3.227  -0.957   0.160  0.00  0.00     0.275 C 
ATOM      2  N   UNL d   1      -3.853  -2.216  -0.026  0.00  0.00    -0.321 N 
ATOM      3  C   UNL d   1      -5.223  -4.619  -1.335  0.00  0.00     0.113 C 
ATOM      4  C   UNL d   1      -5.807  -3.288  -0.993  0.00  0.00     0.051 C 
ATOM      5  C   UNL d   1      -5.144  -2.232  -0.528  0.00  0.00     0.096 C 
ATOM      6  N   UNL d   1      -4.177  -5.183  -0.861  0.00  0.00    -0.384 N 
ATOM      7  HN  UNL d   1      -3.993  -6.122  -1.214  1.00  0.00     0.159 HD
ATOM      8  O   UNL d   1      -3.845   0.106   0.030  0.00  0.00    -0.265 OA
ATOM      9  C   UNL d   1      -3.214  -4.687   0.104  0.00  0.00     0.140 C 
ATOM     10  C   UNL d   1      -3.474  -3.365   0.808  0.00  0.00     0.151 C 
ENDROOT
BRANCH   1  11
ATOM     11  C   UNL d   1      -1.788  -0.923   0.483  0.00  0.00     0.118 A 
ATOM     12  N   UNL d   1      -0.907  -1.859   0.078  0.00  0.00    -0.294 N 
ATOM     13  N   UNL d   1       0.288  -1.403   0.499  0.00  0.00    -0.301 N 
ATOM     14  HN  UNL d   1      -1.101  -2.720  -0.433  1.00  0.00     0.187 HD
ATOM     15  C   UNL d   1       1.484  -2.148   0.181  0.00  0.00     0.177 C 
ATOM     16  C   UNL d   1       0.210  -0.233   1.210  0.00  0.00     0.026 A 
ATOM     17  C   UNL d   1      -1.120   0.115   1.184  0.00  0.00     0.063 A 
ATOM     18  C   UNL d   1       1.380   0.437   1.822  0.00  0.00     0.070 C 
ENDBRANCH   1  11
BRANCH   3  19
ATOM     19  C   UNL d   1      -5.985  -5.374  -2.452  0.00  0.00     0.432 C 
ATOM     20  F   UNL d   1      -7.088  -4.703  -2.898  0.00  0.00    -0.165 F 
ATOM     21  F   UNL d   1      -5.210  -5.585  -3.552  0.00  0.00    -0.165 F 
ATOM     22  F   UNL d   1      -6.430  -6.595  -2.046  0.00  0.00    -0.165 F 
ENDBRANCH   3  19
TORSDOF 2
