REMARK  6 active torsions:
REMARK  status: ('A' for Active; 'I' for Inactive)
REMARK    1  A    between atoms: N_3  and  O_14 
REMARK    2  A    between atoms: O_13  and  N_4 
REMARK    3  A    between atoms: C_16  and  O_13 
REMARK    4  A    between atoms: O_14  and  C_15 
REMARK    5  A    between atoms: C_15  and  C_18 
REMARK    6  A    between atoms: C_17  and  C_16 
ROOT
ATOM      1  C   UNL d   1       3.662  -4.045  -0.079  0.00  0.00    -0.024 A 
ATOM      2  C   UNL d   1       4.773  -4.572  -0.771  0.00  0.00    -0.024 A 
ATOM      3  C   UNL d   1       4.949  -5.968  -0.822  0.00  0.00     0.010 A 
ATOM      4  C   UNL d   1       2.790  -4.929   0.586  0.00  0.00     0.010 A 
ATOM      5  C   UNL d   1       2.990  -6.308   0.540  0.00  0.00     0.001 A 
ATOM      6  C   UNL d   1       4.066  -6.828  -0.170  0.00  0.00     0.001 A 
ENDROOT
BRANCH   1   7
ATOM      7  C   UNL d   1       3.392  -2.559   0.035  0.00  0.00     0.242 C 
BRANCH   7   8
ATOM      8  O   UNL d   1       3.987  -2.108   1.249  0.00  0.00    -0.255 OA
BRANCH   8   9
ATOM      9  N   UNL d   1       3.899  -0.717   1.337  0.00  0.00    -0.143 N 
ATOM     10  N   UNL d   1       2.772  -0.059   1.013  0.00  0.00     0.007 NA
ATOM     11  N   UNL d   1       2.948   1.214   1.351  0.00  0.00    -0.280 N 
ATOM     12  C   UNL d   1       4.176   1.325   1.953  0.00  0.00     0.076 A 
ATOM     13  HN  UNL d   1       2.287   1.974   1.191  1.00  0.00     0.184 HD
ATOM     14  C   UNL d   1       4.814   2.430   2.533  0.00  0.00     0.033 A 
ATOM     15  C   UNL d   1       4.809   0.089   1.961  0.00  0.00     0.107 A 
ATOM     16  C   UNL d   1       6.074   2.242   3.118  0.00  0.00     0.002 A 
ATOM     17  C   UNL d   1       6.686   0.985   3.118  0.00  0.00     0.002 A 
ATOM     18  C   UNL d   1       6.066  -0.128   2.535  0.00  0.00     0.036 A 
ENDBRANCH   8   9
ENDBRANCH   7   8
ENDBRANCH   1   7
BRANCH   2  19
ATOM     19  C   UNL d   1       5.795  -3.693  -1.454  0.00  0.00     0.242 C 
BRANCH  19  20
ATOM     20  O   UNL d   1       5.328  -3.335  -2.756  0.00  0.00    -0.255 OA
BRANCH  20  21
ATOM     21  N   UNL d   1       6.361  -2.673  -3.422  0.00  0.00    -0.143 N 
ATOM     22  N   UNL d   1       6.988  -1.630  -2.846  0.00  0.00     0.007 NA
ATOM     23  N   UNL d   1       7.981  -1.277  -3.651  0.00  0.00    -0.280 N 
ATOM     24  C   UNL d   1       7.916  -2.067  -4.771  0.00  0.00     0.076 A 
ATOM     25  HN  UNL d   1       8.671  -0.548  -3.470  1.00  0.00     0.184 HD
ATOM     26  C   UNL d   1       6.853  -2.956  -4.665  0.00  0.00     0.107 A 
ATOM     27  C   UNL d   1       8.726  -2.081  -5.916  0.00  0.00     0.033 A 
ATOM     28  C   UNL d   1       6.513  -3.861  -5.678  0.00  0.00     0.036 A 
ATOM     29  C   UNL d   1       7.318  -3.845  -6.827  0.00  0.00     0.002 A 
ATOM     30  C   UNL d   1       8.411  -2.982  -6.942  0.00  0.00     0.002 A 
ENDBRANCH  20  21
ENDBRANCH  19  20
ENDBRANCH   2  19
TORSDOF 6
