REMARK  8 active torsions:
REMARK  status: ('A' for Active; 'I' for Inactive)
REMARK    1  A    between atoms: C_15  and  C_2 
REMARK    2  A    between atoms: S_10  and  C_5 
REMARK    3  A    between atoms: C_8  and  N_11 
REMARK    4  A    between atoms: N_12  and  C_8 
REMARK    5  A    between atoms: C_9  and  C_17 
REMARK       I    between atoms: N_13  and  C_9 
REMARK    6  A    between atoms: C_17  and  S_10 
REMARK    7  A    between atoms: N_11  and  N_13 
REMARK    8  A    between atoms: C_19  and  N_12 
ROOT
ATOM      1  C   UNL d   1       2.473  -4.268  -0.390  0.00  0.00     0.245 C 
ATOM      2  N   UNL d   1       3.612  -4.707   0.256  0.00  0.00    -0.267 N 
ATOM      3  O   UNL d   1       1.778  -5.022  -1.072  0.00  0.00    -0.271 OA
ATOM      4  H   UNL d   1       4.116  -4.129   0.925  0.00  0.00     0.190 HD
ENDROOT
BRANCH   1   5
ATOM      5  C   UNL d   1       2.143  -2.802  -0.144  0.00  0.00     0.186 C 
BRANCH   5   6
ATOM      6  S   UNL d   1       0.452  -2.690   0.518  0.00  0.00    -0.083 SA
BRANCH   6   7
ATOM      7  C   UNL d   1       0.242  -0.979   0.606  0.00  0.00     0.163 A 
ATOM      8  N   UNL d   1      -0.956  -0.378   0.886  0.00  0.00    -0.315 N 
ATOM      9  C   UNL d   1      -0.695   0.977   0.936  0.00  0.00     0.134 A 
ATOM     10  C   UNL d   1      -2.228  -1.038   1.030  0.00  0.00     0.160 C 
ATOM     11  N   UNL d   1       0.582   1.155   0.629  0.00  0.00    -0.283 N 
ATOM     12  N   UNL d   1       1.170  -0.072   0.440  0.00  0.00    -0.278 N 
ATOM     13  HN  UNL d   1       1.051   2.057   0.547  1.00  0.00     0.188 HD
ATOM     14  HN  UNL d   1       2.150  -0.244   0.211  1.00  0.00     0.189 HD
BRANCH   9  15
ATOM     15  C   UNL d   1      -1.643   2.060   1.224  0.00  0.00     0.009 A 
ATOM     16  C   UNL d   1      -2.622   1.960   2.222  0.00  0.00     0.015 A 
ATOM     17  C   UNL d   1      -3.514   3.012   2.458  0.00  0.00     0.001 A 
ATOM     18  C   UNL d   1      -3.420   4.187   1.715  0.00  0.00     0.000 A 
ATOM     19  C   UNL d   1      -2.433   4.314   0.743  0.00  0.00     0.001 A 
ATOM     20  C   UNL d   1      -1.549   3.258   0.501  0.00  0.00     0.015 A 
ENDBRANCH   9  15
ENDBRANCH   6   7
ENDBRANCH   5   6
ENDBRANCH   1   5
BRANCH   2  21
ATOM     21  N   UNL d   1       3.802  -6.092   0.382  0.00  0.00    -0.274 N 
ATOM     22  H   UNL d   1       3.059  -6.667  -0.022  0.00  0.00     0.189 HD
BRANCH  21  23
ATOM     23  C   UNL d   1       5.053  -6.645   0.443  0.00  0.00     0.191 C 
ATOM     24  S   UNL d   1       6.479  -5.820   0.134  0.00  0.00    -0.039 SA
BRANCH  23  25
ATOM     25  N   UNL d   1       5.143  -7.960   0.805  0.00  0.00    -0.332 N 
ATOM     26  H   UNL d   1       6.070  -8.343   0.648  0.00  0.00     0.168 HD
BRANCH  25  27
ATOM     27  C   UNL d   1       4.310  -8.743   1.641  0.00  0.00     0.034 A 
ATOM     28  C   UNL d   1       3.144  -8.283   2.261  0.00  0.00     0.029 A 
ATOM     29  C   UNL d   1       2.448  -9.094   3.164  0.00  0.00     0.002 A 
ATOM     30  C   UNL d   1       2.915 -10.368   3.469  0.00  0.00     0.000 A 
ATOM     31  C   UNL d   1       4.070 -10.842   2.854  0.00  0.00     0.002 A 
ATOM     32  C   UNL d   1       4.759 -10.035   1.943  0.00  0.00     0.029 A 
ENDBRANCH  25  27
ENDBRANCH  23  25
ENDBRANCH  21  23
ENDBRANCH   2  21
TORSDOF 8
