REMARK  3 active torsions:
REMARK  status: ('A' for Active; 'I' for Inactive)
REMARK    1  A    between atoms: C_10  and  C_5 
REMARK    2  A    between atoms: S_13  and  C_8 
REMARK    3  A    between atoms: N_14  and  C_9 
ROOT
ATOM      1  N   UNL d   1       1.783  -0.027   0.005  0.00  0.00    -0.321 N 
ATOM      2  HN  UNL d   1       2.802  -0.018   0.051  1.00  0.00     0.169 HD
ATOM      3  N   UNL d   1      -0.277   1.115  -0.069  0.00  0.00    -0.317 N 
ATOM      4  HN  UNL d   1      -0.806   1.987  -0.069  1.00  0.00     0.170 HD
ATOM      5  C   UNL d   1       1.057   1.092  -0.013  0.00  0.00     0.136 A 
ATOM      6  N   UNL d   1      -0.243  -1.230  -0.096  0.00  0.00    -0.313 N 
ATOM      7  HN  UNL d   1      -0.741  -2.120  -0.111  1.00  0.00     0.170 HD
ATOM      8  C   UNL d   1       1.082  -1.152  -0.042  0.00  0.00     0.147 A 
ATOM      9  C   UNL d   1      -0.866  -0.065  -0.126  0.00  0.00     0.158 A 
ENDROOT
BRANCH   5  10
ATOM     10  C   UNL d   1       1.791   2.384   0.020  0.00  0.00     0.076 A 
ATOM     11  N   UNL d   1       1.052   3.531   0.006  0.00  0.00    -0.363 N 
ATOM     12  C   UNL d   1       1.709   4.712   0.015  0.00  0.00     0.088 A 
ATOM     13  HN  UNL d   1       0.033   3.498  -0.011  1.00  0.00     0.165 HD
ATOM     14  C   UNL d   1       3.087   4.830   0.042  0.00  0.00     0.017 A 
ATOM     15  C   UNL d   1       3.840   3.665   0.064  0.00  0.00     0.004 A 
ATOM     16  C   UNL d   1       3.189   2.432   0.054  0.00  0.00     0.033 A 
ENDBRANCH   5  10
BRANCH   9  17
ATOM     17  N   UNL d   1      -2.244  -0.078  -0.193  0.00  0.00    -0.274 NA
ATOM     18  H   UNL d   1      -2.623  -0.932   0.189  0.00  0.00     0.127 HD
ATOM     19  H   UNL d   1      -2.617   0.796   0.154  0.00  0.00     0.127 HD
ENDBRANCH   9  17
BRANCH   8  20
ATOM     20  S   UNL d   1       2.048  -2.648  -0.030  0.00  0.00    -0.098 SA
ATOM     21  C   UNL d   1       0.741  -3.893  -0.124  0.00  0.00     0.099 C 
ENDBRANCH   8  20
TORSDOF 3
