REMARK  5 active torsions:
REMARK  status: ('A' for Active; 'I' for Inactive)
REMARK    1  A    between atoms: C_2  and  S_1 
REMARK    2  A    between atoms: N_4  and  S_1 
REMARK    3  A    between atoms: C_11  and  C_3 
REMARK    4  A    between atoms: C_5  and  N_10 
REMARK    5  A    between atoms: O_22  and  C_11 
ROOT
ATOM      1  N   UNL d   1       0.687  -0.784   0.764  0.00  0.00    -0.303 N 
ATOM      2  N   UNL d   1       1.236  -3.698   0.878  0.00  0.00     0.105 N 
ATOM      3  C   UNL d   1       1.595  -1.330   1.797  0.00  0.00     0.165 C 
ATOM      4  C   UNL d   1      -0.349  -1.750   0.341  0.00  0.00     0.165 C 
ATOM      5  C   UNL d   1       0.253  -3.115  -0.050  0.00  0.00     0.294 C 
ATOM      6  C   UNL d   1       2.201  -2.665   1.325  0.00  0.00     0.294 C 
ENDROOT
BRANCH   2   7
ATOM      7  C   UNL d   1       0.688  -4.612   1.899  0.00  0.00     0.290 C 
ATOM      8  C   UNL d   1       1.798  -5.207   2.770  0.00  0.00    -0.009 A 
ATOM      9  C   UNL d   1       1.652  -4.772   4.107  0.00  0.00    -0.017 A 
ATOM     10  C   UNL d   1       2.865  -6.004   2.378  0.00  0.00     0.010 A 
ATOM     11  C   UNL d   1       2.576  -5.142   5.068  0.00  0.00     0.013 A 
ATOM     12  C   UNL d   1       0.441  -3.985   4.212  0.00  0.00    -0.017 C 
ATOM     13  C   UNL d   1       3.656  -5.942   4.679  0.00  0.00     0.001 A 
ATOM     14  C   UNL d   1       3.800  -6.368   3.347  0.00  0.00     0.001 A 
ATOM     15  C   UNL d   1      -0.213  -3.993   2.963  0.00  0.00    -0.009 C 
ATOM     16  C   UNL d   1      -0.109  -3.303   5.285  0.00  0.00     0.013 C 
ATOM     17  C   UNL d   1      -1.504  -3.504   2.838  0.00  0.00     0.010 C 
ATOM     18  C   UNL d   1      -2.052  -2.800   3.908  0.00  0.00     0.001 C 
ATOM     19  C   UNL d   1      -1.345  -2.671   5.112  0.00  0.00     0.001 C 
ENDBRANCH   2   7
BRANCH   1  20
ATOM     20  S   UNL d   1       1.283   0.273  -0.384  0.00  0.00     0.262 S 
ATOM     21  O   UNL d   1       2.719   0.126  -0.447  0.00  0.00    -0.200 OA
ATOM     22  O   UNL d   1       0.463   0.229  -1.577  0.00  0.00    -0.200 OA
BRANCH  20  23
ATOM     23  C   UNL d   1       1.046   1.914   0.149  0.00  0.00     0.103 A 
ATOM     24  C   UNL d   1      -0.178   2.491   0.465  0.00  0.00     0.103 A 
ATOM     25  S   UNL d   1       0.004   4.188   0.725  0.00  0.00    -0.094 SA
ATOM     26  C   UNL d   1       1.682   4.140   0.439  0.00  0.00     0.052 A 
ATOM     27  C   UNL d   1       2.119   2.866   0.166  0.00  0.00     0.034 A 
BRANCH  24  28
ATOM     28  C   UNL d   1      -1.488   1.875   0.609  0.00  0.00     0.301 C 
ATOM     29  O   UNL d   1      -1.701   0.717   0.938  0.00  0.00    -0.259 OA
BRANCH  28  30
ATOM     30  O   UNL d   1      -2.486   2.772   0.353  0.00  0.00    -0.322 OA
ATOM     31  C   UNL d   1      -3.821   2.289   0.528  0.00  0.00     0.213 C 
ENDBRANCH  28  30
ENDBRANCH  24  28
ENDBRANCH  20  23
ENDBRANCH   1  20
TORSDOF 5
