REMARK  5 active torsions:
REMARK  status: ('A' for Active; 'I' for Inactive)
REMARK    1  A    between atoms: C_11  and  C_4 
REMARK    2  A    between atoms: C_17  and  C_9 
REMARK    3  A    between atoms: O_18  and  C_12 
REMARK    4  A    between atoms: O_19  and  C_13 
REMARK    5  A    between atoms: O_20  and  C_14 
ROOT
ATOM      1  C   UNL d   1       0.344   0.057   0.891  0.00  0.00     0.172 A 
ATOM      2  N   UNL d   1       0.120   0.070  -0.443  0.00  0.00    -0.242 N 
ATOM      3  S   UNL d   1      -0.957  -0.717   1.686  0.00  0.00    -0.032 SA
ATOM      4  C   UNL d   1      -1.683  -0.926   0.066  0.00  0.00     0.103 A 
ATOM      5  N   UNL d   1      -1.012  -0.461  -0.958  0.00  0.00    -0.285 N 
ATOM      6  HN  UNL d   1      -1.287  -0.493  -1.939  1.00  0.00     0.188 HD
ATOM      7  N   UNL d   1       1.454   0.640   1.246  0.00  0.00    -0.333 N 
ATOM      8  HN  UNL d   1       1.834   0.762   2.185  1.00  0.00     0.168 HD
ATOM      9  C   UNL d   1       1.996   1.054   0.032  0.00  0.00     0.062 A 
ATOM     10  C   UNL d   1       1.176   0.688  -1.030  0.00  0.00     0.149 A 
ENDROOT
BRANCH   4  11
ATOM     11  C   UNL d   1      -3.003  -1.575  -0.077  0.00  0.00     0.005 A 
ATOM     12  C   UNL d   1      -3.793  -1.239  -1.182  0.00  0.00     0.054 A 
ATOM     13  C   UNL d   1      -5.051  -1.830  -1.387  0.00  0.00     0.105 A 
ATOM     14  C   UNL d   1      -5.526  -2.790  -0.464  0.00  0.00     0.135 A 
ATOM     15  C   UNL d   1      -4.703  -3.149   0.628  0.00  0.00     0.105 A 
ATOM     16  C   UNL d   1      -3.462  -2.529   0.825  0.00  0.00     0.054 A 
BRANCH  13  17
ATOM     17  O   UNL d   1      -5.839  -1.517  -2.463  0.00  0.00    -0.353 OA
ATOM     18  C   UNL d   1      -5.392  -0.535  -3.389  0.00  0.00     0.210 C 
ENDBRANCH  13  17
BRANCH  14  19
ATOM     19  O   UNL d   1      -6.747  -3.413  -0.494  0.00  0.00    -0.351 OA
ATOM     20  C   UNL d   1      -7.693  -3.111  -1.505  0.00  0.00     0.210 C 
ENDBRANCH  14  19
BRANCH  15  21
ATOM     21  O   UNL d   1      -4.998  -4.051   1.623  0.00  0.00    -0.353 OA
ATOM     22  C   UNL d   1      -5.742  -5.204   1.245  0.00  0.00     0.210 C 
ENDBRANCH  15  21
ENDBRANCH   4  11
BRANCH   9  23
ATOM     23  C   UNL d   1       3.247   1.791  -0.074  0.00  0.00    -0.008 A 
ATOM     24  C   UNL d   1       3.952   2.135   1.089  0.00  0.00     0.014 A 
ATOM     25  C   UNL d   1       5.146   2.857   1.017  0.00  0.00     0.001 A 
ATOM     26  C   UNL d   1       5.653   3.245  -0.221  0.00  0.00     0.000 A 
ATOM     27  C   UNL d   1       4.968   2.909  -1.386  0.00  0.00     0.001 A 
ATOM     28  C   UNL d   1       3.773   2.187  -1.312  0.00  0.00     0.014 A 
ENDBRANCH   9  23
TORSDOF 5
