REMARK  3 active torsions:
REMARK  status: ('A' for Active; 'I' for Inactive)
REMARK    1  A    between atoms: N_2  and  C_1 
REMARK    2  A    between atoms: N_8  and  C_3 
REMARK    3  A    between atoms: N_9  and  C_6 
ROOT
ATOM      1  C   UNL d   1       1.714  -1.242  -0.034  0.00  0.00     0.131 A 
ATOM      2  C   UNL d   1       2.443  -0.044  -0.021  0.00  0.00     0.066 A 
ATOM      3  C   UNL d   1       0.317  -1.284  -0.101  0.00  0.00     0.064 A 
ATOM      4  C   UNL d   1       1.655   1.127  -0.007  0.00  0.00     0.063 A 
ATOM      5  C   UNL d   1       0.232   1.156  -0.028  0.00  0.00     0.054 A 
ATOM      6  C   UNL d   1      -0.414  -0.094  -0.112  0.00  0.00     0.063 A 
ATOM      7 CL   UNL d   1      -2.125  -0.286  -0.305  0.00  0.00    -0.082 Cl
ENDROOT
BRANCH   2   8
ATOM      8  N   UNL d   1       3.826   0.024   0.037  0.00  0.00    -0.375 N 
ATOM      9  C   UNL d   1       4.529   1.188   0.614  0.00  0.00     0.149 C 
ATOM     10  C   UNL d   1       5.863   0.710   1.216  0.00  0.00     0.187 C 
ATOM     11  O   UNL d   1       6.676   0.033   0.240  0.00  0.00    -0.388 OA
ATOM     12  C   UNL d   1       5.975  -1.108  -0.290  0.00  0.00     0.187 C 
ATOM     13  C   UNL d   1       4.660  -0.678  -0.965  0.00  0.00     0.149 C 
ENDBRANCH   2   8
BRANCH   1  14
ATOM     14  N   UNL d   1       2.373  -2.527   0.128  0.00  0.00    -0.113 N 
ATOM     15  O   UNL d   1       2.999  -2.729   1.180  0.00  0.00    -0.532 OA
ATOM     16  O   UNL d   1       2.230  -3.350  -0.788  0.00  0.00    -0.532 OA
ENDBRANCH   1  14
BRANCH   5  17
ATOM     17  N   UNL d   1      -0.388   2.390   0.109  0.00  0.00    -0.375 N 
ATOM     18  C   UNL d   1      -1.701   2.578   0.749  0.00  0.00     0.149 C 
ATOM     19  C   UNL d   1      -1.720   3.923   1.499  0.00  0.00     0.187 C 
ATOM     20  O   UNL d   1      -1.359   5.024   0.649  0.00  0.00    -0.388 OA
ATOM     21  C   UNL d   1      -0.049   4.818   0.095  0.00  0.00     0.187 C 
ATOM     22  C   UNL d   1       0.003   3.531  -0.743  0.00  0.00     0.149 C 
ENDBRANCH   5  17
TORSDOF 3
