REMARK  4 active torsions:
REMARK  status: ('A' for Active; 'I' for Inactive)
REMARK    1  A    between atoms: C_5  and  C_1 
REMARK    2  A    between atoms: C_2  and  C_6 
REMARK    3  A    between atoms: N_7  and  N_11 
REMARK    4  A    between atoms: N_11  and  C_12 
ROOT
ATOM      1  C   UNL d   1      -0.260   0.629  -3.311  0.00  0.00     0.050 A 
ATOM      2  C   UNL d   1      -1.435   0.447  -5.443  0.00  0.00     0.050 A 
ATOM      3  C   UNL d   1      -0.811  -0.153  -4.341  0.00  0.00     0.032 A 
ATOM      4  C   UNL d   1      -0.983   2.653  -4.478  0.00  0.00     0.049 A 
ATOM      5  C   UNL d   1      -0.348   2.029  -3.400  0.00  0.00     0.047 A 
ATOM      6  C   UNL d   1      -1.502   1.851  -5.500  0.00  0.00     0.047 A 
ENDROOT
BRANCH   4   7
ATOM      7  N   UNL d   1      -1.020   4.050  -4.626  0.00  0.00    -0.301 N 
ATOM      8  H   UNL d   1      -1.691   4.394  -5.324  0.00  0.00     0.187 HD
BRANCH   7   9
ATOM      9  N   UNL d   1      -0.683   4.854  -3.584  0.00  0.00    -0.299 N 
ATOM     10  C   UNL d   1      -0.874   6.134  -3.749  0.00  0.00     0.093 C 
ATOM     11  C   UNL d   1      -1.459   6.763  -5.020  0.00  0.00     0.265 C 
ATOM     12  C   UNL d   1      -0.519   7.082  -2.628  0.00  0.00     0.066 C 
ATOM     13  N   UNL d   1      -1.175   8.087  -5.243  0.00  0.00    -0.356 N 
ATOM     14  O   UNL d   1      -2.120   6.103  -5.810  0.00  0.00    -0.266 OA
ATOM     15  C   UNL d   1      -0.781   8.999  -4.198  0.00  0.00     0.123 C 
ATOM     16  H   UNL d   1      -1.613   8.460  -6.077  0.00  0.00     0.162 HD
ATOM     17  C   UNL d   1       0.132   8.341  -3.178  0.00  0.00     0.026 C 
ATOM     18  HN  UNL d   1      -0.301   4.476  -2.717  1.00  0.00     0.186 HD
ENDBRANCH   7   9
ENDBRANCH   4   7
BRANCH   1  19
ATOM     19  C   UNL d   1       0.427  -0.001  -2.128  0.00  0.00     0.417 C 
ATOM     20  F   UNL d   1       0.450  -1.363  -2.177  0.00  0.00    -0.166 F 
ATOM     21  F   UNL d   1      -0.170   0.316  -0.945  0.00  0.00    -0.166 F 
ATOM     22  F   UNL d   1       1.727   0.385  -2.007  0.00  0.00    -0.166 F 
ENDBRANCH   1  19
BRANCH   2  23
ATOM     23  C   UNL d   1      -2.024  -0.371  -6.563  0.00  0.00     0.417 C 
ATOM     24  F   UNL d   1      -1.896  -1.716  -6.379  0.00  0.00    -0.166 F 
ATOM     25  F   UNL d   1      -3.357  -0.145  -6.730  0.00  0.00    -0.166 F 
ATOM     26  F   UNL d   1      -1.446  -0.105  -7.766  0.00  0.00    -0.166 F 
ENDBRANCH   2  23
TORSDOF 4
