REMARK  1 active torsions:
REMARK  status: ('A' for Active; 'I' for Inactive)
REMARK    1  A    between atoms: O_12  and  C_6 
ROOT
ATOM      1  C   UNL d   1      -0.032   0.004  -0.001  0.00  0.00    -0.003 A 
ATOM      2  C   UNL d   1       0.633  -1.235   0.013  0.00  0.00     0.021 A 
ATOM      3  C   UNL d   1      -1.454   0.022  -0.009  0.00  0.00     0.009 A 
ATOM      4  C   UNL d   1       2.113  -1.304   0.025  0.00  0.00     0.160 C 
ATOM      5  C   UNL d   1       0.672   1.221   0.000  0.00  0.00    -0.045 A 
ATOM      6  C   UNL d   1      -2.142   1.263  -0.015  0.00  0.00     0.079 A 
ATOM      7  C   UNL d   1       2.920  -0.036  -0.051  0.00  0.00     0.088 C 
ATOM      8  O   UNL d   1       2.677  -2.397   0.065  0.00  0.00    -0.292 OA
ATOM      9  C   UNL d   1       2.171   1.281   0.047  0.00  0.00     0.047 C 
ATOM     10  C   UNL d   1      -0.029   2.434  -0.007  0.00  0.00     0.011 A 
ATOM     11  C   UNL d   1      -1.420   2.457  -0.015  0.00  0.00     0.038 A 
ATOM     12  C   UNL d   1      -0.080  -2.442   0.014  0.00  0.00     0.016 A 
ATOM     13  C   UNL d   1      -2.143  -1.212  -0.007  0.00  0.00     0.015 A 
ATOM     14  C   UNL d   1      -1.468  -2.429   0.002  0.00  0.00     0.002 A 
ENDROOT
BRANCH   6  15
ATOM     15  O   UNL d   1      -3.516   1.204  -0.015  0.00  0.00    -0.355 OA
ATOM     16  C   UNL d   1      -4.228   2.435  -0.009  0.00  0.00     0.210 C 
ENDBRANCH   6  15
TORSDOF 1
