REMARK  5 active torsions:
REMARK  status: ('A' for Active; 'I' for Inactive)
REMARK    1  A    between atoms: C_5  and  C_1 
REMARK    2  A    between atoms: O_18  and  C_2 
REMARK    3  A    between atoms: N_4  and  C_9 
REMARK       I    between atoms: N_10  and  C_5 
REMARK       I    between atoms: C_8  and  N_11 
REMARK    4  A    between atoms: C_12  and  C_8 
REMARK    5  A    between atoms: N_11  and  N_10 
ROOT
ATOM      1  C   UNL d   1       1.060  -5.392   0.074  0.00  0.00     0.270 C 
ATOM      2  N   UNL d   1       1.419  -4.081   0.313  0.00  0.00    -0.263 N 
ATOM      3  O   UNL d   1       1.788  -6.215  -0.468  0.00  0.00    -0.266 OA
ATOM      4  H   UNL d   1       0.726  -3.353   0.488  0.00  0.00     0.190 HD
ENDROOT
BRANCH   2   5
ATOM      5  N   UNL d   1       2.661  -3.629  -0.147  0.00  0.00    -0.262 N 
ATOM      6  C   UNL d   1       2.807  -2.290  -0.484  0.00  0.00     0.279 C 
ATOM      7  O   UNL d   1       1.843  -1.527  -0.389  0.00  0.00    -0.265 OA
ATOM      8  H   UNL d   1       3.394  -4.320  -0.286  0.00  0.00     0.190 HD
BRANCH   6   9
ATOM      9  C   UNL d   1       4.140  -1.884  -0.918  0.00  0.00     0.108 A 
ATOM     10  C   UNL d   1       4.498  -0.785  -1.691  0.00  0.00     0.108 A 
ATOM     11  C   UNL d   1       5.918  -0.712  -1.859  0.00  0.00     0.052 A 
ATOM     12 BR   UNL d   1       6.883   0.546  -2.896  0.00  0.00    -0.048 Br
ATOM     13  C   UNL d   1       6.586  -1.721  -1.207  0.00  0.00     0.072 A 
ATOM     14  S   UNL d   1       5.518  -2.779  -0.410  0.00  0.00    -0.092 SA
BRANCH  10  15
ATOM     15  O   UNL d   1       3.503  -0.033  -2.235  0.00  0.00    -0.353 OA
ATOM     16  C   UNL d   1       3.764   1.353  -2.383  0.00  0.00     0.210 C 
ENDBRANCH  10  15
ENDBRANCH   6   9
ENDBRANCH   2   5
BRANCH   1  17
ATOM     17  C   UNL d   1      -0.305  -5.770   0.526  0.00  0.00     0.036 A 
ATOM     18  C   UNL d   1      -1.051  -6.684  -0.227  0.00  0.00     0.053 A 
ATOM     19  C   UNL d   1      -2.330  -7.049   0.216  0.00  0.00     0.103 A 
ATOM     20  C   UNL d   1      -2.855  -6.526   1.407  0.00  0.00     0.036 A 
ATOM     21  C   UNL d   1      -2.095  -5.631   2.161  0.00  0.00     0.003 A 
ATOM     22  C   UNL d   1      -0.826  -5.252   1.722  0.00  0.00     0.017 A 
BRANCH  19  23
ATOM     23  N   UNL d   1      -3.140  -7.986  -0.573  0.00  0.00    -0.116 N 
ATOM     24  O   UNL d   1      -2.666  -8.397  -1.643  0.00  0.00    -0.532 OA
ATOM     25  O   UNL d   1      -4.251  -8.310  -0.126  0.00  0.00    -0.532 OA
ENDBRANCH  19  23
ENDBRANCH   1  17
TORSDOF 5
