REMARK  3 active torsions:
REMARK  status: ('A' for Active; 'I' for Inactive)
REMARK       I    between atoms: N_3  and  C_1 
REMARK       I    between atoms: N_5  and  C_1 
REMARK    1  A    between atoms: C_4  and  N_3 
REMARK    2  A    between atoms: C_12  and  N_5 
REMARK       I    between atoms: C_6  and  N_7 
REMARK    3  A    between atoms: N_7  and  C_13 
ROOT
ATOM      1  C   UNL d   1       1.078   0.407   0.112  0.00  0.00     0.325 C 
ATOM      2  N   UNL d   1       2.384   0.734  -0.223  0.00  0.00    -0.307 N 
ATOM      3  N   UNL d   1       0.208   0.875  -0.857  0.00  0.00    -0.309 N 
ATOM      4  O   UNL d   1       0.752  -0.178   1.136  0.00  0.00    -0.247 OA
ATOM      5  H   UNL d   1       2.475   1.587  -0.763  0.00  0.00     0.170 HD
ATOM      6  H   UNL d   1       0.609   1.005  -1.774  0.00  0.00     0.170 HD
ENDROOT
BRANCH   3   7
ATOM      7  C   UNL d   1      -1.194   0.970  -0.761  0.00  0.00     0.036 A 
ATOM      8  C   UNL d   1      -1.900   0.837   0.434  0.00  0.00     0.032 A 
ATOM      9  C   UNL d   1      -3.296   0.962   0.452  0.00  0.00     0.032 A 
ATOM     10  C   UNL d   1      -4.007   1.223  -0.724  0.00  0.00     0.034 A 
ATOM     11  C   UNL d   1      -3.297   1.379  -1.913  0.00  0.00     0.032 A 
ATOM     12  C   UNL d   1      -1.902   1.256  -1.930  0.00  0.00     0.032 A 
BRANCH  10  13
ATOM     13  N   UNL d   1      -5.412   1.303  -0.625  0.00  0.00    -0.328 N 
ATOM     14  C   UNL d   1      -6.313   1.522  -1.653  0.00  0.00     0.218 C 
ATOM     15  O   UNL d   1      -6.048   1.722  -2.831  0.00  0.00    -0.274 OA
ATOM     16  C   UNL d   1      -7.750   1.483  -1.196  0.00  0.00     0.117 C 
ATOM     17  H   UNL d   1      -5.795   1.160   0.299  0.00  0.00     0.169 HD
ENDBRANCH  10  13
ENDBRANCH   3   7
BRANCH   2  18
ATOM     18  C   UNL d   1       3.517   0.400   0.561  0.00  0.00     0.059 A 
ATOM     19  C   UNL d   1       4.607   1.290   0.609  0.00  0.00     0.082 A 
ATOM     20  C   UNL d   1       5.707   1.001   1.428  0.00  0.00     0.058 A 
ATOM     21 CL   UNL d   1       4.538   2.761  -0.317  0.00  0.00    -0.080 Cl
ATOM     22 CL   UNL d   1       7.049   2.079   1.596  0.00  0.00    -0.082 Cl
ATOM     23  C   UNL d   1       5.741  -0.188   2.162  0.00  0.00     0.026 A 
ATOM     24  C   UNL d   1       4.683  -1.091   2.079  0.00  0.00     0.004 A 
ATOM     25  C   UNL d   1       3.575  -0.797   1.284  0.00  0.00     0.031 A 
ENDBRANCH   2  18
TORSDOF 3
