REMARK  4 active torsions:
REMARK  status: ('A' for Active; 'I' for Inactive)
REMARK    1  A    between atoms: C_5  and  C_1 
REMARK    2  A    between atoms: C_8  and  N_2 
REMARK       I    between atoms: N_7  and  C_5 
REMARK    3  A    between atoms: C_15  and  N_7 
REMARK    4  A    between atoms: C_9  and  C_8 
ROOT
ATOM      1  C   UNL d   1      -0.275  -1.104  -0.065  0.00  0.00     0.056 A 
ATOM      2  N   UNL d   1       0.928   0.799  -0.155  0.00  0.00    -0.349 N 
ATOM      3  C   UNL d   1       1.006  -0.587  -0.274  0.00  0.00     0.024 A 
ATOM      4  C   UNL d   1      -1.134   0.026   0.101  0.00  0.00     0.043 A 
ATOM      5  C   UNL d   1      -0.388   1.179   0.017  0.00  0.00     0.009 A 
ATOM      6  C   UNL d   1       2.281  -1.278  -0.622  0.00  0.00     0.069 C 
ATOM      7  C   UNL d   1      -0.852   2.593   0.082  0.00  0.00     0.068 C 
ENDROOT
BRANCH   1   8
ATOM      8  C   UNL d   1      -0.779  -2.488  -0.070  0.00  0.00     0.258 C 
ATOM      9  N   UNL d   1       0.119  -3.471   0.317  0.00  0.00    -0.323 N 
ATOM     10  H   UNL d   1       1.019  -3.150   0.640  0.00  0.00     0.169 HD
ATOM     11  O   UNL d   1      -1.960  -2.689  -0.350  0.00  0.00    -0.267 OA
BRANCH   9  12
ATOM     12  C   UNL d   1      -0.157  -4.855   0.470  0.00  0.00     0.035 A 
ATOM     13  C   UNL d   1      -1.371  -5.452   0.113  0.00  0.00     0.029 A 
ATOM     14  C   UNL d   1      -1.607  -6.809   0.358  0.00  0.00     0.002 A 
ATOM     15  C   UNL d   1      -0.625  -7.595   0.950  0.00  0.00     0.000 A 
ATOM     16  C   UNL d   1       0.604  -7.027   1.274  0.00  0.00     0.002 A 
ATOM     17  C   UNL d   1       0.838  -5.666   1.031  0.00  0.00     0.029 A 
ENDBRANCH   9  12
ENDBRANCH   1   8
BRANCH   2  18
ATOM     18  C   UNL d   1       2.066   1.729  -0.122  0.00  0.00     0.174 C 
BRANCH  18  19
ATOM     19  C   UNL d   1       2.310   2.447  -1.418  0.00  0.00     0.001 A 
ATOM     20  S   UNL d   1       3.385   3.792  -1.406  0.00  0.00    -0.105 SA
ATOM     21  C   UNL d   1       3.100   4.127  -3.056  0.00  0.00     0.050 A 
ATOM     22  C   UNL d   1       2.244   3.213  -3.626  0.00  0.00     0.008 A 
ATOM     23  C   UNL d   1       1.806   2.231  -2.688  0.00  0.00     0.017 A 
ENDBRANCH  18  19
ENDBRANCH   2  18
TORSDOF 4
