REMARK  8 active torsions:
REMARK  status: ('A' for Active; 'I' for Inactive)
REMARK    1  A    between atoms: O_5  and  C_1 
REMARK    2  A    between atoms: C_11  and  N_2 
REMARK    3  A    between atoms: C_10  and  O_5 
REMARK    4  A    between atoms: S_20  and  C_6 
REMARK    5  A    between atoms: S_7  and  C_15 
REMARK    6  A    between atoms: C_14  and  S_7 
REMARK       I    between atoms: N_16  and  C_10 
REMARK    7  A    between atoms: C_15  and  C_23 
REMARK    8  A    between atoms: C_23  and  S_20 
ROOT
ATOM      1  C   UNL d   1       0.119  -1.158  -0.503  0.00  0.00     0.252 A 
ATOM      2  N   UNL d   1       1.317  -0.492  -0.283  0.00  0.00    -0.286 N 
ATOM      3  N   UNL d   1      -0.852  -0.263  -0.539  0.00  0.00    -0.262 N 
ATOM      4  HN  UNL d   1      -1.842  -0.472  -0.664  1.00  0.00     0.190 HD
ATOM      5  C   UNL d   1       0.972   0.855  -0.222  0.00  0.00     0.164 A 
ATOM      6  N   UNL d   1      -0.316   0.996  -0.380  0.00  0.00    -0.277 N 
ATOM      7  HN  UNL d   1      -0.831   1.876  -0.385  1.00  0.00     0.189 HD
ENDROOT
BRANCH   5   8
ATOM      8  S   UNL d   1       2.127   2.159  -0.096  0.00  0.00    -0.091 SA
BRANCH   8   9
ATOM      9  C   UNL d   1       1.085   3.589   0.291  0.00  0.00     0.098 C 
BRANCH   9  10
ATOM     10  C   UNL d   1       1.874   4.889   0.392  0.00  0.00     0.156 C 
BRANCH  10  11
ATOM     11  S   UNL d   1       2.778   5.136   1.902  0.00  0.00     0.176 S 
ATOM     12  O   UNL d   1       3.231   6.519   1.916  0.00  0.00    -0.223 OA
ATOM     13  O   UNL d   1       1.982   4.617   2.995  0.00  0.00    -0.223 OA
BRANCH  11  14
ATOM     14  C   UNL d   1       4.258   4.156   1.798  0.00  0.00     0.059 A 
ATOM     15  C   UNL d   1       5.138   4.342   0.724  0.00  0.00     0.026 A 
ATOM     16  C   UNL d   1       6.299   3.570   0.648  0.00  0.00     0.044 A 
ATOM     17  C   UNL d   1       6.577   2.644   1.649  0.00  0.00     0.116 A 
ATOM     18  C   UNL d   1       5.724   2.481   2.736  0.00  0.00     0.044 A 
ATOM     19  F   UNL d   1       7.690   1.904   1.570  0.00  0.00    -0.206 F 
ATOM     20  C   UNL d   1       4.557   3.242   2.817  0.00  0.00     0.026 A 
ENDBRANCH  11  14
ENDBRANCH  10  11
ENDBRANCH   9  10
ENDBRANCH   8   9
ENDBRANCH   5   8
BRANCH   2  21
ATOM     21  C   UNL d   1       2.701  -0.895  -0.146  0.00  0.00     0.096 A 
ATOM     22  C   UNL d   1       3.452  -1.240  -1.420  0.00  0.00     0.028 A 
ATOM     23  C   UNL d   1       3.487  -2.161  -0.241  0.00  0.00     0.028 A 
ENDBRANCH   2  21
BRANCH   1  24
ATOM     24  O   UNL d   1      -0.217  -2.424  -0.399  0.00  0.00    -0.226 OA
BRANCH  24  25
ATOM     25  C   UNL d   1       0.223  -3.547  -0.962  0.00  0.00     0.369 C 
ATOM     26  N   UNL d   1      -0.650  -4.619  -0.752  0.00  0.00    -0.336 N 
ATOM     27  C   UNL d   1      -0.272  -5.960  -1.171  0.00  0.00     0.154 C 
ATOM     28  C   UNL d   1      -1.895  -4.506  -0.003  0.00  0.00     0.154 C 
ATOM     29  O   UNL d   1       1.256  -3.650  -1.613  0.00  0.00    -0.238 OA
ENDBRANCH  24  25
ENDBRANCH   1  24
TORSDOF 8
