REMARK  2 active torsions:
REMARK  status: ('A' for Active; 'I' for Inactive)
REMARK    1  A    between atoms: C_5  and  C_9 
REMARK    2  A    between atoms: C_11  and  N_6 
ROOT
ATOM      1  C   UNL d   1      -1.085   0.746  -0.062  0.00  0.00     0.114 C 
ATOM      2  C   UNL d   1      -1.682  -0.646  -0.387  0.00  0.00     0.273 C 
ATOM      3  N   UNL d   1      -0.641  -1.535  -0.237  0.00  0.00    -0.321 N 
ATOM      4  C   UNL d   1       0.362   0.520  -0.008  0.00  0.00     0.023 A 
ATOM      5  N   UNL d   1      -1.654   1.883   0.198  0.00  0.00    -0.351 N 
ATOM      6  HN  UNL d   1      -1.070   2.694   0.405  1.00  0.00     0.166 HD
ATOM      7  C   UNL d   1       0.558  -0.859  -0.061  0.00  0.00     0.047 A 
ATOM      8  O   UNL d   1      -2.813  -0.916  -0.730  0.00  0.00    -0.266 OA
ATOM      9  C   UNL d   1       1.413   1.409   0.078  0.00  0.00     0.016 A 
ATOM     10  C   UNL d   1       1.819  -1.413   0.003  0.00  0.00     0.030 A 
ATOM     11  C   UNL d   1       2.701   0.866   0.113  0.00  0.00     0.001 A 
ATOM     12  C   UNL d   1       2.901  -0.531   0.088  0.00  0.00     0.002 A 
ATOM     13  H   UNL d   1      -0.746  -2.527  -0.382  0.00  0.00     0.169 HD
ENDROOT
BRANCH   5  14
ATOM     14  C   UNL d   1      -3.050   2.028   0.201  0.00  0.00     0.033 C 
ATOM     15  C   UNL d   1      -3.911   1.128   0.834  0.00  0.00     0.045 C 
ATOM     16  C   UNL d   1      -5.303   1.228   0.694  0.00  0.00     0.050 C 
ATOM     17  C   UNL d   1      -5.839   2.352   0.055  0.00  0.00     0.016 C 
ATOM     18  C   UNL d   1      -4.993   3.328  -0.471  0.00  0.00     0.003 C 
ATOM     19  C   UNL d   1      -3.607   3.152  -0.414  0.00  0.00     0.029 C 
BRANCH  16  20
ATOM     20  C   UNL d   1      -6.194   0.107   1.163  0.00  0.00     0.417 C 
ATOM     21  F   UNL d   1      -5.517  -0.971   1.652  0.00  0.00    -0.166 F 
ATOM     22  F   UNL d   1      -7.042   0.492   2.157  0.00  0.00    -0.166 F 
ATOM     23  F   UNL d   1      -6.988  -0.377   0.166  0.00  0.00    -0.166 F 
ENDBRANCH  16  20
ENDBRANCH   5  14
TORSDOF 2
