REMARK  3 active torsions:
REMARK  status: ('A' for Active; 'I' for Inactive)
REMARK    1  A    between atoms: C_2  and  S_1 
REMARK    2  A    between atoms: N_5  and  S_1 
REMARK    3  A    between atoms: C_6  and  N_13 
ROOT
ATOM      1  N   UNL d   1       0.414  -1.236   0.838  0.00  0.00    -0.203 NA
ATOM      2  N   UNL d   1       0.431  -3.868  -0.677  0.00  0.00     0.104 N 
ATOM      3  C   UNL d   1       1.378  -2.319   1.165  0.00  0.00     0.138 C 
ATOM      4  C   UNL d   1      -0.852  -1.841   0.382  0.00  0.00     0.138 C 
ATOM      5  C   UNL d   1       1.619  -3.208  -0.084  0.00  0.00     0.289 C 
ATOM      6  C   UNL d   1      -0.625  -2.818  -0.792  0.00  0.00     0.289 C 
ENDROOT
BRANCH   1   7
ATOM      7  S   UNL d   1       1.028   0.071  -0.106  0.00  0.00     0.251 S 
ATOM      8  O   UNL d   1       2.307  -0.316  -0.679  0.00  0.00    -0.205 OA
ATOM      9  O   UNL d   1      -0.040   0.599  -0.913  0.00  0.00    -0.205 OA
BRANCH   7  10
ATOM     10  C   UNL d   1       1.470   1.448   0.948  0.00  0.00     0.122 C 
ATOM     11  S   UNL d   1       1.111   1.273   2.608  0.00  0.00    -0.076 SA
ATOM     12  C   UNL d   1       1.530   2.900   2.953  0.00  0.00     0.017 A 
ATOM     13  C   UNL d   1       1.472   3.546   4.203  0.00  0.00     0.021 A 
ATOM     14  C   UNL d   1       1.939   3.573   1.802  0.00  0.00    -0.009 A 
ATOM     15  C   UNL d   1       1.738   4.917   4.268  0.00  0.00     0.025 A 
ATOM     16  C   UNL d   1       2.055   5.623   3.118  0.00  0.00     0.035 A 
ATOM     17  C   UNL d   1       2.183   4.966   1.893  0.00  0.00     0.037 A 
ATOM     18 CL   UNL d   1       2.287   7.326   3.195  0.00  0.00    -0.084 Cl
ATOM     19  C   UNL d   1       2.076   2.671   0.686  0.00  0.00    -0.021 C 
ATOM     20  C   UNL d   1       2.734   3.068  -0.601  0.00  0.00     0.051 C 
ENDBRANCH   7  10
ENDBRANCH   1   7
BRANCH   2  21
ATOM     21  C   UNL d   1      -0.003  -5.129  -0.028  0.00  0.00     0.290 C 
ATOM     22  C   UNL d   1      -1.121  -5.934  -0.772  0.00  0.00    -0.009 C 
ATOM     23  C   UNL d   1      -0.907  -7.307  -0.566  0.00  0.00    -0.017 C 
ATOM     24  C   UNL d   1      -2.263  -5.562  -1.470  0.00  0.00     0.010 C 
ATOM     25  C   UNL d   1      -1.934  -8.234  -0.700  0.00  0.00     0.013 C 
ATOM     26  C   UNL d   1       0.468  -7.512  -0.199  0.00  0.00    -0.017 C 
ATOM     27  C   UNL d   1      -3.158  -7.802  -1.202  0.00  0.00     0.001 C 
ATOM     28  C   UNL d   1      -3.288  -6.494  -1.668  0.00  0.00     0.001 C 
ATOM     29  C   UNL d   1       1.046  -6.275   0.163  0.00  0.00    -0.009 C 
ATOM     30  C   UNL d   1       1.217  -8.683  -0.290  0.00  0.00     0.013 C 
ATOM     31  C   UNL d   1       2.344  -6.295   0.665  0.00  0.00     0.010 C 
ATOM     32  C   UNL d   1       3.109  -7.470   0.579  0.00  0.00     0.001 C 
ATOM     33  C   UNL d   1       2.561  -8.648   0.067  0.00  0.00     0.001 C 
ENDBRANCH   2  21
TORSDOF 3
