REMARK  3 active torsions:
REMARK  status: ('A' for Active; 'I' for Inactive)
REMARK    1  A    between atoms: N_2  and  S_1 
REMARK    2  A    between atoms: C_9  and  S_1 
REMARK    3  A    between atoms: C_4  and  N_2 
ROOT
ATOM      1  C   UNL d   1      -0.219   3.474   1.254  0.00  0.00     0.021 A 
ATOM      2  C   UNL d   1       0.779   2.553   0.855  0.00  0.00     0.055 A 
ATOM      3  N   UNL d   1      -0.777   5.431   2.514  0.00  0.00    -0.300 N 
ATOM      4  HN  UNL d   1      -0.484   6.219   3.091  1.00  0.00     0.187 HD
ATOM      5  N   UNL d   1      -2.099   5.292   2.180  0.00  0.00    -0.305 N 
ATOM      6  HN  UNL d   1      -2.784   5.965   2.523  1.00  0.00     0.186 HD
ATOM      7  C   UNL d   1       0.136   4.544   2.092  0.00  0.00     0.060 A 
ATOM      8  C   UNL d   1      -1.577   3.356   0.903  0.00  0.00     0.042 A 
ATOM      9  C   UNL d   1      -2.492   4.269   1.400  0.00  0.00     0.023 A 
ATOM     10  C   UNL d   1       2.081   2.663   1.349  0.00  0.00     0.031 A 
ATOM     11  C   UNL d   1       2.426   3.732   2.162  0.00  0.00     0.005 A 
ATOM     12  C   UNL d   1       1.455   4.670   2.511  0.00  0.00     0.032 A 
ATOM     13  C   UNL d   1      -3.958   4.113   1.150  0.00  0.00     0.070 C 
ENDROOT
BRANCH   2  14
ATOM     14  N   UNL d   1       0.487   1.521  -0.094  0.00  0.00    -0.280 N 
ATOM     15  H   UNL d   1       0.756   0.568   0.150  0.00  0.00     0.179 HD
BRANCH  14  16
ATOM     16  S   UNL d   1       0.750   1.855  -1.739  0.00  0.00     0.263 S 
ATOM     17  O   UNL d   1       0.048   3.072  -2.087  0.00  0.00    -0.200 OA
ATOM     18  O   UNL d   1       0.524   0.617  -2.451  0.00  0.00    -0.200 OA
BRANCH  16  19
ATOM     19  C   UNL d   1       2.503   2.177  -1.816  0.00  0.00     0.080 A 
ATOM     20  C   UNL d   1       3.393   1.130  -1.537  0.00  0.00     0.028 A 
ATOM     21  C   UNL d   1       4.763   1.387  -1.494  0.00  0.00     0.044 A 
ATOM     22  C   UNL d   1       5.229   2.672  -1.761  0.00  0.00     0.116 A 
ATOM     23  C   UNL d   1       4.351   3.704  -2.082  0.00  0.00     0.044 A 
ATOM     24  F   UNL d   1       6.544   2.918  -1.701  0.00  0.00    -0.206 F 
ATOM     25  C   UNL d   1       2.976   3.461  -2.111  0.00  0.00     0.028 A 
ENDBRANCH  16  19
ENDBRANCH  14  16
ENDBRANCH   2  14
TORSDOF 3
