REMARK  2 active torsions:
REMARK  status: ('A' for Active; 'I' for Inactive)
REMARK    1  A    between atoms: C_6  and  N_1 
REMARK    2  A    between atoms: C_8  and  C_7 
ROOT
ATOM      1  C   UNL d   1       0.040   2.307  -0.012  0.00  0.00     0.045 A 
ATOM      2  C   UNL d   1       0.104   5.154   0.091  0.00  0.00     0.009 A 
ATOM      3  C   UNL d   1      -0.701   3.023   0.940  0.00  0.00     0.031 A 
ATOM      4  C   UNL d   1       0.800   3.049  -0.925  0.00  0.00     0.031 A 
ATOM      5  C   UNL d   1       0.826   4.450  -0.879  0.00  0.00     0.017 A 
ATOM      6  C   UNL d   1      -0.666   4.426   0.999  0.00  0.00     0.017 A 
ENDROOT
BRANCH   1   7
ATOM      7  N   UNL d   1       0.027   0.885  -0.040  0.00  0.00    -0.245 N 
ATOM      8  C   UNL d   1      -0.921   0.087   0.540  0.00  0.00     0.255 A 
ATOM      9  C   UNL d   1      -0.535  -1.308   0.297  0.00  0.00     0.080 A 
ATOM     10  O   UNL d   1      -1.950   0.362   1.134  0.00  0.00    -0.268 OA
ATOM     11  C   UNL d   1       0.597  -1.302  -0.401  0.00  0.00     0.080 A 
ATOM     12  C   UNL d   1       0.979   0.096  -0.630  0.00  0.00     0.255 A 
ATOM     13  O   UNL d   1       2.010   0.380  -1.212  0.00  0.00    -0.268 OA
ENDBRANCH   1   7
BRANCH   2  14
ATOM     14  C   UNL d   1       0.205   6.647   0.095  0.00  0.00     0.155 C 
ATOM     15  O   UNL d   1       0.875   7.204  -0.775  0.00  0.00    -0.293 OA
ATOM     16  C   UNL d   1      -0.506   7.475   1.136  0.00  0.00     0.096 C 
ENDBRANCH   2  14
TORSDOF 2
