REMARK  5 active torsions:
REMARK  status: ('A' for Active; 'I' for Inactive)
REMARK    1  A    between atoms: N_6  and  C_2 
REMARK    2  A    between atoms: C_3  and  N_5 
REMARK    3  A    between atoms: N_15  and  C_3 
REMARK    4  A    between atoms: C_7  and  C_17 
REMARK    5  A    between atoms: C_26  and  N_15 
ROOT
ATOM      1  N   UNL d   1      -1.064  -5.652  -0.201  0.00  0.00    -0.356 N 
ATOM      2  N   UNL d   1      -1.247  -2.773  -0.049  0.00  0.00    -0.265 NA
ATOM      3  C   UNL d   1      -2.217  -4.946  -0.792  0.00  0.00     0.140 C 
ATOM      4  C   UNL d   1      -0.339  -4.901   0.834  0.00  0.00     0.140 C 
ATOM      5  C   UNL d   1      -0.008  -3.472   0.394  0.00  0.00     0.117 C 
ATOM      6  C   UNL d   1      -1.863  -3.489  -1.198  0.00  0.00     0.117 C 
ENDROOT
BRANCH   1   7
ATOM      7  C   UNL d   1      -0.557  -6.783  -0.787  0.00  0.00     0.174 C 
ATOM      8  S   UNL d   1       0.995  -6.887  -1.411  0.00  0.00    -0.041 SA
BRANCH   7   9
ATOM      9  N   UNL d   1      -1.376  -7.867  -0.934  0.00  0.00    -0.333 N 
ATOM     10  H   UNL d   1      -1.002  -8.563  -1.573  0.00  0.00     0.168 HD
BRANCH   9  11
ATOM     11  C   UNL d   1      -2.506  -8.270  -0.189  0.00  0.00     0.034 A 
ATOM     12  C   UNL d   1      -2.925  -7.646   0.988  0.00  0.00     0.030 A 
ATOM     13  C   UNL d   1      -4.073  -8.073   1.661  0.00  0.00     0.018 A 
ATOM     14  C   UNL d   1      -4.813  -9.160   1.185  0.00  0.00     0.048 A 
ATOM     15  C   UNL d   1      -4.355  -9.834   0.043  0.00  0.00     0.018 A 
ATOM     16  C   UNL d   1      -3.209  -9.394  -0.632  0.00  0.00     0.030 A 
BRANCH  14  17
ATOM     17  C   UNL d   1      -6.078  -9.600   1.879  0.00  0.00     0.417 C 
ATOM     18  F   UNL d   1      -6.421  -8.809   2.935  0.00  0.00    -0.166 F 
ATOM     19  F   UNL d   1      -7.155  -9.594   1.046  0.00  0.00    -0.166 F 
ATOM     20  F   UNL d   1      -5.992 -10.865   2.373  0.00  0.00    -0.166 F 
ENDBRANCH  14  17
ENDBRANCH   9  11
ENDBRANCH   7   9
ENDBRANCH   1   7
BRANCH   2  21
ATOM     21  C   UNL d   1      -0.951  -1.436  -0.400  0.00  0.00     0.097 A 
ATOM     22  C   UNL d   1      -1.845  -0.348  -0.197  0.00  0.00     0.043 A 
ATOM     23  C   UNL d   1      -1.343   0.901  -0.544  0.00  0.00     0.088 A 
ATOM     24  C   UNL d   1      -3.197  -0.214   0.333  0.00  0.00    -0.039 A 
ATOM     25  S   UNL d   1      -2.435   2.177  -0.271  0.00  0.00    -0.083 SA
ATOM     26  N   UNL d   1      -0.128   1.183  -1.042  0.00  0.00    -0.346 N 
ATOM     27  C   UNL d   1      -3.611   1.108   0.334  0.00  0.00     0.059 A 
ATOM     28  C   UNL d   1       0.621   0.097  -1.189  0.00  0.00     0.182 A 
ATOM     29  HN  UNL d   1       0.184   2.124  -1.280  1.00  0.00     0.167 HD
ATOM     30  N   UNL d   1       0.280  -1.164  -0.906  0.00  0.00    -0.342 N 
ATOM     31  HN  UNL d   1       0.944  -1.921  -1.070  1.00  0.00     0.167 HD
ATOM     32  C   UNL d   1      -4.073  -1.308   0.851  0.00  0.00     0.050 C 
ENDBRANCH   2  21
TORSDOF 5
