REMARK  2 active torsions:
REMARK  status: ('A' for Active; 'I' for Inactive)
REMARK    1  A    between atoms: C_2  and  N_1 
REMARK    2  A    between atoms: C_6  and  C_4 
ROOT
ATOM      1  C   UNL d   1       0.068   2.887   2.177  0.00  0.00    -0.035 A 
ATOM      2  C   UNL d   1      -1.498   4.766   3.525  0.00  0.00     0.034 A 
ATOM      3 CL   UNL d   1      -2.485   5.925   4.325  0.00  0.00    -0.084 Cl
ATOM      4  C   UNL d   1       0.362   4.251   2.074  0.00  0.00     0.013 A 
ATOM      5  C   UNL d   1      -1.000   2.467   2.979  0.00  0.00     0.013 A 
ATOM      6  C   UNL d   1      -1.784   3.408   3.651  0.00  0.00     0.024 A 
ATOM      7  C   UNL d   1      -0.423   5.191   2.747  0.00  0.00     0.024 A 
ENDROOT
BRANCH   1   8
ATOM      8  C   UNL d   1       0.867   1.908   1.443  0.00  0.00     0.035 C 
ATOM      9  C   UNL d   1       1.959   1.365   1.993  0.00  0.00     0.168 C 
BRANCH   9  10
ATOM     10  N   UNL d   1       2.736   0.405   1.244  0.00  0.00    -0.127 N 
ATOM     11  O   UNL d   1       3.723  -0.056   1.829  0.00  0.00    -0.532 OA
ATOM     12  O   UNL d   1       2.381   0.110   0.096  0.00  0.00    -0.532 OA
ENDBRANCH   9  10
ENDBRANCH   1   8
TORSDOF 2
