REMARK  4 active torsions:
REMARK  status: ('A' for Active; 'I' for Inactive)
REMARK       I    between atoms: N_3  and  C_1 
REMARK    1  A    between atoms: C_4  and  C_1 
REMARK    2  A    between atoms: S_8  and  C_2 
REMARK    3  A    between atoms: C_5  and  N_3 
REMARK    4  A    between atoms: C_12  and  S_8 
ROOT
ATOM      1  C   UNL d   1       0.748   2.974  -1.867  0.00  0.00     0.101 A 
ATOM      2  C   UNL d   1       1.231   1.680  -1.600  0.00  0.00     0.069 A 
ATOM      3  N   UNL d   1       1.316   3.816  -2.770  0.00  0.00    -0.358 N 
ATOM      4  HN  UNL d   1       0.938   4.748  -2.939  1.00  0.00     0.166 HD
ATOM      5  C   UNL d   1       2.344   1.254  -2.328  0.00  0.00     0.034 A 
ATOM      6  C   UNL d   1       2.401   3.365  -3.433  0.00  0.00     0.089 A 
ATOM      7  C   UNL d   1       2.941   2.105  -3.255  0.00  0.00     0.019 A 
ENDROOT
BRANCH   1   8
ATOM      8  S   UNL d   1      -0.674   3.633  -0.998  0.00  0.00    -0.070 SA
BRANCH   8   9
ATOM      9  C   UNL d   1       0.111   4.447   0.384  0.00  0.00     0.007 A 
ATOM     10  C   UNL d   1       1.109   5.412   0.204  0.00  0.00     0.020 A 
ATOM     11  C   UNL d   1       1.679   6.059   1.306  0.00  0.00     0.025 A 
ATOM     12  C   UNL d   1       1.243   5.749   2.591  0.00  0.00     0.034 A 
ATOM     13  C   UNL d   1       0.245   4.796   2.785  0.00  0.00     0.025 A 
ATOM     14 CL   UNL d   1       1.929   6.555   3.947  0.00  0.00    -0.084 Cl
ATOM     15  C   UNL d   1      -0.321   4.148   1.683  0.00  0.00     0.020 A 
ENDBRANCH   8   9
ENDBRANCH   1   8
BRANCH   2  16
ATOM     16  N   UNL d   1       0.585   0.854  -0.648  0.00  0.00    -0.324 N 
ATOM     17  C   UNL d   1       1.126  -0.249  -0.039  0.00  0.00     0.226 C 
ATOM     18  O   UNL d   1       2.269  -0.670  -0.150  0.00  0.00    -0.273 OA
ATOM     19  H   UNL d   1      -0.309   1.189  -0.305  0.00  0.00     0.169 HD
BRANCH  17  20
ATOM     20  C   UNL d   1       0.169  -0.951   0.862  0.00  0.00     0.078 A 
ATOM     21  C   UNL d   1      -0.037  -0.486   2.284  0.00  0.00     0.015 A 
ATOM     22  C   UNL d   1       0.687  -1.773   2.022  0.00  0.00     0.015 A 
ENDBRANCH  17  20
ENDBRANCH   2  16
TORSDOF 4
