REMARK  4 active torsions:
REMARK  status: ('A' for Active; 'I' for Inactive)
REMARK    1  A    between atoms: C_10  and  N_1 
REMARK    2  A    between atoms: C_9  and  O_12 
REMARK    3  A    between atoms: C_13  and  C_10 
REMARK    4  A    between atoms: O_12  and  C_13 
ROOT
ATOM      1  C   UNL d   1       0.132  -2.322  -0.002  0.00  0.00     0.161 C 
ENDROOT
BRANCH   1   2
ATOM      2  N   UNL d   1      -0.695  -2.644  -1.162  0.00  0.00    -0.291 N 
ATOM      3  C   UNL d   1      -0.690  -2.035  -2.388  0.00  0.00     0.177 A 
ATOM      4  N   UNL d   1      -1.630  -2.648  -3.188  0.00  0.00    -0.358 N 
ATOM      5  S   UNL d   1       0.227  -0.768  -2.933  0.00  0.00    -0.041 SA
ATOM      6  C   UNL d   1      -2.319  -3.702  -2.496  0.00  0.00     0.225 A 
ATOM      7  H   UNL d   1      -1.809  -2.351  -4.140  0.00  0.00     0.162 HD
ATOM      8  C   UNL d   1      -1.631  -3.651  -1.141  0.00  0.00     0.243 A 
ATOM      9  O   UNL d   1      -1.907  -4.382  -0.199  0.00  0.00    -0.271 OA
ENDBRANCH   1   2
BRANCH   1  10
ATOM     10  C   UNL d   1       1.540  -2.922  -0.075  0.00  0.00     0.196 C 
BRANCH  10  11
ATOM     11  O   UNL d   1       1.492  -4.340   0.034  0.00  0.00    -0.348 OA
BRANCH  11  12
ATOM     12  C   UNL d   1       2.659  -5.058   0.079  0.00  0.00     0.090 A 
ATOM     13  C   UNL d   1       3.997  -4.639  -0.011  0.00  0.00     0.067 A 
ATOM     14 CL   UNL d   1       4.541  -3.009  -0.216  0.00  0.00    -0.081 Cl
ATOM     15  C   UNL d   1       5.035  -5.586   0.064  0.00  0.00     0.026 A 
ATOM     16  C   UNL d   1       4.764  -6.942   0.223  0.00  0.00     0.002 A 
ATOM     17  C   UNL d   1       3.447  -7.368   0.312  0.00  0.00     0.003 A 
ATOM     18  C   UNL d   1       2.408  -6.435   0.239  0.00  0.00     0.038 A 
ENDBRANCH  11  12
ENDBRANCH  10  11
ENDBRANCH   1  10
TORSDOF 4
