REMARK  7 active torsions:
REMARK  status: ('A' for Active; 'I' for Inactive)
REMARK    1  A    between atoms: C_9  and  S_1 
REMARK    2  A    between atoms: N_15  and  S_1 
REMARK    3  A    between atoms: C_16  and  C_5 
REMARK    4  A    between atoms: C_6  and  S_13 
REMARK       I    between atoms: C_12  and  N_14 
REMARK    5  A    between atoms: C_20  and  C_12 
REMARK    6  A    between atoms: S_13  and  C_20 
REMARK    7  A    between atoms: N_14  and  C_21 
ROOT
ATOM      1  C   UNL d   1       0.199  -6.830  -0.853  0.00  0.00     0.231 C 
ATOM      2  N   UNL d   1       0.714  -6.405   0.364  0.00  0.00    -0.327 N 
ATOM      3  O   UNL d   1       0.080  -6.138  -1.863  0.00  0.00    -0.272 OA
ATOM      4  H   UNL d   1       0.752  -7.098   1.102  0.00  0.00     0.169 HD
ENDROOT
BRANCH   1   5
ATOM      5  C   UNL d   1      -0.279  -8.278  -0.853  0.00  0.00     0.186 C 
BRANCH   5   6
ATOM      6  S   UNL d   1       1.113  -9.378  -0.484  0.00  0.00    -0.075 SA
BRANCH   6   7
ATOM      7  C   UNL d   1       0.415 -10.941  -0.759  0.00  0.00     0.204 A 
ATOM      8  O   UNL d   1       1.137 -12.086  -0.566  0.00  0.00    -0.267 OA
ATOM      9  C   UNL d   1       0.227 -13.066  -0.861  0.00  0.00     0.175 A 
ATOM     10  N   UNL d   1      -0.943 -12.570  -1.210  0.00  0.00    -0.277 N 
ATOM     11  N   UNL d   1      -0.821 -11.189  -1.140  0.00  0.00    -0.272 N 
ATOM     12  HN  UNL d   1      -1.775 -13.096  -1.479  1.00  0.00     0.189 HD
ATOM     13  HN  UNL d   1      -1.546 -10.501  -1.344  1.00  0.00     0.189 HD
BRANCH   9  14
ATOM     14  C   UNL d   1       0.682 -14.444  -0.706  0.00  0.00     0.017 A 
ATOM     15  C   UNL d   1       1.992 -14.735  -0.291  0.00  0.00     0.016 A 
ATOM     16  C   UNL d   1       2.414 -16.055  -0.106  0.00  0.00     0.001 A 
ATOM     17  C   UNL d   1       1.531 -17.105  -0.339  0.00  0.00     0.000 A 
ATOM     18  C   UNL d   1       0.231 -16.836  -0.765  0.00  0.00     0.001 A 
ATOM     19  C   UNL d   1      -0.191 -15.515  -0.949  0.00  0.00     0.016 A 
ENDBRANCH   9  14
ENDBRANCH   6   7
ENDBRANCH   5   6
ENDBRANCH   1   5
BRANCH   2  20
ATOM     20  C   UNL d   1       1.259  -5.137   0.674  0.00  0.00     0.034 A 
ATOM     21  C   UNL d   1       1.345  -4.080  -0.238  0.00  0.00     0.031 A 
ATOM     22  C   UNL d   1       1.900  -2.851   0.139  0.00  0.00     0.027 A 
ATOM     23  C   UNL d   1       2.377  -2.676   1.438  0.00  0.00     0.074 A 
ATOM     24  C   UNL d   1       2.302  -3.719   2.362  0.00  0.00     0.027 A 
ATOM     25  C   UNL d   1       1.745  -4.945   1.976  0.00  0.00     0.031 A 
BRANCH  23  26
ATOM     26  S   UNL d   1       3.048  -1.111   1.916  0.00  0.00     0.239 S 
ATOM     27  O   UNL d   1       3.599  -1.215   3.248  0.00  0.00    -0.206 OA
ATOM     28  O   UNL d   1       2.121  -0.072   1.535  0.00  0.00    -0.206 OA
BRANCH  26  29
ATOM     29  N   UNL d   1       4.377  -0.952   0.899  0.00  0.00    -0.225 NA
ATOM     30  H   UNL d   1       5.236  -0.979   1.449  0.00  0.00     0.136 HD
ATOM     31  H   UNL d   1       4.278  -0.105   0.338  0.00  0.00     0.136 HD
ENDBRANCH  26  29
ENDBRANCH  23  26
ENDBRANCH   2  20
TORSDOF 7
