REMARK  4 active torsions:
REMARK  status: ('A' for Active; 'I' for Inactive)
REMARK    1  A    between atoms: C_3  and  N_1 
REMARK    2  A    between atoms: C_4  and  C_2 
REMARK       I    between atoms: N_7  and  C_4 
REMARK    3  A    between atoms: C_16  and  N_7 
REMARK    4  A    between atoms: C_9  and  C_16 
ROOT
ATOM      1  C   UNL d   1      -0.793   0.468   1.759  0.00  0.00     0.065 A 
ATOM      2  C   UNL d   1      -0.909   1.345   2.842  0.00  0.00     0.120 A 
ATOM      3  C   UNL d   1      -0.511   2.688   2.760  0.00  0.00     0.060 A 
ATOM      4  C   UNL d   1      -0.207   0.957   0.580  0.00  0.00     0.021 A 
ATOM      5  C   UNL d   1       0.045   3.151   1.573  0.00  0.00     0.036 A 
ATOM      6  C   UNL d   1       0.207   2.292   0.486  0.00  0.00     0.025 A 
ATOM      7 CL   UNL d   1       0.553   4.790   1.452  0.00  0.00    -0.084 Cl
ENDROOT
BRANCH   1   8
ATOM      8  C   UNL d   1      -1.213  -0.957   1.767  0.00  0.00     0.254 C 
ATOM      9  N   UNL d   1      -2.396  -1.270   2.389  0.00  0.00    -0.351 N 
ATOM     10  H   UNL d   1      -2.987  -0.586   2.846  0.00  0.00     0.163 HD
ATOM     11  O   UNL d   1      -0.522  -1.784   1.178  0.00  0.00    -0.268 OA
BRANCH   9  12
ATOM     12  C   UNL d   1      -2.815  -2.647   2.559  0.00  0.00     0.187 C 
BRANCH  12  13
ATOM     13  C   UNL d   1      -4.258  -2.683   2.913  0.00  0.00     0.070 A 
ATOM     14  O   UNL d   1      -4.763  -1.602   3.585  0.00  0.00    -0.325 OA
ATOM     15  C   UNL d   1      -6.079  -1.848   3.805  0.00  0.00     0.142 A 
ATOM     16  C   UNL d   1      -6.433  -3.072   3.289  0.00  0.00     0.027 A 
ATOM     17  C   UNL d   1      -5.257  -3.614   2.714  0.00  0.00     0.036 A 
ENDBRANCH  12  13
ENDBRANCH   9  12
ENDBRANCH   1   8
BRANCH   2  18
ATOM     18  N   UNL d   1      -1.393   0.883   4.121  0.00  0.00    -0.115 N 
ATOM     19  O   UNL d   1      -0.741   0.004   4.694  0.00  0.00    -0.532 OA
ATOM     20  O   UNL d   1      -2.424   1.419   4.547  0.00  0.00    -0.532 OA
ENDBRANCH   2  18
TORSDOF 4
