REMARK  7 active torsions:
REMARK  status: ('A' for Active; 'I' for Inactive)
REMARK    1  A    between atoms: N_6  and  C_1 
REMARK    2  A    between atoms: C_7  and  C_2 
REMARK    3  A    between atoms: C_10  and  C_5 
REMARK       I    between atoms: C_8  and  N_6 
REMARK    4  A    between atoms: O_14  and  C_7 
REMARK    5  A    between atoms: C_11  and  C_8 
REMARK    6  A    between atoms: N_9  and  C_11 
REMARK    7  A    between atoms: C_19  and  O_14 
ROOT
ATOM      1  C   UNL d   1       0.271   1.294   0.696  0.00  0.00     0.093 C 
ATOM      2  C   UNL d   1       1.510   0.755   0.981  0.00  0.00     0.074 C 
ATOM      3  S   UNL d   1      -0.972   0.120   0.649  0.00  0.00    -0.071 SA
ATOM      4  C   UNL d   1       1.397  -0.686   1.014  0.00  0.00     0.040 C 
ATOM      5  C   UNL d   1       0.143  -1.174   0.706  0.00  0.00     0.018 C 
ENDROOT
BRANCH   1   6
ATOM      6  N   UNL d   1      -0.235   2.550   0.445  0.00  0.00    -0.319 N 
ATOM      7  C   UNL d   1       0.326   3.389  -0.503  0.00  0.00     0.251 C 
ATOM      8  O   UNL d   1       1.378   3.187  -1.109  0.00  0.00    -0.271 OA
ATOM      9  H   UNL d   1      -1.241   2.667   0.531  0.00  0.00     0.169 HD
BRANCH   7  10
ATOM     10  C   UNL d   1      -0.594   4.564  -0.887  0.00  0.00     0.374 C 
BRANCH  10  11
ATOM     11  N   UNL d   1      -1.528   4.934   0.198  0.00  0.00     0.097 N 
ATOM     12  C   UNL d   1      -0.848   5.577   1.331  0.00  0.00     0.273 C 
ATOM     13  C   UNL d   1      -2.035   6.106   2.113  0.00  0.00     0.032 C 
ATOM     14  C   UNL d   1      -2.960   6.640   1.030  0.00  0.00     0.032 C 
ATOM     15  C   UNL d   1      -2.518   5.928  -0.249  0.00  0.00     0.273 C 
ENDBRANCH  10  11
ENDBRANCH   7  10
ENDBRANCH   1   6
BRANCH   2  16
ATOM     16  C   UNL d   1       2.798   1.395   1.254  0.00  0.00     0.296 C 
ATOM     17  O   UNL d   1       3.777   0.733   1.587  0.00  0.00    -0.259 OA
BRANCH  16  18
ATOM     18  O   UNL d   1       2.829   2.748   1.126  0.00  0.00    -0.318 OA
BRANCH  18  19
ATOM     19  C   UNL d   1       4.135   3.338   1.227  0.00  0.00     0.174 C 
ATOM     20  C   UNL d   1       5.014   2.998   0.029  0.00  0.00     0.034 C 
ENDBRANCH  18  19
ENDBRANCH  16  18
ENDBRANCH   2  16
BRANCH   5  21
ATOM     21  C   UNL d   1      -0.238  -2.567   0.420  0.00  0.00    -0.019 A 
ATOM     22  C   UNL d   1       0.713  -3.426  -0.162  0.00  0.00     0.013 A 
ATOM     23  C   UNL d   1       0.396  -4.745  -0.491  0.00  0.00     0.001 A 
ATOM     24  C   UNL d   1      -0.883  -5.229  -0.246  0.00  0.00     0.000 A 
ATOM     25  C   UNL d   1      -1.840  -4.398   0.334  0.00  0.00     0.001 A 
ATOM     26  C   UNL d   1      -1.520  -3.076   0.668  0.00  0.00     0.013 A 
ENDBRANCH   5  21
TORSDOF 7
