REMARK  3 active torsions:
REMARK  status: ('A' for Active; 'I' for Inactive)
REMARK    1  A    between atoms: C_11  and  N_1 
REMARK    2  A    between atoms: C_8  and  C_2 
REMARK    3  A    between atoms: C_7  and  C_9 
ROOT
ATOM      1  N   UNL d   1       0.924  -0.724   0.024  0.00  0.00    -0.271 N 
ATOM      2  C   UNL d   1       0.887   0.656  -0.017  0.00  0.00     0.139 A 
ATOM      3  N   UNL d   1      -0.318   1.163   0.005  0.00  0.00    -0.282 N 
ATOM      4  HN  UNL d   1      -0.581   2.148   0.003  1.00  0.00     0.188 HD
ATOM      5  C   UNL d   1      -0.412  -1.099   0.067  0.00  0.00     0.199 A 
ATOM      6  N   UNL d   1      -1.141   0.083   0.033  0.00  0.00    -0.274 N 
ATOM      7  S   UNL d   1      -1.174  -2.567   0.233  0.00  0.00    -0.039 SA
ATOM      8  H   UNL d   1      -2.147   0.173   0.100  0.00  0.00     0.189 HD
ENDROOT
BRANCH   2   9
ATOM      9  C   UNL d   1       2.067   1.544  -0.123  0.00  0.00     0.011 A 
ATOM     10  C   UNL d   1       3.171   1.233  -0.929  0.00  0.00     0.031 A 
ATOM     11  C   UNL d   1       4.301   2.064  -0.940  0.00  0.00     0.048 A 
ATOM     12  C   UNL d   1       4.273   3.263  -0.208  0.00  0.00     0.016 A 
ATOM     13  C   UNL d   1       3.147   3.613   0.537  0.00  0.00     0.002 A 
ATOM     14  C   UNL d   1       2.049   2.753   0.584  0.00  0.00     0.015 A 
BRANCH  11  15
ATOM     15  C   UNL d   1       5.544   1.672  -1.700  0.00  0.00     0.417 C 
ATOM     16  F   UNL d   1       5.465   0.440  -2.275  0.00  0.00    -0.166 F 
ATOM     17  F   UNL d   1       5.837   2.539  -2.707  0.00  0.00    -0.166 F 
ATOM     18  F   UNL d   1       6.647   1.638  -0.901  0.00  0.00    -0.166 F 
ENDBRANCH  11  15
ENDBRANCH   2   9
BRANCH   1  19
ATOM     19  C   UNL d   1       2.050  -1.586   0.126  0.00  0.00     0.043 A 
ATOM     20  C   UNL d   1       3.169  -1.238   0.900  0.00  0.00     0.030 A 
ATOM     21  C   UNL d   1       4.311  -2.045   0.923  0.00  0.00     0.002 A 
ATOM     22  C   UNL d   1       4.339  -3.235   0.204  0.00  0.00     0.000 A 
ATOM     23  C   UNL d   1       3.227  -3.618  -0.537  0.00  0.00     0.002 A 
ATOM     24  C   UNL d   1       2.094  -2.797  -0.578  0.00  0.00     0.030 A 
ENDBRANCH   1  19
TORSDOF 3
