REMARK  7 active torsions:
REMARK  status: ('A' for Active; 'I' for Inactive)
REMARK    1  A    between atoms: C_9  and  C_1 
REMARK    2  A    between atoms: N_13  and  C_4 
REMARK    3  A    between atoms: S_15  and  C_8 
REMARK    4  A    between atoms: C_11  and  C_9 
REMARK    5  A    between atoms: N_12  and  C_24 
REMARK    6  A    between atoms: C_23  and  S_15 
REMARK    7  A    between atoms: C_24  and  C_23 
ROOT
ATOM      1  C   UNL d   1      -2.049   0.299   0.036  0.00  0.00     0.085 A 
ATOM      2  C   UNL d   1       0.308   0.636   0.044  0.00  0.00     0.051 A 
ATOM      3  C   UNL d   1       0.098  -0.734  -0.103  0.00  0.00     0.095 A 
ATOM      4  C   UNL d   1      -0.991   1.239   0.080  0.00  0.00     0.062 A 
ATOM      5  S   UNL d   1      -1.525  -1.374  -0.248  0.00  0.00    -0.065 SA
ATOM      6  N   UNL d   1       1.082  -1.582  -0.156  0.00  0.00    -0.319 N 
ATOM      7  HN  UNL d   1       1.031  -2.598  -0.238  1.00  0.00     0.175 HD
ATOM      8  C   UNL d   1       1.634   0.926   0.064  0.00  0.00     0.073 A 
ATOM      9  S   UNL d   1       2.465  -0.617  -0.058  0.00  0.00    -0.006 SA
ENDROOT
BRANCH   1  10
ATOM     10  C   UNL d   1      -3.487   0.585   0.101  0.00  0.00     0.201 C 
ATOM     11  O   UNL d   1      -3.963   1.678  -0.214  0.00  0.00    -0.286 OA
BRANCH  10  12
ATOM     12  C   UNL d   1      -4.452  -0.453   0.584  0.00  0.00     0.015 A 
ATOM     13  C   UNL d   1      -5.690  -0.589  -0.060  0.00  0.00     0.017 A 
ATOM     14  C   UNL d   1      -6.588  -1.583   0.345  0.00  0.00     0.025 A 
ATOM     15  C   UNL d   1      -6.252  -2.437   1.396  0.00  0.00     0.034 A 
ATOM     16  C   UNL d   1      -5.040  -2.285   2.066  0.00  0.00     0.025 A 
ATOM     17 CL   UNL d   1      -7.338  -3.683   1.872  0.00  0.00    -0.084 Cl
ATOM     18  C   UNL d   1      -4.149  -1.282   1.676  0.00  0.00     0.017 A 
ENDBRANCH  10  12
ENDBRANCH   1  10
BRANCH   4  19
ATOM     19  N   UNL d   1      -1.204   2.574   0.177  0.00  0.00    -0.397 N 
ATOM     20  H   UNL d   1      -0.495   3.230  -0.144  0.00  0.00     0.156 HD
ATOM     21  H   UNL d   1      -2.150   2.929  -0.012  0.00  0.00     0.156 HD
ENDBRANCH   4  19
BRANCH   8  22
ATOM     22  S   UNL d   1       2.543   2.408   0.074  0.00  0.00    -0.118 SA
BRANCH  22  23
ATOM     23  C   UNL d   1       2.062   3.237   1.611  0.00  0.00     0.110 C 
BRANCH  23  24
ATOM     24  C   UNL d   1       2.248   2.445   2.921  0.00  0.00     0.283 C 
BRANCH  24  25
ATOM     25  N   UNL d   1       2.143   3.353   4.073  0.00  0.00     0.093 N 
ATOM     26  C   UNL d   1       0.797   3.911   4.309  0.00  0.00     0.298 C 
ATOM     27  C   UNL d   1      -0.107   3.087   5.238  0.00  0.00     0.198 C 
ATOM     28  O   UNL d   1       0.548   2.798   6.475  0.00  0.00    -0.388 OA
ATOM     29  C   UNL d   1       1.742   2.050   6.228  0.00  0.00     0.198 C 
ATOM     30  C   UNL d   1       2.715   2.826   5.325  0.00  0.00     0.298 C 
ENDBRANCH  24  25
ENDBRANCH  23  24
ENDBRANCH  22  23
ENDBRANCH   8  22
TORSDOF 7
