REMARK  3 active torsions:
REMARK  status: ('A' for Active; 'I' for Inactive)
REMARK    1  A    between atoms: C_4  and  N_1 
REMARK    2  A    between atoms: C_7  and  C_3 
REMARK    3  A    between atoms: O_15  and  C_7 
ROOT
ATOM      1  N   UNL d   1      -0.076  -1.076   0.003  0.00  0.00    -0.317 N 
ATOM      2  C   UNL d   1      -1.214  -0.587  -0.645  0.00  0.00     0.225 C 
ATOM      3  C   UNL d   1      -0.307   1.146   0.731  0.00  0.00     0.111 C 
ATOM      4  C   UNL d   1       0.677  -0.004   0.612  0.00  0.00     0.148 C 
ATOM      5  C   UNL d   1      -1.294   0.900  -0.399  0.00  0.00     0.120 C 
ATOM      6  O   UNL d   1      -2.043  -1.181  -1.318  0.00  0.00    -0.273 OA
ENDROOT
BRANCH   1   7
ATOM      7  C   UNL d   1       0.393  -2.416  -0.035  0.00  0.00     0.038 A 
ATOM      8  C   UNL d   1      -0.015  -3.300  -1.041  0.00  0.00     0.036 A 
ATOM      9  C   UNL d   1       0.463  -4.618  -1.098  0.00  0.00    -0.059 A 
ATOM     10  C   UNL d   1       0.055  -5.530  -2.217  0.00  0.00     0.048 C 
ATOM     11  C   UNL d   1       1.328  -5.076  -0.100  0.00  0.00     0.013 A 
ATOM     12  C   UNL d   1       1.734  -4.224   0.931  0.00  0.00    -0.059 A 
ATOM     13  C   UNL d   1       1.282  -2.895   0.940  0.00  0.00     0.036 A 
ATOM     14  C   UNL d   1       2.631  -4.740   2.018  0.00  0.00     0.048 C 
ENDBRANCH   1   7
BRANCH   3  15
ATOM     15  C   UNL d   1      -0.981   1.159   2.087  0.00  0.00     0.145 C 
ATOM     16  O   UNL d   1      -0.752   0.370   2.991  0.00  0.00    -0.650 OA
BRANCH  15  17
ATOM     17  O   UNL d   1      -1.837   2.192   2.248  0.00  0.00    -0.776 OA
ATOM     18  H   UNL d   1      -1.924   2.792   1.486  0.00  0.00     0.167 HD
ENDBRANCH  15  17
ENDBRANCH   3  15
TORSDOF 3
