REMARK  2 active torsions:
REMARK  status: ('A' for Active; 'I' for Inactive)
REMARK    1  A    between atoms: C_2  and  C_1 
REMARK       I    between atoms: N_3  and  C_1 
REMARK    2  A    between atoms: C_12  and  N_3 
ROOT
ATOM      1  C   UNL d   1       0.327   0.657  -1.110  0.00  0.00     0.035 A 
ATOM      2  C   UNL d   1      -1.527   1.916  -2.030  0.00  0.00     0.103 A 
ATOM      3  C   UNL d   1      -0.801   1.463  -0.923  0.00  0.00     0.056 A 
ATOM      4  C   UNL d   1      -1.082   1.636  -3.331  0.00  0.00     0.102 A 
ATOM      5  O   UNL d   1      -2.667   2.618  -1.720  0.00  0.00    -0.348 OA
ATOM      6  O   UNL d   1      -1.680   2.055  -4.492  0.00  0.00    -0.348 OA
ATOM      7  C   UNL d   1       0.754   0.356  -2.409  0.00  0.00     0.020 A 
ATOM      8  C   UNL d   1       0.051   0.842  -3.513  0.00  0.00     0.040 A 
ATOM      9  C   UNL d   1      -3.731   3.181  -3.831  0.00  0.00     0.053 C 
ATOM     10  C   UNL d   1      -3.756   2.305  -2.591  0.00  0.00     0.178 C 
ATOM     11  C   UNL d   1      -2.328   3.323  -4.395  0.00  0.00     0.178 C 
ENDROOT
BRANCH   1  12
ATOM     12  C   UNL d   1       1.103   0.089   0.029  0.00  0.00     0.256 C 
ATOM     13  N   UNL d   1       0.363  -0.244   1.151  0.00  0.00    -0.323 N 
ATOM     14  H   UNL d   1      -0.637  -0.100   1.111  0.00  0.00     0.169 HD
ATOM     15  O   UNL d   1       2.306  -0.079  -0.134  0.00  0.00    -0.267 OA
BRANCH  13  16
ATOM     16  C   UNL d   1       0.835  -0.885   2.319  0.00  0.00     0.035 A 
ATOM     17  C   UNL d   1       2.168  -1.245   2.525  0.00  0.00     0.029 A 
ATOM     18  C   UNL d   1       2.553  -1.919   3.688  0.00  0.00     0.002 A 
ATOM     19  C   UNL d   1       1.610  -2.232   4.662  0.00  0.00     0.000 A 
ATOM     20  C   UNL d   1       0.280  -1.863   4.478  0.00  0.00     0.002 A 
ATOM     21  C   UNL d   1      -0.105  -1.193   3.312  0.00  0.00     0.029 A 
ENDBRANCH  13  16
ENDBRANCH   1  12
TORSDOF 2
