REMARK  7 active torsions:
REMARK  status: ('A' for Active; 'I' for Inactive)
REMARK    1  A    between atoms: C_3  and  S_1 
REMARK    2  A    between atoms: C_5  and  S_1 
REMARK    3  A    between atoms: C_2  and  C_13 
REMARK    4  A    between atoms: C_4  and  C_3 
REMARK    5  A    between atoms: C_6  and  C_4 
REMARK    6  A    between atoms: O_17  and  C_6 
REMARK    7  A    between atoms: N_9  and  O_17 
ROOT
ATOM      1  C   UNL d   1      -2.246   0.662  -0.827  0.00  0.00     0.282 C 
ATOM      2  O   UNL d   1      -2.798   1.062  -1.844  0.00  0.00    -0.263 OA
ENDROOT
BRANCH   1   3
ATOM      3  C   UNL d   1      -1.395   1.558   0.040  0.00  0.00     0.133 C 
BRANCH   3   4
ATOM      4  C   UNL d   1       0.114   1.451  -0.115  0.00  0.00     0.118 C 
ATOM      5  C   UNL d   1       0.639   0.075   0.298  0.00  0.00     0.027 C 
BRANCH   4   6
ATOM      6  S   UNL d   1       0.740   1.871  -1.735  0.00  0.00     0.179 S 
ATOM      7  O   UNL d   1       0.129   0.990  -2.708  0.00  0.00    -0.222 OA
ATOM      8  O   UNL d   1       2.189   1.929  -1.627  0.00  0.00    -0.222 OA
BRANCH   6   9
ATOM      9  C   UNL d   1       0.217   3.539  -2.095  0.00  0.00     0.059 A 
ATOM     10  C   UNL d   1       1.039   4.611  -1.720  0.00  0.00     0.025 A 
ATOM     11  C   UNL d   1       0.729   5.906  -2.148  0.00  0.00     0.025 A 
ATOM     12  C   UNL d   1      -0.390   6.124  -2.952  0.00  0.00     0.034 A 
ATOM     13  C   UNL d   1      -1.211   5.058  -3.321  0.00  0.00     0.025 A 
ATOM     14 CL   UNL d   1      -0.737   7.710  -3.520  0.00  0.00    -0.084 Cl
ATOM     15  C   UNL d   1      -0.904   3.759  -2.900  0.00  0.00     0.025 A 
ENDBRANCH   6   9
ENDBRANCH   4   6
ENDBRANCH   3   4
ENDBRANCH   1   3
BRANCH   1  16
ATOM     16  O   UNL d   1      -2.395  -0.580  -0.259  0.00  0.00    -0.200 OA
BRANCH  16  17
ATOM     17  N   UNL d   1      -3.764  -0.906  -0.283  0.00  0.00    -0.268 N 
ATOM     18  C   UNL d   1      -3.946  -2.187  -0.305  0.00  0.00     0.129 C 
ATOM     19  HN  UNL d   1      -4.517  -0.218  -0.284  1.00  0.00     0.194 HD
BRANCH  18  20
ATOM     20  C   UNL d   1      -5.307  -2.784  -0.260  0.00  0.00     0.025 A 
ATOM     21  C   UNL d   1      -6.458  -2.086  -0.672  0.00  0.00     0.047 A 
ATOM     22 CL   UNL d   1      -6.441  -0.521  -1.412  0.00  0.00    -0.083 Cl
ATOM     23  C   UNL d   1      -7.728  -2.668  -0.539  0.00  0.00     0.025 A 
ATOM     24  C   UNL d   1      -7.872  -3.948  -0.015  0.00  0.00     0.003 A 
ATOM     25  C   UNL d   1      -6.740  -4.660   0.371  0.00  0.00     0.025 A 
ATOM     26  C   UNL d   1      -5.466  -4.087   0.250  0.00  0.00     0.047 A 
ATOM     27 CL   UNL d   1      -4.137  -5.056   0.794  0.00  0.00    -0.083 Cl
ENDBRANCH  18  20
ENDBRANCH  16  17
ENDBRANCH   1  16
TORSDOF 7
