REMARK  6 active torsions:
REMARK  status: ('A' for Active; 'I' for Inactive)
REMARK    1  A    between atoms: S_6  and  C_1 
REMARK    2  A    between atoms: N_3  and  C_2 
REMARK    3  A    between atoms: C_11  and  S_6 
REMARK    4  A    between atoms: C_7  and  C_11 
REMARK    5  A    between atoms: O_15  and  C_7 
REMARK    6  A    between atoms: O_16  and  C_9 
ROOT
ATOM      1  C   UNL d   1      -0.497   1.258   0.346  0.00  0.00     0.106 A 
ATOM      2  C   UNL d   1       0.884   1.185   0.476  0.00  0.00     0.136 A 
ATOM      3  N   UNL d   1      -1.244   0.127   0.207  0.00  0.00    -0.330 N 
ATOM      4  HN  UNL d   1      -2.263   0.169   0.185  1.00  0.00     0.168 HD
ATOM      5  C   UNL d   1       1.544  -0.049   0.408  0.00  0.00     0.043 A 
ATOM      6  C   UNL d   1      -0.589  -1.058   0.098  0.00  0.00     0.142 A 
ATOM      7  C   UNL d   1       0.786  -1.192   0.191  0.00  0.00     0.058 A 
ENDROOT
BRANCH   1   8
ATOM      8  S   UNL d   1      -1.423   2.786   0.348  0.00  0.00    -0.095 SA
BRANCH   8   9
ATOM      9  C   UNL d   1      -3.147   2.223   0.662  0.00  0.00     0.147 C 
ATOM     10  C   UNL d   1      -4.112   3.333   0.249  0.00  0.00     0.033 C 
BRANCH   9  11
ATOM     11  C   UNL d   1      -3.310   1.893   2.142  0.00  0.00     0.153 C 
ATOM     12  O   UNL d   1      -3.941   2.564   2.945  0.00  0.00    -0.649 OA
BRANCH  11  13
ATOM     13  O   UNL d   1      -2.696   0.741   2.513  0.00  0.00    -0.776 OA
ATOM     14  H   UNL d   1      -2.239   0.303   1.761  0.00  0.00     0.167 HD
ENDBRANCH  11  13
ENDBRANCH   9  11
ENDBRANCH   8   9
ENDBRANCH   1   8
BRANCH   2  15
ATOM     15  N   UNL d   1       1.674   2.358   0.758  0.00  0.00    -0.113 N 
ATOM     16  O   UNL d   1       1.780   3.204  -0.136  0.00  0.00    -0.532 OA
ATOM     17  O   UNL d   1       2.244   2.383   1.860  0.00  0.00    -0.532 OA
ENDBRANCH   2  15
BRANCH   6  18
ATOM     18  O   UNL d   1      -1.300  -2.222  -0.097  0.00  0.00    -0.341 OA
ATOM     19  C   UNL d   1      -2.707  -2.032  -0.199  0.00  0.00     0.211 C 
ENDBRANCH   6  18
TORSDOF 6
