REMARK  6 active torsions:
REMARK  status: ('A' for Active; 'I' for Inactive)
REMARK    1  A    between atoms: N_2  and  C_1 
REMARK       I    between atoms: C_3  and  N_2 
REMARK    2  A    between atoms: C_4  and  C_3 
REMARK    3  A    between atoms: C_5  and  C_6 
REMARK    4  A    between atoms: O_11  and  C_5 
REMARK    5  A    between atoms: C_15  and  C_7 
REMARK    6  A    between atoms: C_16  and  C_8 
ROOT
ATOM      1  C   UNL d   1       1.568  -0.197   0.062  0.00  0.00     0.047 C 
ATOM      2  C   UNL d   1       0.646  -1.139  -0.423  0.00  0.00    -0.031 C 
ATOM      3  C   UNL d   1       1.165   1.141   0.238  0.00  0.00    -0.031 C 
ATOM      4  C   UNL d   1      -1.143   0.469  -0.068  0.00  0.00     0.001 C 
ATOM      5  C   UNL d   1      -0.200   1.459   0.197  0.00  0.00     0.009 C 
ATOM      6  C   UNL d   1      -0.718  -0.808  -0.431  0.00  0.00     0.009 C 
ENDROOT
BRANCH   1   7
ATOM      7  N   UNL d   1       2.597  -0.668   0.906  0.00  0.00    -0.323 N 
ATOM      8  C   UNL d   1       3.845  -1.064   0.499  0.00  0.00     0.245 C 
ATOM      9  O   UNL d   1       4.268  -1.061  -0.647  0.00  0.00    -0.268 OA
ATOM     10  H   UNL d   1       2.389  -0.607   1.896  0.00  0.00     0.169 HD
BRANCH   8  11
ATOM     11  C   UNL d   1       4.701  -1.479   1.645  0.00  0.00     0.081 C 
ATOM     12  C   UNL d   1       5.992  -1.750   1.441  0.00  0.00     0.086 C 
BRANCH  12  13
ATOM     13  C   UNL d   1       6.826  -2.147   2.586  0.00  0.00     0.165 C 
ATOM     14  O   UNL d   1       6.389  -2.476   3.671  0.00  0.00    -0.647 OA
BRANCH  13  15
ATOM     15  O   UNL d   1       8.144  -2.079   2.302  0.00  0.00    -0.773 OA
ATOM     16  H   UNL d   1       8.362  -1.742   1.412  0.00  0.00     0.167 HD
ENDBRANCH  13  15
ENDBRANCH  12  13
ENDBRANCH   8  11
ENDBRANCH   1   7
BRANCH   2  17
ATOM     17  C   UNL d   1       1.105  -2.385  -1.143  0.00  0.00     0.036 C 
ATOM     18  C   UNL d   1       1.235  -3.639  -0.307  0.00  0.00     0.010 C 
ENDBRANCH   2  17
BRANCH   3  19
ATOM     19  C   UNL d   1       2.198   2.243   0.098  0.00  0.00     0.036 C 
ATOM     20  C   UNL d   1       2.191   3.322   1.164  0.00  0.00     0.010 C 
ENDBRANCH   3  19
TORSDOF 6
