REMARK  5 active torsions:
REMARK  status: ('A' for Active; 'I' for Inactive)
REMARK    1  A    between atoms: C_3  and  C_2 
REMARK    2  A    between atoms: C_7  and  C_3 
REMARK    3  A    between atoms: C_5  and  N_8 
REMARK    4  A    between atoms: N_8  and  C_6 
REMARK    5  A    between atoms: O_20  and  C_15 
ROOT
ATOM      1  C   UNL d   1      -5.615  -1.063   0.008  0.00  0.00     0.072 C 
ATOM      2  C   UNL d   1      -4.362  -0.627   0.197  0.00  0.00     0.092 C 
ENDROOT
BRANCH   1   3
ATOM      3  C   UNL d   1      -6.733  -0.083   0.108  0.00  0.00     0.183 C 
ATOM      4  O   UNL d   1      -6.570   1.002   0.663  0.00  0.00    -0.288 OA
BRANCH   3   5
ATOM      5  C   UNL d   1      -8.058  -0.414  -0.495  0.00  0.00     0.014 A 
ATOM      6  C   UNL d   1      -8.313  -1.590  -1.213  0.00  0.00     0.018 A 
ATOM      7  C   UNL d   1      -9.570  -1.811  -1.794  0.00  0.00     0.037 A 
ATOM      8  C   UNL d   1     -10.580  -0.859  -1.675  0.00  0.00     0.068 A 
ATOM      9  C   UNL d   1     -10.341   0.303  -0.941  0.00  0.00     0.037 A 
ATOM     10  C   UNL d   1      -9.088   0.528  -0.362  0.00  0.00     0.018 A 
BRANCH   8  11
ATOM     11  O   UNL d   1     -11.836  -0.974  -2.201  0.00  0.00    -0.356 OA
ATOM     12  C   UNL d   1     -11.933  -1.747  -3.393  0.00  0.00     0.210 C 
ENDBRANCH   8  11
ENDBRANCH   3   5
ENDBRANCH   1   3
BRANCH   2  13
ATOM     13  N   UNL d   1      -3.204  -1.353   0.092  0.00  0.00    -0.363 N 
ATOM     14  H   UNL d   1      -3.266  -2.285  -0.312  0.00  0.00     0.165 HD
BRANCH  13  15
ATOM     15  C   UNL d   1      -1.892  -0.891   0.314  0.00  0.00     0.071 A 
ATOM     16  C   UNL d   1      -0.814  -1.523  -0.329  0.00  0.00     0.144 A 
ATOM     17  C   UNL d   1       0.495  -1.062  -0.204  0.00  0.00     0.068 A 
ATOM     18  F   UNL d   1      -1.047  -2.594  -1.104  0.00  0.00    -0.204 F 
ATOM     19  C   UNL d   1       0.745   0.053   0.587  0.00  0.00     0.037 A 
ATOM     20 CL   UNL d   1       2.350   0.648   0.749  0.00  0.00    -0.084 Cl
ATOM     21  C   UNL d   1      -0.299   0.697   1.248  0.00  0.00     0.026 A 
ATOM     22  C   UNL d   1      -1.609   0.230   1.105  0.00  0.00     0.034 A 
ENDBRANCH  13  15
ENDBRANCH   2  13
TORSDOF 5
