REMARK  3 active torsions:
REMARK  status: ('A' for Active; 'I' for Inactive)
REMARK    1  A    between atoms: C_6  and  C_1 
REMARK    2  A    between atoms: N_7  and  C_2 
REMARK    3  A    between atoms: O_11  and  C_6 
REMARK       I    between atoms: C_8  and  N_7 
ROOT
ATOM      1  C   UNL d   1       0.183  -1.554   0.160  0.00  0.00     0.079 A 
ATOM      2  C   UNL d   1      -1.248  -1.371   0.154  0.00  0.00     0.058 A 
ATOM      3  S   UNL d   1      -0.245   0.983  -0.052  0.00  0.00    -0.103 SA
ATOM      4  C   UNL d   1       0.846  -0.336   0.044  0.00  0.00    -0.003 A 
ATOM      5  C   UNL d   1      -1.598  -0.040   0.075  0.00  0.00     0.080 A 
ATOM      6  C   UNL d   1       2.314  -0.047   0.001  0.00  0.00     0.057 C 
ENDROOT
BRANCH   2   7
ATOM      7  N   UNL d   1      -2.160  -2.422   0.236  0.00  0.00    -0.326 N 
ATOM      8  C   UNL d   1      -3.363  -2.323   0.906  0.00  0.00     0.218 C 
ATOM      9  O   UNL d   1      -3.734  -1.361   1.573  0.00  0.00    -0.274 OA
ATOM     10  C   UNL d   1      -4.231  -3.545   0.770  0.00  0.00     0.117 C 
ATOM     11  H   UNL d   1      -1.782  -3.352   0.061  0.00  0.00     0.169 HD
ENDBRANCH   2   7
BRANCH   1  12
ATOM     12  C   UNL d   1       0.821  -2.861   0.354  0.00  0.00     0.296 C 
ATOM     13  O   UNL d   1       0.242  -3.915   0.127  0.00  0.00    -0.259 OA
BRANCH  12  14
ATOM     14  O   UNL d   1       2.063  -2.762   0.901  0.00  0.00    -0.322 OA
ATOM     15  C   UNL d   1       2.668  -3.980   1.340  0.00  0.00     0.213 C 
ENDBRANCH  12  14
ENDBRANCH   1  12
TORSDOF 3
