REMARK  3 active torsions:
REMARK  status: ('A' for Active; 'I' for Inactive)
REMARK    1  A    between atoms: N_7  and  C_1 
REMARK    2  A    between atoms: C_9  and  C_4 
REMARK       I    between atoms: C_8  and  N_7 
REMARK       I    between atoms: N_12  and  C_8 
REMARK    3  A    between atoms: C_17  and  N_12 
ROOT
ATOM      1  C   UNL d   1      -1.235   0.307  -0.383  0.00  0.00     0.153 C 
ATOM      2  N   UNL d   1      -1.079  -0.967  -0.634  0.00  0.00    -0.335 N 
ATOM      3  HN  UNL d   1      -1.814  -1.613  -0.922  1.00  0.00     0.168 HD
ATOM      4  C   UNL d   1       0.272  -1.294  -0.439  0.00  0.00     0.057 C 
ATOM      5  S   UNL d   1       0.168   1.213  -0.061  0.00  0.00    -0.057 SA
ATOM      6  C   UNL d   1       1.115  -0.208  -0.220  0.00  0.00     0.010 C 
ATOM      7  C   UNL d   1       2.594  -0.102  -0.061  0.00  0.00     0.059 C 
ENDROOT
BRANCH   1   8
ATOM      8  N   UNL d   1      -2.356   1.064  -0.282  0.00  0.00    -0.288 N 
ATOM      9  C   UNL d   1      -3.642   0.772  -0.575  0.00  0.00     0.326 C 
ATOM     10  N   UNL d   1      -3.917  -0.358  -1.284  0.00  0.00    -0.309 N 
ATOM     11  O   UNL d   1      -4.470   1.618  -0.220  0.00  0.00    -0.247 OA
ATOM     12  H   UNL d   1      -3.174  -1.049  -1.327  0.00  0.00     0.170 HD
ATOM     13  H   UNL d   1      -2.235   1.988   0.104  0.00  0.00     0.172 HD
BRANCH  10  14
ATOM     14  C   UNL d   1      -5.155  -0.664  -1.907  0.00  0.00     0.036 A 
ATOM     15  C   UNL d   1      -6.218   0.249  -2.001  0.00  0.00     0.032 A 
ATOM     16  C   UNL d   1      -7.412  -0.090  -2.643  0.00  0.00     0.044 A 
ATOM     17  C   UNL d   1      -7.549  -1.349  -3.204  0.00  0.00     0.116 A 
ATOM     18  C   UNL d   1      -6.510  -2.270  -3.136  0.00  0.00     0.044 A 
ATOM     19  F   UNL d   1      -8.692  -1.677  -3.822  0.00  0.00    -0.206 F 
ATOM     20  C   UNL d   1      -5.314  -1.927  -2.493  0.00  0.00     0.032 A 
ENDBRANCH  10  14
ENDBRANCH   1   8
BRANCH   4  21
ATOM     21  C   UNL d   1       0.699  -2.693  -0.412  0.00  0.00    -0.007 A 
ATOM     22  C   UNL d   1       0.097  -3.629  -1.258  0.00  0.00     0.038 A 
ATOM     23  C   UNL d   1       0.408  -4.992  -1.147  0.00  0.00     0.040 A 
ATOM     24 CL   UNL d   1      -0.411  -6.093  -2.198  0.00  0.00    -0.084 Cl
ATOM     25  C   UNL d   1       1.331  -5.447  -0.193  0.00  0.00    -0.040 A 
ATOM     26  C   UNL d   1       1.953  -4.504   0.633  0.00  0.00     0.009 A 
ATOM     27  C   UNL d   1       1.620  -6.907   0.019  0.00  0.00     0.050 C 
ATOM     28  C   UNL d   1       1.632  -3.148   0.530  0.00  0.00     0.014 A 
ENDBRANCH   4  21
TORSDOF 3
