REMARK  1 active torsions:
REMARK  status: ('A' for Active; 'I' for Inactive)
REMARK    1  A    between atoms: C_12  and  C_3 
ROOT
ATOM      1  N   UNL d   1      -0.306   0.570   0.014  0.00  0.00    -0.206 N 
ATOM      2  C   UNL d   1      -0.183  -0.793  -0.003  0.00  0.00     0.164 A 
ATOM      3  C   UNL d   1       0.765   1.468   0.017  0.00  0.00     0.139 A 
ATOM      4  C   UNL d   1       1.132  -1.294  -0.016  0.00  0.00     0.102 A 
ATOM      5  N   UNL d   1       1.981   0.975  -0.021  0.00  0.00    -0.343 N 
ATOM      6  HN  UNL d   1       2.789   1.597  -0.044  1.00  0.00     0.167 HD
ATOM      7  N   UNL d   1      -1.608   0.905  -0.016  0.00  0.00     0.002 NA
ATOM      8  N   UNL d   1      -1.392  -1.314  -0.009  0.00  0.00    -0.268 N 
ATOM      9  HN  UNL d   1      -1.634  -2.305  -0.008  1.00  0.00     0.185 HD
ATOM     10  C   UNL d   1       2.154  -0.407  -0.029  0.00  0.00     0.032 A 
ATOM     11  N   UNL d   1      -2.263  -0.248  -0.018  0.00  0.00    -0.007 NA
ATOM     12 CL   UNL d   1       1.347  -3.003  -0.014  0.00  0.00    -0.078 Cl
ATOM     13  C   UNL d   1       3.594  -0.855  -0.040  0.00  0.00     0.070 C 
ENDROOT
BRANCH   3  14
ATOM     14  C   UNL d   1       0.607   2.947   0.054  0.00  0.00     0.025 A 
ATOM     15  C   UNL d   1       1.548   3.749  -0.581  0.00  0.00     0.102 A 
ATOM     16  N   UNL d   1       1.493   5.105  -0.609  0.00  0.00    -0.374 N 
ATOM     17  C   UNL d   1       0.462   5.686   0.041  0.00  0.00     0.087 A 
ATOM     18  HN  UNL d   1       2.198   5.658  -1.096  1.00  0.00     0.164 HD
ATOM     19  C   UNL d   1      -0.513   4.975   0.721  0.00  0.00     0.018 A 
ATOM     20  C   UNL d   1      -0.435   3.583   0.732  0.00  0.00     0.018 A 
ENDBRANCH   3  14
TORSDOF 1
