REMARK  2 active torsions:
REMARK  status: ('A' for Active; 'I' for Inactive)
REMARK    1  A    between atoms: N_6  and  C_1 
REMARK       I    between atoms: C_8  and  N_6 
REMARK    2  A    between atoms: C_10  and  C_8 
ROOT
ATOM      1  C   UNL d   1      -3.149   0.840  -0.088  0.00  0.00     0.152 A 
ATOM      2  C   UNL d   1      -1.021   0.263  -0.058  0.00  0.00     0.058 A 
ATOM      3  N   UNL d   1      -1.920   1.317  -0.139  0.00  0.00    -0.335 N 
ATOM      4  HN  UNL d   1      -1.670   2.302  -0.225  1.00  0.00     0.168 HD
ATOM      5  C   UNL d   1      -1.595  -0.986   0.047  0.00  0.00     0.014 A 
ATOM      6  S   UNL d   1      -3.278  -0.864   0.011  0.00  0.00    -0.056 SA
ATOM      7  C   UNL d   1       0.433   0.365  -0.042  0.00  0.00    -0.002 A 
ATOM      8  C   UNL d   1      -0.860  -2.267   0.218  0.00  0.00     0.053 C 
ATOM      9  C   UNL d   1       1.203  -0.821  -0.163  0.00  0.00    -0.045 A 
ATOM     10  C   UNL d   1       0.529  -2.157  -0.424  0.00  0.00     0.044 C 
ATOM     11  C   UNL d   1       1.079   1.592   0.123  0.00  0.00     0.014 A 
ATOM     12  C   UNL d   1       2.602  -0.750  -0.121  0.00  0.00     0.008 A 
ATOM     13  C   UNL d   1       2.476   1.646   0.177  0.00  0.00     0.001 A 
ATOM     14  C   UNL d   1       3.233   0.479   0.058  0.00  0.00     0.001 A 
ENDROOT
BRANCH   1  15
ATOM     15  N   UNL d   1      -4.262   1.652  -0.119  0.00  0.00    -0.302 N 
ATOM     16  C   UNL d   1      -5.576   1.244   0.020  0.00  0.00     0.264 C 
ATOM     17  O   UNL d   1      -5.938   0.084   0.200  0.00  0.00    -0.267 OA
ATOM     18  H   UNL d   1      -4.060   2.637  -0.213  0.00  0.00     0.171 HD
BRANCH  16  19
ATOM     19  C   UNL d   1      -6.587   2.300  -0.045  0.00  0.00     0.072 A 
ATOM     20  S   UNL d   1      -6.226   3.950  -0.315  0.00  0.00    -0.097 SA
ATOM     21  C   UNL d   1      -7.880   4.393  -0.246  0.00  0.00     0.050 A 
ATOM     22  C   UNL d   1      -8.698   3.311  -0.018  0.00  0.00     0.009 A 
ATOM     23  C   UNL d   1      -7.951   2.107   0.099  0.00  0.00     0.025 A 
ENDBRANCH  16  19
ENDBRANCH   1  15
TORSDOF 2
