REMARK  0 active torsions:
REMARK  status: ('A' for Active; 'I' for Inactive)
ROOT
ATOM      1  C   UNL d   1       0.132  -0.805  -0.005  0.00  0.00     0.107 A 
ATOM      2  C   UNL d   1      -0.278   0.522  -0.017  0.00  0.00     0.073 A 
ATOM      3  S   UNL d   1      -1.243  -1.939  -0.012  0.00  0.00     0.007 SA
ATOM      4  C   UNL d   1      -1.755   0.618  -0.034  0.00  0.00     0.265 A 
ATOM      5  N   UNL d   1      -2.327  -0.636  -0.032  0.00  0.00    -0.291 N 
ATOM      6  N   UNL d   1       1.411  -1.224   0.005  0.00  0.00    -0.352 N 
ATOM      7  HN  UNL d   1       1.658  -2.214   0.014  1.00  0.00     0.166 HD
ATOM      8  C   UNL d   1       0.683   1.528  -0.016  0.00  0.00    -0.042 A 
ATOM      9  C   UNL d   1       2.027   1.114  -0.007  0.00  0.00     0.032 A 
ATOM     10  C   UNL d   1       2.350  -0.249   0.002  0.00  0.00     0.006 A 
ATOM     11  O   UNL d   1      -2.393   1.657  -0.050  0.00  0.00    -0.267 OA
ATOM     12  C   UNL d   1       0.385   2.995  -0.036  0.00  0.00     0.049 C 
ATOM     13  C   UNL d   1       3.781  -0.698   0.001  0.00  0.00     0.068 C 
ATOM     14  H   UNL d   1      -3.333  -0.745  -0.048  0.00  0.00     0.177 HD
ENDROOT
TORSDOF 0
