REMARK  4 active torsions:
REMARK  status: ('A' for Active; 'I' for Inactive)
REMARK    1  A    between atoms: N_2  and  C_1 
REMARK    2  A    between atoms: N_3  and  C_1 
REMARK    3  A    between atoms: C_4  and  N_2 
REMARK    4  A    between atoms: C_5  and  N_3 
ROOT
ATOM      1  C   UNL d   1       0.921   0.215  -0.420  0.00  0.00     0.176 C 
ATOM      2  S   UNL d   1       2.349   0.903  -0.957  0.00  0.00    -0.041 SA
ENDROOT
BRANCH   1   3
ATOM      3  N   UNL d   1       0.462  -1.050  -0.703  0.00  0.00    -0.333 N 
ATOM      4  H   UNL d   1      -0.536  -1.090  -0.868  0.00  0.00     0.168 HD
BRANCH   3   5
ATOM      5  C   UNL d   1       1.190  -2.237  -0.924  0.00  0.00     0.040 A 
ATOM      6  C   UNL d   1       0.659  -3.258  -1.735  0.00  0.00    -0.035 A 
ATOM      7  C   UNL d   1       1.328  -4.496  -1.795  0.00  0.00     0.015 A 
ATOM      8  C   UNL d   1      -0.572  -3.100  -2.586  0.00  0.00     0.050 C 
ATOM      9  C   UNL d   1       2.508  -4.726  -1.078  0.00  0.00    -0.061 A 
ATOM     10  C   UNL d   1       3.036  -3.696  -0.301  0.00  0.00     0.009 A 
ATOM     11  C   UNL d   1       3.183  -6.063  -1.148  0.00  0.00     0.048 C 
ATOM     12  C   UNL d   1       2.381  -2.464  -0.224  0.00  0.00     0.030 A 
ENDBRANCH   3   5
ENDBRANCH   1   3
BRANCH   1  13
ATOM     13  N   UNL d   1       0.019   1.020   0.235  0.00  0.00    -0.333 N 
ATOM     14  H   UNL d   1       0.202   2.013   0.148  0.00  0.00     0.168 HD
BRANCH  13  15
ATOM     15  C   UNL d   1      -0.875   0.650   1.270  0.00  0.00     0.040 A 
ATOM     16  C   UNL d   1      -1.937   1.507   1.611  0.00  0.00    -0.035 A 
ATOM     17  C   UNL d   1      -2.282   2.752   0.841  0.00  0.00     0.050 C 
ATOM     18  C   UNL d   1      -2.744   1.185   2.720  0.00  0.00     0.009 A 
ATOM     19  C   UNL d   1      -2.510   0.034   3.470  0.00  0.00     0.001 A 
ATOM     20  C   UNL d   1      -1.465  -0.814   3.126  0.00  0.00     0.002 A 
ATOM     21  C   UNL d   1      -0.654  -0.508   2.031  0.00  0.00     0.030 A 
ENDBRANCH  13  15
ENDBRANCH   1  13
TORSDOF 4
