REMARK  6 active torsions:
REMARK  status: ('A' for Active; 'I' for Inactive)
REMARK    1  A    between atoms: O_12  and  C_5 
REMARK    2  A    between atoms: O_14  and  C_8 
REMARK    3  A    between atoms: C_16  and  O_12 
REMARK    4  A    between atoms: C_17  and  O_14 
REMARK    5  A    between atoms: C_20  and  O_21 
REMARK    6  A    between atoms: O_21  and  C_22 
ROOT
ATOM      1  C   UNL d   1      -1.591  -1.631   0.967  0.00  0.00    -0.011 C 
ATOM      2  C   UNL d   1      -3.039  -5.927   0.403  0.00  0.00    -0.030 C 
ATOM      3  C   UNL d   1      -1.512  -4.000  -0.339  0.00  0.00    -0.002 C 
ATOM      4  C   UNL d   1      -2.791  -4.367   0.479  0.00  0.00     0.029 C 
ATOM      5  C   UNL d   1      -1.825  -0.344   0.159  0.00  0.00     0.140 C 
ATOM      6  C   UNL d   1      -0.935  -2.569  -0.103  0.00  0.00     0.001 C 
ATOM      7  C   UNL d   1      -3.341  -6.298  -1.115  0.00  0.00    -0.034 C 
ATOM      8  C   UNL d   1      -2.737  -3.736   1.891  0.00  0.00     0.138 C 
ATOM      9  C   UNL d   1      -2.830  -2.215   1.685  0.00  0.00     0.045 C 
ATOM     10  C   UNL d   1      -0.985  -0.315  -0.895  0.00  0.00     0.034 C 
ATOM     11  C   UNL d   1      -0.752  -1.719  -1.367  0.00  0.00     0.008 C 
ATOM     12  C   UNL d   1      -1.627  -4.474  -1.806  0.00  0.00     0.006 C 
ATOM     13  C   UNL d   1      -4.248  -6.419   1.243  0.00  0.00     0.013 C 
ATOM     14  C   UNL d   1      -2.100  -5.932  -1.975  0.00  0.00     0.010 C 
ATOM     15  C   UNL d   1      -3.742  -7.810  -1.317  0.00  0.00     0.042 C 
ATOM     16  C   UNL d   1      -3.856  -8.674  -0.052  0.00  0.00     0.132 C 
ATOM     17  C   UNL d   1      -4.611  -7.913   1.054  0.00  0.00     0.033 C 
ATOM     18  C   UNL d   1      -0.568  -1.212   2.064  0.00  0.00     0.018 C 
ATOM     19  C   UNL d   1      -1.774  -6.635   0.966  0.00  0.00     0.016 C 
ATOM     20  C   UNL d   1      -4.543  -5.485  -1.713  0.00  0.00     0.016 C 
ENDROOT
BRANCH   5  21
ATOM     21  O   UNL d   1      -3.191  -0.132  -0.150  0.00  0.00    -0.316 OA
BRANCH  21  22
ATOM     22  C   UNL d   1      -3.540   1.188  -0.160  0.00  0.00     0.255 C 
ATOM     23  O   UNL d   1      -2.912   2.125   0.308  0.00  0.00    -0.266 OA
ATOM     24  C   UNL d   1      -4.888   1.329  -0.817  0.00  0.00     0.126 C 
ENDBRANCH  21  22
ENDBRANCH   5  21
BRANCH   8  25
ATOM     25  O   UNL d   1      -1.484  -4.046   2.526  0.00  0.00    -0.316 OA
BRANCH  25  26
ATOM     26  C   UNL d   1      -1.462  -4.903   3.581  0.00  0.00     0.255 C 
ATOM     27  O   UNL d   1      -2.439  -5.318   4.191  0.00  0.00    -0.266 OA
ATOM     28  C   UNL d   1      -0.043  -5.317   3.841  0.00  0.00     0.126 C 
ENDBRANCH  25  26
ENDBRANCH   8  25
BRANCH  16  29
ATOM     29  O   UNL d   1      -2.524  -9.057   0.340  0.00  0.00    -0.316 OA
BRANCH  29  30
ATOM     30  C   UNL d   1      -2.356  -9.947   1.344  0.00  0.00     0.255 C 
ATOM     31  O   UNL d   1      -3.217 -10.717   1.758  0.00  0.00    -0.266 OA
ATOM     32  C   UNL d   1      -1.017  -9.778   1.995  0.00  0.00     0.126 C 
ENDBRANCH  29  30
ENDBRANCH  16  29
TORSDOF 6
