REMARK  4 active torsions:
REMARK  status: ('A' for Active; 'I' for Inactive)
REMARK    1  A    between atoms: C_3  and  C_1 
REMARK    2  A    between atoms: C_6  and  C_1 
REMARK    3  A    between atoms: N_2  and  C_3 
REMARK    4  A    between atoms: O_8  and  N_4 
ROOT
ATOM      1  C   UNL d   1       0.876  -0.198   0.055  0.00  0.00     0.070 C 
ATOM      2  N   UNL d   1       0.461  -0.004  -1.168  0.00  0.00    -0.271 N 
ATOM      3  HN  UNL d   1       1.089   0.227  -1.938  1.00  0.00     0.194 HD
ENDROOT
BRANCH   1   4
ATOM      4  C   UNL d   1       2.409  -0.227   0.245  0.00  0.00     0.332 C 
BRANCH   4   5
ATOM      5  N   UNL d   1       2.824  -1.631   0.275  0.00  0.00     0.098 N 
ATOM      6  C   UNL d   1       2.942  -2.249  -1.057  0.00  0.00     0.299 C 
ATOM      7  C   UNL d   1       3.143  -3.763  -0.890  0.00  0.00     0.198 C 
ATOM      8  O   UNL d   1       4.301  -4.056  -0.091  0.00  0.00    -0.388 OA
ATOM      9  C   UNL d   1       4.202  -3.416   1.191  0.00  0.00     0.198 C 
ATOM     10  C   UNL d   1       4.049  -1.891   1.039  0.00  0.00     0.299 C 
ENDBRANCH   4   5
ENDBRANCH   1   4
BRANCH   1  11
ATOM     11  C   UNL d   1       0.023  -0.431   1.279  0.00  0.00    -0.010 A 
ATOM     12  C   UNL d   1      -1.211   0.210   1.437  0.00  0.00     0.013 A 
ATOM     13  C   UNL d   1      -2.000  -0.025   2.569  0.00  0.00     0.001 A 
ATOM     14  C   UNL d   1      -1.555  -0.884   3.573  0.00  0.00     0.000 A 
ATOM     15  C   UNL d   1      -0.317  -1.502   3.446  0.00  0.00     0.001 A 
ATOM     16  C   UNL d   1       0.461  -1.281   2.307  0.00  0.00     0.013 A 
ENDBRANCH   1  11
BRANCH   2  17
ATOM     17  O   UNL d   1      -0.919  -0.141  -1.327  0.00  0.00    -0.290 OA
ATOM     18  H   UNL d   1      -1.029  -0.050  -2.291  0.00  0.00     0.244 HD
ENDBRANCH   2  17
TORSDOF 4
