REMARK  8 active torsions:
REMARK  status: ('A' for Active; 'I' for Inactive)
REMARK    1  A    between atoms: N_2  and  C_1 
REMARK    2  A    between atoms: N_8  and  C_1 
REMARK    3  A    between atoms: C_9  and  N_2 
REMARK    4  A    between atoms: C_14  and  N_8 
REMARK    5  A    between atoms: C_15  and  N_8 
REMARK    6  A    between atoms: C_11  and  C_15 
REMARK    7  A    between atoms: C_12  and  C_14 
REMARK    8  A    between atoms: O_16  and  C_13 
ROOT
ATOM      1  N   UNL d   1       2.650  -3.536  -1.503  0.00  0.00    -0.197 NA
ATOM      2  C   UNL d   1       2.713  -3.026  -0.463  0.00  0.00     0.060 C 
ATOM      3  C   UNL d   1       2.778  -2.341   0.833  0.00  0.00     0.143 C 
ENDROOT
BRANCH   3   4
ATOM      4  C   UNL d   1       3.324  -0.915   0.677  0.00  0.00     0.139 C 
BRANCH   4   5
ATOM      5  N   UNL d   1       2.575  -0.070  -0.277  0.00  0.00    -0.356 N 
BRANCH   5   6
ATOM      6  C   UNL d   1       1.178   0.082  -0.097  0.00  0.00     0.174 C 
ATOM      7  S   UNL d   1       0.485   0.453   1.388  0.00  0.00    -0.041 SA
BRANCH   6   8
ATOM      8  N   UNL d   1       0.526  -0.155  -1.310  0.00  0.00    -0.333 N 
ATOM      9  H   UNL d   1       0.978  -0.869  -1.872  0.00  0.00     0.168 HD
BRANCH   8  10
ATOM     10  C   UNL d   1      -0.842   0.070  -1.572  0.00  0.00     0.036 A 
ATOM     11  C   UNL d   1      -1.467   1.256  -1.174  0.00  0.00     0.066 A 
ATOM     12  C   UNL d   1      -2.841   1.424  -1.338  0.00  0.00     0.070 A 
ATOM     13  C   UNL d   1      -3.580   0.414  -1.955  0.00  0.00     0.037 A 
ATOM     14  C   UNL d   1      -2.949  -0.740  -2.425  0.00  0.00     0.005 A 
ATOM     15  C   UNL d   1      -1.573  -0.906  -2.251  0.00  0.00     0.029 A 
BRANCH  12  16
ATOM     16  O   UNL d   1      -3.560   2.514  -0.930  0.00  0.00    -0.356 OA
ATOM     17  C   UNL d   1      -2.852   3.495  -0.177  0.00  0.00     0.210 C 
ENDBRANCH  12  16
ENDBRANCH   8  10
ENDBRANCH   6   8
ENDBRANCH   5   6
BRANCH   5  18
ATOM     18  C   UNL d   1       3.235   1.192  -0.668  0.00  0.00     0.139 C 
BRANCH  18  19
ATOM     19  C   UNL d   1       4.405   1.015  -1.636  0.00  0.00     0.143 C 
ATOM     20  C   UNL d   1       4.995   2.323  -1.956  0.00  0.00     0.060 C 
ATOM     21  N   UNL d   1       5.462   3.357  -2.191  0.00  0.00    -0.197 NA
ENDBRANCH  18  19
ENDBRANCH   5  18
ENDBRANCH   4   5
ENDBRANCH   3   4
TORSDOF 8
