REMARK  5 active torsions:
REMARK  status: ('A' for Active; 'I' for Inactive)
REMARK    1  A    between atoms: C_2  and  C_1 
REMARK    2  A    between atoms: C_6  and  C_2 
REMARK    3  A    between atoms: O_12  and  C_3 
REMARK    4  A    between atoms: O_16  and  C_10 
REMARK    5  A    between atoms: O_17  and  C_13 
ROOT
ATOM      1  C   UNL d   1       1.419  -0.252   0.073  0.00  0.00     0.048 A 
ATOM      2  C   UNL d   1       0.561  -1.364  -0.003  0.00  0.00     0.085 A 
ATOM      3  C   UNL d   1       0.838   1.037   0.086  0.00  0.00     0.021 A 
ATOM      4  C   UNL d   1      -0.836  -1.143  -0.072  0.00  0.00     0.074 A 
ATOM      5  C   UNL d   1      -1.391   0.135  -0.082  0.00  0.00     0.070 A 
ATOM      6  C   UNL d   1      -0.541   1.227  -0.013  0.00  0.00     0.038 A 
ENDROOT
BRANCH   1   7
ATOM      7  C   UNL d   1       2.904  -0.286   0.258  0.00  0.00     0.195 C 
ATOM      8  O   UNL d   1       3.427  -1.127   0.982  0.00  0.00    -0.287 OA
BRANCH   7   9
ATOM      9  C   UNL d   1       3.785   0.790  -0.289  0.00  0.00     0.015 A 
ATOM     10  C   UNL d   1       3.551   1.421  -1.518  0.00  0.00     0.018 A 
ATOM     11  C   UNL d   1       4.344   2.507  -1.914  0.00  0.00     0.037 A 
ATOM     12  C   UNL d   1       5.390   2.949  -1.097  0.00  0.00     0.068 A 
ATOM     13  C   UNL d   1       5.643   2.296   0.109  0.00  0.00     0.037 A 
ATOM     14  C   UNL d   1       4.855   1.213   0.507  0.00  0.00     0.018 A 
BRANCH  12  15
ATOM     15  O   UNL d   1       6.195   4.027  -1.343  0.00  0.00    -0.356 OA
ATOM     16  C   UNL d   1       6.340   4.406  -2.705  0.00  0.00     0.210 C 
ENDBRANCH  12  15
ENDBRANCH   7   9
ENDBRANCH   1   7
BRANCH   2  17
ATOM     17  O   UNL d   1       0.797  -2.708  -0.042  0.00  0.00    -0.355 OA
ATOM     18  C   UNL d   1       2.102  -3.255  -0.042  0.00  0.00     0.210 C 
ENDBRANCH   2  17
BRANCH   5  19
ATOM     19  O   UNL d   1      -2.719   0.442  -0.154  0.00  0.00    -0.356 OA
ATOM     20  C   UNL d   1      -3.634  -0.645  -0.107  0.00  0.00     0.210 C 
ENDBRANCH   5  19
TORSDOF 5
