REMARK  4 active torsions:
REMARK  status: ('A' for Active; 'I' for Inactive)
REMARK    1  A    between atoms: C_4  and  N_1 
REMARK    2  A    between atoms: C_11  and  C_2 
REMARK    3  A    between atoms: N_5  and  C_3 
REMARK    4  A    between atoms: O_14  and  C_11 
ROOT
ATOM      1  C   UNL d   1       0.267   2.236   2.813  0.00  0.00    -0.006 A 
ATOM      2  C   UNL d   1      -0.815   1.591   3.475  0.00  0.00     0.038 A 
ATOM      3  C   UNL d   1       0.302   0.488   1.104  0.00  0.00     0.103 A 
ATOM      4  C   UNL d   1       0.796   1.689   1.618  0.00  0.00     0.047 A 
ATOM      5  C   UNL d   1      -1.294   0.392   2.907  0.00  0.00     0.032 A 
ATOM      6  C   UNL d   1      -0.743  -0.166   1.746  0.00  0.00     0.038 A 
ENDROOT
BRANCH   2   7
ATOM      7  N   UNL d   1      -1.367   2.115   4.648  0.00  0.00    -0.380 N 
ATOM      8  C   UNL d   1      -2.160   1.294   5.583  0.00  0.00     0.123 C 
ATOM      9  C   UNL d   1      -3.491   2.029   5.706  0.00  0.00     0.021 C 
ATOM     10  C   UNL d   1      -3.059   3.478   5.633  0.00  0.00     0.021 C 
ATOM     11  C   UNL d   1      -1.985   3.455   4.548  0.00  0.00     0.123 C 
ENDBRANCH   2   7
BRANCH   1  12
ATOM     12  C   UNL d   1       0.874   3.517   3.351  0.00  0.00     0.205 C 
BRANCH  12  13
ATOM     13  O   UNL d   1       2.173   3.779   2.829  0.00  0.00    -0.396 OA
ATOM     14  H   UNL d   1       2.749   3.072   3.162  0.00  0.00     0.209 HD
ENDBRANCH  12  13
ENDBRANCH   1  12
BRANCH   3  15
ATOM     15  N   UNL d   1       0.894  -0.090  -0.109  0.00  0.00    -0.116 N 
ATOM     16  O   UNL d   1       1.843   0.509  -0.633  0.00  0.00    -0.532 OA
ATOM     17  O   UNL d   1       0.413  -1.151  -0.535  0.00  0.00    -0.532 OA
ENDBRANCH   3  15
TORSDOF 4
