REMARK  5 active torsions:
REMARK  status: ('A' for Active; 'I' for Inactive)
REMARK    1  A    between atoms: N_3  and  C_1 
REMARK    2  A    between atoms: C_2  and  N_3 
REMARK    3  A    between atoms: N_10  and  C_2 
REMARK    4  A    between atoms: N_4  and  N_10 
REMARK    5  A    between atoms: C_11  and  C_12 
ROOT
ATOM      1  N   UNL d   1      -1.309   4.413   0.429  0.00  0.00    -0.276 N 
ATOM      2  H   UNL d   1      -0.675   4.502  -0.359  0.00  0.00     0.189 HD
ENDROOT
BRANCH   1   3
ATOM      3  N   UNL d   1      -2.383   5.241   0.568  0.00  0.00    -0.309 N 
ATOM      4  C   UNL d   1      -2.405   6.347  -0.101  0.00  0.00     0.119 C 
ATOM      5  HN  UNL d   1      -3.155   4.993   1.187  1.00  0.00     0.186 HD
BRANCH   4   6
ATOM      6  C   UNL d   1      -3.634   7.178  -0.069  0.00  0.00    -0.008 A 
ATOM      7  C   UNL d   1      -3.628   8.570  -0.343  0.00  0.00    -0.014 A 
ATOM      8  C   UNL d   1      -4.877   9.247  -0.330  0.00  0.00    -0.025 A 
ATOM      9  C   UNL d   1      -2.469   9.338  -0.607  0.00  0.00     0.013 A 
ATOM     10  C   UNL d   1      -4.933  10.626  -0.589  0.00  0.00     0.012 A 
ATOM     11  C   UNL d   1      -6.059   8.550  -0.049  0.00  0.00     0.012 A 
ATOM     12  C   UNL d   1      -3.777  11.352  -0.855  0.00  0.00     0.001 A 
ATOM     13  C   UNL d   1      -2.546  10.713  -0.862  0.00  0.00     0.001 A 
ATOM     14  C   UNL d   1      -6.045   7.187   0.225  0.00  0.00     0.002 A 
ATOM     15  C   UNL d   1      -4.835   6.506   0.220  0.00  0.00     0.014 A 
ENDBRANCH   4   6
ENDBRANCH   1   3
BRANCH   1  16
ATOM     16  C   UNL d   1      -1.248   3.279   1.249  0.00  0.00     0.191 C 
ATOM     17  S   UNL d   1      -0.068   2.142   0.988  0.00  0.00    -0.039 SA
BRANCH  16  18
ATOM     18  N   UNL d   1      -2.181   3.389   2.253  0.00  0.00    -0.329 N 
ATOM     19  H   UNL d   1      -2.457   4.371   2.291  0.00  0.00     0.168 HD
BRANCH  18  20
ATOM     20  C   UNL d   1      -2.734   2.599   3.279  0.00  0.00     0.078 A 
ATOM     21  C   UNL d   1      -2.952   1.215   3.266  0.00  0.00     0.062 A 
ATOM     22 CL   UNL d   1      -2.691   0.196   1.897  0.00  0.00    -0.082 Cl
ATOM     23  C   UNL d   1      -3.605   0.593   4.348  0.00  0.00     0.026 A 
ATOM     24  C   UNL d   1      -4.076   1.331   5.433  0.00  0.00     0.003 A 
ATOM     25  C   UNL d   1      -3.901   2.707   5.447  0.00  0.00     0.026 A 
ATOM     26  C   UNL d   1      -3.244   3.328   4.383  0.00  0.00     0.062 A 
ATOM     27 CL   UNL d   1      -3.084   5.059   4.468  0.00  0.00    -0.082 Cl
ENDBRANCH  18  20
ENDBRANCH  16  18
ENDBRANCH   1  16
TORSDOF 5
