REMARK  3 active torsions:
REMARK  status: ('A' for Active; 'I' for Inactive)
REMARK    1  A    between atoms: C_2  and  S_1 
REMARK    2  A    between atoms: C_14  and  S_1 
REMARK    3  A    between atoms: C_3  and  C_4 
ROOT
ATOM      1  C   UNL d   1       0.490  -0.818  -1.354  0.00  0.00     0.146 C 
ATOM      2  C   UNL d   1      -0.346  -1.869  -1.224  0.00  0.00     0.068 C 
ATOM      3  C   UNL d   1       1.035  -0.078  -0.277  0.00  0.00     0.112 C 
ATOM      4  N   UNL d   1       1.486   0.564   0.579  0.00  0.00    -0.191 NA
ENDROOT
BRANCH   1   5
ATOM      5  S   UNL d   1       0.830  -0.219  -2.941  0.00  0.00     0.216 S 
ATOM      6  O   UNL d   1       0.319   1.133  -3.059  0.00  0.00    -0.216 OA
ATOM      7  O   UNL d   1       0.460  -1.210  -3.941  0.00  0.00    -0.216 OA
BRANCH   5   8
ATOM      8  C   UNL d   1       2.612  -0.116  -2.991  0.00  0.00     0.065 A 
ATOM      9  C   UNL d   1       3.354  -1.238  -3.374  0.00  0.00     0.024 A 
ATOM     10  C   UNL d   1       4.740  -1.136  -3.495  0.00  0.00     0.002 A 
ATOM     11  C   UNL d   1       5.377   0.080  -3.240  0.00  0.00     0.000 A 
ATOM     12  C   UNL d   1       4.631   1.198  -2.860  0.00  0.00     0.002 A 
ATOM     13  C   UNL d   1       3.245   1.106  -2.739  0.00  0.00     0.024 A 
ENDBRANCH   5   8
ENDBRANCH   1   5
BRANCH   2  14
ATOM     14  C   UNL d   1      -0.741  -2.452   0.021  0.00  0.00     0.073 A 
ATOM     15  N   UNL d   1       0.053  -2.444   1.097  0.00  0.00    -0.298 N 
ATOM     16  N   UNL d   1      -0.697  -2.973   2.075  0.00  0.00    -0.306 N 
ATOM     17  HN  UNL d   1       1.015  -2.110   1.161  1.00  0.00     0.187 HD
ATOM     18  C   UNL d   1      -0.191  -2.987   3.427  0.00  0.00     0.177 C 
ATOM     19  C   UNL d   1      -1.920  -3.397   1.652  0.00  0.00     0.135 A 
ATOM     20  C   UNL d   1      -1.979  -3.086   0.313  0.00  0.00     0.079 A 
ATOM     21 CL   UNL d   1      -3.288  -3.341  -0.734  0.00  0.00    -0.080 Cl
ENDBRANCH   2  14
TORSDOF 3
