REMARK  3 active torsions:
REMARK  status: ('A' for Active; 'I' for Inactive)
REMARK    1  A    between atoms: O_20  and  C_5 
REMARK    2  A    between atoms: C_14  and  C_6 
REMARK    3  A    between atoms: C_12  and  C_15 
ROOT
ATOM      1  C   UNL d   1       2.128  -1.266   0.098  0.00  0.00     0.093 A 
ATOM      2  C   UNL d   1       3.103  -2.328   0.087  0.00  0.00     0.192 A 
ATOM      3  N   UNL d   1       3.935  -2.612   1.069  0.00  0.00    -0.318 N 
ATOM      4  HN  UNL d   1       4.014  -2.162   1.981  1.00  0.00     0.169 HD
ATOM      5  C   UNL d   1       1.554  -0.625   1.191  0.00  0.00     0.107 A 
ATOM      6  C   UNL d   1       4.669  -3.662   0.570  0.00  0.00     0.138 A 
ATOM      7  S   UNL d   1       1.542  -0.654  -1.395  0.00  0.00    -0.093 SA
ATOM      8  N   UNL d   1       4.310  -4.039  -0.667  0.00  0.00    -0.242 N 
ATOM      9  HN  UNL d   1       4.702  -4.788  -1.237  1.00  0.00     0.196 HD
ATOM     10  O   UNL d   1       3.279  -3.166  -0.987  0.00  0.00    -0.216 OA
ATOM     11  C   UNL d   1       0.626   0.382   0.757  0.00  0.00     0.052 A 
ATOM     12  C   UNL d   1       0.531   0.467  -0.614  0.00  0.00     0.072 A 
ATOM     13 BR   UNL d   1      -0.432   1.542   1.820  0.00  0.00    -0.048 Br
ENDROOT
BRANCH   6  14
ATOM     14  C   UNL d   1       5.729  -4.309   1.328  0.00  0.00     0.010 A 
ATOM     15  C   UNL d   1       5.707  -4.297   2.729  0.00  0.00     0.016 A 
ATOM     16  C   UNL d   1       6.696  -4.964   3.459  0.00  0.00     0.017 A 
ATOM     17  C   UNL d   1       7.736  -5.640   2.802  0.00  0.00     0.048 A 
ATOM     18  C   UNL d   1       7.770  -5.628   1.400  0.00  0.00     0.017 A 
ATOM     19  C   UNL d   1       6.775  -4.971   0.671  0.00  0.00     0.016 A 
BRANCH  17  20
ATOM     20  C   UNL d   1       8.802  -6.383   3.573  0.00  0.00     0.417 C 
ATOM     21  F   UNL d   1       8.643  -6.315   4.925  0.00  0.00    -0.166 F 
ATOM     22  F   UNL d   1       8.833  -7.708   3.267  0.00  0.00    -0.166 F 
ATOM     23  F   UNL d   1      10.053  -5.909   3.319  0.00  0.00    -0.166 F 
ENDBRANCH  17  20
ENDBRANCH   6  14
BRANCH   5  24
ATOM     24  O   UNL d   1       1.937  -1.056   2.425  0.00  0.00    -0.353 OA
ATOM     25  C   UNL d   1       1.358  -0.453   3.562  0.00  0.00     0.210 C 
ENDBRANCH   5  24
TORSDOF 3
