REMARK  6 active torsions:
REMARK  status: ('A' for Active; 'I' for Inactive)
REMARK    1  A    between atoms: N_3  and  C_1 
REMARK    2  A    between atoms: C_2  and  N_3 
REMARK    3  A    between atoms: N_6  and  C_2 
REMARK    4  A    between atoms: C_11  and  C_4 
REMARK    5  A    between atoms: C_10  and  C_5 
REMARK    6  A    between atoms: C_8  and  N_6 
ROOT
ATOM      1  N   UNL d   1       2.815  -0.452   1.336  0.00  0.00    -0.332 N 
ATOM      2  H   UNL d   1       2.569  -1.347   1.740  0.00  0.00     0.168 HD
ENDROOT
BRANCH   1   3
ATOM      3  C   UNL d   1       4.124  -0.165   1.585  0.00  0.00     0.176 C 
ATOM      4  S   UNL d   1       5.241   0.469   0.506  0.00  0.00    -0.041 SA
BRANCH   3   5
ATOM      5  N   UNL d   1       4.643  -0.574   2.788  0.00  0.00    -0.333 N 
ATOM      6  H   UNL d   1       5.652  -0.482   2.792  0.00  0.00     0.168 HD
BRANCH   5   7
ATOM      7  C   UNL d   1       4.095  -1.063   3.997  0.00  0.00     0.035 A 
ATOM      8  C   UNL d   1       5.019  -1.574   4.931  0.00  0.00     0.053 A 
ATOM      9  C   UNL d   1       4.597  -2.077   6.162  0.00  0.00     0.036 A 
ATOM     10 CL   UNL d   1       5.752  -2.705   7.273  0.00  0.00    -0.084 Cl
ATOM     11  C   UNL d   1       3.247  -2.072   6.497  0.00  0.00     0.024 A 
ATOM     12  C   UNL d   1       2.324  -1.550   5.593  0.00  0.00     0.004 A 
ATOM     13  C   UNL d   1       2.743  -1.044   4.353  0.00  0.00     0.029 A 
ENDBRANCH   5   7
ENDBRANCH   3   5
ENDBRANCH   1   3
BRANCH   1  14
ATOM     14  C   UNL d   1       1.933  -0.068   0.277  0.00  0.00     0.047 C 
ATOM     15  C   UNL d   1       1.113  -1.126  -0.183  0.00  0.00    -0.027 C 
ATOM     16  C   UNL d   1      -0.276  -0.937  -0.259  0.00  0.00     0.010 C 
ATOM     17  C   UNL d   1      -0.829   0.314  -0.037  0.00  0.00     0.001 C 
ATOM     18  C   UNL d   1       0.015   1.407   0.124  0.00  0.00     0.010 C 
ATOM     19  C   UNL d   1       1.414   1.250   0.236  0.00  0.00    -0.027 C 
BRANCH  15  20
ATOM     20  C   UNL d   1       1.678  -2.413  -0.783  0.00  0.00     0.013 C 
ATOM     21  C   UNL d   1       3.094  -2.289  -1.360  0.00  0.00     0.015 C 
ATOM     22  C   UNL d   1       1.579  -3.609   0.158  0.00  0.00     0.015 C 
ENDBRANCH  15  20
BRANCH  19  23
ATOM     23  C   UNL d   1       2.286   2.484   0.022  0.00  0.00     0.013 C 
ATOM     24  C   UNL d   1       2.370   2.787  -1.485  0.00  0.00     0.015 C 
ATOM     25  C   UNL d   1       1.830   3.740   0.771  0.00  0.00     0.015 C 
ENDBRANCH  19  23
ENDBRANCH   1  14
TORSDOF 6
