REMARK  6 active torsions:
REMARK  status: ('A' for Active; 'I' for Inactive)
REMARK    1  A    between atoms: S_8  and  C_1 
REMARK    2  A    between atoms: C_9  and  N_2 
REMARK    3  A    between atoms: C_11  and  C_3 
REMARK    4  A    between atoms: C_13  and  S_8 
REMARK    5  A    between atoms: C_10  and  C_13 
REMARK    6  A    between atoms: O_22  and  C_11 
ROOT
ATOM      1  C   UNL d   1      -0.350  -1.248  -0.170  0.00  0.00     0.129 A 
ATOM      2  N   UNL d   1       0.922  -0.677  -0.022  0.00  0.00    -0.233 N 
ATOM      3  C   UNL d   1      -1.214  -0.166  -0.069  0.00  0.00     0.160 A 
ATOM      4  N   UNL d   1       0.792   0.660   0.180  0.00  0.00    -0.234 N 
ATOM      5  HN  UNL d   1       1.555   1.307   0.378  1.00  0.00     0.209 HD
ATOM      6  N   UNL d   1      -0.482   0.985   0.078  0.00  0.00    -0.278 N 
ATOM      7  HN  UNL d   1      -0.860   1.932   0.105  1.00  0.00     0.189 HD
ENDROOT
BRANCH   1   8
ATOM      8  S   UNL d   1      -0.601  -2.973  -0.201  0.00  0.00    -0.103 SA
BRANCH   8   9
ATOM      9  C   UNL d   1      -2.041  -3.321  -1.248  0.00  0.00     0.124 C 
BRANCH   9  10
ATOM     10  C   UNL d   1      -1.990  -2.834  -2.674  0.00  0.00     0.012 A 
ATOM     11  C   UNL d   1      -2.965  -1.930  -3.117  0.00  0.00     0.125 A 
ATOM     12  F   UNL d   1      -3.926  -1.524  -2.278  0.00  0.00    -0.205 F 
ATOM     13  C   UNL d   1      -3.011  -1.459  -4.427  0.00  0.00     0.043 A 
ATOM     14  C   UNL d   1      -2.075  -1.903  -5.349  0.00  0.00     0.005 A 
ATOM     15  C   UNL d   1      -1.116  -2.835  -4.953  0.00  0.00     0.024 A 
ATOM     16  C   UNL d   1      -1.080  -3.306  -3.632  0.00  0.00     0.044 A 
ATOM     17 CL   UNL d   1       0.080  -4.535  -3.274  0.00  0.00    -0.084 Cl
ENDBRANCH   9  10
ENDBRANCH   8   9
ENDBRANCH   1   8
BRANCH   2  18
ATOM     18  C   UNL d   1       2.237  -1.234  -0.030  0.00  0.00     0.060 A 
ATOM     19  C   UNL d   1       3.247  -0.598   0.720  0.00  0.00     0.058 A 
ATOM     20  C   UNL d   1       4.534  -1.142   0.770  0.00  0.00     0.074 A 
ATOM     21 CL   UNL d   1       5.737  -0.388   1.744  0.00  0.00    -0.081 Cl
ATOM     22  C   UNL d   1       4.829  -2.292   0.046  0.00  0.00     0.138 A 
ATOM     23  C   UNL d   1       3.854  -2.899  -0.739  0.00  0.00     0.046 A 
ATOM     24  F   UNL d   1       6.055  -2.833   0.083  0.00  0.00    -0.204 F 
ATOM     25  C   UNL d   1       2.559  -2.372  -0.779  0.00  0.00     0.035 A 
ENDBRANCH   2  18
BRANCH   3  26
ATOM     26  C   UNL d   1      -2.663  -0.127  -0.005  0.00  0.00     0.314 C 
ATOM     27  O   UNL d   1      -3.351  -1.008   0.492  0.00  0.00    -0.257 OA
BRANCH  26  28
ATOM     28  O   UNL d   1      -3.165   1.011  -0.573  0.00  0.00    -0.321 OA
ATOM     29  C   UNL d   1      -4.589   1.079  -0.598  0.00  0.00     0.213 C 
ENDBRANCH  26  28
ENDBRANCH   3  26
TORSDOF 6
