REMARK  1 active torsions:
REMARK  status: ('A' for Active; 'I' for Inactive)
REMARK    1  A    between atoms: N_11  and  C_3 
ROOT
ATOM      1  N   UNL d   1       0.728   0.382  -0.026  0.00  0.00    -0.253 N 
ATOM      2  C   UNL d   1       1.315  -0.853  -0.113  0.00  0.00     0.174 A 
ATOM      3  C   UNL d   1       3.036   1.215  -0.048  0.00  0.00     0.188 A 
ATOM      4  C   UNL d   1       1.515   1.503  -0.038  0.00  0.00     0.299 A 
ATOM      5  N   UNL d   1       3.466  -0.016  -0.162  0.00  0.00    -0.279 N 
ATOM      6  HN  UNL d   1       4.469  -0.192  -0.228  1.00  0.00     0.189 HD
ATOM      7  N   UNL d   1       2.577  -1.091  -0.196  0.00  0.00    -0.277 N 
ATOM      8  HN  UNL d   1       2.920  -2.048  -0.284  1.00  0.00     0.189 HD
ATOM      9  S   UNL d   1       0.117  -2.139  -0.108  0.00  0.00    -0.050 SA
ATOM     10  C   UNL d   1      -0.685   0.353  -0.002  0.00  0.00     0.062 A 
ATOM     11  C   UNL d   1      -1.193  -0.950  -0.032  0.00  0.00     0.035 A 
ATOM     12  O   UNL d   1       1.122   2.664  -0.079  0.00  0.00    -0.263 OA
ATOM     13  C   UNL d   1      -1.558   1.433   0.037  0.00  0.00     0.031 A 
ATOM     14  C   UNL d   1      -2.556  -1.204  -0.017  0.00  0.00     0.021 A 
ATOM     15  C   UNL d   1      -2.936   1.190   0.045  0.00  0.00     0.002 A 
ATOM     16  C   UNL d   1      -3.432  -0.120   0.021  0.00  0.00     0.002 A 
ENDROOT
BRANCH   3  17
ATOM     17  N   UNL d   1       3.953   2.260   0.045  0.00  0.00    -0.358 N 
ATOM     18  C   UNL d   1       3.709   3.513   0.766  0.00  0.00     0.151 C 
ATOM     19  C   UNL d   1       4.849   3.766   1.767  0.00  0.00     0.187 C 
ATOM     20  O   UNL d   1       6.130   3.761   1.121  0.00  0.00    -0.388 OA
ATOM     21  C   UNL d   1       6.368   2.485   0.505  0.00  0.00     0.187 C 
ATOM     22  C   UNL d   1       5.297   2.165  -0.544  0.00  0.00     0.151 C 
ENDBRANCH   3  17
TORSDOF 1
