REMARK  1 active torsions:
REMARK  status: ('A' for Active; 'I' for Inactive)
REMARK    1  A    between atoms: O_18  and  C_8 
ROOT
ATOM      1  N   UNL d   1      -0.448  -0.212  -0.003  0.00  0.00    -0.280 N 
ATOM      2  C   UNL d   1      -0.129   1.143  -0.001  0.00  0.00     0.035 A 
ATOM      3  C   UNL d   1       1.931  -0.763  -0.004  0.00  0.00     0.100 A 
ATOM      4  C   UNL d   1       0.500  -1.225  -0.004  0.00  0.00     0.268 A 
ATOM      5  C   UNL d   1       2.189   0.555  -0.005  0.00  0.00     0.100 A 
ATOM      6  C   UNL d   1      -1.845  -0.386  -0.003  0.00  0.00     0.050 A 
ATOM      7  C   UNL d   1       1.147   1.549  -0.004  0.00  0.00     0.065 A 
ATOM      8  C   UNL d   1       3.051  -1.676  -0.001  0.00  0.00     0.090 A 
ATOM      9  C   UNL d   1      -1.416   1.975   0.008  0.00  0.00     0.025 A 
ATOM     10  C   UNL d   1      -2.467   0.874  -0.001  0.00  0.00    -0.015 A 
ATOM     11  C   UNL d   1       4.303  -1.214  -0.001  0.00  0.00     0.120 A 
ATOM     12  O   UNL d   1       3.498   1.076  -0.005  0.00  0.00    -0.274 OA
ATOM     13  C   UNL d   1       4.576   0.232  -0.003  0.00  0.00     0.290 A 
ATOM     14  C   UNL d   1      -2.587  -1.554  -0.004  0.00  0.00     0.032 A 
ATOM     15  O   UNL d   1       0.272  -2.436  -0.003  0.00  0.00    -0.267 OA
ATOM     16  C   UNL d   1      -3.852   0.983  -0.002  0.00  0.00     0.034 A 
ATOM     17  O   UNL d   1       5.729   0.647  -0.002  0.00  0.00    -0.260 OA
ATOM     18  C   UNL d   1      -4.603  -0.194  -0.003  0.00  0.00     0.034 A 
ATOM     19  C   UNL d   1      -3.982  -1.452  -0.004  0.00  0.00     0.026 A 
ATOM     20  C   UNL d   1      -1.526   2.853  -1.244  0.00  0.00     0.027 C 
ATOM     21  C   UNL d   1      -1.521   2.818   1.284  0.00  0.00     0.027 C 
ATOM     22 CL   UNL d   1      -6.322  -0.100  -0.001  0.00  0.00    -0.084 Cl
ENDROOT
BRANCH   8  23
ATOM     23  O   UNL d   1       2.815  -3.036   0.002  0.00  0.00    -0.359 OA
ATOM     24  H   UNL d   1       1.844  -3.196   0.001  0.00  0.00     0.217 HD
ENDBRANCH   8  23
TORSDOF 1
