REMARK  4 active torsions:
REMARK  status: ('A' for Active; 'I' for Inactive)
REMARK       I    between atoms: N_2  and  C_1 
REMARK    1  A    between atoms: C_6  and  C_1 
REMARK    2  A    between atoms: N_5  and  N_2 
REMARK       I    between atoms: C_3  and  N_5 
REMARK    3  A    between atoms: C_12  and  C_3 
REMARK    4  A    between atoms: C_4  and  C_12 
ROOT
ATOM      1  C   UNL d   1       0.224   2.602   2.635  0.00  0.00     0.240 C 
ATOM      2  N   UNL d   1       0.996   1.781   1.839  0.00  0.00    -0.267 N 
ATOM      3  O   UNL d   1      -1.006   2.607   2.575  0.00  0.00    -0.272 OA
ATOM      4  H   UNL d   1       2.011   1.712   1.873  0.00  0.00     0.190 HD
ENDROOT
BRANCH   2   5
ATOM      5  N   UNL d   1       0.331   0.969   0.920  0.00  0.00    -0.263 N 
ATOM      6  C   UNL d   1       1.056   0.096   0.136  0.00  0.00     0.270 C 
ATOM      7  O   UNL d   1       2.277  -0.005   0.196  0.00  0.00    -0.266 OA
ATOM      8  H   UNL d   1      -0.683   0.940   1.008  0.00  0.00     0.190 HD
BRANCH   6   9
ATOM      9  C   UNL d   1       0.252  -0.757  -0.784  0.00  0.00     0.033 A 
ATOM     10  C   UNL d   1      -0.980  -0.323  -1.298  0.00  0.00     0.019 A 
ATOM     11  C   UNL d   1      -1.722  -1.155  -2.141  0.00  0.00     0.025 A 
ATOM     12  C   UNL d   1      -1.232  -2.415  -2.478  0.00  0.00     0.034 A 
ATOM     13  C   UNL d   1       0.002  -2.846  -1.992  0.00  0.00     0.025 A 
ATOM     14 CL   UNL d   1      -2.154  -3.440  -3.505  0.00  0.00    -0.084 Cl
ATOM     15  C   UNL d   1       0.748  -2.015  -1.149  0.00  0.00     0.019 A 
ENDBRANCH   6   9
ENDBRANCH   2   5
BRANCH   1  16
ATOM     16  C   UNL d   1       1.001   3.482   3.592  0.00  0.00     0.143 C 
BRANCH  16  17
ATOM     17  C   UNL d   1       1.194   2.857   4.951  0.00  0.00    -0.043 A 
ATOM     18  C   UNL d   1       2.483   2.631   5.455  0.00  0.00     0.050 A 
ATOM     19  C   UNL d   1       2.653   2.071   6.720  0.00  0.00     0.119 A 
ATOM     20  F   UNL d   1       3.893   1.865   7.183  0.00  0.00    -0.206 F 
ATOM     21  C   UNL d   1       1.565   1.726   7.507  0.00  0.00     0.084 A 
ATOM     22  C   UNL d   1       0.289   1.955   7.013  0.00  0.00     0.119 A 
ATOM     23  C   UNL d   1       0.093   2.516   5.752  0.00  0.00     0.050 A 
ATOM     24  F   UNL d   1      -0.774   1.635   7.763  0.00  0.00    -0.206 F 
ENDBRANCH  16  17
ENDBRANCH   1  16
TORSDOF 4
