REMARK  2 active torsions:
REMARK  status: ('A' for Active; 'I' for Inactive)
REMARK    1  A    between atoms: C_4  and  C_2 
REMARK    2  A    between atoms: C_8  and  C_3 
ROOT
ATOM      1  S   UNL d   1      -0.996  -0.010   0.024  0.00  0.00    -0.086 SA
ATOM      2  C   UNL d   1       0.151   1.264  -0.030  0.00  0.00     0.022 A 
ATOM      3  C   UNL d   1       0.211  -1.232   0.020  0.00  0.00     0.051 A 
ATOM      4  C   UNL d   1       1.437   0.758  -0.014  0.00  0.00     0.021 A 
ATOM      5  C   UNL d   1       1.472  -0.669   0.014  0.00  0.00     0.024 A 
ENDROOT
BRANCH   2   6
ATOM      6  C   UNL d   1      -0.256   2.650  -0.100  0.00  0.00     0.021 A 
ATOM      7  S   UNL d   1       0.741   3.838  -0.844  0.00  0.00    -0.101 SA
ATOM      8  C   UNL d   1      -0.401   5.078  -0.574  0.00  0.00     0.050 A 
ATOM      9  C   UNL d   1      -1.515   4.617   0.087  0.00  0.00     0.008 A 
ATOM     10  C   UNL d   1      -1.431   3.219   0.362  0.00  0.00     0.021 A 
ENDBRANCH   2   6
BRANCH   3  11
ATOM     11  C   UNL d   1      -0.208  -2.632   0.023  0.00  0.00     0.162 C 
ATOM     12  O   UNL d   1      -1.388  -2.991   0.056  0.00  0.00    -0.292 OA
ATOM     13  C   UNL d   1       0.857  -3.704  -0.025  0.00  0.00     0.097 C 
ENDBRANCH   3  11
TORSDOF 2
