REMARK  8 active torsions:
REMARK  status: ('A' for Active; 'I' for Inactive)
REMARK    1  A    between atoms: S_9  and  C_3 
REMARK    2  A    between atoms: S_10  and  C_4 
REMARK    3  A    between atoms: C_15  and  S_9 
REMARK    4  A    between atoms: C_16  and  S_10 
REMARK    5  A    between atoms: C_11  and  C_15 
REMARK    6  A    between atoms: C_13  and  C_11 
REMARK    7  A    between atoms: C_12  and  C_16 
REMARK    8  A    between atoms: C_14  and  C_12 
ROOT
ATOM      1  N   UNL d   1      -2.260   0.690   0.045  0.00  0.00    -0.331 N 
ATOM      2  HN  UNL d   1      -3.144   1.199   0.024  1.00  0.00     0.168 HD
ATOM      3  C   UNL d   1      -1.078   1.326  -0.076  0.00  0.00     0.084 A 
ATOM      4  C   UNL d   1      -2.224  -0.635   0.193  0.00  0.00     0.146 A 
ATOM      5  N   UNL d   1      -1.111  -1.373   0.184  0.00  0.00    -0.336 N 
ATOM      6  HN  UNL d   1      -1.150  -2.389   0.262  1.00  0.00     0.168 HD
ATOM      7  C   UNL d   1       0.158   0.659  -0.045  0.00  0.00     0.024 A 
ATOM      8  C   UNL d   1       0.058  -0.733   0.069  0.00  0.00     0.047 A 
ATOM      9  C   UNL d   1       1.448   1.258  -0.104  0.00  0.00     0.016 A 
ATOM     10  C   UNL d   1       1.225  -1.490   0.079  0.00  0.00     0.030 A 
ATOM     11  C   UNL d   1       2.603   0.478  -0.061  0.00  0.00     0.001 A 
ATOM     12  C   UNL d   1       2.490  -0.902   0.019  0.00  0.00     0.002 A 
ENDROOT
BRANCH   3  13
ATOM     13  S   UNL d   1      -1.205   3.104  -0.322  0.00  0.00    -0.103 SA
BRANCH  13  14
ATOM     14  C   UNL d   1      -2.863   3.397   0.371  0.00  0.00     0.164 C 
BRANCH  14  15
ATOM     15  C   UNL d   1      -3.354   4.825   0.203  0.00  0.00     0.169 C 
ATOM     16  O   UNL d   1      -2.779   5.678  -0.470  0.00  0.00    -0.291 OA
BRANCH  15  17
ATOM     17  C   UNL d   1      -4.635   5.196   0.894  0.00  0.00     0.011 A 
ATOM     18  C   UNL d   1      -5.405   4.258   1.599  0.00  0.00     0.017 A 
ATOM     19  C   UNL d   1      -6.561   4.660   2.280  0.00  0.00     0.025 A 
ATOM     20  C   UNL d   1      -6.956   5.995   2.253  0.00  0.00     0.034 A 
ATOM     21  C   UNL d   1      -6.220   6.931   1.530  0.00  0.00     0.025 A 
ATOM     22 CL   UNL d   1      -8.352   6.490   3.127  0.00  0.00    -0.084 Cl
ATOM     23  C   UNL d   1      -5.064   6.531   0.849  0.00  0.00     0.017 A 
ENDBRANCH  15  17
ENDBRANCH  14  15
ENDBRANCH  13  14
ENDBRANCH   3  13
BRANCH   4  24
ATOM     24  S   UNL d   1      -3.751  -1.482   0.521  0.00  0.00    -0.086 SA
BRANCH  24  25
ATOM     25  C   UNL d   1      -4.902  -0.376  -0.341  0.00  0.00     0.166 C 
BRANCH  25  26
ATOM     26  C   UNL d   1      -6.338  -0.792  -0.097  0.00  0.00     0.169 C 
ATOM     27  O   UNL d   1      -7.004  -0.280   0.808  0.00  0.00    -0.291 OA
BRANCH  26  28
ATOM     28  C   UNL d   1      -6.985  -1.791  -0.998  0.00  0.00     0.011 A 
ATOM     29  C   UNL d   1      -6.248  -2.735  -1.726  0.00  0.00     0.017 A 
ATOM     30  C   UNL d   1      -6.906  -3.681  -2.519  0.00  0.00     0.025 A 
ATOM     31  C   UNL d   1      -8.297  -3.679  -2.599  0.00  0.00     0.034 A 
ATOM     32  C   UNL d   1      -9.040  -2.731  -1.899  0.00  0.00     0.025 A 
ATOM     33 CL   UNL d   1      -9.099  -4.864  -3.554  0.00  0.00    -0.084 Cl
ATOM     34  C   UNL d   1      -8.385  -1.792  -1.096  0.00  0.00     0.017 A 
ENDBRANCH  26  28
ENDBRANCH  25  26
ENDBRANCH  24  25
ENDBRANCH   4  24
TORSDOF 8
