REMARK  2 active torsions:
REMARK  status: ('A' for Active; 'I' for Inactive)
REMARK    1  A    between atoms: N_5  and  C_1 
REMARK       I    between atoms: C_2  and  N_5 
REMARK       I    between atoms: N_7  and  C_2 
REMARK    2  A    between atoms: C_9  and  N_7 
ROOT
ATOM      1  C   UNL d   1       0.798  -1.554  -0.756  0.00  0.00     0.054 C 
ATOM      2  S   UNL d   1       2.017   0.707  -0.942  0.00  0.00    -0.099 SA
ATOM      3  C   UNL d   1      -0.190  -0.543  -0.425  0.00  0.00     0.008 A 
ATOM      4  C   UNL d   1       1.983  -0.979  -1.164  0.00  0.00     0.081 C 
ATOM      5  C   UNL d   1       0.382   0.736  -0.410  0.00  0.00     0.017 A 
ATOM      6  C   UNL d   1      -1.583  -0.619  -0.149  0.00  0.00     0.015 A 
ATOM      7  C   UNL d   1      -0.347   1.878  -0.018  0.00  0.00     0.020 A 
ATOM      8  C   UNL d   1      -2.314   0.509   0.235  0.00  0.00     0.001 A 
ATOM      9  C   UNL d   1      -1.692   1.744   0.322  0.00  0.00     0.001 A 
ENDROOT
BRANCH   1  10
ATOM     10  N   UNL d   1       0.692  -2.943  -0.758  0.00  0.00    -0.308 N 
ATOM     11  C   UNL d   1      -0.103  -3.788  -0.038  0.00  0.00     0.321 C 
ATOM     12  N   UNL d   1      -0.784  -3.262   1.020  0.00  0.00    -0.338 N 
ATOM     13  O   UNL d   1      -0.109  -4.987  -0.315  0.00  0.00    -0.247 OA
ATOM     14  H   UNL d   1      -0.430  -2.386   1.382  0.00  0.00     0.164 HD
ATOM     15  H   UNL d   1       1.370  -3.453  -1.311  0.00  0.00     0.170 HD
BRANCH  12  16
ATOM     16  C   UNL d   1      -1.592  -4.050   1.896  0.00  0.00     0.086 A 
ATOM     17  C   UNL d   1      -3.044  -4.305   1.604  0.00  0.00     0.027 A 
ATOM     18  C   UNL d   1      -2.659  -3.384   2.722  0.00  0.00     0.027 A 
ENDBRANCH  12  16
ENDBRANCH   1  10
TORSDOF 2
