REMARK  4 active torsions:
REMARK  status: ('A' for Active; 'I' for Inactive)
REMARK       I    between atoms: C_12  and  N_1 
REMARK    1  A    between atoms: C_17  and  C_5 
REMARK    2  A    between atoms: C_6  and  S_15 
REMARK    3  A    between atoms: C_16  and  C_12 
REMARK    4  A    between atoms: S_15  and  C_16 
ROOT
ATOM      1  N   UNL d   1      -0.104  -1.341   0.954  0.00  0.00    -0.279 N 
ATOM      2  S   UNL d   1      -0.057   1.713   0.439  0.00  0.00    -0.086 SA
ATOM      3  C   UNL d   1       1.145  -0.804   0.453  0.00  0.00     0.059 A 
ATOM      4  C   UNL d   1      -1.283  -0.774   0.362  0.00  0.00     0.059 A 
ATOM      5  C   UNL d   1      -0.136  -2.403   1.889  0.00  0.00     0.238 C 
ATOM      6  C   UNL d   1       1.273   0.564   0.132  0.00  0.00     0.033 A 
ATOM      7  C   UNL d   1      -1.396   0.600   0.095  0.00  0.00     0.033 A 
ATOM      8  O   UNL d   1       0.845  -3.104   2.152  0.00  0.00    -0.272 OA
ATOM      9  C   UNL d   1       2.261  -1.628   0.229  0.00  0.00     0.031 A 
ATOM     10  C   UNL d   1      -2.321  -1.618  -0.070  0.00  0.00     0.031 A 
ATOM     11  C   UNL d   1      -2.565   1.119  -0.477  0.00  0.00     0.021 A 
ATOM     12  C   UNL d   1       2.469   1.072  -0.400  0.00  0.00     0.021 A 
ATOM     13  C   UNL d   1      -3.476  -1.101  -0.660  0.00  0.00     0.002 A 
ATOM     14  C   UNL d   1       3.448  -1.120  -0.312  0.00  0.00     0.002 A 
ATOM     15  C   UNL d   1       3.552   0.229  -0.630  0.00  0.00     0.002 A 
ATOM     16  C   UNL d   1      -3.607   0.270  -0.844  0.00  0.00     0.002 A 
ENDROOT
BRANCH   5  17
ATOM     17  C   UNL d   1      -1.451  -2.571   2.690  0.00  0.00     0.186 C 
BRANCH  17  18
ATOM     18  S   UNL d   1      -1.198  -3.613   4.156  0.00  0.00    -0.075 SA
BRANCH  18  19
ATOM     19  C   UNL d   1      -2.801  -3.820   4.790  0.00  0.00     0.204 A 
ATOM     20  O   UNL d   1      -3.916  -3.115   4.399  0.00  0.00    -0.267 OA
ATOM     21  C   UNL d   1      -4.882  -3.641   5.229  0.00  0.00     0.175 A 
ATOM     22  N   UNL d   1      -4.409  -4.572   6.029  0.00  0.00    -0.277 N 
ATOM     23  N   UNL d   1      -3.069  -4.685   5.747  0.00  0.00    -0.272 N 
ATOM     24  HN  UNL d   1      -4.933  -5.105   6.723  1.00  0.00     0.189 HD
ATOM     25  HN  UNL d   1      -2.406  -5.319   6.194  1.00  0.00     0.189 HD
BRANCH  21  26
ATOM     26  C   UNL d   1      -6.246  -3.143   5.120  0.00  0.00     0.019 A 
ATOM     27  C   UNL d   1      -6.604  -2.098   4.268  0.00  0.00     0.033 A 
ATOM     28  C   UNL d   1      -7.933  -1.701   4.225  0.00  0.00     0.088 A 
ATOM     29  N   UNL d   1      -8.912  -2.267   4.960  0.00  0.00    -0.375 N 
ATOM     30  C   UNL d   1      -8.552  -3.272   5.785  0.00  0.00     0.088 A 
ATOM     31  HN  UNL d   1      -9.879  -1.949   4.896  1.00  0.00     0.164 HD
ATOM     32  C   UNL d   1      -7.253  -3.736   5.899  0.00  0.00     0.033 A 
ENDBRANCH  21  26
ENDBRANCH  18  19
ENDBRANCH  17  18
ENDBRANCH   5  17
TORSDOF 4
