REMARK  3 active torsions:
REMARK  status: ('A' for Active; 'I' for Inactive)
REMARK    1  A    between atoms: C_7  and  C_1 
REMARK    2  A    between atoms: N_11  and  N_8 
REMARK    3  A    between atoms: C_12  and  N_11 
ROOT
ATOM      1  C   UNL d   1       2.069  -1.608  -0.011  0.00  0.00     0.139 C 
ATOM      2  N   UNL d   1       1.987  -2.897  -0.084  0.00  0.00    -0.309 N 
ATOM      3  HN  UNL d   1       1.088  -3.377  -0.131  1.00  0.00     0.186 HD
ENDROOT
BRANCH   2   4
ATOM      4  N   UNL d   1       3.165  -3.579  -0.096  0.00  0.00    -0.301 N 
ATOM      5  H   UNL d   1       3.961  -3.218   0.427  0.00  0.00     0.187 HD
BRANCH   4   6
ATOM      6  C   UNL d   1       3.091  -4.992  -0.103  0.00  0.00     0.048 A 
ATOM      7  C   UNL d   1       1.891  -5.671  -0.358  0.00  0.00     0.031 A 
ATOM      8  C   UNL d   1       1.846  -7.065  -0.435  0.00  0.00     0.002 A 
ATOM      9  C   UNL d   1       3.014  -7.805  -0.284  0.00  0.00     0.000 A 
ATOM     10  C   UNL d   1       4.223  -7.149  -0.064  0.00  0.00     0.002 A 
ATOM     11  C   UNL d   1       4.262  -5.752   0.018  0.00  0.00     0.031 A 
ENDBRANCH   4   6
ENDBRANCH   2   4
BRANCH   1  12
ATOM     12  C   UNL d   1       0.860  -0.802  -0.007  0.00  0.00     0.083 A 
ATOM     13  N   UNL d   1       0.966   0.542   0.082  0.00  0.00    -0.297 N 
ATOM     14  N   UNL d   1      -0.306   0.981   0.049  0.00  0.00    -0.306 N 
ATOM     15  HN  UNL d   1       1.817   1.098   0.157  1.00  0.00     0.187 HD
ATOM     16  C   UNL d   1      -0.595   2.393   0.121  0.00  0.00     0.177 C 
ATOM     17  C   UNL d   1      -1.228  -0.015  -0.052  0.00  0.00     0.131 A 
ATOM     18  C   UNL d   1      -0.505  -1.177  -0.087  0.00  0.00     0.057 A 
ATOM     19 BR   UNL d   1      -1.244  -2.891  -0.222  0.00  0.00    -0.047 Br
ENDBRANCH   1  12
TORSDOF 3
