REMARK  5 active torsions:
REMARK  status: ('A' for Active; 'I' for Inactive)
REMARK    1  A    between atoms: C_22  and  N_1 
REMARK    2  A    between atoms: C_3  and  S_13 
REMARK    3  A    between atoms: C_21  and  C_8 
REMARK    4  A    between atoms: S_13  and  C_14 
REMARK    5  A    between atoms: C_25  and  C_22 
ROOT
ATOM      1  S   UNL d   1      -1.050  -3.334  -0.167  0.00  0.00    -0.033 SA
ENDROOT
BRANCH   1   2
ATOM      2  C   UNL d   1      -2.742  -3.640  -0.003  0.00  0.00     0.169 A 
ATOM      3  N   UNL d   1      -3.623  -3.742  -1.049  0.00  0.00    -0.315 N 
ATOM      4  C   UNL d   1      -4.799  -4.236  -0.507  0.00  0.00     0.134 A 
ATOM      5  C   UNL d   1      -3.390  -3.352  -2.414  0.00  0.00     0.160 C 
ATOM      6  N   UNL d   1      -4.626  -4.325   0.804  0.00  0.00    -0.283 N 
ATOM      7  N   UNL d   1      -3.338  -3.972   1.115  0.00  0.00    -0.278 N 
ATOM      8  HN  UNL d   1      -5.338  -4.611   1.476  1.00  0.00     0.188 HD
ATOM      9  HN  UNL d   1      -2.921  -3.969   2.046  1.00  0.00     0.189 HD
BRANCH   4  10
ATOM     10  C   UNL d   1      -6.057  -4.588  -1.187  0.00  0.00     0.012 A 
ATOM     11  C   UNL d   1      -6.143  -4.996  -2.519  0.00  0.00     0.032 A 
ATOM     12  C   UNL d   1      -7.387  -5.317  -3.047  0.00  0.00     0.088 A 
ATOM     13  N   UNL d   1      -8.536  -5.280  -2.345  0.00  0.00    -0.375 N 
ATOM     14  C   UNL d   1      -8.437  -4.920  -1.050  0.00  0.00     0.088 A 
ATOM     15  HN  UNL d   1      -9.433  -5.511  -2.772  1.00  0.00     0.164 HD
ATOM     16  C   UNL d   1      -7.243  -4.573  -0.440  0.00  0.00     0.032 A 
ENDBRANCH   4  10
ENDBRANCH   1   2
BRANCH   1  17
ATOM     17  C   UNL d   1      -1.003  -1.560   0.058  0.00  0.00     0.099 A 
ATOM     18  C   UNL d   1       0.088  -0.960   0.650  0.00  0.00     0.086 A 
ATOM     19  C   UNL d   1       0.120   0.418   0.631  0.00  0.00     0.130 A 
ATOM     20  S   UNL d   1       1.543  -1.622   1.390  0.00  0.00    -0.054 SA
ATOM     21  N   UNL d   1       1.312   0.952   1.178  0.00  0.00    -0.314 N 
ATOM     22  N   UNL d   1      -0.850   1.183   0.110  0.00  0.00    -0.337 N 
ATOM     23  C   UNL d   1       2.215  -0.000   1.641  0.00  0.00     0.147 A 
ATOM     24  S   UNL d   1       3.721   0.240   2.314  0.00  0.00    -0.052 SA
ATOM     25  C   UNL d   1      -1.882   0.508  -0.414  0.00  0.00     0.182 A 
ATOM     26  HN  UNL d   1      -0.806   2.202   0.112  1.00  0.00     0.168 HD
ATOM     27  N   UNL d   1      -2.001  -0.829  -0.494  0.00  0.00    -0.345 N 
ATOM     28  HN  UNL d   1      -2.802  -1.270  -0.948  1.00  0.00     0.167 HD
BRANCH  21  29
ATOM     29  C   UNL d   1       1.544   2.390   1.146  0.00  0.00     0.158 C 
BRANCH  29  30
ATOM     30  C   UNL d   1       1.174   3.083   2.429  0.00  0.00    -0.017 C 
ATOM     31  C   UNL d   1       0.554   2.580   3.506  0.00  0.00     0.008 C 
ENDBRANCH  29  30
ENDBRANCH  21  29
ENDBRANCH   1  17
TORSDOF 5
