REMARK  6 active torsions:
REMARK  status: ('A' for Active; 'I' for Inactive)
REMARK    1  A    between atoms: S_9  and  C_1 
REMARK    2  A    between atoms: C_12  and  N_2 
REMARK    3  A    between atoms: C_13  and  C_5 
REMARK       I    between atoms: C_7  and  N_8 
REMARK       I    between atoms: N_11  and  C_7 
REMARK       I    between atoms: N_8  and  C_10 
REMARK    4  A    between atoms: C_16  and  S_9 
REMARK    5  A    between atoms: C_10  and  C_16 
REMARK    6  A    between atoms: C_17  and  N_11 
ROOT
ATOM      1  C   UNL d   1       0.906   0.305  -0.584  0.00  0.00     0.152 A 
ATOM      2  N   UNL d   1      -0.311  -0.272  -0.217  0.00  0.00    -0.301 N 
ATOM      3  N   UNL d   1       0.871   1.620  -0.574  0.00  0.00    -0.335 N 
ATOM      4  HN  UNL d   1       1.646   2.260  -0.749  1.00  0.00     0.168 HD
ATOM      5  C   UNL d   1      -0.419   1.946  -0.281  0.00  0.00     0.060 A 
ATOM      6  C   UNL d   1      -1.174   0.810  -0.113  0.00  0.00     0.130 A 
ENDROOT
BRANCH   1   7
ATOM      7  S   UNL d   1       2.341  -0.499  -1.138  0.00  0.00    -0.084 SA
BRANCH   7   8
ATOM      8  C   UNL d   1       2.632   0.398  -2.688  0.00  0.00     0.185 C 
BRANCH   8   9
ATOM      9  C   UNL d   1       3.361   1.732  -2.599  0.00  0.00     0.235 C 
ATOM     10  N   UNL d   1       3.610   2.262  -1.351  0.00  0.00    -0.278 N 
ATOM     11  C   UNL d   1       4.302   3.411  -1.007  0.00  0.00     0.327 C 
ATOM     12  H   UNL d   1       3.181   1.805  -0.555  0.00  0.00     0.173 HD
ATOM     13  N   UNL d   1       4.783   4.138  -2.067  0.00  0.00    -0.309 N 
ATOM     14  O   UNL d   1       4.427   3.684   0.184  0.00  0.00    -0.247 OA
ATOM     15  H   UNL d   1       4.487   3.802  -2.980  0.00  0.00     0.170 HD
ATOM     16  O   UNL d   1       3.713   2.303  -3.637  0.00  0.00    -0.272 OA
BRANCH  13  17
ATOM     17  C   UNL d   1       5.548   5.322  -2.048  0.00  0.00     0.036 A 
ATOM     18  C   UNL d   1       6.107   5.874  -0.894  0.00  0.00     0.029 A 
ATOM     19  C   UNL d   1       6.864   7.049  -0.965  0.00  0.00     0.002 A 
ATOM     20  C   UNL d   1       7.063   7.686  -2.189  0.00  0.00     0.000 A 
ATOM     21  C   UNL d   1       6.511   7.144  -3.346  0.00  0.00     0.002 A 
ATOM     22  C   UNL d   1       5.762   5.965  -3.275  0.00  0.00     0.029 A 
ENDBRANCH  13  17
ENDBRANCH   8   9
ENDBRANCH   7   8
ENDBRANCH   1   7
BRANCH   2  23
ATOM     23  C   UNL d   1      -0.694  -1.625   0.072  0.00  0.00     0.041 A 
ATOM     24  C   UNL d   1       0.244  -2.627   0.342  0.00  0.00     0.030 A 
ATOM     25  C   UNL d   1      -0.172  -3.915   0.708  0.00  0.00     0.002 A 
ATOM     26  C   UNL d   1      -1.526  -4.219   0.819  0.00  0.00     0.000 A 
ATOM     27  C   UNL d   1      -2.471  -3.239   0.547  0.00  0.00     0.002 A 
ATOM     28  C   UNL d   1      -2.061  -1.956   0.170  0.00  0.00     0.030 A 
ENDBRANCH   2  23
BRANCH   5  29
ATOM     29  C   UNL d   1      -0.895   3.301  -0.103  0.00  0.00    -0.008 A 
ATOM     30  C   UNL d   1      -2.197   3.672  -0.470  0.00  0.00     0.014 A 
ATOM     31  C   UNL d   1      -2.652   4.972  -0.237  0.00  0.00     0.001 A 
ATOM     32  C   UNL d   1      -1.812   5.907   0.366  0.00  0.00     0.000 A 
ATOM     33  C   UNL d   1      -0.511   5.550   0.721  0.00  0.00     0.001 A 
ATOM     34  C   UNL d   1      -0.052   4.254   0.480  0.00  0.00     0.014 A 
ENDBRANCH   5  29
TORSDOF 6
