REMARK  3 active torsions:
REMARK  status: ('A' for Active; 'I' for Inactive)
REMARK    1  A    between atoms: C_5  and  C_1 
REMARK    2  A    between atoms: C_7  and  C_2 
REMARK    3  A    between atoms: C_13  and  N_9 
ROOT
ATOM      1  C   UNL d   1      -1.333  -0.808  -0.167  0.00  0.00     0.082 A 
ATOM      2  C   UNL d   1       0.007  -1.320  -0.052  0.00  0.00     0.040 A 
ATOM      3  N   UNL d   1      -1.300   0.519  -0.362  0.00  0.00    -0.259 N 
ATOM      4  HN  UNL d   1      -2.102   1.131  -0.514  1.00  0.00     0.195 HD
ATOM      5  O   UNL d   1       0.021   0.894  -0.317  0.00  0.00    -0.241 OA
ATOM      6  C   UNL d   1       0.804  -0.197  -0.137  0.00  0.00     0.086 A 
ATOM      7  C   UNL d   1       2.253   0.084  -0.062  0.00  0.00     0.080 C 
ENDROOT
BRANCH   2   8
ATOM      8  C   UNL d   1       0.428  -2.692   0.088  0.00  0.00     0.104 C 
ATOM      9  N   UNL d   1       1.622  -3.040  -0.263  0.00  0.00    -0.365 N 
ATOM     10  HN  UNL d   1       2.318  -2.340  -0.519  1.00  0.00     0.165 HD
BRANCH   9  11
ATOM     11  C   UNL d   1       1.936  -4.412  -0.282  0.00  0.00     0.035 A 
ATOM     12  C   UNL d   1       2.566  -4.926  -1.421  0.00  0.00     0.053 A 
ATOM     13  C   UNL d   1       2.887  -6.283  -1.499  0.00  0.00     0.037 A 
ATOM     14 CL   UNL d   1       3.657  -6.899  -2.911  0.00  0.00    -0.084 Cl
ATOM     15  C   UNL d   1       2.588  -7.144  -0.449  0.00  0.00     0.048 A 
ATOM     16  C   UNL d   1       1.978  -6.629   0.690  0.00  0.00     0.037 A 
ATOM     17  C   UNL d   1       1.664  -5.271   0.786  0.00  0.00     0.053 A 
ATOM     18 CL   UNL d   1       1.592  -7.678   2.000  0.00  0.00    -0.084 Cl
ENDBRANCH   9  11
ENDBRANCH   2   8
BRANCH   1  19
ATOM     19  C   UNL d   1      -2.622  -1.516  -0.122  0.00  0.00     0.037 A 
ATOM     20  C   UNL d   1      -3.661  -1.077   0.730  0.00  0.00     0.048 A 
ATOM     21 CL   UNL d   1      -3.509   0.276   1.806  0.00  0.00    -0.083 Cl
ATOM     22  C   UNL d   1      -4.893  -1.748   0.777  0.00  0.00     0.025 A 
ATOM     23  C   UNL d   1      -5.107  -2.886   0.010  0.00  0.00     0.003 A 
ATOM     24  C   UNL d   1      -4.101  -3.335  -0.838  0.00  0.00     0.025 A 
ATOM     25  C   UNL d   1      -2.884  -2.642  -0.930  0.00  0.00     0.048 A 
ATOM     26 CL   UNL d   1      -1.784  -3.232  -2.134  0.00  0.00    -0.083 Cl
ENDBRANCH   1  19
TORSDOF 3
