REMARK  2 active torsions:
REMARK  status: ('A' for Active; 'I' for Inactive)
REMARK    1  A    between atoms: N_9  and  C_1 
REMARK    2  A    between atoms: C_4  and  C_5 
REMARK       I    between atoms: C_5  and  N_8 
ROOT
ATOM      1  C   UNL d   1      -3.397   1.989   3.851  0.00  0.00     0.279 C 
ATOM      2  N   UNL d   1      -2.293   2.335   3.041  0.00  0.00    -0.343 N 
ATOM      3  N   UNL d   1      -0.078   2.558   1.061  0.00  0.00     0.105 N 
ATOM      4  C   UNL d   1      -1.230   1.333   2.970  0.00  0.00     0.156 C 
ATOM      5  C   UNL d   1      -2.457   3.152   1.830  0.00  0.00     0.156 C 
ATOM      6  C   UNL d   1      -1.142   3.562   1.128  0.00  0.00     0.293 C 
ATOM      7  C   UNL d   1       0.065   1.890   2.366  0.00  0.00     0.293 C 
ATOM      8  O   UNL d   1      -3.406   0.947   4.503  0.00  0.00    -0.265 OA
ENDROOT
BRANCH   3   9
ATOM      9  C   UNL d   1      -0.057   1.717  -0.151  0.00  0.00     0.290 C 
ATOM     10  C   UNL d   1       1.134   0.752  -0.136  0.00  0.00    -0.009 A 
ATOM     11  C   UNL d   1       0.678  -0.582  -0.092  0.00  0.00    -0.017 A 
ATOM     12  C   UNL d   1       2.487   1.062  -0.095  0.00  0.00     0.010 A 
ATOM     13  C   UNL d   1       1.582  -1.628  -0.014  0.00  0.00     0.013 A 
ATOM     14  C   UNL d   1      -0.767  -0.587  -0.185  0.00  0.00    -0.017 C 
ATOM     15  C   UNL d   1       2.947  -1.324   0.031  0.00  0.00     0.001 A 
ATOM     16  C   UNL d   1       3.396   0.007  -0.009  0.00  0.00     0.001 A 
ATOM     17  C   UNL d   1      -1.216   0.744  -0.344  0.00  0.00    -0.009 C 
ATOM     18  C   UNL d   1      -1.671  -1.636  -0.173  0.00  0.00     0.013 C 
ATOM     19  C   UNL d   1      -2.535   1.007  -0.679  0.00  0.00     0.010 C 
ATOM     20  C   UNL d   1      -3.449  -0.048  -0.662  0.00  0.00     0.001 C 
ATOM     21  C   UNL d   1      -3.025  -1.354  -0.378  0.00  0.00     0.001 C 
ENDBRANCH   3   9
BRANCH   1  22
ATOM     22  C   UNL d   1      -4.545   2.875   3.861  0.00  0.00     0.167 A 
ATOM     23  O   UNL d   1      -4.369   4.227   3.770  0.00  0.00    -0.233 OA
ATOM     24  N   UNL d   1      -5.599   4.860   3.758  0.00  0.00    -0.272 N 
ATOM     25  C   UNL d   1      -6.495   3.885   3.920  0.00  0.00     0.117 A 
ATOM     26  HN  UNL d   1      -5.781   5.858   3.648  1.00  0.00     0.194 HD
ATOM     27  C   UNL d   1      -5.889   2.623   4.022  0.00  0.00     0.064 A 
ENDBRANCH   1  22
TORSDOF 2
