REMARK  2 active torsions:
REMARK  status: ('A' for Active; 'I' for Inactive)
REMARK       I    between atoms: N_2  and  C_1 
REMARK       I    between atoms: N_3  and  C_1 
REMARK    1  A    between atoms: C_6  and  N_2 
REMARK       I    between atoms: C_4  and  N_5 
REMARK    2  A    between atoms: C_9  and  C_4 
ROOT
ATOM      1  C   UNL d   1       0.965  -0.308   0.116  0.00  0.00     0.323 C 
ATOM      2  N   UNL d   1       0.333   0.032  -1.063  0.00  0.00    -0.303 N 
ATOM      3  N   UNL d   1       0.055  -0.595   1.135  0.00  0.00    -0.331 N 
ATOM      4  C   UNL d   1      -0.829  -3.510   3.931  0.00  0.00     0.248 C 
ATOM      5  N   UNL d   1      -0.256  -2.862   2.845  0.00  0.00    -0.347 N 
ATOM      6  O   UNL d   1       2.174  -0.274   0.312  0.00  0.00    -0.247 OA
ATOM      7  C   UNL d   1       0.530  -0.546   2.522  0.00  0.00     0.147 C 
ATOM      8  C   UNL d   1      -1.054  -1.533   0.908  0.00  0.00     0.147 C 
ATOM      9  C   UNL d   1       0.871  -1.942   3.059  0.00  0.00     0.146 C 
ATOM     10  C   UNL d   1      -0.713  -2.939   1.449  0.00  0.00     0.146 C 
ATOM     11  O   UNL d   1      -0.448  -3.289   5.082  0.00  0.00    -0.270 OA
ATOM     12  H   UNL d   1      -0.583   0.444  -0.960  0.00  0.00     0.171 HD
ENDROOT
BRANCH   2  13
ATOM     13  C   UNL d   1       1.044   0.425  -2.172  0.00  0.00     0.077 A 
ATOM     14  S   UNL d   1       0.247   1.561  -3.151  0.00  0.00    -0.084 SA
ATOM     15  C   UNL d   1       1.618   1.712  -4.169  0.00  0.00     0.052 A 
ATOM     16  C   UNL d   1       2.620   0.834  -3.815  0.00  0.00     0.010 A 
ATOM     17  C   UNL d   1       2.286   0.085  -2.646  0.00  0.00     0.038 A 
ENDBRANCH   2  13
BRANCH   4  18
ATOM     18  C   UNL d   1      -2.016  -4.467   3.661  0.00  0.00     0.213 C 
ATOM     19  O   UNL d   1      -1.700  -5.535   2.754  0.00  0.00    -0.376 OA
ATOM     20  C   UNL d   1      -2.183  -6.768   3.304  0.00  0.00     0.168 C 
ATOM     21  C   UNL d   1      -3.150  -6.400   4.405  0.00  0.00     0.029 C 
ATOM     22  C   UNL d   1      -2.539  -5.127   4.931  0.00  0.00     0.043 C 
ENDBRANCH   4  18
TORSDOF 2
