REMARK  5 active torsions:
REMARK  status: ('A' for Active; 'I' for Inactive)
REMARK    1  A    between atoms: C_2  and  N_1 
REMARK    2  A    between atoms: S_4  and  C_3 
REMARK    3  A    between atoms: C_9  and  S_4 
REMARK    4  A    between atoms: C_5  and  C_9 
REMARK    5  A    between atoms: O_12  and  C_5 
ROOT
ATOM      1  C   UNL d   1       0.242  -1.016  -0.722  0.00  0.00     0.136 A 
ATOM      2  C   UNL d   1      -0.727  -0.251  -1.360  0.00  0.00     0.103 A 
ATOM      3  N   UNL d   1      -1.367  -0.726  -2.469  0.00  0.00    -0.359 N 
ATOM      4  HN  UNL d   1      -2.120  -0.197  -2.908  1.00  0.00     0.166 HD
ATOM      5  C   UNL d   1       0.607  -2.271  -1.222  0.00  0.00     0.040 A 
ATOM      6  C   UNL d   1      -0.968  -1.926  -2.970  0.00  0.00     0.089 A 
ATOM      7  C   UNL d   1      -0.001  -2.727  -2.385  0.00  0.00     0.020 A 
ENDROOT
BRANCH   2   8
ATOM      8  S   UNL d   1      -1.235   1.369  -0.807  0.00  0.00    -0.095 SA
BRANCH   8   9
ATOM      9  C   UNL d   1      -2.840   1.625  -1.667  0.00  0.00     0.147 C 
ATOM     10  C   UNL d   1      -3.189   3.111  -1.590  0.00  0.00     0.033 C 
BRANCH   9  11
ATOM     11  C   UNL d   1      -3.926   0.786  -0.996  0.00  0.00     0.153 C 
ATOM     12  O   UNL d   1      -4.826   1.232  -0.299  0.00  0.00    -0.649 OA
BRANCH  11  13
ATOM     13  O   UNL d   1      -3.826  -0.541  -1.261  0.00  0.00    -0.776 OA
ATOM     14  H   UNL d   1      -3.061  -0.746  -1.845  0.00  0.00     0.167 HD
ENDBRANCH  11  13
ENDBRANCH   9  11
ENDBRANCH   8   9
ENDBRANCH   2   8
BRANCH   1  15
ATOM     15  N   UNL d   1       0.857  -0.571   0.501  0.00  0.00    -0.113 N 
ATOM     16  O   UNL d   1       1.640   0.387   0.428  0.00  0.00    -0.532 OA
ATOM     17  O   UNL d   1       0.606  -1.228   1.519  0.00  0.00    -0.532 OA
ENDBRANCH   1  15
TORSDOF 5
