REMARK  2 active torsions:
REMARK  status: ('A' for Active; 'I' for Inactive)
REMARK    1  A    between atoms: C_11  and  N_5 
REMARK    2  A    between atoms: C_14  and  C_11 
ROOT
ATOM      1  N   UNL d   1       0.680   0.349  -0.021  0.00  0.00    -0.251 N 
ATOM      2  C   UNL d   1       1.253  -0.897   0.066  0.00  0.00     0.174 A 
ATOM      3  C   UNL d   1       1.465   1.478  -0.076  0.00  0.00     0.324 C 
ATOM      4  C   UNL d   1       2.970   1.217  -0.214  0.00  0.00     0.331 C 
ATOM      5  N   UNL d   1       3.384  -0.102  -0.026  0.00  0.00    -0.247 N 
ATOM      6  N   UNL d   1       2.514  -1.161   0.090  0.00  0.00    -0.274 N 
ATOM      7  HN  UNL d   1       2.854  -2.117   0.192  1.00  0.00     0.189 HD
ATOM      8  S   UNL d   1       0.044  -2.169   0.137  0.00  0.00    -0.050 SA
ATOM      9  C   UNL d   1      -0.739   0.329   0.000  0.00  0.00     0.062 A 
ATOM     10  C   UNL d   1      -1.256  -0.970   0.060  0.00  0.00     0.035 A 
ATOM     11  O   UNL d   1       3.724   2.148  -0.475  0.00  0.00    -0.260 OA
ATOM     12  O   UNL d   1       1.074   2.637  -0.023  0.00  0.00    -0.261 OA
ATOM     13  C   UNL d   1      -1.607   1.413  -0.045  0.00  0.00     0.031 A 
ATOM     14  C   UNL d   1      -2.621  -1.217   0.059  0.00  0.00     0.021 A 
ATOM     15  C   UNL d   1      -2.988   1.178  -0.034  0.00  0.00     0.002 A 
ATOM     16  C   UNL d   1      -3.491  -0.129   0.012  0.00  0.00     0.002 A 
ENDROOT
BRANCH   5  17
ATOM     17  C   UNL d   1       4.811  -0.417  -0.013  0.00  0.00     0.191 C 
BRANCH  17  18
ATOM     18  C   UNL d   1       5.417  -0.192   1.355  0.00  0.00    -0.038 A 
ATOM     19  C   UNL d   1       5.408  -1.215   2.317  0.00  0.00     0.012 A 
ATOM     20  C   UNL d   1       5.890  -0.975   3.606  0.00  0.00     0.043 A 
ATOM     21  C   UNL d   1       6.377   0.285   3.934  0.00  0.00     0.116 A 
ATOM     22  C   UNL d   1       6.412   1.305   2.992  0.00  0.00     0.043 A 
ATOM     23  F   UNL d   1       6.807   0.523   5.180  0.00  0.00    -0.206 F 
ATOM     24  C   UNL d   1       5.935   1.067   1.703  0.00  0.00     0.012 A 
ENDBRANCH  17  18
ENDBRANCH   5  17
TORSDOF 2
