REMARK  4 active torsions:
REMARK  status: ('A' for Active; 'I' for Inactive)
REMARK    1  A    between atoms: C_7  and  C_2 
REMARK    2  A    between atoms: C_8  and  S_11 
REMARK    3  A    between atoms: S_11  and  C_14 
REMARK    4  A    between atoms: C_14  and  C_15 
ROOT
ATOM      1  C   UNL d   1       2.428  -1.649   0.044  0.00  0.00    -0.008 A 
ATOM      2  C   UNL d   1       2.566  -2.563  -1.010  0.00  0.00     0.014 A 
ATOM      3  C   UNL d   1       3.441  -1.583   1.010  0.00  0.00     0.014 A 
ATOM      4  C   UNL d   1       4.691  -3.342  -0.118  0.00  0.00    -0.049 A 
ATOM      5  C   UNL d   1       3.686  -3.399  -1.092  0.00  0.00     0.009 A 
ATOM      6  C   UNL d   1       4.562  -2.415   0.925  0.00  0.00     0.009 A 
ENDROOT
BRANCH   4   7
ATOM      7  C   UNL d   1       5.898  -4.251  -0.198  0.00  0.00     0.119 C 
BRANCH   7   8
ATOM      8  S   UNL d   1       5.966  -5.418   1.203  0.00  0.00    -0.108 SA
BRANCH   8   9
ATOM      9  C   UNL d   1       7.554  -6.175   0.908  0.00  0.00     0.069 A 
ATOM     10  N   UNL d   1       8.196  -5.892  -0.249  0.00  0.00    -0.361 N 
ATOM     11  C   UNL d   1       9.397  -6.477  -0.448  0.00  0.00     0.089 A 
ATOM     12  HN  UNL d   1       7.789  -5.264  -0.942  1.00  0.00     0.165 HD
ATOM     13  C   UNL d   1       9.999  -7.335   0.456  0.00  0.00     0.017 A 
ATOM     14  C   UNL d   1       9.324  -7.616   1.637  0.00  0.00     0.004 A 
ATOM     15  C   UNL d   1       8.081  -7.032   1.867  0.00  0.00     0.037 A 
ENDBRANCH   8   9
ENDBRANCH   7   8
ENDBRANCH   4   7
BRANCH   1  16
ATOM     16  C   UNL d   1       1.234  -0.815   0.128  0.00  0.00     0.063 A 
ATOM     17  N   UNL d   1       0.032  -1.216  -0.449  0.00  0.00    -0.292 N 
ATOM     18  N   UNL d   1      -0.934  -0.335  -0.249  0.00  0.00    -0.061 NA
ATOM     19  HN  UNL d   1      -0.089  -2.087  -0.966  1.00  0.00     0.183 HD
ATOM     20  S   UNL d   1      -0.425   1.000   0.618  0.00  0.00    -0.010 SA
ATOM     21  C   UNL d   1       1.182   0.416   0.760  0.00  0.00     0.096 A 
ENDBRANCH   1  16
TORSDOF 4
