REMARK  2 active torsions:
REMARK  status: ('A' for Active; 'I' for Inactive)
REMARK    1  A    between atoms: N_2  and  S_1 
REMARK    2  A    between atoms: C_5  and  S_1 
REMARK       I    between atoms: C_3  and  N_2 
REMARK       I    between atoms: N_4  and  C_3 
ROOT
ATOM      1  S   UNL d   1       0.932   0.117  -0.004  0.00  0.00     0.266 S 
ATOM      2  O   UNL d   1       2.267   0.660  -0.140  0.00  0.00    -0.200 OA
ATOM      3  O   UNL d   1       0.495  -0.477   1.243  0.00  0.00    -0.200 OA
ENDROOT
BRANCH   1   4
ATOM      4  N   UNL d   1       0.699  -1.059  -1.164  0.00  0.00    -0.232 N 
ATOM      5  C   UNL d   1       0.794  -0.823  -2.530  0.00  0.00     0.332 C 
ATOM      6  N   UNL d   1       0.472  -1.870  -3.375  0.00  0.00    -0.329 N 
ATOM      7  O   UNL d   1       1.117   0.275  -2.963  0.00  0.00    -0.246 OA
ATOM      8  C   UNL d   1       0.371  -3.286  -3.012  0.00  0.00     0.153 C 
ATOM      9  C   UNL d   1       0.592  -1.661  -4.821  0.00  0.00     0.153 C 
ATOM     10  C   UNL d   1       1.538  -4.070  -3.628  0.00  0.00     0.187 C 
ATOM     11  O   UNL d   1       1.595  -3.876  -5.051  0.00  0.00    -0.388 OA
ATOM     12  C   UNL d   1       1.760  -2.483  -5.374  0.00  0.00     0.187 C 
ATOM     13  H   UNL d   1       0.251  -1.879  -0.788  0.00  0.00     0.183 HD
ENDBRANCH   1   4
BRANCH   1  14
ATOM     14  C   UNL d   1      -0.266   1.347  -0.443  0.00  0.00     0.080 A 
ATOM     15  C   UNL d   1      -1.622   1.021  -0.354  0.00  0.00     0.026 A 
ATOM     16  C   UNL d   1      -2.578   1.937  -0.790  0.00  0.00     0.008 A 
ATOM     17  C   UNL d   1      -2.185   3.181  -1.303  0.00  0.00    -0.062 A 
ATOM     18  C   UNL d   1      -0.823   3.511  -1.343  0.00  0.00     0.008 A 
ATOM     19  C   UNL d   1      -3.226   4.127  -1.827  0.00  0.00     0.048 C 
ATOM     20  C   UNL d   1       0.140   2.597  -0.911  0.00  0.00     0.026 A 
ENDBRANCH   1  14
TORSDOF 2
