REMARK  4 active torsions:
REMARK  status: ('A' for Active; 'I' for Inactive)
REMARK    1  A    between atoms: C_7  and  N_1 
REMARK    2  A    between atoms: C_11  and  C_6 
REMARK    3  A    between atoms: C_8  and  C_10 
REMARK    4  A    between atoms: O_21  and  C_19 
ROOT
ATOM      1  N   UNL d   1      -0.194  -1.247   0.086  0.00  0.00    -0.180 N 
ATOM      2  N   UNL d   1       1.078  -0.775   0.259  0.00  0.00    -0.266 N 
ATOM      3  HN  UNL d   1       1.926  -1.294   0.485  1.00  0.00     0.190 HD
ATOM      4  C   UNL d   1      -1.071  -0.224  -0.200  0.00  0.00     0.394 A 
ATOM      5  O   UNL d   1      -0.317   0.923  -0.198  0.00  0.00    -0.240 OA
ATOM      6  C   UNL d   1       0.936   0.496   0.064  0.00  0.00     0.178 A 
ATOM      7  O   UNL d   1      -2.271  -0.222  -0.416  0.00  0.00    -0.236 OA
ENDROOT
BRANCH   1   8
ATOM      8  C   UNL d   1      -0.436  -2.630   0.067  0.00  0.00     0.133 A 
ATOM      9  C   UNL d   1       0.587  -3.497   0.456  0.00  0.00     0.066 A 
ATOM     10  C   UNL d   1       0.395  -4.882   0.397  0.00  0.00     0.052 A 
ATOM     11  C   UNL d   1      -0.825  -5.359  -0.080  0.00  0.00     0.033 A 
ATOM     12  C   UNL d   1      -1.794  -4.439  -0.439  0.00  0.00     0.090 A 
ATOM     13  N   UNL d   1      -1.625  -3.101  -0.362  0.00  0.00    -0.351 N 
ATOM     14  HN  UNL d   1      -2.377  -2.464  -0.622  1.00  0.00     0.166 HD
BRANCH  10  15
ATOM     15  C   UNL d   1       1.474  -5.830   0.843  0.00  0.00     0.417 C 
ATOM     16  F   UNL d   1       2.598  -5.204   1.291  0.00  0.00    -0.166 F 
ATOM     17  F   UNL d   1       1.066  -6.635   1.861  0.00  0.00    -0.166 F 
ATOM     18  F   UNL d   1       1.883  -6.662  -0.154  0.00  0.00    -0.166 F 
ENDBRANCH  10  15
ENDBRANCH   1   8
BRANCH   6  19
ATOM     19  C   UNL d   1       2.011   1.493   0.055  0.00  0.00     0.019 A 
ATOM     20  C   UNL d   1       3.333   1.036   0.185  0.00  0.00     0.052 A 
ATOM     21  C   UNL d   1       4.395   1.936   0.141  0.00  0.00     0.069 A 
ATOM     22  C   UNL d   1       4.124   3.296  -0.025  0.00  0.00     0.037 A 
ATOM     23  C   UNL d   1       2.812   3.756  -0.151  0.00  0.00     0.004 A 
ATOM     24  C   UNL d   1       1.750   2.854  -0.114  0.00  0.00     0.016 A 
BRANCH  21  25
ATOM     25  O   UNL d   1       5.721   1.614   0.240  0.00  0.00    -0.356 OA
ATOM     26  C   UNL d   1       6.040   0.237   0.405  0.00  0.00     0.210 C 
ENDBRANCH  21  25
ENDBRANCH   6  19
TORSDOF 4
