REMARK  7 active torsions:
REMARK  status: ('A' for Active; 'I' for Inactive)
REMARK    1  A    between atoms: C_2  and  C_1 
REMARK       I    between atoms: C_8  and  N_3 
REMARK    2  A    between atoms: N_4  and  C_5 
REMARK    3  A    between atoms: C_25  and  C_8 
REMARK    4  A    between atoms: C_10  and  C_26 
REMARK    5  A    between atoms: O_24  and  C_10 
REMARK    6  A    between atoms: S_20  and  C_25 
REMARK    7  A    between atoms: C_26  and  S_20 
ROOT
ATOM      1  N   UNL d   1      -0.035   8.191   1.858  0.00  0.00    -0.350 N 
ATOM      2  N   UNL d   1      -0.354   5.252   1.847  0.00  0.00    -0.366 N 
ATOM      3  C   UNL d   1      -0.868   9.193   2.353  0.00  0.00     0.229 C 
ATOM      4  C   UNL d   1      -0.486   7.433   0.677  0.00  0.00     0.145 C 
ATOM      5  C   UNL d   1      -1.216   6.126   1.024  0.00  0.00     0.144 C 
ATOM      6  O   UNL d   1      -1.927   9.472   1.788  0.00  0.00    -0.273 OA
ATOM      7  C   UNL d   1       0.942   6.541   3.515  0.00  0.00     0.040 C 
ATOM      8  C   UNL d   1       1.167   7.678   2.514  0.00  0.00     0.127 C 
ATOM      9  C   UNL d   1      -0.258   5.633   3.255  0.00  0.00     0.126 C 
ENDROOT
BRANCH   2  10
ATOM     10  C   UNL d   1      -0.089   3.971   1.397  0.00  0.00     0.102 A 
ATOM     11  C   UNL d   1       0.722   3.080   2.100  0.00  0.00     0.049 A 
ATOM     12  C   UNL d   1       0.970   1.795   1.603  0.00  0.00     0.021 A 
ATOM     13  C   UNL d   1       0.413   1.404   0.388  0.00  0.00     0.063 A 
ATOM     14  C   UNL d   1      -0.362   2.340  -0.265  0.00  0.00     0.106 A 
ATOM     15  N   UNL d   1      -0.605   3.586   0.208  0.00  0.00    -0.352 N 
ATOM     16  HN  UNL d   1      -1.178   4.234  -0.333  1.00  0.00     0.166 HD
BRANCH  13  17
ATOM     17  C   UNL d   1       0.643   0.048  -0.197  0.00  0.00     0.418 C 
ATOM     18  F   UNL d   1       0.011  -0.151  -1.387  0.00  0.00    -0.166 F 
ATOM     19  F   UNL d   1       0.216  -0.955   0.621  0.00  0.00    -0.166 F 
ATOM     20  F   UNL d   1       1.961  -0.201  -0.433  0.00  0.00    -0.166 F 
ENDBRANCH  13  17
ENDBRANCH   2  10
BRANCH   3  21
ATOM     21  C   UNL d   1      -0.400   9.917   3.615  0.00  0.00     0.177 C 
BRANCH  21  22
ATOM     22  S   UNL d   1      -1.493  11.294   4.141  0.00  0.00    -0.149 SA
BRANCH  22  23
ATOM     23  C   UNL d   1      -3.026  10.369   4.506  0.00  0.00     0.184 C 
BRANCH  23  24
ATOM     24  C   UNL d   1      -2.796   9.390   5.631  0.00  0.00     0.149 C 
ATOM     25  O   UNL d   1      -2.945   8.180   5.535  0.00  0.00    -0.649 OA
BRANCH  24  26
ATOM     26  O   UNL d   1      -2.371   9.977   6.777  0.00  0.00    -0.776 OA
ATOM     27  H   UNL d   1      -2.225  10.939   6.659  0.00  0.00     0.167 HD
ENDBRANCH  24  26
ENDBRANCH  23  24
ENDBRANCH  22  23
ENDBRANCH  21  22
ENDBRANCH   3  21
TORSDOF 7
