REMARK  10 active torsions:
REMARK  status: ('A' for Active; 'I' for Inactive)
REMARK    1  A    between atoms: O_16  and  C_1 
REMARK    2  A    between atoms: C_5  and  C_13 
REMARK       I    between atoms: N_6  and  C_8 
REMARK    3  A    between atoms: C_10  and  N_6 
REMARK    4  A    between atoms: C_17  and  N_6 
REMARK    5  A    between atoms: C_21  and  C_7 
REMARK    6  A    between atoms: C_8  and  C_19 
REMARK    7  A    between atoms: C_19  and  O_16 
REMARK    8  A    between atoms: C_18  and  C_17 
REMARK    9  A    between atoms: O_26  and  C_18 
REMARK   10  A    between atoms: C_33  and  O_26 
ROOT
ATOM      1  C   UNL d   1       0.381   1.136   0.961  0.00  0.00     0.165 A 
ATOM      2  C   UNL d   1      -0.280   0.560   2.047  0.00  0.00     0.101 A 
ATOM      3  N   UNL d   1       0.735   0.448  -0.151  0.00  0.00    -0.335 N 
ATOM      4  HN  UNL d   1       1.202   0.918  -0.927  1.00  0.00     0.168 HD
ATOM      5  C   UNL d   1       0.456  -0.875  -0.214  0.00  0.00     0.044 A 
ATOM      6  C   UNL d   1      -0.578  -0.811   1.980  0.00  0.00    -0.035 A 
ATOM      7  C   UNL d   1      -0.660   1.366   3.167  0.00  0.00     0.104 C 
ATOM      8  N   UNL d   1      -0.996   2.000   4.077  0.00  0.00    -0.191 NA
ATOM      9  C   UNL d   1      -0.197  -1.525   0.830  0.00  0.00     0.038 A 
ATOM     10  C   UNL d   1      -1.307  -1.577   3.051  0.00  0.00     0.050 C 
ENDROOT
BRANCH   1  11
ATOM     11  O   UNL d   1       0.691   2.486   1.008  0.00  0.00    -0.325 OA
BRANCH  11  12
ATOM     12  C   UNL d   1       1.376   2.939  -0.159  0.00  0.00     0.280 C 
BRANCH  12  13
ATOM     13  C   UNL d   1       1.790   4.419  -0.121  0.00  0.00     0.249 C 
ATOM     14  N   UNL d   1       0.788   5.394  -0.059  0.00  0.00    -0.307 N 
ATOM     15  O   UNL d   1       2.993   4.700  -0.159  0.00  0.00    -0.271 OA
BRANCH  14  16
ATOM     16  C   UNL d   1       1.138   6.777  -0.146  0.00  0.00     0.038 A 
ATOM     17  C   UNL d   1       1.944   7.255  -1.188  0.00  0.00     0.046 A 
ATOM     18  C   UNL d   1       2.207   8.630  -1.319  0.00  0.00     0.050 A 
ATOM     19  C   UNL d   1       1.694   9.515  -0.358  0.00  0.00     0.016 A 
ATOM     20  C   UNL d   1       0.922   9.040   0.701  0.00  0.00     0.003 A 
ATOM     21  C   UNL d   1       0.633   7.680   0.796  0.00  0.00     0.030 A 
BRANCH  18  22
ATOM     22  C   UNL d   1       2.998   9.173  -2.483  0.00  0.00     0.417 C 
ATOM     23  F   UNL d   1       3.427   8.219  -3.355  0.00  0.00    -0.166 F 
ATOM     24  F   UNL d   1       2.271  10.053  -3.230  0.00  0.00    -0.166 F 
ATOM     25  F   UNL d   1       4.110   9.854  -2.092  0.00  0.00    -0.166 F 
ENDBRANCH  18  22
ENDBRANCH  14  16
BRANCH  14  26
ATOM     26  C   UNL d   1      -0.659   5.098  -0.091  0.00  0.00     0.243 C 
BRANCH  26  27
ATOM     27  C   UNL d   1      -1.281   5.011  -1.485  0.00  0.00     0.277 C 
ATOM     28  O   UNL d   1      -2.472   4.779  -1.660  0.00  0.00    -0.263 OA
BRANCH  27  29
ATOM     29  O   UNL d   1      -0.361   5.125  -2.481  0.00  0.00    -0.321 OA
BRANCH  29  30
ATOM     30  C   UNL d   1      -0.803   4.747  -3.795  0.00  0.00     0.174 C 
ATOM     31  C   UNL d   1      -0.439   3.288  -3.998  0.00  0.00     0.034 C 
ENDBRANCH  29  30
ENDBRANCH  27  29
ENDBRANCH  26  27
ENDBRANCH  14  26
ENDBRANCH  12  13
ENDBRANCH  11  12
ENDBRANCH   1  11
BRANCH   5  32
ATOM     32  C   UNL d   1       0.837  -1.560  -1.465  0.00  0.00    -0.009 A 
ATOM     33  C   UNL d   1       1.179  -2.925  -1.496  0.00  0.00     0.013 A 
ATOM     34  C   UNL d   1       1.467  -3.575  -2.699  0.00  0.00     0.001 A 
ATOM     35  C   UNL d   1       1.433  -2.870  -3.898  0.00  0.00     0.000 A 
ATOM     36  C   UNL d   1       1.132  -1.512  -3.893  0.00  0.00     0.001 A 
ATOM     37  C   UNL d   1       0.842  -0.865  -2.689  0.00  0.00     0.013 A 
ENDBRANCH   5  32
TORSDOF 10
