REMARK  5 active torsions:
REMARK  status: ('A' for Active; 'I' for Inactive)
REMARK    1  A    between atoms: C_8  and  C_3 
REMARK    2  A    between atoms: C_19  and  C_4 
REMARK    3  A    between atoms: C_7  and  O_13 
REMARK    4  A    between atoms: C_11  and  C_7 
REMARK    5  A    between atoms: O_13  and  C_19 
ROOT
ATOM      1  N   UNL d   1       1.522  -0.533  -0.161  0.00  0.00    -0.351 N 
ATOM      2  HN  UNL d   1       2.422  -1.008  -0.231  1.00  0.00     0.166 HD
ATOM      3  C   UNL d   1       1.353   0.842  -0.067  0.00  0.00     0.049 A 
ATOM      4  C   UNL d   1       0.349  -1.136  -0.146  0.00  0.00     0.075 A 
ATOM      5  S   UNL d   1      -1.013  -0.088  -0.023  0.00  0.00    -0.084 SA
ATOM      6  C   UNL d   1       0.039   1.262   0.001  0.00  0.00     0.082 A 
ENDROOT
BRANCH   3   7
ATOM      7  C   UNL d   1       2.495   1.750  -0.068  0.00  0.00    -0.006 A 
ATOM      8  C   UNL d   1       2.458   2.971   0.621  0.00  0.00     0.053 A 
ATOM      9  C   UNL d   1       3.559   3.829   0.589  0.00  0.00     0.103 A 
ATOM     10  O   UNL d   1       3.429   5.013   1.271  0.00  0.00    -0.346 OA
ATOM     11  C   UNL d   1       4.715   3.464  -0.103  0.00  0.00     0.102 A 
ATOM     12  C   UNL d   1       4.452   5.944   0.897  0.00  0.00     0.202 C 
ATOM     13  C   UNL d   1       5.811   5.263   0.858  0.00  0.00     0.202 C 
ATOM     14  O   UNL d   1       5.841   4.248  -0.152  0.00  0.00    -0.346 OA
ATOM     15  C   UNL d   1       4.763   2.255  -0.792  0.00  0.00     0.040 A 
ATOM     16  C   UNL d   1       3.658   1.397  -0.766  0.00  0.00     0.017 A 
ENDBRANCH   3   7
BRANCH   4  17
ATOM     17  C   UNL d   1       0.118  -2.618  -0.168  0.00  0.00     0.243 C 
BRANCH  17  18
ATOM     18  O   UNL d   1       1.197  -3.288  -0.839  0.00  0.00    -0.314 OA
BRANCH  18  19
ATOM     19  C   UNL d   1       1.101  -3.336  -2.193  0.00  0.00     0.266 C 
ATOM     20  O   UNL d   1       0.224  -2.775  -2.841  0.00  0.00    -0.264 OA
BRANCH  19  21
ATOM     21  C   UNL d   1       2.164  -4.248  -2.820  0.00  0.00     0.037 C 
ATOM     22  C   UNL d   1       3.132  -4.844  -1.786  0.00  0.00     0.025 C 
ATOM     23  C   UNL d   1       1.423  -5.394  -3.528  0.00  0.00     0.025 C 
ATOM     24  C   UNL d   1       2.970  -3.443  -3.847  0.00  0.00     0.025 C 
ENDBRANCH  19  21
ENDBRANCH  18  19
ENDBRANCH  17  18
ENDBRANCH   4  17
TORSDOF 5
