REMARK  4 active torsions:
REMARK  status: ('A' for Active; 'I' for Inactive)
REMARK    1  A    between atoms: C_18  and  N_1 
REMARK       I    between atoms: N_3  and  C_13 
REMARK    2  A    between atoms: S_16  and  C_6 
REMARK    3  A    between atoms: C_13  and  C_19 
REMARK    4  A    between atoms: C_19  and  S_16 
ROOT
ATOM      1  N   UNL d   1      -0.182   0.641   0.306  0.00  0.00    -0.274 N 
ATOM      2  C   UNL d   1       0.896   0.144  -0.436  0.00  0.00     0.146 A 
ATOM      3  N   UNL d   1       0.537  -0.976  -1.037  0.00  0.00    -0.282 N 
ATOM      4  HN  UNL d   1       1.133  -1.546  -1.637  1.00  0.00     0.188 HD
ATOM      5  C   UNL d   1      -1.196  -0.277   0.053  0.00  0.00     0.168 A 
ATOM      6  N   UNL d   1      -0.760  -1.243  -0.722  0.00  0.00    -0.278 N 
ATOM      7  HN  UNL d   1      -1.298  -2.051  -1.034  1.00  0.00     0.189 HD
ATOM      8  C   UNL d   1       2.241   0.649  -0.525  0.00  0.00     0.050 A 
ATOM      9  S   UNL d   1       3.061   0.636  -2.037  0.00  0.00    -0.098 SA
ATOM     10  C   UNL d   1       3.056   1.156   0.472  0.00  0.00     0.023 A 
ATOM     11  C   UNL d   1       4.446   1.386  -1.376  0.00  0.00     0.050 A 
ATOM     12  C   UNL d   1       4.311   1.619  -0.027  0.00  0.00     0.009 A 
ENDROOT
BRANCH   5  13
ATOM     13  S   UNL d   1      -2.875  -0.110   0.487  0.00  0.00    -0.083 SA
BRANCH  13  14
ATOM     14  C   UNL d   1      -3.551  -1.613  -0.312  0.00  0.00     0.186 C 
BRANCH  14  15
ATOM     15  C   UNL d   1      -5.042  -1.756   0.004  0.00  0.00     0.238 C 
ATOM     16  N   UNL d   1      -5.977  -1.530  -1.030  0.00  0.00    -0.279 N 
ATOM     17  C   UNL d   1      -5.681  -1.627  -2.436  0.00  0.00     0.059 A 
ATOM     18  C   UNL d   1      -7.369  -1.270  -0.723  0.00  0.00     0.059 A 
ATOM     19  C   UNL d   1      -6.296  -0.787  -3.385  0.00  0.00     0.033 A 
ATOM     20  C   UNL d   1      -4.843  -2.650  -2.918  0.00  0.00     0.031 A 
ATOM     21  C   UNL d   1      -6.032  -0.933  -4.755  0.00  0.00     0.021 A 
ATOM     22  S   UNL d   1      -7.432   0.481  -2.887  0.00  0.00    -0.086 SA
ATOM     23  C   UNL d   1      -5.173  -1.933  -5.203  0.00  0.00     0.002 A 
ATOM     24  C   UNL d   1      -4.583  -2.793  -4.286  0.00  0.00     0.002 A 
ATOM     25  C   UNL d   1      -8.140  -0.387  -1.504  0.00  0.00     0.033 A 
ATOM     26  C   UNL d   1      -9.487  -0.141  -1.198  0.00  0.00     0.021 A 
ATOM     27  C   UNL d   1     -10.096  -0.788  -0.127  0.00  0.00     0.002 A 
ATOM     28  C   UNL d   1      -9.359  -1.679   0.642  0.00  0.00     0.002 A 
ATOM     29  C   UNL d   1      -8.011  -1.914   0.350  0.00  0.00     0.031 A 
ATOM     30  O   UNL d   1      -5.352  -1.962   1.183  0.00  0.00    -0.272 OA
ENDBRANCH  14  15
ENDBRANCH  13  14
ENDBRANCH   5  13
BRANCH   1  31
ATOM     31  C   UNL d   1      -0.206   1.803   1.134  0.00  0.00     0.043 A 
ATOM     32  C   UNL d   1       0.509   2.953   0.767  0.00  0.00     0.030 A 
ATOM     33  C   UNL d   1       0.600   4.039   1.641  0.00  0.00     0.002 A 
ATOM     34  C   UNL d   1      -0.049   4.002   2.871  0.00  0.00     0.000 A 
ATOM     35  C   UNL d   1      -0.802   2.884   3.224  0.00  0.00     0.002 A 
ATOM     36  C   UNL d   1      -0.882   1.785   2.362  0.00  0.00     0.030 A 
ENDBRANCH   1  31
TORSDOF 4
