REMARK  10 active torsions:
REMARK  status: ('A' for Active; 'I' for Inactive)
REMARK    1  A    between atoms: C_1  and  O_21 
REMARK    2  A    between atoms: O_15  and  C_7 
REMARK    3  A    between atoms: C_24  and  C_9 
REMARK    4  A    between atoms: C_17  and  O_15 
REMARK    5  A    between atoms: C_18  and  O_20 
REMARK    6  A    between atoms: O_20  and  C_19 
REMARK    7  A    between atoms: C_31  and  C_24 
REMARK    8  A    between atoms: C_28  and  C_31 
REMARK    9  A    between atoms: C_33  and  C_28 
REMARK   10  A    between atoms: C_34  and  C_33 
ROOT
ATOM      1  C   UNL d   1       9.101  -3.343   1.839  0.00  0.00     0.094 C 
ATOM      2  C   UNL d   1       7.895  -2.585   2.500  0.00  0.00    -0.006 C 
ATOM      3  C   UNL d   1       7.407  -3.794   6.871  0.00  0.00    -0.036 C 
ATOM      4  C   UNL d   1       8.170  -4.348   4.462  0.00  0.00    -0.002 C 
ATOM      5  C   UNL d   1       7.922  -2.857   4.056  0.00  0.00     0.001 C 
ATOM      6  C   UNL d   1       8.558  -4.324   5.963  0.00  0.00    -0.001 C 
ATOM      7  C   UNL d   1       9.197  -4.847   2.159  0.00  0.00     0.167 C 
ATOM      8  C   UNL d   1       9.251  -5.067   3.661  0.00  0.00     0.041 C 
ATOM      9  C   UNL d   1       7.075  -5.019   7.827  0.00  0.00    -0.002 C 
ATOM     10  C   UNL d   1       6.262  -3.216   6.024  0.00  0.00     0.010 C 
ATOM     11  C   UNL d   1       9.161  -3.070   0.330  0.00  0.00     0.074 C 
ATOM     12  C   UNL d   1       6.720  -2.292   4.873  0.00  0.00     0.007 C 
ATOM     13  C   UNL d   1       8.112  -1.051   2.197  0.00  0.00     0.015 C 
ATOM     14  C   UNL d   1       9.034  -5.644   6.583  0.00  0.00     0.006 C 
ATOM     15  C   UNL d   1       8.509  -5.588   8.010  0.00  0.00     0.006 C 
ATOM     16  C   UNL d   1       9.480  -1.592   0.104  0.00  0.00     0.135 C 
ATOM     17  C   UNL d   1       8.361  -0.731   0.702  0.00  0.00     0.033 C 
ATOM     18  C   UNL d   1       6.516  -2.980   1.914  0.00  0.00     0.019 C 
ATOM     19  C   UNL d   1       7.971  -2.617   7.727  0.00  0.00     0.016 C 
ENDROOT
BRANCH   9  20
ATOM     20  C   UNL d   1       6.114  -6.171   7.326  0.00  0.00    -0.014 C 
ATOM     21  C   UNL d   1       6.189  -7.414   8.247  0.00  0.00     0.010 C 
BRANCH  20  22
ATOM     22  C   UNL d   1       4.615  -5.851   7.135  0.00  0.00     0.005 C 
BRANCH  22  23
ATOM     23  C   UNL d   1       3.836  -5.414   8.373  0.00  0.00     0.001 C 
BRANCH  23  24
ATOM     24  C   UNL d   1       2.376  -5.145   7.983  0.00  0.00     0.004 C 
BRANCH  24  25
ATOM     25  C   UNL d   1       1.453  -4.843   9.175  0.00  0.00    -0.023 C 
ATOM     26  C   UNL d   1       1.900  -3.603   9.947  0.00  0.00     0.009 C 
ATOM     27  C   UNL d   1       0.017  -4.664   8.679  0.00  0.00     0.009 C 
ENDBRANCH  24  25
ENDBRANCH  23  24
ENDBRANCH  22  23
ENDBRANCH  20  22
ENDBRANCH   9  20
BRANCH   7  28
ATOM     28  O   UNL d   1      10.524  -5.279   1.731  0.00  0.00    -0.313 OA
BRANCH  28  29
ATOM     29  C   UNL d   1      10.685  -6.008   0.604  0.00  0.00     0.255 C 
ATOM     30  O   UNL d   1       9.794  -6.460  -0.085  0.00  0.00    -0.266 OA
ATOM     31  C   UNL d   1      12.157  -6.081   0.283  0.00  0.00     0.126 C 
ENDBRANCH  28  29
ENDBRANCH   7  28
BRANCH   1  32
ATOM     32  O   UNL d   1      10.315  -2.772   2.407  0.00  0.00    -0.386 OA
ATOM     33  H   UNL d   1      11.054  -3.323   2.081  0.00  0.00     0.210 HD
ENDBRANCH   1  32
BRANCH  16  34
ATOM     34  O   UNL d   1       9.693  -1.326  -1.294  0.00  0.00    -0.316 OA
BRANCH  34  35
ATOM     35  C   UNL d   1      10.909  -1.765  -1.754  0.00  0.00     0.255 C 
ATOM     36  O   UNL d   1      11.719  -2.434  -1.119  0.00  0.00    -0.266 OA
ATOM     37  C   UNL d   1      11.147  -1.327  -3.163  0.00  0.00     0.126 C 
ENDBRANCH  34  35
ENDBRANCH  16  34
TORSDOF 10
