REMARK  5 active torsions:
REMARK  status: ('A' for Active; 'I' for Inactive)
REMARK    1  A    between atoms: C_16  and  N_1 
REMARK    2  A    between atoms: N_7  and  C_2 
REMARK       I    between atoms: C_6  and  N_7 
REMARK       I    between atoms: N_10  and  C_6 
REMARK    3  A    between atoms: C_8  and  C_12 
REMARK    4  A    between atoms: C_13  and  N_11 
REMARK    5  A    between atoms: O_34  and  C_31 
ROOT
ATOM      1  C   UNL d   1      -2.243   2.746  -0.004  0.00  0.00     0.323 C 
ATOM      2  N   UNL d   1      -0.901   2.454   0.144  0.00  0.00    -0.306 N 
ATOM      3  N   UNL d   1      -3.085   1.638   0.019  0.00  0.00    -0.331 N 
ATOM      4  N   UNL d   1      -4.947  -0.499  -0.100  0.00  0.00    -0.364 N 
ATOM      5  O   UNL d   1      -2.687   3.878  -0.144  0.00  0.00    -0.247 OA
ATOM      6  C   UNL d   1      -2.677   0.259   0.336  0.00  0.00     0.147 C 
ATOM      7  C   UNL d   1      -4.545   1.888   0.058  0.00  0.00     0.147 C 
ATOM      8  C   UNL d   1      -5.370   0.790  -0.656  0.00  0.00     0.144 C 
ATOM      9  C   UNL d   1      -3.536  -0.790  -0.384  0.00  0.00     0.144 C 
ATOM     10  H   UNL d   1      -0.676   1.651   0.707  0.00  0.00     0.171 HD
ENDROOT
BRANCH   2  11
ATOM     11  C   UNL d   1       0.137   3.362  -0.005  0.00  0.00     0.077 C 
ATOM     12  C   UNL d   1       0.205   4.526  -0.746  0.00  0.00     0.059 C 
ATOM     13  N   UNL d   1       1.411   5.128  -0.395  0.00  0.00    -0.259 N 
ATOM     14  C   UNL d   1      -0.696   5.047  -1.812  0.00  0.00     0.073 C 
ATOM     15  N   UNL d   1       2.235   4.233   0.219  0.00  0.00    -0.302 N 
ATOM     16  C   UNL d   1       1.440   3.205   0.505  0.00  0.00     0.139 C 
ATOM     17  HN  UNL d   1       3.232   4.329   0.414  1.00  0.00     0.186 HD
BRANCH  13  18
ATOM     18  C   UNL d   1       1.851   6.470  -0.598  0.00  0.00     0.056 A 
ATOM     19  C   UNL d   1       0.942   7.513  -0.805  0.00  0.00     0.034 A 
ATOM     20  C   UNL d   1       1.393   8.821  -1.018  0.00  0.00     0.039 A 
ATOM     21  C   UNL d   1       2.757   9.104  -1.011  0.00  0.00     0.068 A 
ATOM     22  C   UNL d   1       3.664   8.076  -0.747  0.00  0.00     0.039 A 
ATOM     23  C   UNL d   1       3.219   6.766  -0.537  0.00  0.00     0.034 A 
BRANCH  21  24
ATOM     24  O   UNL d   1       3.305  10.343  -1.192  0.00  0.00    -0.356 OA
ATOM     25  C   UNL d   1       2.530  11.257  -1.961  0.00  0.00     0.210 C 
ENDBRANCH  21  24
ENDBRANCH  13  18
ENDBRANCH   2  11
BRANCH   4  26
ATOM     26  C   UNL d   1      -5.796  -1.591  -0.195  0.00  0.00     0.103 A 
ATOM     27  N   UNL d   1      -6.755  -1.665  -1.139  0.00  0.00    -0.352 N 
ATOM     28  C   UNL d   1      -7.541  -2.775  -1.160  0.00  0.00     0.106 A 
ATOM     29  HN  UNL d   1      -6.887  -0.912  -1.815  1.00  0.00     0.166 HD
ATOM     30  C   UNL d   1      -7.437  -3.826  -0.259  0.00  0.00     0.063 A 
ATOM     31  C   UNL d   1      -6.463  -3.720   0.730  0.00  0.00     0.021 A 
ATOM     32  C   UNL d   1      -5.644  -2.602   0.756  0.00  0.00     0.049 A 
BRANCH  30  33
ATOM     33  C   UNL d   1      -8.325  -5.027  -0.325  0.00  0.00     0.418 C 
ATOM     34  F   UNL d   1      -9.216  -5.000  -1.352  0.00  0.00    -0.166 F 
ATOM     35  F   UNL d   1      -7.618  -6.182  -0.474  0.00  0.00    -0.166 F 
ATOM     36  F   UNL d   1      -9.062  -5.191   0.808  0.00  0.00    -0.166 F 
ENDBRANCH  30  33
ENDBRANCH   4  26
TORSDOF 5
