REMARK  3 active torsions:
REMARK  status: ('A' for Active; 'I' for Inactive)
REMARK    1  A    between atoms: C_7  and  S_1 
REMARK    2  A    between atoms: N_11  and  S_1 
REMARK    3  A    between atoms: N_12  and  N_2 
ROOT
ATOM      1  N   UNL d   1      -1.263  -0.881  -5.704  0.00  0.00    -0.042 NA
ATOM      2  N   UNL d   1      -1.052  -1.599  -4.508  0.00  0.00    -0.183 NA
ATOM      3  C   UNL d   1      -0.526  -0.661  -3.611  0.00  0.00     0.063 A 
ATOM      4  O   UNL d   1      -1.042   0.570  -5.452  0.00  0.00    -0.229 OA
ATOM      5  C   UNL d   1      -0.564   0.613  -4.165  0.00  0.00     0.118 A 
ATOM      6  C   UNL d   1       0.332   0.273  -1.604  0.00  0.00     0.076 A 
ATOM      7  C   UNL d   1      -0.081  -0.860  -2.322  0.00  0.00     0.052 A 
ATOM      8  C   UNL d   1      -0.150   1.739  -3.484  0.00  0.00     0.042 A 
ATOM      9  C   UNL d   1       0.309   1.562  -2.177  0.00  0.00     0.028 A 
ATOM     10  H   UNL d   1      -0.440  -2.405  -4.607  0.00  0.00     0.151 HD
ENDROOT
BRANCH   6  11
ATOM     11  S   UNL d   1       0.846   0.076   0.076  0.00  0.00     0.239 S 
ATOM     12  O   UNL d   1       1.068   1.378   0.665  0.00  0.00    -0.206 OA
ATOM     13  O   UNL d   1       1.817  -0.987   0.143  0.00  0.00    -0.206 OA
BRANCH  11  14
ATOM     14  N   UNL d   1      -0.552  -0.507   0.799  0.00  0.00    -0.225 NA
ATOM     15  H   UNL d   1      -0.971   0.210   1.392  0.00  0.00     0.136 HD
ATOM     16  H   UNL d   1      -0.354  -1.383   1.282  0.00  0.00     0.136 HD
ENDBRANCH  11  14
ENDBRANCH   6  11
BRANCH   1  17
ATOM     17  N   UNL d   1      -2.586  -1.112  -6.138  0.00  0.00    -0.229 NA
ATOM     18  H   UNL d   1      -2.745  -2.113  -6.223  0.00  0.00     0.141 HD
ATOM     19  H   UNL d   1      -2.710  -0.720  -7.070  0.00  0.00     0.141 HD
ENDBRANCH   1  17
TORSDOF 3
