REMARK  8 active torsions:
REMARK  status: ('A' for Active; 'I' for Inactive)
REMARK    1  A    between atoms: N_5  and  C_1 
REMARK    2  A    between atoms: C_11  and  C_2 
REMARK    3  A    between atoms: C_3  and  N_5 
REMARK    4  A    between atoms: N_8  and  C_3 
REMARK       I    between atoms: C_10  and  N_9 
REMARK    5  A    between atoms: O_20  and  C_10 
REMARK    6  A    between atoms: O_22  and  C_11 
REMARK    7  A    between atoms: C_27  and  O_20 
REMARK    8  A    between atoms: C_28  and  O_22 
ROOT
ATOM      1  C   UNL d   1       1.855   1.038  -0.226  0.00  0.00     0.093 C 
ATOM      2  C   UNL d   1       0.687   1.732  -0.504  0.00  0.00     0.080 C 
ATOM      3  C   UNL d   1      -0.087  -0.441  -0.029  0.00  0.00     0.010 C 
ATOM      4  C   UNL d   1      -0.450   0.886  -0.196  0.00  0.00    -0.023 C 
ATOM      5  S   UNL d   1       1.597  -0.641  -0.032  0.00  0.00    -0.074 SA
ATOM      6  N   UNL d   1      -2.406  -1.109  -0.080  0.00  0.00    -0.323 N 
ATOM      7  C   UNL d   1      -3.082  -1.544  -1.209  0.00  0.00     0.363 C 
ATOM      8  C   UNL d   1      -1.043  -1.594   0.160  0.00  0.00     0.174 C 
ATOM      9  C   UNL d   1      -1.903   1.293  -0.149  0.00  0.00     0.061 C 
ATOM     10  C   UNL d   1      -2.731   0.188   0.530  0.00  0.00     0.133 C 
ATOM     11  O   UNL d   1      -2.685  -2.433  -1.953  0.00  0.00    -0.238 OA
ENDROOT
BRANCH   1  12
ATOM     12  N   UNL d   1       3.197   1.364  -0.149  0.00  0.00    -0.326 N 
ATOM     13  H   UNL d   1       3.845   0.585  -0.178  0.00  0.00     0.169 HD
BRANCH  12  14
ATOM     14  C   UNL d   1       3.739   2.546   0.342  0.00  0.00     0.179 C 
ATOM     15  S   UNL d   1       2.964   3.482   1.524  0.00  0.00    -0.040 SA
BRANCH  14  16
ATOM     16  N   UNL d   1       5.066   2.792  -0.120  0.00  0.00    -0.323 N 
ATOM     17  C   UNL d   1       5.556   2.434  -1.440  0.00  0.00     0.043 A 
ATOM     18  C   UNL d   1       6.924   2.586  -1.756  0.00  0.00    -0.031 A 
ATOM     19  C   UNL d   1       4.707   1.995  -2.470  0.00  0.00     0.030 A 
ATOM     20  C   UNL d   1       7.399   2.263  -3.044  0.00  0.00     0.009 A 
ATOM     21  C   UNL d   1       7.926   3.159  -0.790  0.00  0.00     0.042 C 
ATOM     22  C   UNL d   1       6.538   1.791  -4.028  0.00  0.00     0.001 A 
ATOM     23  C   UNL d   1       5.189   1.662  -3.741  0.00  0.00     0.002 A 
ATOM     24  C   UNL d   1       7.408   3.206   0.631  0.00  0.00     0.025 C 
ATOM     25  C   UNL d   1       5.964   3.672   0.656  0.00  0.00     0.132 C 
ENDBRANCH  14  16
ENDBRANCH  12  14
ENDBRANCH   1  12
BRANCH   2  26
ATOM     26  C   UNL d   1       0.547   3.080  -1.069  0.00  0.00     0.296 C 
ATOM     27  O   UNL d   1      -0.551   3.610  -1.235  0.00  0.00    -0.259 OA
BRANCH  26  28
ATOM     28  O   UNL d   1       1.712   3.632  -1.510  0.00  0.00    -0.318 OA
BRANCH  28  29
ATOM     29  C   UNL d   1       1.599   4.899  -2.176  0.00  0.00     0.174 C 
ATOM     30  C   UNL d   1       1.283   6.030  -1.212  0.00  0.00     0.034 C 
ENDBRANCH  28  29
ENDBRANCH  26  28
ENDBRANCH   2  26
BRANCH   7  31
ATOM     31  O   UNL d   1      -4.223  -0.834  -1.416  0.00  0.00    -0.304 OA
BRANCH  31  32
ATOM     32  C   UNL d   1      -4.852  -0.973  -2.696  0.00  0.00     0.176 C 
ATOM     33  C   UNL d   1      -4.303   0.106  -3.612  0.00  0.00     0.034 C 
ENDBRANCH  31  32
ENDBRANCH   7  31
TORSDOF 8
