REMARK  2 active torsions:
REMARK  status: ('A' for Active; 'I' for Inactive)
REMARK    1  A    between atoms: C_10  and  N_5 
REMARK    2  A    between atoms: C_12  and  C_10 
REMARK       I    between atoms: N_16  and  C_12 
ROOT
ATOM      1  N   UNL d   1       0.676   0.383  -0.036  0.00  0.00    -0.251 N 
ATOM      2  C   UNL d   1       1.286  -0.849  -0.037  0.00  0.00     0.174 A 
ATOM      3  C   UNL d   1       1.425   1.540  -0.045  0.00  0.00     0.324 A 
ATOM      4  C   UNL d   1       2.945   1.334  -0.113  0.00  0.00     0.331 A 
ATOM      5  N   UNL d   1       3.394   0.016  -0.075  0.00  0.00    -0.242 N 
ATOM      6  N   UNL d   1       2.556  -1.073  -0.058  0.00  0.00    -0.273 N 
ATOM      7  HN  UNL d   1       2.925  -2.024  -0.062  1.00  0.00     0.189 HD
ATOM      8  S   UNL d   1       0.116  -2.156  -0.007  0.00  0.00    -0.050 SA
ATOM      9  C   UNL d   1      -0.741   0.321  -0.011  0.00  0.00     0.062 A 
ATOM     10  C   UNL d   1      -1.220  -0.994   0.003  0.00  0.00     0.035 A 
ATOM     11  O   UNL d   1       3.685   2.310  -0.182  0.00  0.00    -0.260 OA
ATOM     12  O   UNL d   1       0.990   2.685   0.011  0.00  0.00    -0.261 OA
ATOM     13  C   UNL d   1      -1.641   1.380  -0.011  0.00  0.00     0.031 A 
ATOM     14  C   UNL d   1      -2.577  -1.280   0.012  0.00  0.00     0.021 A 
ATOM     15  C   UNL d   1      -3.014   1.105  -0.003  0.00  0.00     0.002 A 
ATOM     16  C   UNL d   1      -3.479  -0.216   0.007  0.00  0.00     0.002 A 
ENDROOT
BRANCH   5  17
ATOM     17  C   UNL d   1       4.830  -0.253   0.035  0.00  0.00     0.255 C 
BRANCH  17  18
ATOM     18  C   UNL d   1       5.551  -0.566  -1.276  0.00  0.00     0.235 C 
ATOM     19  O   UNL d   1       6.755  -0.801  -1.325  0.00  0.00    -0.272 OA
ATOM     20  N   UNL d   1       4.807  -0.587  -2.419  0.00  0.00    -0.369 N 
ATOM     21  H   UNL d   1       3.804  -0.693  -2.370  0.00  0.00     0.159 HD
ATOM     22  H   UNL d   1       5.283  -0.892  -3.259  0.00  0.00     0.159 HD
ENDBRANCH  17  18
ENDBRANCH   5  17
TORSDOF 2
