REMARK  4 active torsions:
REMARK  status: ('A' for Active; 'I' for Inactive)
REMARK    1  A    between atoms: C_2  and  C_1 
REMARK    2  A    between atoms: O_4  and  C_2 
REMARK    3  A    between atoms: N_10  and  C_3 
REMARK    4  A    between atoms: C_11  and  O_4 
ROOT
ATOM      1  C   UNL d   1      -0.124  -1.235  -0.123  0.00  0.00     0.147 A 
ATOM      2  C   UNL d   1      -0.925  -0.156   0.290  0.00  0.00     0.111 A 
ATOM      3  N   UNL d   1       1.156  -1.074  -0.577  0.00  0.00    -0.357 N 
ATOM      4  HN  UNL d   1       1.731  -1.860  -0.881  1.00  0.00     0.165 HD
ATOM      5  N   UNL d   1      -0.448   1.109   0.259  0.00  0.00    -0.354 N 
ATOM      6  HN  UNL d   1      -1.014   1.903   0.556  1.00  0.00     0.166 HD
ATOM      7  C   UNL d   1       1.604   0.200  -0.593  0.00  0.00     0.105 A 
ATOM      8  C   UNL d   1       0.820   1.265  -0.188  0.00  0.00     0.106 A 
ENDROOT
BRANCH   1   9
ATOM      9  C   UNL d   1      -0.694  -2.608  -0.132  0.00  0.00     0.318 C 
ATOM     10  O   UNL d   1      -1.897  -2.843  -0.144  0.00  0.00    -0.257 OA
BRANCH   9  11
ATOM     11  O   UNL d   1       0.342  -3.532  -0.108  0.00  0.00    -0.274 OA
BRANCH  11  12
ATOM     12  C   UNL d   1       0.064  -4.910  -0.007  0.00  0.00     0.079 A 
ATOM     13  C   UNL d   1      -0.992  -5.533  -0.670  0.00  0.00     0.037 A 
ATOM     14  C   UNL d   1      -1.188  -6.906  -0.511  0.00  0.00     0.003 A 
ATOM     15  C   UNL d   1      -0.317  -7.652   0.285  0.00  0.00     0.000 A 
ATOM     16  C   UNL d   1       0.758  -7.029   0.918  0.00  0.00     0.003 A 
ATOM     17  C   UNL d   1       0.954  -5.655   0.769  0.00  0.00     0.037 A 
ENDBRANCH  11  12
ENDBRANCH   9  11
ENDBRANCH   1   9
BRANCH   2  18
ATOM     18  N   UNL d   1      -2.187  -0.287   0.861  0.00  0.00    -0.287 NA
ATOM     19  H   UNL d   1      -2.775  -0.965   0.379  0.00  0.00     0.125 HD
ATOM     20  H   UNL d   1      -2.608   0.630   0.972  0.00  0.00     0.125 HD
ENDBRANCH   2  18
TORSDOF 4
