REMARK  2 active torsions:
REMARK  status: ('A' for Active; 'I' for Inactive)
REMARK       I    between atoms: C_9  and  N_11 
REMARK    1  A    between atoms: C_13  and  C_9 
REMARK    2  A    between atoms: N_11  and  C_10 
ROOT
ATOM      1  C   UNL d   1      -5.070  -0.583  -0.208  0.00  0.00     0.256 C 
ATOM      2  N   UNL d   1      -3.851  -1.192  -0.455  0.00  0.00    -0.323 N 
ATOM      3  O   UNL d   1      -6.122  -1.138   0.078  0.00  0.00    -0.267 OA
ATOM      4  H   UNL d   1      -3.062  -0.587  -0.644  0.00  0.00     0.169 HD
ENDROOT
BRANCH   2   5
ATOM      5  C   UNL d   1      -3.574  -2.580  -0.451  0.00  0.00     0.037 A 
ATOM      6  C   UNL d   1      -4.535  -3.542  -0.088  0.00  0.00     0.061 A 
ATOM      7  C   UNL d   1      -4.140  -4.901  -0.169  0.00  0.00     0.069 A 
ATOM      8  C   UNL d   1      -2.755  -5.278  -0.613  0.00  0.00     0.067 A 
ATOM      9  N   UNL d   1      -4.907  -5.964   0.121  0.00  0.00    -0.310 N 
ATOM     10  N   UNL d   1      -2.550  -6.603  -0.651  0.00  0.00    -0.310 N 
ATOM     11  C   UNL d   1      -1.808  -4.284  -0.946  0.00  0.00     0.035 A 
ATOM     12  S   UNL d   1      -3.976  -7.308  -0.166  0.00  0.00     0.068 SA
ATOM     13  HN  UNL d   1      -1.692  -7.082  -0.923  1.00  0.00     0.176 HD
ATOM     14  C   UNL d   1      -2.256  -2.951  -0.846  0.00  0.00     0.032 A 
ATOM     15  HN  UNL d   1      -5.871  -5.949   0.453  1.00  0.00     0.176 HD
ENDBRANCH   2   5
BRANCH   1  16
ATOM     16  C   UNL d   1      -5.059   0.905  -0.264  0.00  0.00     0.035 A 
ATOM     17  C   UNL d   1      -4.248   1.609  -1.160  0.00  0.00     0.056 A 
ATOM     18  C   UNL d   1      -4.208   3.001  -1.100  0.00  0.00     0.103 A 
ATOM     19  O   UNL d   1      -3.329   3.624  -1.948  0.00  0.00    -0.346 OA
ATOM     20  C   UNL d   1      -5.020   3.697  -0.197  0.00  0.00     0.102 A 
ATOM     21  C   UNL d   1      -3.028   4.944  -1.478  0.00  0.00     0.202 C 
ATOM     22  C   UNL d   1      -4.308   5.695  -1.150  0.00  0.00     0.202 C 
ATOM     23  O   UNL d   1      -5.020   5.062  -0.081  0.00  0.00    -0.346 OA
ATOM     24  C   UNL d   1      -5.865   2.998   0.662  0.00  0.00     0.040 A 
ATOM     25  C   UNL d   1      -5.886   1.603   0.629  0.00  0.00     0.020 A 
ENDBRANCH   1  16
TORSDOF 2
