REMARK  3 active torsions:
REMARK  status: ('A' for Active; 'I' for Inactive)
REMARK    1  A    between atoms: C_3  and  N_1 
REMARK    2  A    between atoms: C_4  and  C_2 
REMARK    3  A    between atoms: C_6  and  C_4 
ROOT
ATOM      1  C   UNL d   1       0.506  -2.399  -0.143  0.00  0.00     0.048 A 
ATOM      2  C   UNL d   1       0.353  -1.153  -0.763  0.00  0.00     0.117 A 
ATOM      3  C   UNL d   1      -0.522  -3.344  -0.299  0.00  0.00     0.018 A 
ATOM      4  C   UNL d   1      -0.763  -0.861  -1.563  0.00  0.00     0.037 A 
ATOM      5  C   UNL d   1      -1.632  -3.065  -1.104  0.00  0.00     0.001 A 
ATOM      6  C   UNL d   1      -1.751  -1.829  -1.738  0.00  0.00     0.002 A 
ENDROOT
BRANCH   1   7
ATOM      7  C   UNL d   1       1.659  -2.704   0.741  0.00  0.00     0.194 C 
ATOM      8  O   UNL d   1       2.101  -1.808   1.453  0.00  0.00    -0.287 OA
BRANCH   7   9
ATOM      9  C   UNL d   1       2.232  -4.077   0.842  0.00  0.00     0.015 A 
ATOM     10  C   UNL d   1       2.811  -4.469   2.054  0.00  0.00     0.016 A 
ATOM     11  C   UNL d   1       3.319  -5.762   2.206  0.00  0.00     0.007 A 
ATOM     12  C   UNL d   1       3.259  -6.677   1.147  0.00  0.00    -0.062 A 
ATOM     13  C   UNL d   1       2.705  -6.272  -0.072  0.00  0.00     0.007 A 
ATOM     14  C   UNL d   1       3.810  -8.063   1.320  0.00  0.00     0.048 C 
ATOM     15  C   UNL d   1       2.206  -4.976  -0.231  0.00  0.00     0.016 A 
ENDBRANCH   7   9
ENDBRANCH   1   7
BRANCH   2  16
ATOM     16  N   UNL d   1       1.376  -0.132  -0.662  0.00  0.00    -0.115 N 
ATOM     17  O   UNL d   1       2.464  -0.379  -1.205  0.00  0.00    -0.532 OA
ATOM     18  O   UNL d   1       1.042   0.948  -0.155  0.00  0.00    -0.532 OA
ENDBRANCH   2  16
TORSDOF 3
