REMARK  5 active torsions:
REMARK  status: ('A' for Active; 'I' for Inactive)
REMARK    1  A    between atoms: N_11  and  N_1 
REMARK    2  A    between atoms: C_18  and  C_2 
REMARK    3  A    between atoms: C_6  and  C_15 
REMARK    4  A    between atoms: C_19  and  N_7 
REMARK    5  A    between atoms: C_17  and  C_10 
ROOT
ATOM      1  N   UNL d   1       4.652  -5.144  -0.627  0.00  0.00    -0.292 N 
ATOM      2  HN  UNL d   1       5.121  -5.898  -1.129  1.00  0.00     0.187 HD
ATOM      3  C   UNL d   1       3.154  -3.539  -0.021  0.00  0.00     0.027 A 
ATOM      4  N   UNL d   1       5.152  -4.409   0.393  0.00  0.00    -0.266 N 
ATOM      5  C   UNL d   1       3.413  -4.677  -0.843  0.00  0.00     0.072 A 
ATOM      6  C   UNL d   1       4.271  -3.424   0.776  0.00  0.00     0.132 A 
ENDROOT
BRANCH   3   7
ATOM      7  C   UNL d   1       2.006  -2.662   0.043  0.00  0.00     0.123 C 
ATOM      8  N   UNL d   1       1.315  -2.501  -1.036  0.00  0.00    -0.300 N 
ATOM      9  HN  UNL d   1       1.633  -2.936  -1.902  1.00  0.00     0.186 HD
BRANCH   8  10
ATOM     10  N   UNL d   1       0.176  -1.766  -1.041  0.00  0.00    -0.211 N 
ATOM     11  C   UNL d   1      -0.344  -1.190  -2.179  0.00  0.00     0.154 A 
ATOM     12  N   UNL d   1      -1.468  -0.551  -1.977  0.00  0.00    -0.281 N 
ATOM     13  N   UNL d   1      -1.741  -0.741  -0.652  0.00  0.00    -0.273 N 
ATOM     14  HN  UNL d   1      -2.019  -0.029  -2.659  1.00  0.00     0.188 HD
ATOM     15  C   UNL d   1      -0.772  -1.546  -0.055  0.00  0.00     0.214 A 
ATOM     16  H   UNL d   1      -2.605  -0.420  -0.232  0.00  0.00     0.189 HD
ATOM     17  S   UNL d   1      -0.921  -2.096   1.503  0.00  0.00    -0.037 SA
BRANCH  11  18
ATOM     18  C   UNL d   1       0.298  -1.261  -3.511  0.00  0.00     0.014 A 
ATOM     19  C   UNL d   1       1.015  -2.370  -3.950  0.00  0.00     0.032 A 
ATOM     20  C   UNL d   1       1.546  -2.353  -5.228  0.00  0.00     0.088 A 
ATOM     21  N   UNL d   1       1.397  -1.319  -6.084  0.00  0.00    -0.375 N 
ATOM     22  C   UNL d   1       0.680  -0.264  -5.644  0.00  0.00     0.088 A 
ATOM     23  HN  UNL d   1       1.808  -1.335  -7.018  1.00  0.00     0.164 HD
ATOM     24  C   UNL d   1       0.111  -0.189  -4.383  0.00  0.00     0.032 A 
ENDBRANCH  11  18
ENDBRANCH   8  10
ENDBRANCH   3   7
BRANCH   5  25
ATOM     25  C   UNL d   1       2.526  -5.342  -1.804  0.00  0.00    -0.007 A 
ATOM     26  C   UNL d   1       1.144  -5.405  -1.576  0.00  0.00     0.014 A 
ATOM     27  C   UNL d   1       0.282  -5.942  -2.530  0.00  0.00     0.007 A 
ATOM     28  C   UNL d   1       0.792  -6.492  -3.708  0.00  0.00    -0.062 A 
ATOM     29  C   UNL d   1       2.176  -6.496  -3.915  0.00  0.00     0.007 A 
ATOM     30  C   UNL d   1      -0.154  -7.059  -4.723  0.00  0.00     0.048 C 
ATOM     31  C   UNL d   1       3.037  -5.921  -2.972  0.00  0.00     0.014 A 
ENDBRANCH   5  25
BRANCH   4  32
ATOM     32  C   UNL d   1       6.425  -4.710   0.952  0.00  0.00     0.056 A 
ATOM     33  C   UNL d   1       6.918  -4.006   2.060  0.00  0.00     0.031 A 
ATOM     34  C   UNL d   1       8.155  -4.348   2.612  0.00  0.00     0.002 A 
ATOM     35  C   UNL d   1       8.908  -5.384   2.062  0.00  0.00     0.000 A 
ATOM     36  C   UNL d   1       8.430  -6.080   0.954  0.00  0.00     0.002 A 
ATOM     37  C   UNL d   1       7.193  -5.747   0.399  0.00  0.00     0.031 A 
ENDBRANCH   4  32
TORSDOF 5
