REMARK  6 active torsions:
REMARK  status: ('A' for Active; 'I' for Inactive)
REMARK    1  A    between atoms: N_5  and  C_1 
REMARK    2  A    between atoms: N_6  and  C_1 
REMARK    3  A    between atoms: N_2  and  N_5 
REMARK    4  A    between atoms: N_9  and  N_6 
REMARK    5  A    between atoms: C_8  and  C_7 
REMARK    6  A    between atoms: O_15  and  C_10 
ROOT
ATOM      1  N   UNL d   1      -1.223   0.058  -1.567  0.00  0.00    -0.309 N 
ATOM      2  HN  UNL d   1      -1.705   0.861  -1.163  1.00  0.00     0.186 HD
ATOM      3  C   UNL d   1      -1.865  -0.889  -2.172  0.00  0.00     0.118 C 
ENDROOT
BRANCH   1   4
ATOM      4  N   UNL d   1       0.130  -0.075  -1.498  0.00  0.00    -0.276 N 
ATOM      5  H   UNL d   1       0.602  -0.875  -1.907  0.00  0.00     0.189 HD
BRANCH   4   6
ATOM      6  C   UNL d   1       0.880   0.866  -0.817  0.00  0.00     0.201 C 
ATOM      7  S   UNL d   1       2.533   0.693  -0.670  0.00  0.00    -0.038 SA
BRANCH   6   8
ATOM      8  N   UNL d   1       0.115   1.892  -0.289  0.00  0.00    -0.299 N 
ATOM      9  H   UNL d   1      -0.864   1.872  -0.579  0.00  0.00     0.183 HD
BRANCH   8  10
ATOM     10  N   UNL d   1       0.638   2.991   0.410  0.00  0.00    -0.248 NA
ATOM     11  H   UNL d   1       1.655   2.989   0.278  0.00  0.00     0.143 HD
ATOM     12  H   UNL d   1       0.503   2.813   1.408  0.00  0.00     0.143 HD
ENDBRANCH   8  10
ENDBRANCH   6   8
ENDBRANCH   4   6
ENDBRANCH   1   4
BRANCH   3  13
ATOM     13  C   UNL d   1      -3.338  -0.841  -2.275  0.00  0.00    -0.019 A 
ATOM     14  C   UNL d   1      -4.043   0.235  -1.727  0.00  0.00     0.015 A 
ATOM     15  C   UNL d   1      -5.436   0.275  -1.802  0.00  0.00     0.037 A 
ATOM     16  C   UNL d   1      -6.129  -0.764  -2.423  0.00  0.00     0.068 A 
ATOM     17  C   UNL d   1      -5.418  -1.825  -2.993  0.00  0.00     0.037 A 
ATOM     18  C   UNL d   1      -4.021  -1.875  -2.914  0.00  0.00     0.015 A 
BRANCH  16  19
ATOM     19  O   UNL d   1      -7.488  -0.829  -2.559  0.00  0.00    -0.356 OA
ATOM     20  C   UNL d   1      -8.239  -0.127  -1.573  0.00  0.00     0.210 C 
ENDBRANCH  16  19
ENDBRANCH   3  13
TORSDOF 6
