REMARK  3 active torsions:
REMARK  status: ('A' for Active; 'I' for Inactive)
REMARK    1  A    between atoms: C_6  and  C_1 
REMARK    2  A    between atoms: C_16  and  C_5 
REMARK       I    between atoms: N_13  and  C_6 
REMARK    3  A    between atoms: C_8  and  N_14 
ROOT
ATOM      1  C   UNL d   1      -0.306  -2.471   0.157  0.00  0.00     0.262 C 
ATOM      2  N   UNL d   1       0.915  -3.089  -0.191  0.00  0.00    -0.344 N 
ATOM      3  N   UNL d   1       3.267  -4.811  -0.800  0.00  0.00     0.105 N 
ATOM      4  O   UNL d   1      -1.215  -2.390  -0.674  0.00  0.00    -0.267 OA
ATOM      5  C   UNL d   1       2.026  -3.261   0.747  0.00  0.00     0.156 C 
ATOM      6  C   UNL d   1       0.893  -3.953  -1.372  0.00  0.00     0.156 C 
ATOM      7  C   UNL d   1       2.248  -4.556  -1.826  0.00  0.00     0.293 C 
ATOM      8  C   UNL d   1       3.349  -3.646   0.090  0.00  0.00     0.293 C 
ENDROOT
BRANCH   1   9
ATOM      9  C   UNL d   1      -0.455  -1.888   1.479  0.00  0.00     0.097 C 
ATOM     10  S   UNL d   1      -0.215  -2.799   2.915  0.00  0.00    -0.064 SA
ATOM     11  C   UNL d   1      -0.308  -1.353   3.835  0.00  0.00     0.085 C 
ATOM     12  N   UNL d   1      -0.833  -0.333   3.185  0.00  0.00    -0.352 N 
ATOM     13  C   UNL d   1      -0.957  -0.644   1.834  0.00  0.00     0.029 C 
ATOM     14  HN  UNL d   1      -1.107   0.552   3.610  1.00  0.00     0.166 HD
ATOM     15  C   UNL d   1      -1.531   0.380   0.922  0.00  0.00     0.070 C 
BRANCH  11  16
ATOM     16  C   UNL d   1       0.138  -1.338   5.232  0.00  0.00    -0.002 A 
ATOM     17  C   UNL d   1       1.336  -1.964   5.625  0.00  0.00     0.014 A 
ATOM     18  C   UNL d   1       1.761  -1.925   6.954  0.00  0.00     0.001 A 
ATOM     19  C   UNL d   1       0.996  -1.257   7.907  0.00  0.00     0.000 A 
ATOM     20  C   UNL d   1      -0.184  -0.619   7.527  0.00  0.00     0.001 A 
ATOM     21  C   UNL d   1      -0.607  -0.652   6.198  0.00  0.00     0.014 A 
ENDBRANCH  11  16
ENDBRANCH   1   9
BRANCH   3  22
ATOM     22  C   UNL d   1       3.263  -6.153  -0.180  0.00  0.00     0.290 C 
ATOM     23  C   UNL d   1       4.348  -6.285   0.899  0.00  0.00    -0.009 A 
ATOM     24  C   UNL d   1       3.761  -6.560   2.154  0.00  0.00    -0.017 A 
ATOM     25  C   UNL d   1       5.720  -6.120   0.767  0.00  0.00     0.010 A 
ATOM     26  C   UNL d   1       4.545  -6.666   3.291  0.00  0.00     0.013 A 
ATOM     27  C   UNL d   1       2.334  -6.721   1.978  0.00  0.00    -0.017 C 
ATOM     28  C   UNL d   1       5.926  -6.488   3.166  0.00  0.00     0.001 A 
ATOM     29  C   UNL d   1       6.508  -6.219   1.916  0.00  0.00     0.001 A 
ATOM     30  C   UNL d   1       2.023  -6.578   0.607  0.00  0.00    -0.009 C 
ATOM     31  C   UNL d   1       1.344  -7.010   2.904  0.00  0.00     0.013 C 
ATOM     32  C   UNL d   1       0.752  -6.882   0.143  0.00  0.00     0.010 C 
ATOM     33  C   UNL d   1      -0.249  -7.168   1.073  0.00  0.00     0.001 C 
ATOM     34  C   UNL d   1       0.039  -7.205   2.445  0.00  0.00     0.001 C 
ENDBRANCH   3  22
TORSDOF 3
