REMARK  3 active torsions:
REMARK  status: ('A' for Active; 'I' for Inactive)
REMARK    1  A    between atoms: C_8  and  N_1 
REMARK    2  A    between atoms: C_7  and  C_2 
REMARK    3  A    between atoms: N_10  and  C_9 
ROOT
ATOM      1  N   UNL d   1      -0.113  -1.371  -0.052  0.00  0.00    -0.225 N 
ATOM      2  C   UNL d   1       1.105  -0.726   0.163  0.00  0.00     0.139 C 
ATOM      3  N   UNL d   1      -0.411   0.735  -0.298  0.00  0.00    -0.007 NA
ATOM      4  N   UNL d   1      -1.006  -0.435  -0.463  0.00  0.00     0.001 NA
ATOM      5  N   UNL d   1       0.889   0.575   0.097  0.00  0.00    -0.270 N 
ATOM      6  HN  UNL d   1       1.560   1.316   0.300  1.00  0.00     0.185 HD
ENDROOT
BRANCH   1   7
ATOM      7  C   UNL d   1      -0.518  -2.716   0.158  0.00  0.00     0.057 A 
ATOM      8  C   UNL d   1       0.161  -3.545   1.063  0.00  0.00     0.043 A 
ATOM      9  C   UNL d   1      -0.291  -4.850   1.322  0.00  0.00    -0.024 A 
ATOM     10  C   UNL d   1       0.359  -5.671   2.257  0.00  0.00     0.012 A 
ATOM     11  C   UNL d   1      -1.434  -5.337   0.649  0.00  0.00    -0.026 A 
ATOM     12  C   UNL d   1      -0.114  -6.955   2.531  0.00  0.00     0.001 A 
ATOM     13  C   UNL d   1      -1.238  -7.436   1.866  0.00  0.00     0.001 A 
ATOM     14  C   UNL d   1      -1.891  -6.636   0.927  0.00  0.00     0.012 A 
ATOM     15  C   UNL d   1      -2.099  -4.505  -0.264  0.00  0.00     0.014 A 
ATOM     16  C   UNL d   1      -1.657  -3.199  -0.497  0.00  0.00     0.032 A 
ENDBRANCH   1   7
BRANCH   2  17
ATOM     17  C   UNL d   1       2.321  -1.441   0.268  0.00  0.00     0.068 C 
ATOM     18  C   UNL d   1       3.367  -0.949   0.947  0.00  0.00     0.089 C 
BRANCH  18  19
ATOM     19  N   UNL d   1       4.622  -1.515   1.075  0.00  0.00    -0.390 N 
ATOM     20  C   UNL d   1       5.733  -0.856   1.767  0.00  0.00     0.122 C 
ATOM     21  C   UNL d   1       6.940  -1.178   0.899  0.00  0.00     0.021 C 
ATOM     22  C   UNL d   1       6.646  -2.589   0.419  0.00  0.00     0.021 C 
ATOM     23  C   UNL d   1       5.131  -2.606   0.234  0.00  0.00     0.122 C 
ENDBRANCH  18  19
ENDBRANCH   2  17
TORSDOF 3
