REMARK  6 active torsions:
REMARK  status: ('A' for Active; 'I' for Inactive)
REMARK    1  A    between atoms: C_7  and  C_1 
REMARK    2  A    between atoms: C_8  and  N_2 
REMARK    3  A    between atoms: N_10  and  C_3 
REMARK    4  A    between atoms: O_13  and  C_7 
REMARK    5  A    between atoms: C_9  and  C_8 
REMARK    6  A    between atoms: C_17  and  O_13 
ROOT
ATOM      1  C   UNL d   1      -0.133  -1.384  -0.025  0.00  0.00     0.166 A 
ATOM      2  N   UNL d   1       1.069   0.418   0.049  0.00  0.00    -0.254 N 
ATOM      3  C   UNL d   1       1.169  -0.948   0.162  0.00  0.00     0.149 A 
ATOM      4  N   UNL d   1      -0.209   0.804  -0.144  0.00  0.00    -0.018 NA
ATOM      5  N   UNL d   1      -0.955  -0.290  -0.192  0.00  0.00    -0.275 N 
ATOM      6  HN  UNL d   1      -1.965  -0.319  -0.329  1.00  0.00     0.184 HD
ENDROOT
BRANCH   2   7
ATOM      7  C   UNL d   1       2.128   1.411   0.000  0.00  0.00     0.189 C 
BRANCH   7   8
ATOM      8  C   UNL d   1       2.415   1.961   1.375  0.00  0.00    -0.017 A 
ATOM      9  C   UNL d   1       3.464   1.497   2.183  0.00  0.00     0.042 A 
ATOM     10 CL   UNL d   1       4.615   0.335   1.628  0.00  0.00    -0.084 Cl
ATOM     11  C   UNL d   1       3.622   1.975   3.487  0.00  0.00     0.024 A 
ATOM     12  C   UNL d   1       2.747   2.934   3.994  0.00  0.00     0.002 A 
ATOM     13  C   UNL d   1       1.720   3.427   3.196  0.00  0.00     0.001 A 
ATOM     14  C   UNL d   1       1.553   2.943   1.899  0.00  0.00     0.010 A 
ENDBRANCH   7   8
ENDBRANCH   2   7
BRANCH   3  15
ATOM     15  N   UNL d   1       2.329  -1.617   0.359  0.00  0.00    -0.382 N 
ATOM     16  H   UNL d   1       3.149  -1.176   0.776  0.00  0.00     0.157 HD
ATOM     17  H   UNL d   1       2.287  -2.619   0.564  0.00  0.00     0.157 HD
ENDBRANCH   3  15
BRANCH   1  18
ATOM     18  C   UNL d   1      -0.592  -2.755  -0.129  0.00  0.00     0.315 C 
ATOM     19  O   UNL d   1       0.142  -3.732   0.017  0.00  0.00    -0.257 OA
BRANCH  18  20
ATOM     20  O   UNL d   1      -1.900  -2.829  -0.507  0.00  0.00    -0.317 OA
BRANCH  20  21
ATOM     21  C   UNL d   1      -2.294  -4.059  -1.123  0.00  0.00     0.175 C 
ATOM     22  C   UNL d   1      -1.982  -3.966  -2.606  0.00  0.00     0.034 C 
ENDBRANCH  20  21
ENDBRANCH  18  20
ENDBRANCH   1  18
TORSDOF 6
