REMARK  2 active torsions:
REMARK  status: ('A' for Active; 'I' for Inactive)
REMARK    1  A    between atoms: N_2  and  C_1 
REMARK    2  A    between atoms: N_3  and  C_1 
ROOT
ATOM      1  C   UNL d   1       0.117  -1.473   0.252  0.00  0.00     0.271 C 
ATOM      2  O   UNL d   1       1.098   0.776   0.147  0.00  0.00    -0.362 OA
ATOM      3  O   UNL d   1      -1.231   0.578   0.131  0.00  0.00    -0.362 OA
ATOM      4  C   UNL d   1       1.291  -0.606  -0.185  0.00  0.00     0.239 C 
ATOM      5  C   UNL d   1      -1.183  -0.817  -0.197  0.00  0.00     0.239 C 
ATOM      6  C   UNL d   1      -0.115   1.288  -0.388  0.00  0.00     0.337 C 
ENDROOT
BRANCH   1   7
ATOM      7  N   UNL d   1       0.233  -2.845  -0.320  0.00  0.00    -0.113 N 
ATOM      8  O   UNL d   1      -0.812  -3.476  -0.534  0.00  0.00    -0.534 OA
ATOM      9  O   UNL d   1       1.365  -3.268  -0.593  0.00  0.00    -0.534 OA
ENDBRANCH   1   7
BRANCH   1  10
ATOM     10  N   UNL d   1       0.135  -1.716   1.725  0.00  0.00    -0.113 N 
ATOM     11  O   UNL d   1      -0.948  -1.900   2.302  0.00  0.00    -0.534 OA
ATOM     12  O   UNL d   1       1.234  -1.766   2.296  0.00  0.00    -0.534 OA
ENDBRANCH   1  10
TORSDOF 2
