REMARK  3 active torsions:
REMARK  status: ('A' for Active; 'I' for Inactive)
REMARK    1  A    between atoms: C_8  and  N_1 
REMARK    2  A    between atoms: C_10  and  C_2 
REMARK    3  A    between atoms: C_9  and  C_7 
ROOT
ATOM      1  N   UNL d   1      -0.139  -1.309  -0.085  0.00  0.00    -0.223 N 
ATOM      2  C   UNL d   1       1.085  -0.639  -0.078  0.00  0.00     0.148 A 
ATOM      3  N   UNL d   1      -1.128  -0.390  -0.100  0.00  0.00     0.001 NA
ATOM      4  N   UNL d   1      -0.534   0.789  -0.033  0.00  0.00    -0.007 NA
ATOM      5  N   UNL d   1       0.826   0.655  -0.003  0.00  0.00    -0.269 N 
ATOM      6  HN  UNL d   1       1.510   1.408   0.064  1.00  0.00     0.185 HD
ENDROOT
BRANCH   1   7
ATOM      7  C   UNL d   1      -0.439  -2.688   0.068  0.00  0.00     0.071 A 
ATOM      8  C   UNL d   1      -1.524  -3.298  -0.600  0.00  0.00     0.076 A 
ATOM      9  C   UNL d   1      -1.770  -4.664  -0.361  0.00  0.00     0.018 A 
ATOM     10  C   UNL d   1      -0.956  -5.416   0.492  0.00  0.00     0.001 A 
ATOM     11  C   UNL d   1       0.112  -4.808   1.138  0.00  0.00     0.002 A 
ATOM     12  C   UNL d   1       0.365  -3.451   0.939  0.00  0.00     0.032 A 
BRANCH   8  13
ATOM     13  C   UNL d   1      -2.422  -2.605  -1.609  0.00  0.00     0.419 C 
ATOM     14  F   UNL d   1      -1.824  -1.594  -2.294  0.00  0.00    -0.166 F 
ATOM     15  F   UNL d   1      -2.841  -3.469  -2.584  0.00  0.00    -0.166 F 
ATOM     16  F   UNL d   1      -3.557  -2.107  -1.053  0.00  0.00    -0.166 F 
ENDBRANCH   8  13
ENDBRANCH   1   7
BRANCH   2  17
ATOM     17  C   UNL d   1       2.428  -1.223  -0.172  0.00  0.00     0.011 A 
ATOM     18  C   UNL d   1       2.705  -2.355  -0.958  0.00  0.00     0.018 A 
ATOM     19  C   UNL d   1       3.983  -2.921  -0.966  0.00  0.00     0.043 A 
ATOM     20  C   UNL d   1       4.998  -2.336  -0.221  0.00  0.00     0.116 A 
ATOM     21  C   UNL d   1       4.763  -1.185   0.520  0.00  0.00     0.043 A 
ATOM     22  F   UNL d   1       6.218  -2.886  -0.221  0.00  0.00    -0.206 F 
ATOM     23  C   UNL d   1       3.482  -0.628   0.541  0.00  0.00     0.018 A 
ENDBRANCH   2  17
TORSDOF 3
