REMARK  1 active torsions:
REMARK  status: ('A' for Active; 'I' for Inactive)
REMARK    1  A    between atoms: C_8  and  C_1 
ROOT
ATOM      1  C   UNL d   1       2.328  -0.734   0.022  0.00  0.00     0.165 A 
ATOM      2  N   UNL d   1       1.237  -1.422  -0.023  0.00  0.00    -0.334 N 
ATOM      3  HN  UNL d   1       1.260  -2.441  -0.064  1.00  0.00     0.168 HD
ATOM      4  C   UNL d   1       0.009   0.657   0.006  0.00  0.00     0.069 A 
ATOM      5  C   UNL d   1       0.026  -0.731  -0.013  0.00  0.00     0.068 A 
ATOM      6  O   UNL d   1       2.426   0.610   0.036  0.00  0.00    -0.256 OA
ATOM      7  C   UNL d   1       1.299   1.360   0.022  0.00  0.00     0.302 A 
ATOM      8  C   UNL d   1      -1.201  -1.414  -0.019  0.00  0.00     0.040 A 
ATOM      9  C   UNL d   1      -2.412  -0.716  -0.011  0.00  0.00     0.040 A 
ATOM     10  C   UNL d   1      -1.196   1.373   0.011  0.00  0.00     0.039 A 
ATOM     11  O   UNL d   1       1.336   2.585   0.022  0.00  0.00    -0.259 OA
ATOM     12  C   UNL d   1      -2.401   0.676   0.001  0.00  0.00     0.013 A 
ATOM     13 BR   UNL d   1      -1.267  -3.313  -0.032  0.00  0.00    -0.049 Br
ATOM     14 BR   UNL d   1      -4.034   1.625   0.006  0.00  0.00    -0.051 Br
ENDROOT
BRANCH   1  15
ATOM     15  C   UNL d   1       3.654  -1.380   0.011  0.00  0.00     0.054 A 
ATOM     16  C   UNL d   1       4.755  -0.822   0.660  0.00  0.00     0.130 A 
ATOM     17  F   UNL d   1       4.659   0.342   1.318  0.00  0.00    -0.205 F 
ATOM     18  C   UNL d   1       5.981  -1.486   0.674  0.00  0.00     0.043 A 
ATOM     19  C   UNL d   1       6.112  -2.720   0.037  0.00  0.00     0.003 A 
ATOM     20  C   UNL d   1       5.017  -3.287  -0.615  0.00  0.00     0.001 A 
ATOM     21  C   UNL d   1       3.789  -2.622  -0.625  0.00  0.00     0.019 A 
ENDBRANCH   1  15
TORSDOF 1
