REMARK  5 active torsions:
REMARK  status: ('A' for Active; 'I' for Inactive)
REMARK    1  A    between atoms: N_3  and  N_1 
REMARK       I    between atoms: C_5  and  N_3 
REMARK    2  A    between atoms: C_6  and  C_4 
REMARK    3  A    between atoms: C_15  and  C_5 
REMARK    4  A    between atoms: O_8  and  C_11 
REMARK    5  A    between atoms: C_14  and  O_8 
ROOT
ATOM      1  C   UNL d   1       3.089  -0.841   0.874  0.00  0.00    -0.012 A 
ATOM      2  C   UNL d   1       2.642  -2.159   1.054  0.00  0.00     0.016 A 
ATOM      3  C   UNL d   1       4.293  -0.449   1.476  0.00  0.00     0.016 A 
ATOM      4  C   UNL d   1       4.579  -2.665   2.415  0.00  0.00     0.076 A 
ATOM      5  C   UNL d   1       3.395  -3.073   1.800  0.00  0.00     0.038 A 
ATOM      6  C   UNL d   1       5.035  -1.360   2.236  0.00  0.00     0.038 A 
ENDROOT
BRANCH   1   7
ATOM      7  C   UNL d   1       2.285   0.099   0.011  0.00  0.00     0.032 C 
ATOM      8  N   UNL d   1       1.163  -0.341  -0.480  0.00  0.00    -0.302 N 
ATOM      9  HN  UNL d   1       0.856  -1.288  -0.254  1.00  0.00     0.186 HD
ATOM     10  C   UNL d   1       2.862   1.482  -0.226  0.00  0.00     0.070 C 
BRANCH   8  11
ATOM     11  N   UNL d   1       0.393   0.432  -1.286  0.00  0.00    -0.270 N 
ATOM     12  C   UNL d   1      -0.770  -0.091  -1.841  0.00  0.00     0.235 C 
ATOM     13  O   UNL d   1      -1.210  -1.221  -1.642  0.00  0.00    -0.272 OA
ATOM     14  H   UNL d   1       0.672   1.373  -1.521  0.00  0.00     0.190 HD
BRANCH  12  15
ATOM     15  C   UNL d   1      -1.448   0.913  -2.756  0.00  0.00     0.100 C 
ATOM     16  C   UNL d   1      -2.726   0.372  -3.373  0.00  0.00     0.014 C 
ENDBRANCH  12  15
ENDBRANCH   8  11
ENDBRANCH   1   7
BRANCH   4  17
ATOM     17  O   UNL d   1       5.395  -3.494   3.150  0.00  0.00    -0.311 OA
BRANCH  17  18
ATOM     18  C   UNL d   1       4.833  -4.433   3.986  0.00  0.00     0.076 A 
ATOM     19  C   UNL d   1       5.572  -5.603   4.178  0.00  0.00     0.037 A 
ATOM     20  C   UNL d   1       5.082  -6.611   5.008  0.00  0.00     0.003 A 
ATOM     21  C   UNL d   1       3.854  -6.449   5.649  0.00  0.00     0.000 A 
ATOM     22  C   UNL d   1       3.133  -5.266   5.488  0.00  0.00     0.003 A 
ATOM     23  C   UNL d   1       3.635  -4.248   4.678  0.00  0.00     0.037 A 
ENDBRANCH  17  18
ENDBRANCH   4  17
TORSDOF 5
