REMARK  2 active torsions:
REMARK  status: ('A' for Active; 'I' for Inactive)
REMARK    1  A    between atoms: C_3  and  C_1 
REMARK       I    between atoms: N_8  and  C_3 
REMARK    2  A    between atoms: C_5  and  N_10 
ROOT
ATOM      1  C   UNL d   1       3.629  -5.580  -0.514  0.00  0.00     0.103 A 
ATOM      2  C   UNL d   1       4.229  -6.263   0.558  0.00  0.00     0.083 A 
ATOM      3  C   UNL d   1       3.586  -6.364   1.837  0.00  0.00     0.102 C 
ATOM      4  N   UNL d   1       3.095  -6.425   2.886  0.00  0.00    -0.191 NA
ATOM      5  N   UNL d   1       4.221  -5.542  -1.731  0.00  0.00    -0.355 N 
ATOM      6  HN  UNL d   1       3.779  -5.057  -2.512  1.00  0.00     0.166 HD
ATOM      7  C   UNL d   1       5.462  -6.895   0.370  0.00  0.00     0.027 A 
ATOM      8  C   UNL d   1       5.414  -6.163  -1.886  0.00  0.00     0.089 A 
ATOM      9  C   UNL d   1       6.070  -6.844  -0.876  0.00  0.00     0.019 A 
ENDROOT
BRANCH   1  10
ATOM     10  N   UNL d   1       2.384  -4.970  -0.353  0.00  0.00    -0.265 NA
ATOM     11  C   UNL d   1       1.553  -4.822  -1.561  0.00  0.00     0.117 C 
ATOM     12  C   UNL d   1       0.095  -4.578  -1.112  0.00  0.00     0.141 C 
ATOM     13  N   UNL d   1      -0.059  -3.505  -0.107  0.00  0.00    -0.346 N 
ATOM     14  C   UNL d   1      -1.344  -2.955   0.023  0.00  0.00     0.256 C 
ATOM     15  C   UNL d   1       0.985  -3.445   0.933  0.00  0.00     0.141 C 
ATOM     16  O   UNL d   1      -2.242  -3.193  -0.782  0.00  0.00    -0.267 OA
ATOM     17  C   UNL d   1       2.407  -3.711   0.411  0.00  0.00     0.117 C 
BRANCH  14  18
ATOM     18  C   UNL d   1      -1.670  -2.080   1.168  0.00  0.00     0.061 A 
ATOM     19  C   UNL d   1      -2.328  -0.834   0.975  0.00  0.00     0.082 A 
ATOM     20  N   UNL d   1      -2.692  -0.254  -0.183  0.00  0.00    -0.310 N 
ATOM     21  C   UNL d   1      -2.681   0.025   2.173  0.00  0.00     0.068 A 
ATOM     22  S   UNL d   1      -3.471   1.158   0.198  0.00  0.00     0.068 SA
ATOM     23  HN  UNL d   1      -2.521  -0.615  -1.121  1.00  0.00     0.176 HD
ATOM     24  N   UNL d   1      -3.309   1.165   1.850  0.00  0.00    -0.310 N 
ATOM     25  HN  UNL d   1      -3.625   1.892   2.491  1.00  0.00     0.176 HD
ATOM     26  C   UNL d   1      -2.356  -0.381   3.490  0.00  0.00     0.032 A 
ATOM     27  C   UNL d   1      -1.747  -1.637   3.620  0.00  0.00     0.003 A 
ATOM     28  C   UNL d   1      -1.449  -2.463   2.512  0.00  0.00     0.019 A 
ENDBRANCH  14  18
ENDBRANCH   1  10
TORSDOF 2
