REMARK  2 active torsions:
REMARK  status: ('A' for Active; 'I' for Inactive)
REMARK    1  A    between atoms: C_9  and  C_4 
REMARK    2  A    between atoms: N_5  and  C_10 
ROOT
ATOM      1  C   UNL d   1      -0.124   0.455  -0.019  0.00  0.00     0.055 A 
ATOM      2  N   UNL d   1       2.167  -0.273   0.244  0.00  0.00    -0.335 N 
ATOM      3  C   UNL d   1       1.315   0.780   0.061  0.00  0.00     0.255 C 
ATOM      4  C   UNL d   1       1.816  -1.612  -0.124  0.00  0.00     0.203 C 
ATOM      5  N   UNL d   1       0.456  -1.889   0.302  0.00  0.00    -0.266 NA
ATOM      6  C   UNL d   1      -0.494  -0.894   0.070  0.00  0.00     0.026 A 
ATOM      7  C   UNL d   1      -1.077   1.474  -0.120  0.00  0.00     0.054 A 
ATOM      8  C   UNL d   1      -2.431   1.131  -0.104  0.00  0.00     0.103 A 
ATOM      9  O   UNL d   1       1.719   1.933  -0.003  0.00  0.00    -0.268 OA
ATOM     10  C   UNL d   1      -1.856  -1.212   0.104  0.00  0.00     0.027 A 
ATOM     11  C   UNL d   1      -2.826  -0.210   0.005  0.00  0.00     0.038 A 
ATOM     12  H   UNL d   1       3.143  -0.017   0.203  0.00  0.00     0.164 HD
ATOM     13  H   UNL d   1       0.156  -2.821   0.037  0.00  0.00     0.130 HD
ENDROOT
BRANCH   4  14
ATOM     14  C   UNL d   1       2.800  -2.543   0.529  0.00  0.00     0.019 A 
ATOM     15  S   UNL d   1       3.833  -3.536  -0.411  0.00  0.00    -0.103 SA
ATOM     16  C   UNL d   1       4.508  -4.266   0.982  0.00  0.00     0.050 A 
ATOM     17  C   UNL d   1       3.971  -3.760   2.144  0.00  0.00     0.008 A 
ATOM     18  C   UNL d   1       2.989  -2.764   1.883  0.00  0.00     0.018 A 
ENDBRANCH   4  14
BRANCH   8  19
ATOM     19  N   UNL d   1      -3.454   2.182  -0.165  0.00  0.00    -0.116 N 
ATOM     20  O   UNL d   1      -3.071   3.358  -0.228  0.00  0.00    -0.532 OA
ATOM     21  O   UNL d   1      -4.643   1.830  -0.149  0.00  0.00    -0.532 OA
ENDBRANCH   8  19
TORSDOF 2
