REMARK  3 active torsions:
REMARK  status: ('A' for Active; 'I' for Inactive)
REMARK    1  A    between atoms: C_7  and  N_1 
REMARK    2  A    between atoms: C_6  and  C_3 
REMARK    3  A    between atoms: O_12  and  C_6 
ROOT
ATOM      1  N   UNL d   1      -0.067  -1.081   0.027  0.00  0.00    -0.317 N 
ATOM      2  C   UNL d   1       0.722   0.068   0.152  0.00  0.00     0.225 C 
ATOM      3  C   UNL d   1      -1.508   0.738  -0.367  0.00  0.00     0.111 C 
ATOM      4  C   UNL d   1      -1.472  -0.738  -0.014  0.00  0.00     0.148 C 
ATOM      5  C   UNL d   1      -0.193   1.268   0.173  0.00  0.00     0.120 C 
ATOM      6  O   UNL d   1       1.931   0.181   0.277  0.00  0.00    -0.273 OA
ENDROOT
BRANCH   1   7
ATOM      7  C   UNL d   1       0.394  -2.428   0.041  0.00  0.00     0.037 A 
ATOM      8  C   UNL d   1       1.750  -2.740   0.195  0.00  0.00     0.030 A 
ATOM      9  C   UNL d   1       2.195  -4.067   0.227  0.00  0.00     0.009 A 
ATOM     10  C   UNL d   1       1.295  -5.124   0.094  0.00  0.00    -0.062 A 
ATOM     11  C   UNL d   1      -0.058  -4.831  -0.074  0.00  0.00     0.009 A 
ATOM     12  C   UNL d   1       1.786  -6.538   0.151  0.00  0.00     0.048 C 
ATOM     13  C   UNL d   1      -0.501  -3.501  -0.096  0.00  0.00     0.030 A 
ENDBRANCH   1   7
BRANCH   3  14
ATOM     14  C   UNL d   1      -1.634   0.953  -1.862  0.00  0.00     0.145 C 
ATOM     15  O   UNL d   1      -1.730   0.065  -2.692  0.00  0.00    -0.650 OA
BRANCH  14  16
ATOM     16  O   UNL d   1      -1.701   2.258  -2.210  0.00  0.00    -0.776 OA
ATOM     17  H   UNL d   1      -1.653   2.895  -1.474  0.00  0.00     0.167 HD
ENDBRANCH  14  16
ENDBRANCH   3  14
TORSDOF 3
