REMARK  3 active torsions:
REMARK  status: ('A' for Active; 'I' for Inactive)
REMARK    1  A    between atoms: C_3  and  N_1 
REMARK    2  A    between atoms: C_13  and  C_5 
REMARK    3  A    between atoms: C_9  and  C_6 
ROOT
ATOM      1  C   UNL d   1       4.727   2.085  -2.851  0.00  0.00    -0.026 A 
ATOM      2  C   UNL d   1       3.470   2.582  -2.458  0.00  0.00     0.013 A 
ATOM      3  C   UNL d   1       5.125   0.845  -2.314  0.00  0.00     0.013 A 
ATOM      4  C   UNL d   1       3.062   0.638  -1.077  0.00  0.00    -0.021 A 
ATOM      5  C   UNL d   1       4.303   0.124  -1.438  0.00  0.00     0.013 A 
ATOM      6  C   UNL d   1       2.644   1.871  -1.579  0.00  0.00     0.013 A 
ENDROOT
BRANCH   4   7
ATOM      7  C   UNL d   1       2.164  -0.105  -0.172  0.00  0.00     0.099 C 
ATOM      8  N   UNL d   1       2.550  -1.161   0.471  0.00  0.00    -0.365 N 
ATOM      9  HN  UNL d   1       3.499  -1.519   0.363  1.00  0.00     0.165 HD
BRANCH   8  10
ATOM     10  C   UNL d   1       1.631  -1.805   1.325  0.00  0.00     0.037 A 
ATOM     11  C   UNL d   1       1.566  -3.211   1.356  0.00  0.00    -0.034 A 
ATOM     12  C   UNL d   1       0.649  -3.847   2.213  0.00  0.00     0.028 A 
ATOM     13  C   UNL d   1       2.450  -4.079   0.502  0.00  0.00     0.050 C 
ATOM     14  C   UNL d   1      -0.181  -3.097   3.044  0.00  0.00     0.011 A 
ATOM     15  C   UNL d   1      -0.101  -1.710   3.045  0.00  0.00     0.021 A 
ATOM     16 BR   UNL d   1      -1.410  -3.967   4.187  0.00  0.00    -0.051 Br
ATOM     17  C   UNL d   1       0.811  -1.075   2.198  0.00  0.00     0.031 A 
ENDBRANCH   8  10
ENDBRANCH   4   7
BRANCH   1  18
ATOM     18  C   UNL d   1       5.594   2.830  -3.797  0.00  0.00    -0.026 A 
ATOM     19  C   UNL d   1       5.648   4.236  -3.799  0.00  0.00     0.012 A 
ATOM     20  C   UNL d   1       6.463   4.936  -4.696  0.00  0.00     0.001 A 
ATOM     21  C   UNL d   1       7.254   4.243  -5.607  0.00  0.00     0.000 A 
ATOM     22  C   UNL d   1       7.224   2.853  -5.626  0.00  0.00     0.001 A 
ATOM     23  C   UNL d   1       6.398   2.158  -4.736  0.00  0.00     0.012 A 
ENDBRANCH   1  18
TORSDOF 3
