REMARK  2 active torsions:
REMARK  status: ('A' for Active; 'I' for Inactive)
REMARK    1  A    between atoms: O_17  and  C_9 
REMARK    2  A    between atoms: C_20  and  O_17 
ROOT
ATOM      1  C   UNL d   1       1.177   1.000  -0.001  0.00  0.00     0.085 A 
ATOM      2  C   UNL d   1      -1.271   0.836   0.011  0.00  0.00     0.088 A 
ATOM      3  C   UNL d   1      -0.701  -0.433   0.001  0.00  0.00     0.032 A 
ATOM      4  S   UNL d   1      -0.134   2.096   0.026  0.00  0.00    -0.065 SA
ATOM      5  C   UNL d   1       0.743  -0.322  -0.007  0.00  0.00     0.068 A 
ATOM      6  N   UNL d   1      -2.583   1.140   0.011  0.00  0.00    -0.354 N 
ATOM      7  HN  UNL d   1      -2.923   2.102   0.018  1.00  0.00     0.166 HD
ATOM      8  C   UNL d   1      -1.601  -1.534  -0.002  0.00  0.00    -0.045 A 
ATOM      9  C   UNL d   1       2.542   1.257  -0.025  0.00  0.00     0.163 A 
ATOM     10  N   UNL d   1       3.416   0.235  -0.040  0.00  0.00    -0.332 N 
ATOM     11  HN  UNL d   1       4.423   0.397  -0.057  1.00  0.00     0.168 HD
ATOM     12  N   UNL d   1       1.622  -1.360  -0.021  0.00  0.00    -0.350 N 
ATOM     13  HN  UNL d   1       1.320  -2.335  -0.023  1.00  0.00     0.166 HD
ATOM     14  C   UNL d   1       2.910  -1.006  -0.033  0.00  0.00     0.183 A 
ATOM     15  C   UNL d   1      -2.976  -1.237  -0.003  0.00  0.00     0.032 A 
ATOM     16  C   UNL d   1      -3.411   0.083   0.002  0.00  0.00     0.006 A 
ATOM     17  C   UNL d   1      -1.198  -2.985  -0.005  0.00  0.00     0.049 C 
ATOM     18  C   UNL d   1      -4.882   0.380  -0.003  0.00  0.00     0.068 C 
ENDROOT
BRANCH   9  19
ATOM     19  O   UNL d   1       3.003   2.555   0.035  0.00  0.00    -0.335 OA
BRANCH  19  20
ATOM     20  C   UNL d   1       4.269   2.729  -0.598  0.00  0.00     0.173 C 
ATOM     21  C   UNL d   1       4.600   4.210  -0.539  0.00  0.00     0.034 C 
ENDBRANCH  19  20
ENDBRANCH   9  19
TORSDOF 2
