REMARK  7 active torsions:
REMARK  status: ('A' for Active; 'I' for Inactive)
REMARK    1  A    between atoms: O_11  and  C_2 
REMARK    2  A    between atoms: C_8  and  C_3 
REMARK    3  A    between atoms: C_13  and  C_6 
REMARK    4  A    between atoms: C_21  and  O_11 
REMARK    5  A    between atoms: C_14  and  C_21 
REMARK    6  A    between atoms: O_24  and  C_14 
REMARK    7  A    between atoms: C_26  and  O_24 
ROOT
ATOM      1  C   UNL d   1       0.575   0.041   0.077  0.00  0.00     0.108 A 
ATOM      2  C   UNL d   1      -0.213  -1.103   0.132  0.00  0.00     0.165 A 
ATOM      3  C   UNL d   1      -0.073   1.282  -0.013  0.00  0.00     0.025 A 
ATOM      4  N   UNL d   1      -1.562  -1.097   0.069  0.00  0.00    -0.335 N 
ATOM      5  HN  UNL d   1      -2.092  -1.969   0.088  1.00  0.00     0.168 HD
ATOM      6  C   UNL d   1      -2.191   0.097  -0.019  0.00  0.00     0.045 A 
ATOM      7  C   UNL d   1      -1.475   1.289  -0.058  0.00  0.00     0.046 A 
ATOM      8  C   UNL d   1       1.998  -0.072   0.099  0.00  0.00     0.105 C 
ATOM      9  N   UNL d   1       3.162  -0.106   0.118  0.00  0.00    -0.191 NA
ENDROOT
BRANCH   2  10
ATOM     10  O   UNL d   1       0.410  -2.333   0.206  0.00  0.00    -0.325 OA
BRANCH  10  11
ATOM     11  C   UNL d   1      -0.411  -3.352   0.777  0.00  0.00     0.288 C 
BRANCH  11  12
ATOM     12  C   UNL d   1      -0.640  -3.198   2.276  0.00  0.00     0.283 C 
ATOM     13  O   UNL d   1      -0.203  -2.288   2.971  0.00  0.00    -0.263 OA
BRANCH  12  14
ATOM     14  O   UNL d   1      -1.290  -4.304   2.750  0.00  0.00    -0.320 OA
BRANCH  14  15
ATOM     15  C   UNL d   1      -1.140  -4.537   4.159  0.00  0.00     0.174 C 
ATOM     16  C   UNL d   1       0.138  -5.332   4.367  0.00  0.00     0.034 C 
ENDBRANCH  14  15
ENDBRANCH  12  14
ENDBRANCH  11  12
ENDBRANCH  10  11
ENDBRANCH   2  10
BRANCH   3  17
ATOM     17  C   UNL d   1       0.633   2.563  -0.053  0.00  0.00     0.086 A 
ATOM     18  O   UNL d   1      -0.009   3.568  -0.726  0.00  0.00    -0.322 OA
ATOM     19  C   UNL d   1       0.773   4.675  -0.653  0.00  0.00     0.142 A 
ATOM     20  C   UNL d   1       1.915   4.406   0.059  0.00  0.00     0.027 A 
ATOM     21  C   UNL d   1       1.826   3.048   0.449  0.00  0.00     0.040 A 
ENDBRANCH   3  17
BRANCH   6  22
ATOM     22  C   UNL d   1      -3.663   0.047  -0.071  0.00  0.00    -0.009 A 
ATOM     23  C   UNL d   1      -4.327  -1.041  -0.665  0.00  0.00     0.014 A 
ATOM     24  C   UNL d   1      -5.723  -1.109  -0.706  0.00  0.00     0.007 A 
ATOM     25  C   UNL d   1      -6.497  -0.086  -0.152  0.00  0.00    -0.062 A 
ATOM     26  C   UNL d   1      -5.855   1.008   0.431  0.00  0.00     0.007 A 
ATOM     27  C   UNL d   1      -7.992  -0.178  -0.169  0.00  0.00     0.048 C 
ATOM     28  C   UNL d   1      -4.459   1.071   0.472  0.00  0.00     0.014 A 
ENDBRANCH   6  22
TORSDOF 7
