REMARK  4 active torsions:
REMARK  status: ('A' for Active; 'I' for Inactive)
REMARK    1  A    between atoms: C_7  and  C_1 
REMARK    2  A    between atoms: C_8  and  C_3 
REMARK    3  A    between atoms: O_13  and  C_7 
REMARK    4  A    between atoms: C_17  and  O_13 
ROOT
ATOM      1  C   UNL d   1       1.450   1.042   0.062  0.00  0.00     0.068 C 
ATOM      2  C   UNL d   1       1.361  -0.304   0.006  0.00  0.00     0.024 C 
ATOM      3  C   UNL d   1       0.216   1.910  -0.050  0.00  0.00     0.177 C 
ATOM      4  C   UNL d   1      -1.075  -0.215  -0.056  0.00  0.00     0.321 C 
ATOM      5  N   UNL d   1       0.113  -0.876  -0.103  0.00  0.00    -0.312 N 
ATOM      6  N   UNL d   1      -1.001   1.126   0.108  0.00  0.00    -0.328 N 
ATOM      7  O   UNL d   1      -2.147  -0.800  -0.119  0.00  0.00    -0.247 OA
ATOM      8  C   UNL d   1       2.488  -1.303   0.015  0.00  0.00     0.069 C 
ATOM      9  H   UNL d   1       0.023  -1.884  -0.171  0.00  0.00     0.170 HD
ATOM     10  H   UNL d   1      -1.888   1.611   0.073  0.00  0.00     0.165 HD
ENDROOT
BRANCH   3  11
ATOM     11  C   UNL d   1       0.160   3.101   0.903  0.00  0.00     0.037 A 
ATOM     12  N   UNL d   1      -0.003   4.330   0.338  0.00  0.00    -0.367 N 
ATOM     13  C   UNL d   1      -0.012   5.399   1.161  0.00  0.00     0.088 A 
ATOM     14  HN  UNL d   1      -0.114   4.437  -0.670  1.00  0.00     0.165 HD
ATOM     15  C   UNL d   1       0.118   5.312   2.535  0.00  0.00     0.017 A 
ATOM     16  C   UNL d   1       0.251   4.051   3.103  0.00  0.00     0.003 A 
ATOM     17  C   UNL d   1       0.267   2.928   2.283  0.00  0.00     0.027 A 
ENDBRANCH   3  11
BRANCH   1  18
ATOM     18  C   UNL d   1       2.763   1.718   0.227  0.00  0.00     0.293 C 
ATOM     19  O   UNL d   1       3.709   1.237   0.832  0.00  0.00    -0.259 OA
BRANCH  18  20
ATOM     20  O   UNL d   1       2.751   2.942  -0.352  0.00  0.00    -0.318 OA
BRANCH  20  21
ATOM     21  C   UNL d   1       3.941   3.732  -0.193  0.00  0.00     0.174 C 
ATOM     22  C   UNL d   1       4.117   4.235   1.232  0.00  0.00     0.034 C 
ENDBRANCH  20  21
ENDBRANCH  18  20
ENDBRANCH   1  18
TORSDOF 4
