REMARK  3 active torsions:
REMARK  status: ('A' for Active; 'I' for Inactive)
REMARK    1  A    between atoms: C_10  and  C_2 
REMARK    2  A    between atoms: O_12  and  C_5 
REMARK    3  A    between atoms: C_16  and  C_10 
ROOT
ATOM      1  N   UNL d   1      -0.098  -1.046  -0.088  0.00  0.00    -0.276 N 
ATOM      2  C   UNL d   1      -2.154  -2.381  -0.064  0.00  0.00     0.049 A 
ATOM      3  C   UNL d   1      -0.649  -2.336  -0.140  0.00  0.00     0.262 A 
ATOM      4  C   UNL d   1      -0.903   0.072  -0.047  0.00  0.00     0.067 A 
ATOM      5  C   UNL d   1      -2.906  -1.257  -0.046  0.00  0.00     0.090 A 
ATOM      6  C   UNL d   1      -2.298   0.081  -0.037  0.00  0.00     0.026 A 
ATOM      7  C   UNL d   1       1.233  -0.650  -0.071  0.00  0.00     0.054 A 
ATOM      8  C   UNL d   1      -0.106   1.202  -0.023  0.00  0.00     0.005 A 
ATOM      9  C   UNL d   1       1.248   0.752  -0.031  0.00  0.00     0.004 A 
ATOM     10  O   UNL d   1       0.072  -3.317  -0.252  0.00  0.00    -0.267 OA
ATOM     11  C   UNL d   1      -2.909   1.340  -0.001  0.00  0.00     0.017 A 
ATOM     12  C   UNL d   1      -0.741   2.458   0.011  0.00  0.00     0.014 A 
ATOM     13  C   UNL d   1       2.424  -1.397  -0.076  0.00  0.00     0.031 A 
ATOM     14  C   UNL d   1       2.491   1.420  -0.002  0.00  0.00     0.014 A 
ATOM     15  C   UNL d   1      -2.141   2.510   0.022  0.00  0.00     0.002 A 
ATOM     16  C   UNL d   1       3.641  -0.710  -0.039  0.00  0.00     0.002 A 
ATOM     17  C   UNL d   1       3.677   0.680  -0.004  0.00  0.00     0.001 A 
ENDROOT
BRANCH   2  18
ATOM     18  C   UNL d   1      -2.745  -3.770  -0.002  0.00  0.00     0.085 C 
BRANCH  18  19
ATOM     19  C   UNL d   1      -2.829  -4.282   1.421  0.00  0.00    -0.054 A 
ATOM     20  C   UNL d   1      -3.953  -4.000   2.211  0.00  0.00     0.007 A 
ATOM     21  C   UNL d   1      -3.999  -4.395   3.548  0.00  0.00     0.001 A 
ATOM     22  C   UNL d   1      -2.922  -5.077   4.110  0.00  0.00     0.000 A 
ATOM     23  C   UNL d   1      -1.804  -5.375   3.332  0.00  0.00     0.001 A 
ATOM     24  C   UNL d   1      -1.757  -4.981   1.994  0.00  0.00     0.007 A 
ENDBRANCH  18  19
ENDBRANCH   2  18
BRANCH   5  25
ATOM     25  O   UNL d   1      -4.285  -1.345   0.007  0.00  0.00    -0.359 OA
ATOM     26  H   UNL d   1      -4.667  -0.460   0.102  0.00  0.00     0.217 HD
ENDBRANCH   5  25
TORSDOF 3
