REMARK  7 active torsions:
REMARK  status: ('A' for Active; 'I' for Inactive)
REMARK    1  A    between atoms: C_3  and  C_1 
REMARK    2  A    between atoms: N_4  and  C_2 
REMARK    3  A    between atoms: O_12  and  C_3 
REMARK    4  A    between atoms: C_8  and  N_4 
REMARK    5  A    between atoms: C_7  and  C_8 
REMARK    6  A    between atoms: O_14  and  C_7 
REMARK    7  A    between atoms: O_16  and  C_11 
ROOT
ATOM      1  C   UNL d   1       1.464  -0.235   0.145  0.00  0.00     0.061 A 
ATOM      2  C   UNL d   1       0.618  -1.377   0.201  0.00  0.00     0.028 A 
ATOM      3  C   UNL d   1      -0.763  -1.121   0.296  0.00  0.00     0.027 A 
ATOM      4  C   UNL d   1       0.942   1.068   0.114  0.00  0.00     0.057 A 
ATOM      5  C   UNL d   1      -0.426   1.285   0.220  0.00  0.00     0.069 A 
ATOM      6  C   UNL d   1      -1.278   0.190   0.311  0.00  0.00     0.038 A 
ENDROOT
BRANCH   2   7
ATOM      7  N   UNL d   1       1.157  -2.700   0.188  0.00  0.00    -0.277 NA
ATOM      8  C   UNL d   1       1.910  -2.963  -1.081  0.00  0.00     0.117 C 
BRANCH   7   9
ATOM      9  C   UNL d   1       0.214  -3.820   0.516  0.00  0.00     0.205 C 
BRANCH   9  10
ATOM     10  C   UNL d   1       0.956  -5.147   0.695  0.00  0.00     0.153 C 
ATOM     11  O   UNL d   1       0.546  -6.227   0.291  0.00  0.00    -0.649 OA
BRANCH  10  12
ATOM     12  O   UNL d   1       2.115  -5.016   1.383  0.00  0.00    -0.775 OA
ATOM     13  H   UNL d   1       2.292  -4.073   1.571  0.00  0.00     0.167 HD
ENDBRANCH  10  12
ENDBRANCH   9  10
ENDBRANCH   7   9
ENDBRANCH   2   7
BRANCH   1  14
ATOM     14  C   UNL d   1       2.945  -0.316   0.202  0.00  0.00     0.178 C 
ATOM     15  O   UNL d   1       3.692   0.461  -0.363  0.00  0.00    -0.646 OA
BRANCH  14  16
ATOM     16  O   UNL d   1       3.377  -1.295   1.033  0.00  0.00    -0.773 OA
ATOM     17  H   UNL d   1       2.615  -1.839   1.320  0.00  0.00     0.167 HD
ENDBRANCH  14  16
ENDBRANCH   1  14
BRANCH   5  18
ATOM     18  O   UNL d   1      -0.806   2.596   0.206  0.00  0.00    -0.356 OA
ATOM     19  C   UNL d   1      -2.036   2.904   0.849  0.00  0.00     0.210 C 
ENDBRANCH   5  18
TORSDOF 7
