REMARK  7 active torsions:
REMARK  status: ('A' for Active; 'I' for Inactive)
REMARK    1  A    between atoms: N_8  and  C_1 
REMARK    2  A    between atoms: C_2  and  C_4 
REMARK    3  A    between atoms: C_3  and  N_7 
REMARK    4  A    between atoms: N_11  and  C_3 
REMARK    5  A    between atoms: C_22  and  N_11 
REMARK    6  A    between atoms: C_23  and  C_22 
REMARK    7  A    between atoms: C_24  and  C_23 
ROOT
ATOM      1  N   UNL d   1       2.203   4.506   0.782  0.00  0.00    -0.355 N 
ATOM      2  N   UNL d   1       0.579   2.271   0.179  0.00  0.00    -0.363 N 
ATOM      3  C   UNL d   1       1.274   3.955   1.788  0.00  0.00     0.145 C 
ATOM      4  C   UNL d   1       2.539   3.609  -0.343  0.00  0.00     0.145 C 
ATOM      5  C   UNL d   1       0.058   3.256   1.136  0.00  0.00     0.144 C 
ATOM      6  C   UNL d   1       1.304   2.902  -0.934  0.00  0.00     0.144 C 
ENDROOT
BRANCH   2   7
ATOM      7  C   UNL d   1      -0.137   1.108  -0.032  0.00  0.00     0.125 A 
ATOM      8  N   UNL d   1      -1.468   1.129   0.221  0.00  0.00    -0.350 N 
ATOM      9  C   UNL d   1      -2.166  -0.033   0.160  0.00  0.00     0.106 A 
ATOM     10  HN  UNL d   1      -1.938   2.005   0.454  1.00  0.00     0.166 HD
ATOM     11  C   UNL d   1      -1.602  -1.262  -0.130  0.00  0.00     0.065 A 
ATOM     12  C   UNL d   1      -0.238  -1.288  -0.415  0.00  0.00     0.045 A 
ATOM     13  C   UNL d   1       0.502  -0.103  -0.365  0.00  0.00     0.078 A 
ATOM     14 CL   UNL d   1       2.216  -0.250  -0.571  0.00  0.00    -0.080 Cl
BRANCH  11  15
ATOM     15  C   UNL d   1      -2.440  -2.501  -0.092  0.00  0.00     0.418 C 
ATOM     16  F   UNL d   1      -1.734  -3.639  -0.344  0.00  0.00    -0.166 F 
ATOM     17  F   UNL d   1      -3.027  -2.691   1.122  0.00  0.00    -0.166 F 
ATOM     18  F   UNL d   1      -3.451  -2.480  -1.000  0.00  0.00    -0.166 F 
ENDBRANCH  11  15
ENDBRANCH   2   7
BRANCH   1  19
ATOM     19  C   UNL d   1       2.492   5.844   0.771  0.00  0.00     0.169 C 
ATOM     20  S   UNL d   1       2.180   6.868  -0.513  0.00  0.00    -0.041 SA
BRANCH  19  21
ATOM     21  N   UNL d   1       3.092   6.363   1.882  0.00  0.00    -0.367 N 
ATOM     22  H   UNL d   1       3.312   7.347   1.781  0.00  0.00     0.161 HD
BRANCH  21  23
ATOM     23  C   UNL d   1       3.884   5.633   2.867  0.00  0.00     0.126 C 
BRANCH  23  24
ATOM     24  C   UNL d   1       5.179   5.021   2.295  0.00  0.00    -0.001 C 
ATOM     25  C   UNL d   1       5.942   4.284   3.402  0.00  0.00     0.011 C 
BRANCH  24  26
ATOM     26  C   UNL d   1       6.084   6.033   1.564  0.00  0.00     0.001 C 
ATOM     27  C   UNL d   1       6.657   7.144   2.433  0.00  0.00     0.005 C 
ENDBRANCH  24  26
ENDBRANCH  23  24
ENDBRANCH  21  23
ENDBRANCH  19  21
ENDBRANCH   1  19
TORSDOF 7
