REMARK  4 active torsions:
REMARK  status: ('A' for Active; 'I' for Inactive)
REMARK    1  A    between atoms: N_4  and  N_1 
REMARK       I    between atoms: C_3  and  N_4 
REMARK    2  A    between atoms: O_10  and  C_3 
REMARK    3  A    between atoms: C_6  and  C_5 
REMARK    4  A    between atoms: C_16  and  O_10 
ROOT
ATOM      1  N   UNL d   1       0.935  -0.034  -0.147  0.00  0.00    -0.300 N 
ATOM      2  HN  UNL d   1       0.487   0.853  -0.381  1.00  0.00     0.186 HD
ATOM      3  C   UNL d   1       2.233  -0.106  -0.109  0.00  0.00     0.032 C 
ATOM      4  C   UNL d   1       3.029  -1.346   0.249  0.00  0.00     0.070 C 
ENDROOT
BRANCH   1   5
ATOM      5  N   UNL d   1       0.169  -1.119   0.118  0.00  0.00    -0.245 N 
ATOM      6  C   UNL d   1      -1.181  -0.995   0.335  0.00  0.00     0.379 C 
ATOM      7  O   UNL d   1      -1.848   0.027   0.251  0.00  0.00    -0.237 OA
ATOM      8  H   UNL d   1       0.564  -2.025   0.314  0.00  0.00     0.192 HD
BRANCH   6   9
ATOM      9  O   UNL d   1      -1.660  -2.203   0.740  0.00  0.00    -0.303 OA
BRANCH   9  10
ATOM     10  C   UNL d   1      -2.973  -2.180   1.316  0.00  0.00     0.176 C 
ATOM     11  C   UNL d   1      -2.838  -1.909   2.804  0.00  0.00     0.034 C 
ENDBRANCH   9  10
ENDBRANCH   6   9
ENDBRANCH   1   5
BRANCH   3  12
ATOM     12  C   UNL d   1       3.010   1.142  -0.440  0.00  0.00    -0.013 A 
ATOM     13  C   UNL d   1       2.315   2.332  -0.709  0.00  0.00     0.015 A 
ATOM     14  C   UNL d   1       3.006   3.503  -1.037  0.00  0.00     0.024 A 
ATOM     15  C   UNL d   1       4.396   3.491  -1.098  0.00  0.00     0.034 A 
ATOM     16  C   UNL d   1       5.101   2.320  -0.828  0.00  0.00     0.024 A 
ATOM     17 CL   UNL d   1       5.250   4.924  -1.513  0.00  0.00    -0.084 Cl
ATOM     18  C   UNL d   1       4.411   1.148  -0.500  0.00  0.00     0.015 A 
ENDBRANCH   3  12
TORSDOF 4
