REMARK  11 active torsions:
REMARK  status: ('A' for Active; 'I' for Inactive)
REMARK    1  A    between atoms: C_1  and  O_7 
REMARK    2  A    between atoms: C_2  and  O_8 
REMARK    3  A    between atoms: C_3  and  O_10 
REMARK    4  A    between atoms: C_4  and  O_9 
REMARK    5  A    between atoms: C_6  and  C_15 
REMARK    6  A    between atoms: C_12  and  O_7 
REMARK    7  A    between atoms: C_11  and  O_8 
REMARK    8  A    between atoms: C_13  and  O_9 
REMARK    9  A    between atoms: C_21  and  O_10 
REMARK   10  A    between atoms: C_14  and  O_16 
REMARK   11  A    between atoms: O_16  and  C_15 
ROOT
ATOM      1  C   UNL d   1       0.919  -1.270  -0.168  0.00  0.00     0.219 C 
ATOM      2  C   UNL d   1       1.673   0.066   0.034  0.00  0.00     0.198 C 
ATOM      3  C   UNL d   1      -0.543  -1.195   0.352  0.00  0.00     0.299 C 
ATOM      4  C   UNL d   1       0.846   1.309  -0.339  0.00  0.00     0.195 C 
ATOM      5  O   UNL d   1      -1.179  -0.019  -0.184  0.00  0.00    -0.348 OA
ATOM      6  C   UNL d   1      -0.557   1.194   0.265  0.00  0.00     0.181 C 
ENDROOT
BRANCH   3   7
ATOM      7  O   UNL d   1      -1.295  -2.332  -0.113  0.00  0.00    -0.318 OA
BRANCH   7   8
ATOM      8  C   UNL d   1      -1.253  -3.484   0.622  0.00  0.00     0.072 A 
ATOM      9  C   UNL d   1      -1.142  -3.553   2.011  0.00  0.00     0.037 A 
ATOM     10  C   UNL d   1      -1.040  -4.792   2.650  0.00  0.00     0.003 A 
ATOM     11  C   UNL d   1      -1.095  -5.970   1.910  0.00  0.00     0.000 A 
ATOM     12  C   UNL d   1      -1.279  -5.910   0.531  0.00  0.00     0.003 A 
ATOM     13  C   UNL d   1      -1.363  -4.670  -0.109  0.00  0.00     0.037 A 
ENDBRANCH   7   8
ENDBRANCH   3   7
BRANCH   1  14
ATOM     14  O   UNL d   1       1.685  -2.389   0.370  0.00  0.00    -0.308 OA
BRANCH  14  15
ATOM     15  C   UNL d   1       1.872  -2.466   1.712  0.00  0.00     0.255 C 
ATOM     16  O   UNL d   1       1.464  -1.649   2.526  0.00  0.00    -0.266 OA
ATOM     17  C   UNL d   1       2.599  -3.724   2.074  0.00  0.00     0.126 C 
ENDBRANCH  14  15
ENDBRANCH   1  14
BRANCH   2  18
ATOM     18  O   UNL d   1       2.980   0.087  -0.612  0.00  0.00    -0.311 OA
BRANCH  18  19
ATOM     19  C   UNL d   1       3.042   0.005  -1.968  0.00  0.00     0.255 C 
ATOM     20  O   UNL d   1       2.089  -0.178  -2.709  0.00  0.00    -0.266 OA
ATOM     21  C   UNL d   1       4.446   0.225  -2.436  0.00  0.00     0.126 C 
ENDBRANCH  18  19
ENDBRANCH   2  18
BRANCH   6  22
ATOM     22  C   UNL d   1      -1.427   2.382  -0.178  0.00  0.00     0.213 C 
BRANCH  22  23
ATOM     23  O   UNL d   1      -2.745   2.308   0.399  0.00  0.00    -0.319 OA
BRANCH  23  24
ATOM     24  C   UNL d   1      -2.836   2.679   1.702  0.00  0.00     0.254 C 
ATOM     25  O   UNL d   1      -1.911   3.086   2.387  0.00  0.00    -0.266 OA
ATOM     26  C   UNL d   1      -4.244   2.524   2.197  0.00  0.00     0.126 C 
ENDBRANCH  23  24
ENDBRANCH  22  23
ENDBRANCH   6  22
BRANCH   4  27
ATOM     27  O   UNL d   1       1.506   2.477   0.215  0.00  0.00    -0.311 OA
BRANCH  27  28
ATOM     28  C   UNL d   1       2.094   3.331  -0.663  0.00  0.00     0.255 C 
ATOM     29  O   UNL d   1       2.069   3.224  -1.880  0.00  0.00    -0.266 OA
ATOM     30  C   UNL d   1       2.773   4.460   0.053  0.00  0.00     0.126 C 
ENDBRANCH  27  28
ENDBRANCH   4  27
TORSDOF 11
