REMARK  6 active torsions:
REMARK  status: ('A' for Active; 'I' for Inactive)
REMARK    1  A    between atoms: C_25  and  N_1 
REMARK    2  A    between atoms: C_3  and  N_13 
REMARK    3  A    between atoms: C_19  and  N_4 
REMARK    4  A    between atoms: S_16  and  C_7 
REMARK       I    between atoms: N_13  and  C_17 
REMARK    5  A    between atoms: C_24  and  S_16 
REMARK    6  A    between atoms: C_17  and  C_24 
ROOT
ATOM      1  N   UNL d   1      -5.725  -0.771  -0.004  0.00  0.00    -0.311 N 
ATOM      2  C   UNL d   1      -5.027  -1.911   0.378  0.00  0.00     0.233 C 
ATOM      3  O   UNL d   1      -5.543  -2.909   0.878  0.00  0.00    -0.272 OA
ATOM      4  H   UNL d   1      -5.243  -0.049  -0.531  0.00  0.00     0.170 HD
ENDROOT
BRANCH   2   5
ATOM      5  C   UNL d   1      -3.533  -1.804   0.085  0.00  0.00     0.185 C 
BRANCH   5   6
ATOM      6  S   UNL d   1      -2.850  -3.430  -0.346  0.00  0.00    -0.083 SA
BRANCH   6   7
ATOM      7  C   UNL d   1      -1.163  -3.185  -0.061  0.00  0.00     0.163 C 
ATOM      8  N   UNL d   1      -0.237  -4.200  -0.024  0.00  0.00    -0.311 N 
ATOM      9  C   UNL d   1       0.938  -3.597   0.382  0.00  0.00     0.141 C 
ATOM     10  N   UNL d   1       0.747  -2.290   0.423  0.00  0.00    -0.282 N 
ATOM     11  C   UNL d   1       2.202  -4.212   0.685  0.00  0.00     0.050 A 
ATOM     12  N   UNL d   1      -0.579  -2.037   0.166  0.00  0.00    -0.278 N 
ATOM     13  HN  UNL d   1       1.463  -1.588   0.612  1.00  0.00     0.188 HD
ATOM     14  HN  UNL d   1      -1.026  -1.120   0.154  1.00  0.00     0.189 HD
ATOM     15  S   UNL d   1       2.346  -5.682   1.559  0.00  0.00    -0.098 SA
ATOM     16  C   UNL d   1       3.453  -3.689   0.406  0.00  0.00     0.023 A 
ATOM     17  C   UNL d   1       4.048  -5.664   1.472  0.00  0.00     0.050 A 
ATOM     18  C   UNL d   1       4.517  -4.534   0.844  0.00  0.00     0.009 A 
BRANCH   8  19
ATOM     19  C   UNL d   1      -0.443  -5.587  -0.384  0.00  0.00     0.128 C 
ATOM     20  C   UNL d   1       0.309  -6.005  -1.639  0.00  0.00     0.027 C 
ENDBRANCH   8  19
ENDBRANCH   6   7
ENDBRANCH   5   6
ENDBRANCH   2   5
BRANCH   1  21
ATOM     21  C   UNL d   1      -7.113  -0.714   0.052  0.00  0.00     0.132 C 
ATOM     22  N   UNL d   1      -7.896   0.035  -0.825  0.00  0.00    -0.240 N 
ATOM     23  N   UNL d   1      -9.194   0.081  -0.415  0.00  0.00    -0.297 N 
ATOM     24  C   UNL d   1      -9.269  -0.839   0.553  0.00  0.00     0.026 C 
ATOM     25  HN  UNL d   1      -9.940   0.682  -0.766  1.00  0.00     0.187 HD
ATOM     26  C   UNL d   1      -8.000  -1.334   0.906  0.00  0.00     0.076 C 
ATOM     27  C   UNL d   1     -10.583  -1.236   1.117  0.00  0.00     0.070 C 
BRANCH  22  28
ATOM     28  C   UNL d   1      -7.525   0.596  -2.081  0.00  0.00     0.058 A 
ATOM     29  C   UNL d   1      -6.443   0.080  -2.808  0.00  0.00     0.031 A 
ATOM     30  C   UNL d   1      -6.090   0.633  -4.043  0.00  0.00     0.002 A 
ATOM     31  C   UNL d   1      -6.830   1.683  -4.567  0.00  0.00     0.000 A 
ATOM     32  C   UNL d   1      -7.931   2.183  -3.863  0.00  0.00     0.002 A 
ATOM     33  C   UNL d   1      -8.289   1.632  -2.629  0.00  0.00     0.031 A 
ENDBRANCH  22  28
ENDBRANCH   1  21
TORSDOF 6
