REMARK  2 active torsions:
REMARK  status: ('A' for Active; 'I' for Inactive)
REMARK    1  A    between atoms: S_2  and  C_1 
REMARK    2  A    between atoms: C_7  and  S_2 
ROOT
ATOM      1  S   UNL d   1       1.532   2.251   1.629  0.00  0.00     0.182 S 
ATOM      2  O   UNL d   1       1.183   0.955   1.081  0.00  0.00    -0.222 OA
ATOM      3  O   UNL d   1       2.864   2.794   1.444  0.00  0.00    -0.222 OA
ENDROOT
BRANCH   1   4
ATOM      4  C   UNL d   1       0.424   3.475   0.933  0.00  0.00     0.155 A 
ATOM      5  C   UNL d   1      -1.042   3.311   1.146  0.00  0.00     0.132 A 
ATOM      6 CL   UNL d   1      -1.983   4.814   1.248  0.00  0.00    -0.100 Cl
ATOM      7 CL   UNL d   1      -1.810   2.002   2.010  0.00  0.00    -0.100 Cl
ATOM      8  C   UNL d   1      -0.442   2.986  -0.198  0.00  0.00     0.067 A 
ENDBRANCH   1   4
BRANCH   1   9
ATOM      9  C   UNL d   1       1.244   2.221   3.377  0.00  0.00     0.059 A 
ATOM     10  C   UNL d   1       0.862   1.024   3.992  0.00  0.00     0.023 A 
ATOM     11  C   UNL d   1       0.634   1.000   5.366  0.00  0.00     0.002 A 
ATOM     12  C   UNL d   1       0.803   2.161   6.121  0.00  0.00     0.000 A 
ATOM     13  C   UNL d   1       1.200   3.349   5.504  0.00  0.00     0.002 A 
ATOM     14  C   UNL d   1       1.426   3.385   4.127  0.00  0.00     0.023 A 
ENDBRANCH   1   9
TORSDOF 2
