REMARK  8 active torsions:
REMARK  status: ('A' for Active; 'I' for Inactive)
REMARK       I    between atoms: N_5  and  C_1 
REMARK    1  A    between atoms: C_10  and  C_1 
REMARK    2  A    between atoms: N_3  and  C_10 
REMARK    3  A    between atoms: C_13  and  N_3 
REMARK    4  A    between atoms: C_16  and  N_3 
REMARK    5  A    between atoms: C_8  and  N_5 
REMARK    6  A    between atoms: C_7  and  C_13 
REMARK    7  A    between atoms: O_18  and  C_7 
REMARK    8  A    between atoms: C_19  and  C_16 
ROOT
ATOM      1  C   UNL d   1       1.101  -0.030  -0.078  0.00  0.00     0.250 C 
ATOM      2  N   UNL d   1       1.048   0.345  -1.409  0.00  0.00    -0.326 N 
ATOM      3  O   UNL d   1       1.745  -0.980   0.373  0.00  0.00    -0.271 OA
ATOM      4  H   UNL d   1       0.198   0.818  -1.701  0.00  0.00     0.169 HD
ENDROOT
BRANCH   1   5
ATOM      5  C   UNL d   1       0.176   0.757   0.851  0.00  0.00     0.376 C 
BRANCH   5   6
ATOM      6  N   UNL d   1      -1.252   0.388   0.693  0.00  0.00     0.111 N 
BRANCH   6   7
ATOM      7  C   UNL d   1      -1.481  -1.082   0.763  0.00  0.00     0.382 C 
BRANCH   7   8
ATOM      8  C   UNL d   1      -1.115  -1.748   2.089  0.00  0.00     0.169 C 
ATOM      9  O   UNL d   1      -1.830  -1.748   3.082  0.00  0.00    -0.649 OA
BRANCH   8  10
ATOM     10  O   UNL d   1       0.103  -2.337   2.103  0.00  0.00    -0.775 OA
ATOM     11  H   UNL d   1       0.666  -2.187   1.308  0.00  0.00     0.167 HD
ENDBRANCH   8  10
ENDBRANCH   7   8
ENDBRANCH   6   7
BRANCH   6  12
ATOM     12  C   UNL d   1      -2.019   1.131   1.729  0.00  0.00     0.312 C 
BRANCH  12  13
ATOM     13  C   UNL d   1      -3.522   0.952   1.711  0.00  0.00    -0.030 A 
ATOM     14  C   UNL d   1      -4.167   0.339   2.798  0.00  0.00     0.009 A 
ATOM     15  C   UNL d   1      -5.552   0.170   2.809  0.00  0.00     0.001 A 
ATOM     16  C   UNL d   1      -6.315   0.633   1.743  0.00  0.00     0.000 A 
ATOM     17  C   UNL d   1      -5.693   1.271   0.670  0.00  0.00     0.001 A 
ATOM     18  C   UNL d   1      -4.303   1.427   0.650  0.00  0.00     0.009 A 
ENDBRANCH  12  13
ENDBRANCH   6  12
ENDBRANCH   5   6
ENDBRANCH   1   5
BRANCH   2  19
ATOM     19  C   UNL d   1       1.941  -0.088  -2.412  0.00  0.00     0.037 A 
ATOM     20  C   UNL d   1       3.212  -0.591  -2.118  0.00  0.00     0.069 A 
ATOM     21  C   UNL d   1       4.082  -0.997  -3.140  0.00  0.00     0.104 A 
ATOM     22  O   UNL d   1       5.319  -1.413  -2.709  0.00  0.00    -0.348 OA
ATOM     23  C   UNL d   1       3.647  -0.978  -4.471  0.00  0.00     0.102 A 
ATOM     24  C   UNL d   1       6.378  -1.158  -3.633  0.00  0.00     0.178 C 
ATOM     25  C   UNL d   1       6.479  -2.269  -4.662  0.00  0.00     0.053 C 
ATOM     26  C   UNL d   1       5.116  -2.636  -5.223  0.00  0.00     0.178 C 
ATOM     27  O   UNL d   1       4.355  -1.467  -5.542  0.00  0.00    -0.348 OA
ATOM     28  C   UNL d   1       2.397  -0.423  -4.775  0.00  0.00     0.042 A 
ATOM     29  C   UNL d   1       1.556   0.027  -3.755  0.00  0.00     0.032 A 
ENDBRANCH   2  19
TORSDOF 8
