REMARK  4 active torsions:
REMARK  status: ('A' for Active; 'I' for Inactive)
REMARK    1  A    between atoms: S_11  and  C_7 
REMARK    2  A    between atoms: C_15  and  S_11 
REMARK    3  A    between atoms: C_13  and  C_15 
REMARK    4  A    between atoms: C_14  and  C_13 
ROOT
ATOM      1  C   UNL d   1       0.730   0.429   0.009  0.00  0.00     0.073 A 
ATOM      2  C   UNL d   1       1.299  -0.823   0.010  0.00  0.00     0.092 A 
ATOM      3  N   UNL d   1       2.624  -1.108   0.053  0.00  0.00    -0.330 N 
ATOM      4  HN  UNL d   1       2.979  -2.064   0.047  1.00  0.00     0.168 HD
ATOM      5  C   UNL d   1       1.611   1.578   0.054  0.00  0.00     0.262 A 
ATOM      6  N   UNL d   1       2.974   1.261   0.100  0.00  0.00    -0.298 N 
ATOM      7  C   UNL d   1       3.405  -0.072   0.104  0.00  0.00     0.150 A 
ATOM      8  S   UNL d   1       0.113  -2.053  -0.035  0.00  0.00    -0.075 SA
ATOM      9  C   UNL d   1      -0.701   0.388  -0.021  0.00  0.00    -0.026 A 
ATOM     10  C   UNL d   1      -1.157  -0.917  -0.021  0.00  0.00    -0.008 A 
ATOM     11  O   UNL d   1       1.172   2.723   0.057  0.00  0.00    -0.267 OA
ATOM     12  C   UNL d   1       3.894   2.391   0.134  0.00  0.00     0.161 C 
ATOM     13  C   UNL d   1      -1.639   1.561  -0.000  0.00  0.00     0.041 C 
ATOM     14  C   UNL d   1      -2.600  -1.322  -0.034  0.00  0.00     0.047 C 
ATOM     15  C   UNL d   1      -3.074   1.151  -0.365  0.00  0.00     0.005 C 
ATOM     16  C   UNL d   1      -3.492  -0.133   0.364  0.00  0.00     0.005 C 
ENDROOT
BRANCH   7  17
ATOM     17  S   UNL d   1       5.142  -0.341   0.193  0.00  0.00    -0.086 SA
BRANCH  17  18
ATOM     18  C   UNL d   1       5.260  -2.158   0.173  0.00  0.00     0.166 C 
BRANCH  18  19
ATOM     19  C   UNL d   1       6.700  -2.632   0.360  0.00  0.00     0.169 C 
ATOM     20  O   UNL d   1       7.661  -1.872   0.475  0.00  0.00    -0.291 OA
BRANCH  19  21
ATOM     21  C   UNL d   1       6.967  -4.110   0.415  0.00  0.00     0.011 A 
ATOM     22  C   UNL d   1       5.956  -5.068   0.265  0.00  0.00     0.016 A 
ATOM     23  C   UNL d   1       6.260  -6.434   0.353  0.00  0.00     0.020 A 
ATOM     24  C   UNL d   1       7.571  -6.846   0.587  0.00  0.00     0.011 A 
ATOM     25  C   UNL d   1       8.588  -5.907   0.724  0.00  0.00     0.020 A 
ATOM     26 BR   UNL d   1       7.967  -8.689   0.730  0.00  0.00    -0.051 Br
ATOM     27  C   UNL d   1       8.285  -4.543   0.637  0.00  0.00     0.016 A 
ENDBRANCH  19  21
ENDBRANCH  18  19
ENDBRANCH  17  18
ENDBRANCH   7  17
TORSDOF 4
