REMARK  6 active torsions:
REMARK  status: ('A' for Active; 'I' for Inactive)
REMARK    1  A    between atoms: C_6  and  C_1 
REMARK    2  A    between atoms: C_7  and  C_2 
REMARK    3  A    between atoms: C_9  and  C_3 
REMARK    4  A    between atoms: C_10  and  C_4 
REMARK    5  A    between atoms: O_14  and  C_6 
REMARK    6  A    between atoms: O_13  and  C_7 
ROOT
ATOM      1  C   UNL d   1       0.173   1.207   0.028  0.00  0.00     0.102 A 
ATOM      2  C   UNL d   1       0.177  -1.198   0.121  0.00  0.00     0.102 A 
ATOM      3  C   UNL d   1       1.431   0.733  -0.019  0.00  0.00     0.007 A 
ATOM      4  C   UNL d   1       1.432  -0.727   0.007  0.00  0.00     0.007 A 
ATOM      5  C   UNL d   1      -0.682   0.005   0.124  0.00  0.00     0.206 A 
ATOM      6  O   UNL d   1      -1.898   0.008   0.191  0.00  0.00    -0.286 OA
ENDROOT
BRANCH   3   7
ATOM      7  C   UNL d   1       2.642   1.564  -0.059  0.00  0.00    -0.024 A 
ATOM      8  C   UNL d   1       3.251   1.981   1.132  0.00  0.00     0.012 A 
ATOM      9  C   UNL d   1       4.431   2.727   1.094  0.00  0.00     0.001 A 
ATOM     10  C   UNL d   1       5.008   3.056  -0.131  0.00  0.00     0.000 A 
ATOM     11  C   UNL d   1       4.403   2.649  -1.319  0.00  0.00     0.001 A 
ATOM     12  C   UNL d   1       3.223   1.905  -1.285  0.00  0.00     0.012 A 
ENDBRANCH   3   7
BRANCH   1  13
ATOM     13  C   UNL d   1      -0.237   2.615  -0.008  0.00  0.00     0.297 C 
ATOM     14  O   UNL d   1       0.466   3.521  -0.433  0.00  0.00    -0.259 OA
BRANCH  13  15
ATOM     15  O   UNL d   1      -1.479   2.784   0.504  0.00  0.00    -0.322 OA
ATOM     16  C   UNL d   1      -1.925   4.143   0.494  0.00  0.00     0.213 C 
ENDBRANCH  13  15
ENDBRANCH   1  13
BRANCH   4  17
ATOM     17  C   UNL d   1       2.637  -1.556  -0.128  0.00  0.00    -0.024 A 
ATOM     18  C   UNL d   1       3.087  -1.931  -1.401  0.00  0.00     0.012 A 
ATOM     19  C   UNL d   1       4.264  -2.667  -1.543  0.00  0.00     0.001 A 
ATOM     20  C   UNL d   1       5.000  -3.029  -0.416  0.00  0.00     0.000 A 
ATOM     21  C   UNL d   1       4.556  -2.663   0.854  0.00  0.00     0.001 A 
ATOM     22  C   UNL d   1       3.378  -1.928   1.000  0.00  0.00     0.012 A 
ENDBRANCH   4  17
BRANCH   2  23
ATOM     23  C   UNL d   1      -0.235  -2.603   0.209  0.00  0.00     0.297 C 
ATOM     24  O   UNL d   1       0.511  -3.514   0.544  0.00  0.00    -0.259 OA
BRANCH  23  25
ATOM     25  O   UNL d   1      -1.534  -2.764  -0.136  0.00  0.00    -0.322 OA
ATOM     26  C   UNL d   1      -1.992  -4.116  -0.052  0.00  0.00     0.213 C 
ENDBRANCH  23  25
ENDBRANCH   2  23
TORSDOF 6
