REMARK  4 active torsions:
REMARK  status: ('A' for Active; 'I' for Inactive)
REMARK    1  A    between atoms: C_2  and  C_1 
REMARK    2  A    between atoms: C_4  and  C_2 
REMARK    3  A    between atoms: S_10  and  C_5 
REMARK    4  A    between atoms: C_11  and  S_10 
ROOT
ATOM      1  C   UNL d   1      -1.683   3.181  -0.069  0.00  0.00     0.063 C 
ATOM      2  C   UNL d   1      -2.784   2.416  -0.048  0.00  0.00     0.054 C 
ENDROOT
BRANCH   2   3
ATOM      3  S   UNL d   1      -4.360   3.108  -0.188  0.00  0.00    -0.102 SA
BRANCH   3   4
ATOM      4  C   UNL d   1      -5.084   2.213  -1.559  0.00  0.00     0.004 A 
ATOM      5  C   UNL d   1      -4.407   1.289  -2.366  0.00  0.00     0.020 A 
ATOM      6  C   UNL d   1      -5.052   0.673  -3.446  0.00  0.00     0.025 A 
ATOM      7  C   UNL d   1      -6.378   0.983  -3.733  0.00  0.00     0.034 A 
ATOM      8  C   UNL d   1      -7.070   1.894  -2.942  0.00  0.00     0.025 A 
ATOM      9 CL   UNL d   1      -7.161   0.244  -5.074  0.00  0.00    -0.084 Cl
ATOM     10  C   UNL d   1      -6.425   2.503  -1.860  0.00  0.00     0.020 A 
ENDBRANCH   3   4
ENDBRANCH   2   3
BRANCH   1  11
ATOM     11  C   UNL d   1      -0.335   2.541   0.028  0.00  0.00     0.189 C 
ATOM     12  O   UNL d   1      -0.280   1.312   0.125  0.00  0.00    -0.287 OA
BRANCH  11  13
ATOM     13  C   UNL d   1       0.879   3.352  -0.015  0.00  0.00     0.054 A 
ATOM     14  S   UNL d   1       0.884   5.061  -0.128  0.00  0.00    -0.098 SA
ATOM     15  C   UNL d   1       2.591   5.138  -0.126  0.00  0.00     0.050 A 
ATOM     16  C   UNL d   1       3.161   3.888  -0.038  0.00  0.00     0.009 A 
ATOM     17  C   UNL d   1       2.176   2.863   0.029  0.00  0.00     0.023 A 
ENDBRANCH  11  13
ENDBRANCH   1  11
TORSDOF 4
