REMARK  5 active torsions:
REMARK  status: ('A' for Active; 'I' for Inactive)
REMARK    1  A    between atoms: C_3  and  C_1 
REMARK    2  A    between atoms: C_2  and  N_4 
REMARK    3  A    between atoms: N_5  and  C_2 
REMARK    4  A    between atoms: N_4  and  C_8 
REMARK    5  A    between atoms: N_12  and  N_5 
ROOT
ATOM      1  C   UNL d   1       0.834   1.524  -0.787  0.00  0.00     0.050 A 
ATOM      2  C   UNL d   1      -0.573   1.545  -0.723  0.00  0.00     0.045 A 
ATOM      3  C   UNL d   1      -1.254   2.688  -0.307  0.00  0.00     0.035 A 
ATOM      4  C   UNL d   1       1.554   2.679  -0.453  0.00  0.00     0.016 A 
ATOM      5  C   UNL d   1       0.880   3.836  -0.071  0.00  0.00     0.003 A 
ATOM      6  C   UNL d   1      -0.513   3.836   0.006  0.00  0.00     0.029 A 
ENDROOT
BRANCH   3   7
ATOM      7  N   UNL d   1      -2.638   2.756  -0.077  0.00  0.00    -0.332 N 
ATOM      8  H   UNL d   1      -2.973   3.572   0.429  0.00  0.00     0.168 HD
BRANCH   7   9
ATOM      9  C   UNL d   1      -3.684   1.886  -0.274  0.00  0.00     0.186 C 
ATOM     10  S   UNL d   1      -3.798   0.530  -1.235  0.00  0.00    -0.040 SA
BRANCH   9  11
ATOM     11  N   UNL d   1      -4.808   2.248   0.459  0.00  0.00    -0.296 N 
ATOM     12  H   UNL d   1      -5.598   1.605   0.426  0.00  0.00     0.183 HD
BRANCH  11  13
ATOM     13  N   UNL d   1      -4.728   3.223   1.482  0.00  0.00    -0.238 NA
ATOM     14  C   UNL d   1      -5.843   4.166   1.380  0.00  0.00     0.135 C 
ATOM     15  C   UNL d   1      -4.722   2.573   2.799  0.00  0.00     0.135 C 
ENDBRANCH  11  13
ENDBRANCH   9  11
ENDBRANCH   7   9
ENDBRANCH   3   7
BRANCH   1  16
ATOM     16  C   UNL d   1       1.566   0.253  -1.139  0.00  0.00     0.417 C 
ATOM     17  F   UNL d   1       0.761  -0.730  -1.628  0.00  0.00    -0.166 F 
ATOM     18  F   UNL d   1       2.205  -0.288  -0.065  0.00  0.00    -0.166 F 
ATOM     19  F   UNL d   1       2.531   0.449  -2.083  0.00  0.00    -0.166 F 
ENDBRANCH   1  16
TORSDOF 5
