REMARK  4 active torsions:
REMARK  status: ('A' for Active; 'I' for Inactive)
REMARK    1  A    between atoms: C_9  and  C_1 
REMARK       I    between atoms: C_5  and  N_8 
REMARK    2  A    between atoms: C_10  and  C_5 
REMARK    3  A    between atoms: N_8  and  C_16 
REMARK    4  A    between atoms: O_22  and  C_17 
ROOT
ATOM      1  C   UNL d   1      -3.290  -1.446   0.184  0.00  0.00    -0.002 A 
ATOM      2  C   UNL d   1      -4.174  -0.876  -0.743  0.00  0.00     0.016 A 
ATOM      3  C   UNL d   1      -3.762  -2.506   0.972  0.00  0.00     0.016 A 
ATOM      4  C   UNL d   1      -5.917  -2.468  -0.139  0.00  0.00     0.035 A 
ATOM      5  C   UNL d   1      -5.473  -1.382  -0.902  0.00  0.00     0.030 A 
ATOM      6  C   UNL d   1      -5.055  -3.015   0.807  0.00  0.00     0.030 A 
ENDROOT
BRANCH   4   7
ATOM      7  N   UNL d   1      -7.221  -2.947  -0.374  0.00  0.00    -0.323 N 
ATOM      8  C   UNL d   1      -7.833  -4.035   0.229  0.00  0.00     0.256 C 
ATOM      9  O   UNL d   1      -7.362  -4.767   1.089  0.00  0.00    -0.267 OA
ATOM     10  H   UNL d   1      -7.771  -2.409  -1.029  0.00  0.00     0.169 HD
BRANCH   8  11
ATOM     11  C   UNL d   1      -9.233  -4.282  -0.212  0.00  0.00     0.032 A 
ATOM     12  C   UNL d   1      -9.633  -4.092  -1.540  0.00  0.00     0.020 A 
ATOM     13  C   UNL d   1     -10.974  -4.266  -1.898  0.00  0.00     0.038 A 
ATOM     14  C   UNL d   1     -11.916  -4.635  -0.935  0.00  0.00     0.068 A 
ATOM     15  C   UNL d   1     -11.500  -4.883   0.374  0.00  0.00     0.038 A 
ATOM     16  C   UNL d   1     -10.163  -4.712   0.738  0.00  0.00     0.020 A 
BRANCH  14  17
ATOM     17  O   UNL d   1     -13.257  -4.793  -1.151  0.00  0.00    -0.356 OA
ATOM     18  C   UNL d   1     -13.763  -4.319  -2.393  0.00  0.00     0.210 C 
ENDBRANCH  14  17
ENDBRANCH   8  11
ENDBRANCH   4   7
BRANCH   1  19
ATOM     19  C   UNL d   1      -1.918  -0.921   0.317  0.00  0.00     0.085 A 
ATOM     20  N   UNL d   1      -1.550   0.306   0.005  0.00  0.00    -0.349 N 
ATOM     21  C   UNL d   1      -0.204   0.490   0.288  0.00  0.00     0.050 A 
ATOM     22  HN  UNL d   1      -2.166   1.017  -0.388  1.00  0.00     0.166 HD
ATOM     23  C   UNL d   1       0.524   1.687   0.132  0.00  0.00     0.031 A 
ATOM     24  C   UNL d   1       0.462  -0.632   0.779  0.00  0.00     0.033 A 
ATOM     25  C   UNL d   1       1.879   1.730   0.480  0.00  0.00     0.002 A 
ATOM     26  C   UNL d   1       2.518   0.596   0.973  0.00  0.00     0.002 A 
ATOM     27  C   UNL d   1       1.823  -0.606   1.125  0.00  0.00     0.021 A 
ATOM     28  S   UNL d   1      -0.641  -1.941   0.867  0.00  0.00    -0.070 SA
ENDBRANCH   1  19
TORSDOF 4
