REMARK  2 active torsions:
REMARK  status: ('A' for Active; 'I' for Inactive)
REMARK    1  A    between atoms: N_11  and  N_4 
REMARK    2  A    between atoms: C_22  and  C_17 
ROOT
ATOM      1  C   UNL d   1      -0.439   0.432  -0.159  0.00  0.00     0.075 A 
ATOM      2  C   UNL d   1      -0.070  -0.890  -0.060  0.00  0.00     0.092 A 
ATOM      3  C   UNL d   1       0.629   1.411  -0.345  0.00  0.00     0.281 A 
ATOM      4  N   UNL d   1       1.936   0.863  -0.279  0.00  0.00    -0.208 N 
ATOM      5  N   UNL d   1       1.186  -1.393  -0.067  0.00  0.00    -0.338 N 
ATOM      6  HN  UNL d   1       1.373  -2.393   0.001  1.00  0.00     0.168 HD
ATOM      7  C   UNL d   1       2.138  -0.513  -0.166  0.00  0.00     0.104 A 
ATOM      8  S   UNL d   1      -1.414  -1.922   0.076  0.00  0.00    -0.076 SA
ATOM      9  C   UNL d   1      -1.872   0.614  -0.057  0.00  0.00    -0.031 A 
ATOM     10  C   UNL d   1      -2.516  -0.615   0.017  0.00  0.00    -0.012 A 
ATOM     11  O   UNL d   1       0.378   2.597  -0.560  0.00  0.00    -0.265 OA
ATOM     12  C   UNL d   1       3.556  -1.042  -0.121  0.00  0.00     0.091 C 
ATOM     13  C   UNL d   1      -2.597   1.925  -0.051  0.00  0.00     0.050 C 
ATOM     14  C   UNL d   1      -3.980  -0.919   0.046  0.00  0.00     0.057 C 
ENDROOT
BRANCH   4  15
ATOM     15  N   UNL d   1       3.077   1.669  -0.422  0.00  0.00    -0.300 N 
ATOM     16  C   UNL d   1       3.040   2.817   0.179  0.00  0.00     0.119 C 
ATOM     17  HN  UNL d   1       3.886   1.368  -0.966  1.00  0.00     0.186 HD
BRANCH  16  18
ATOM     18  C   UNL d   1       4.171   3.762   0.222  0.00  0.00    -0.017 A 
ATOM     19  C   UNL d   1       4.195   4.612   1.329  0.00  0.00     0.052 A 
ATOM     20  C   UNL d   1       5.214   5.530   1.408  0.00  0.00     0.105 A 
ATOM     21  O   UNL d   1       5.377   6.432   2.411  0.00  0.00    -0.323 OA
ATOM     22  C   UNL d   1       6.185   5.624   0.444  0.00  0.00     0.105 A 
ATOM     23  C   UNL d   1       6.479   7.201   1.891  0.00  0.00     0.352 C 
ATOM     24  O   UNL d   1       7.076   6.615   0.713  0.00  0.00    -0.323 OA
ATOM     25  C   UNL d   1       6.198   4.780  -0.654  0.00  0.00     0.040 A 
ATOM     26  C   UNL d   1       5.176   3.824  -0.767  0.00  0.00     0.016 A 
ENDBRANCH  16  18
ENDBRANCH   4  15
TORSDOF 2
