REMARK  4 active torsions:
REMARK  status: ('A' for Active; 'I' for Inactive)
REMARK       I    between atoms: N_3  and  C_1 
REMARK    1  A    between atoms: C_8  and  C_1 
REMARK    2  A    between atoms: O_6  and  C_2 
REMARK    3  A    between atoms: C_9  and  N_3 
REMARK    4  A    between atoms: C_5  and  O_6 
ROOT
ATOM      1  C   UNL d   1       0.401   1.190   3.463  0.00  0.00     0.175 A 
ATOM      2  C   UNL d   1       0.866   1.356   2.151  0.00  0.00     0.087 A 
ATOM      3  N   UNL d   1       1.016   1.763   4.531  0.00  0.00    -0.345 N 
ATOM      4  HN  UNL d   1       0.626   1.681   5.470  1.00  0.00     0.167 HD
ATOM      5  C   UNL d   1       2.088   2.012   1.973  0.00  0.00     0.035 A 
ATOM      6  C   UNL d   1       2.157   2.442   4.307  0.00  0.00     0.090 A 
ATOM      7  C   UNL d   1       2.737   2.577   3.061  0.00  0.00     0.019 A 
ENDROOT
BRANCH   2   8
ATOM      8  N   UNL d   1       0.241   0.945   0.958  0.00  0.00    -0.319 N 
ATOM      9  C   UNL d   1      -1.052   1.055   0.539  0.00  0.00     0.256 C 
ATOM     10  O   UNL d   1      -1.334   0.623  -0.594  0.00  0.00    -0.267 OA
ATOM     11  H   UNL d   1       0.844   0.743   0.169  0.00  0.00     0.169 HD
BRANCH   9  12
ATOM     12  C   UNL d   1      -2.118   1.727   1.306  0.00  0.00     0.035 C 
ATOM     13  C   UNL d   1      -3.372   1.128   1.232  0.00  0.00     0.056 C 
ATOM     14  C   UNL d   1      -4.440   1.618   1.975  0.00  0.00     0.103 C 
ATOM     15  O   UNL d   1      -5.323   0.626   2.276  0.00  0.00    -0.348 OA
ATOM     16  C   UNL d   1      -4.336   2.861   2.602  0.00  0.00     0.102 C 
ATOM     17  C   UNL d   1      -6.713   0.850   2.344  0.00  0.00     0.178 C 
ATOM     18  C   UNL d   1      -7.160   2.004   3.213  0.00  0.00     0.053 C 
ATOM     19  C   UNL d   1      -6.636   3.302   2.643  0.00  0.00     0.178 C 
ATOM     20  O   UNL d   1      -5.346   3.560   3.196  0.00  0.00    -0.348 OA
ATOM     21  C   UNL d   1      -3.073   3.456   2.701  0.00  0.00     0.040 C 
ATOM     22  C   UNL d   1      -1.958   2.885   2.073  0.00  0.00     0.020 C 
ENDBRANCH   9  12
ENDBRANCH   2   8
BRANCH   1  23
ATOM     23  O   UNL d   1      -0.714   0.401   3.711  0.00  0.00    -0.291 OA
BRANCH  23  24
ATOM     24  C   UNL d   1      -0.758  -0.309   4.898  0.00  0.00     0.084 A 
ATOM     25  C   UNL d   1      -1.983  -0.471   5.534  0.00  0.00    -0.017 A 
ATOM     26  C   UNL d   1      -2.118  -1.295   6.663  0.00  0.00    -0.043 A 
ATOM     27  C   UNL d   1      -3.292   0.137   5.147  0.00  0.00     0.042 C 
ATOM     28  C   UNL d   1      -3.541  -1.380   7.109  0.00  0.00     0.040 C 
ATOM     29  C   UNL d   1      -1.024  -1.968   7.203  0.00  0.00    -0.055 A 
ATOM     30  C   UNL d   1      -4.256  -0.338   6.243  0.00  0.00     0.009 C 
ATOM     31  C   UNL d   1       0.222  -1.767   6.599  0.00  0.00     0.010 A 
ATOM     32  C   UNL d   1      -1.176  -2.897   8.370  0.00  0.00     0.049 C 
ATOM     33  C   UNL d   1       0.348  -0.971   5.444  0.00  0.00     0.038 A 
ENDBRANCH  23  24
ENDBRANCH   1  23
TORSDOF 4
