REMARK  3 active torsions:
REMARK  status: ('A' for Active; 'I' for Inactive)
REMARK    1  A    between atoms: N_2  and  C_1 
REMARK    2  A    between atoms: C_3  and  N_2 
REMARK    3  A    between atoms: N_12  and  N_11 
ROOT
ATOM      1  N   UNL d   1       0.780   1.207   0.318  0.00  0.00    -0.361 N 
ATOM      2  H   UNL d   1       1.027   1.136  -0.664  0.00  0.00     0.162 HD
ENDROOT
BRANCH   1   3
ATOM      3  C   UNL d   1      -0.012   0.180   0.674  0.00  0.00     0.182 C 
ATOM      4  S   UNL d   1      -0.292  -1.009  -0.470  0.00  0.00    -0.040 SA
ATOM      5  N   UNL d   1      -0.589   0.042   1.892  0.00  0.00    -0.300 N 
ATOM      6  H   UNL d   1      -1.139  -0.811   2.007  0.00  0.00     0.183 HD
BRANCH   5   7
ATOM      7  N   UNL d   1      -0.391   0.830   3.023  0.00  0.00    -0.248 NA
ATOM      8  H   UNL d   1      -0.635   1.794   2.799  0.00  0.00     0.143 HD
ATOM      9  H   UNL d   1       0.599   0.802   3.272  0.00  0.00     0.143 HD
ENDBRANCH   5   7
ENDBRANCH   1   3
BRANCH   1  10
ATOM     10  C   UNL d   1       1.075   2.509   0.902  0.00  0.00     0.092 C 
ATOM     11  C   UNL d   1       2.371   3.164   0.338  0.00  0.00     0.031 C 
ATOM     12  C   UNL d   1       2.270   3.299  -1.166  0.00  0.00    -0.024 C 
ATOM     13  C   UNL d   1       2.128   4.630   0.716  0.00  0.00     0.019 C 
ATOM     14  C   UNL d   1       1.325   4.224  -1.416  0.00  0.00    -0.026 C 
ATOM     15  C   UNL d   1       0.822   4.716  -0.080  0.00  0.00     0.010 C 
ATOM     16  C   UNL d   1      -0.008   3.584   0.571  0.00  0.00     0.034 C 
ENDBRANCH   1  10
TORSDOF 3
