REMARK  7 active torsions:
REMARK  status: ('A' for Active; 'I' for Inactive)
REMARK    1  A    between atoms: C_8  and  C_1 
REMARK    2  A    between atoms: C_6  and  N_11 
REMARK    3  A    between atoms: N_10  and  C_6 
REMARK    4  A    between atoms: O_16  and  C_8 
REMARK    5  A    between atoms: N_11  and  N_9 
REMARK    6  A    between atoms: C_12  and  N_10 
REMARK    7  A    between atoms: C_21  and  O_16 
ROOT
ATOM      1  C   UNL d   1      -0.001   1.359  -0.212  0.00  0.00     0.109 A 
ATOM      2  C   UNL d   1      -1.290   0.902  -0.406  0.00  0.00     0.153 A 
ATOM      3  N   UNL d   1       0.032  -0.935  -0.241  0.00  0.00    -0.302 N 
ATOM      4  HN  UNL d   1       0.335  -1.908  -0.196  1.00  0.00     0.186 HD
ATOM      5  N   UNL d   1      -1.211  -0.462  -0.425  0.00  0.00    -0.283 N 
ATOM      6  C   UNL d   1       0.782   0.171  -0.131  0.00  0.00     0.042 A 
ATOM      7  N   UNL d   1      -2.468   1.548  -0.587  0.00  0.00    -0.281 N 
ATOM      8  C   UNL d   1       2.250   0.059   0.072  0.00  0.00     0.071 C 
ATOM      9  H   UNL d   1      -1.972  -1.115  -0.569  0.00  0.00     0.188 HD
ATOM     10  H   UNL d   1      -2.432   2.571  -0.672  0.00  0.00     0.188 HD
ENDROOT
BRANCH   7  11
ATOM     11  N   UNL d   1      -3.616   1.124   0.086  0.00  0.00    -0.274 N 
ATOM     12  H   UNL d   1      -3.479   0.731   1.011  0.00  0.00     0.189 HD
BRANCH  11  13
ATOM     13  C   UNL d   1      -4.872   1.490  -0.344  0.00  0.00     0.191 C 
ATOM     14  S   UNL d   1      -5.244   2.074  -1.867  0.00  0.00    -0.039 SA
BRANCH  13  15
ATOM     15  N   UNL d   1      -5.896   1.249   0.533  0.00  0.00    -0.331 N 
ATOM     16  H   UNL d   1      -6.808   1.122   0.099  0.00  0.00     0.168 HD
BRANCH  15  17
ATOM     17  C   UNL d   1      -5.890   1.257   1.949  0.00  0.00     0.056 A 
ATOM     18  C   UNL d   1      -6.939   0.634   2.646  0.00  0.00     0.060 A 
ATOM     19 CL   UNL d   1      -8.194  -0.210   1.807  0.00  0.00    -0.082 Cl
ATOM     20  C   UNL d   1      -6.976   0.655   4.043  0.00  0.00     0.026 A 
ATOM     21  C   UNL d   1      -5.984   1.326   4.757  0.00  0.00     0.002 A 
ATOM     22  C   UNL d   1      -4.960   1.979   4.076  0.00  0.00     0.002 A 
ATOM     23  C   UNL d   1      -4.914   1.948   2.679  0.00  0.00     0.031 A 
ENDBRANCH  15  17
ENDBRANCH  13  15
ENDBRANCH  11  13
ENDBRANCH   7  11
BRANCH   1  24
ATOM     24  C   UNL d   1       0.441   2.730  -0.050  0.00  0.00     0.299 C 
ATOM     25  O   UNL d   1       1.601   3.039   0.185  0.00  0.00    -0.259 OA
BRANCH  24  26
ATOM     26  O   UNL d   1      -0.600   3.617  -0.085  0.00  0.00    -0.318 OA
BRANCH  26  27
ATOM     27  C   UNL d   1      -0.322   4.928   0.427  0.00  0.00     0.174 C 
ATOM     28  C   UNL d   1      -0.619   4.932   1.916  0.00  0.00     0.034 C 
ENDBRANCH  26  27
ENDBRANCH  24  26
ENDBRANCH   1  24
TORSDOF 7
