REMARK  17 active torsions:
REMARK  status: ('A' for Active; 'I' for Inactive)
REMARK    1  A    between atoms: C_3  and  C_1 
REMARK    2  A    between atoms: C_3  and  O_11 
REMARK    3  A    between atoms: C_5  and  C_3 
REMARK    4  A    between atoms: CA_4  and  C_10 
REMARK    5  A    between atoms: C_5  and  O_12 
REMARK    6  A    between atoms: C_5  and  C_7 
REMARK    7  A    between atoms: C_7  and  O_13 
REMARK    8  A    between atoms: C_7  and  C_9 
REMARK    9  A    between atoms: C_9  and  C_20 
REMARK   10  A    between atoms: C_9  and  O_14 
REMARK   11  A    between atoms: OXT_28  and  C_10 
REMARK   12  A    between atoms: C_15  and  O_11 
REMARK   13  A    between atoms: C_16  and  O_12 
REMARK   14  A    between atoms: C_17  and  O_13 
REMARK   15  A    between atoms: C_18  and  O_14 
REMARK   16  A    between atoms: C_19  and  O_22 
REMARK   17  A    between atoms: O_22  and  C_20 
ROOT
ATOM      1  C   UNL d   1      -3.954   0.415   0.996  0.00  0.00     0.196 C 
ENDROOT
BRANCH   1   2
ATOM      2  O   UNL d   1      -3.798   1.827   0.761  0.00  0.00    -0.311 OA
BRANCH   2   3
ATOM      3  C   UNL d   1      -3.309   2.138  -0.475  0.00  0.00     0.255 C 
ATOM      4  O   UNL d   1      -2.750   1.352  -1.228  0.00  0.00    -0.266 OA
ATOM      5  C   UNL d   1      -3.596   3.555  -0.855  0.00  0.00     0.126 C 
ENDBRANCH   2   3
ENDBRANCH   1   2
BRANCH   1   6
ATOM      6  C   UNL d   1      -2.635  -0.378   1.302  0.00  0.00     0.195 C 
BRANCH   6   7
ATOM      7  O   UNL d   1      -2.911  -1.768   1.640  0.00  0.00    -0.311 OA
BRANCH   7   8
ATOM      8  C   UNL d   1      -3.390  -2.546   0.630  0.00  0.00     0.255 C 
ATOM      9  O   UNL d   1      -3.680  -2.142  -0.488  0.00  0.00    -0.266 OA
ATOM     10  C   UNL d   1      -3.592  -3.964   1.055  0.00  0.00     0.126 C 
ENDBRANCH   7   8
ENDBRANCH   6   7
BRANCH   6  11
ATOM     11  C   UNL d   1      -1.591   0.220   2.285  0.00  0.00     0.188 C 
BRANCH  11  12
ATOM     12  C   UNL d   1      -1.971   0.222   3.761  0.00  0.00     0.213 C 
BRANCH  12  13
ATOM     13  O   UNL d   1      -0.870   0.685   4.576  0.00  0.00    -0.319 OA
BRANCH  13  14
ATOM     14  C   UNL d   1      -0.140  -0.252   5.222  0.00  0.00     0.254 C 
ATOM     15  O   UNL d   1      -0.290  -1.464   5.108  0.00  0.00    -0.266 OA
ATOM     16  C   UNL d   1       0.891   0.399   6.095  0.00  0.00     0.126 C 
ENDBRANCH  13  14
ENDBRANCH  12  13
ENDBRANCH  11  12
BRANCH  11  17
ATOM     17  O   UNL d   1      -1.313   1.597   1.940  0.00  0.00    -0.311 OA
BRANCH  17  18
ATOM     18  C   UNL d   1      -0.276   1.824   1.098  0.00  0.00     0.255 C 
ATOM     19  O   UNL d   1       0.451   0.965   0.621  0.00  0.00    -0.266 OA
ATOM     20  C   UNL d   1      -0.156   3.289   0.808  0.00  0.00     0.126 C 
ENDBRANCH  17  18
ENDBRANCH  11  17
ENDBRANCH   6  11
ENDBRANCH   1   6
BRANCH   1  21
ATOM     21  C   UNL d   1      -5.190   0.110   1.891  0.00  0.00     0.207 C 
BRANCH  21  22
ATOM     22  C   UNL d   1      -6.517   0.808   1.421  0.00  0.00     0.315 C 
ATOM     23  N   UNL d   1      -6.800   0.695  -0.034  0.00  0.00     0.116 N 
ATOM     24  CA  UNL d   1      -8.296   0.601  -0.180  0.00  0.00     0.336 C 
ATOM     25  H   UNL d   1      -6.412  -0.200  -0.351  0.00  0.00     0.318 HD
ATOM     26  C   UNL d   1      -8.805  -0.478   0.787  0.00  0.00     0.044 C 
ATOM     27  S   UNL d   1      -7.921   0.011   2.310  0.00  0.00    -0.119 SA
ATOM     28  C   UNL d   1      -8.386  -1.910   0.423  0.00  0.00     0.029 C 
ATOM     29  C   UNL d   1     -10.308  -0.407   1.052  0.00  0.00     0.029 C 
BRANCH  24  30
ATOM     30  C   UNL d   1      -8.628   0.325  -1.654  0.00  0.00     0.175 C 
ATOM     31  O   UNL d   1      -9.646  -0.206  -2.067  0.00  0.00    -0.648 OA
BRANCH  30  32
ATOM     32  OXT UNL d   1      -7.650   0.782  -2.479  0.00  0.00    -0.775 OA
ATOM     33  HXT UNL d   1      -6.935   1.175  -1.927  0.00  0.00     0.167 HD
ENDBRANCH  30  32
ENDBRANCH  24  30
ENDBRANCH  21  22
BRANCH  21  34
ATOM     34  O   UNL d   1      -4.962   0.220   3.321  0.00  0.00    -0.310 OA
BRANCH  34  35
ATOM     35  C   UNL d   1      -5.048   1.424   3.945  0.00  0.00     0.255 C 
ATOM     36  O   UNL d   1      -5.060   2.507   3.382  0.00  0.00    -0.266 OA
ATOM     37  C   UNL d   1      -5.033   1.241   5.437  0.00  0.00     0.126 C 
ENDBRANCH  34  35
ENDBRANCH  21  34
ENDBRANCH   1  21
TORSDOF 17
