REMARK  5 active torsions:
REMARK  status: ('A' for Active; 'I' for Inactive)
REMARK    1  A    between atoms: C_17  and  C_5 
REMARK    2  A    between atoms: S_12  and  C_7 
REMARK    3  A    between atoms: C_10  and  S_12 
REMARK    4  A    between atoms: O_21  and  C_17 
REMARK    5  A    between atoms: C_26  and  O_21 
ROOT
ATOM      1  C   UNL d   1       1.477  -0.941  -0.167  0.00  0.00     0.161 A 
ATOM      2  N   UNL d   1       0.818   0.270  -0.223  0.00  0.00    -0.221 N 
ATOM      3  N   UNL d   1       0.810  -2.130  -0.093  0.00  0.00    -0.333 N 
ATOM      4  HN  UNL d   1       1.311  -3.018  -0.097  1.00  0.00     0.168 HD
ATOM      5  C   UNL d   1       2.811  -0.563  -0.139  0.00  0.00     0.167 A 
ATOM      6  N   UNL d   1       1.669   1.306  -0.308  0.00  0.00    -0.013 NA
ATOM      7  C   UNL d   1      -0.492  -2.090  -0.018  0.00  0.00     0.092 A 
ATOM      8  N   UNL d   1       2.897   0.812  -0.251  0.00  0.00    -0.275 N 
ATOM      9  HN  UNL d   1       3.760   1.354  -0.283  1.00  0.00     0.184 HD
ATOM     10  C   UNL d   1      -1.286  -0.815   0.026  0.00  0.00     0.026 A 
ATOM     11  C   UNL d   1      -0.571   0.385  -0.115  0.00  0.00     0.069 A 
ATOM     12  C   UNL d   1      -2.672  -0.740   0.215  0.00  0.00     0.017 A 
ATOM     13  C   UNL d   1      -1.202   1.632  -0.099  0.00  0.00     0.032 A 
ATOM     14  C   UNL d   1      -3.313   0.504   0.230  0.00  0.00     0.001 A 
ATOM     15  C   UNL d   1      -2.583   1.683   0.070  0.00  0.00     0.002 A 
ENDROOT
BRANCH   7  16
ATOM     16  S   UNL d   1      -1.304  -3.636   0.141  0.00  0.00    -0.028 SA
BRANCH  16  17
ATOM     17  C   UNL d   1      -2.053  -3.748  -1.428  0.00  0.00     0.194 A 
ATOM     18  N   UNL d   1      -2.231  -2.735  -2.257  0.00  0.00    -0.328 N 
ATOM     19  C   UNL d   1      -2.954  -3.274  -3.292  0.00  0.00     0.068 A 
ATOM     20  HN  UNL d   1      -1.907  -1.773  -2.152  1.00  0.00     0.168 HD
ATOM     21  C   UNL d   1      -3.466  -2.700  -4.464  0.00  0.00     0.032 A 
ATOM     22  C   UNL d   1      -3.183  -4.617  -3.052  0.00  0.00     0.105 A 
ATOM     23  C   UNL d   1      -4.189  -3.523  -5.343  0.00  0.00     0.002 A 
ATOM     24  C   UNL d   1      -4.394  -4.880  -5.062  0.00  0.00     0.003 A 
ATOM     25  C   UNL d   1      -3.890  -5.467  -3.894  0.00  0.00     0.040 A 
ATOM     26  O   UNL d   1      -2.610  -4.928  -1.856  0.00  0.00    -0.285 OA
ENDBRANCH  16  17
ENDBRANCH   7  16
BRANCH   5  27
ATOM     27  C   UNL d   1       3.979  -1.402   0.062  0.00  0.00     0.315 C 
ATOM     28  O   UNL d   1       3.942  -2.614   0.239  0.00  0.00    -0.257 OA
BRANCH  27  29
ATOM     29  O   UNL d   1       5.126  -0.658   0.117  0.00  0.00    -0.317 OA
BRANCH  29  30
ATOM     30  C   UNL d   1       6.281  -1.317   0.652  0.00  0.00     0.175 C 
ATOM     31  C   UNL d   1       6.276  -1.154   2.161  0.00  0.00     0.034 C 
ENDBRANCH  29  30
ENDBRANCH  27  29
ENDBRANCH   5  27
TORSDOF 5
