REMARK  6 active torsions:
REMARK  status: ('A' for Active; 'I' for Inactive)
REMARK    1  A    between atoms: C_14  and  N_1 
REMARK    2  A    between atoms: C_7  and  C_2 
REMARK    3  A    between atoms: O_17  and  C_8 
REMARK    4  A    between atoms: O_18  and  C_9 
REMARK    5  A    between atoms: O_19  and  C_10 
REMARK    6  A    between atoms: C_15  and  C_14 
ROOT
ATOM      1  C   UNL d   1       2.098   1.586  -0.145  0.00  0.00     0.015 A 
ATOM      2  C   UNL d   1       4.410   3.220  -0.261  0.00  0.00     0.135 A 
ATOM      3  C   UNL d   1       4.109   2.333  -1.317  0.00  0.00     0.105 A 
ATOM      4  C   UNL d   1       3.507   3.308   0.821  0.00  0.00     0.105 A 
ATOM      5  C   UNL d   1       2.938   1.562  -1.258  0.00  0.00     0.055 A 
ATOM      6  C   UNL d   1       2.383   2.475   0.890  0.00  0.00     0.055 A 
ENDROOT
BRANCH   1   7
ATOM      7  C   UNL d   1       0.865   0.773  -0.074  0.00  0.00     0.135 A 
ATOM      8  N   UNL d   1       0.748  -0.515  -0.540  0.00  0.00    -0.304 N 
ATOM      9  C   UNL d   1      -0.551  -0.873  -0.252  0.00  0.00     0.194 A 
ATOM     10  N   UNL d   1      -1.129   0.231   0.351  0.00  0.00    -0.274 N 
ATOM     11  S   UNL d   1      -1.362  -2.296  -0.509  0.00  0.00    -0.039 SA
ATOM     12  N   UNL d   1      -0.227   1.242   0.466  0.00  0.00    -0.282 N 
ATOM     13  H   UNL d   1      -2.072   0.302   0.715  0.00  0.00     0.189 HD
ATOM     14  HN  UNL d   1      -0.372   2.162   0.883  1.00  0.00     0.188 HD
BRANCH   8  15
ATOM     15  C   UNL d   1       1.783  -1.425  -1.019  0.00  0.00     0.160 C 
BRANCH  15  16
ATOM     16  C   UNL d   1       1.901  -1.458  -2.522  0.00  0.00    -0.017 C 
ATOM     17  C   UNL d   1       1.062  -0.949  -3.437  0.00  0.00     0.008 C 
ENDBRANCH  15  16
ENDBRANCH   8  15
ENDBRANCH   1   7
BRANCH   3  18
ATOM     18  O   UNL d   1       4.956   2.277  -2.396  0.00  0.00    -0.353 OA
ATOM     19  C   UNL d   1       4.802   1.208  -3.321  0.00  0.00     0.210 C 
ENDBRANCH   3  18
BRANCH   4  20
ATOM     20  O   UNL d   1       3.645   4.143   1.907  0.00  0.00    -0.353 OA
ATOM     21  C   UNL d   1       4.025   5.482   1.595  0.00  0.00     0.210 C 
ENDBRANCH   4  20
BRANCH   2  22
ATOM     22  O   UNL d   1       5.523   4.012  -0.149  0.00  0.00    -0.351 OA
ATOM     23  C   UNL d   1       6.517   4.006  -1.160  0.00  0.00     0.210 C 
ENDBRANCH   2  22
TORSDOF 6
