REMARK  4 active torsions:
REMARK  status: ('A' for Active; 'I' for Inactive)
REMARK    1  A    between atoms: C_4  and  N_1 
REMARK    2  A    between atoms: S_7  and  C_5 
REMARK    3  A    between atoms: C_9  and  S_7 
REMARK    4  A    between atoms: N_16  and  C_13 
ROOT
ATOM      1  N   UNL d   1       0.035   0.831  -0.118  0.00  0.00    -0.251 N 
ATOM      2  C   UNL d   1      -1.063   0.089   0.232  0.00  0.00     0.232 C 
ATOM      3  C   UNL d   1       1.160   0.049  -0.241  0.00  0.00     0.245 C 
ATOM      4  C   UNL d   1       0.742  -1.402  -0.257  0.00  0.00     0.154 C 
ATOM      5  C   UNL d   1      -0.714  -1.369   0.172  0.00  0.00     0.129 C 
ATOM      6  O   UNL d   1      -2.172   0.488   0.565  0.00  0.00    -0.273 OA
ATOM      7  O   UNL d   1       2.328   0.419  -0.279  0.00  0.00    -0.271 OA
ENDROOT
BRANCH   4   8
ATOM      8  S   UNL d   1       1.017  -2.032  -1.955  0.00  0.00    -0.113 SA
BRANCH   8   9
ATOM      9  C   UNL d   1       0.530  -3.748  -1.761  0.00  0.00     0.022 A 
ATOM     10  C   UNL d   1      -0.473  -4.285  -2.595  0.00  0.00     0.022 A 
ATOM     11  C   UNL d   1      -0.870  -5.613  -2.407  0.00  0.00     0.024 A 
ATOM     12  C   UNL d   1      -0.211  -6.430  -1.486  0.00  0.00     0.002 A 
ATOM     13  C   UNL d   1       0.825  -5.914  -0.713  0.00  0.00     0.001 A 
ATOM     14  C   UNL d   1       1.196  -4.575  -0.847  0.00  0.00     0.020 A 
BRANCH  10  15
ATOM     15  N   UNL d   1      -1.236  -3.458  -3.448  0.00  0.00    -0.302 NA
ATOM     16  H   UNL d   1      -0.704  -2.635  -3.729  0.00  0.00     0.124 HD
ATOM     17  H   UNL d   1      -1.622  -3.953  -4.246  0.00  0.00     0.124 HD
ENDBRANCH  10  15
ENDBRANCH   8   9
ENDBRANCH   4   8
BRANCH   1  18
ATOM     18  C   UNL d   1       0.077   2.249  -0.125  0.00  0.00     0.052 A 
ATOM     19  C   UNL d   1      -0.529   2.960   0.924  0.00  0.00     0.054 A 
ATOM     20  C   UNL d   1      -0.438   4.350   0.984  0.00  0.00     0.036 A 
ATOM     21 CL   UNL d   1      -1.138   5.198   2.308  0.00  0.00    -0.084 Cl
ATOM     22  C   UNL d   1       0.232   5.058  -0.007  0.00  0.00     0.024 A 
ATOM     23  C   UNL d   1       0.802   4.370  -1.076  0.00  0.00     0.011 A 
ATOM     24  C   UNL d   1       0.719   2.967  -1.160  0.00  0.00    -0.035 A 
ATOM     25  C   UNL d   1       1.287   2.323  -2.398  0.00  0.00     0.050 C 
ENDBRANCH   1  18
TORSDOF 4
