REMARK  9 active torsions:
REMARK  status: ('A' for Active; 'I' for Inactive)
REMARK    1  A    between atoms: C_11  and  N_1 
REMARK    2  A    between atoms: S_10  and  C_2 
REMARK    3  A    between atoms: C_14  and  C_3 
REMARK    4  A    between atoms: C_21  and  S_10 
REMARK    5  A    between atoms: C_12  and  C_21 
REMARK       I    between atoms: N_17  and  C_12 
REMARK    6  A    between atoms: C_13  and  O_15 
REMARK    7  A    between atoms: O_15  and  C_14 
REMARK    8  A    between atoms: C_22  and  N_17 
REMARK    9  A    between atoms: C_25  and  C_22 
ROOT
ATOM      1  N   UNL d   1      -0.459  -1.295  -0.040  0.00  0.00    -0.277 N 
ATOM      2  C   UNL d   1       0.777  -0.659  -0.064  0.00  0.00     0.168 C 
ATOM      3  C   UNL d   1      -1.364  -0.237   0.061  0.00  0.00     0.129 C 
ATOM      4  N   UNL d   1       0.642   0.613   0.220  0.00  0.00    -0.278 N 
ATOM      5  HN  UNL d   1       1.398   1.279   0.373  1.00  0.00     0.189 HD
ATOM      6  N   UNL d   1      -0.691   0.884   0.275  0.00  0.00    -0.285 N 
ATOM      7  HN  UNL d   1      -1.104   1.799   0.452  1.00  0.00     0.188 HD
ENDROOT
BRANCH   2   8
ATOM      8  S   UNL d   1       2.241  -1.376  -0.669  0.00  0.00    -0.083 SA
BRANCH   8   9
ATOM      9  C   UNL d   1       3.492  -0.137  -0.269  0.00  0.00     0.185 C 
BRANCH   9  10
ATOM     10  C   UNL d   1       3.565   0.980  -1.294  0.00  0.00     0.227 C 
ATOM     11  N   UNL d   1       2.576   1.930  -1.198  0.00  0.00    -0.356 N 
ATOM     12  H   UNL d   1       1.788   1.768  -0.572  0.00  0.00     0.162 HD
ATOM     13  O   UNL d   1       4.497   1.057  -2.092  0.00  0.00    -0.273 OA
BRANCH  11  14
ATOM     14  C   UNL d   1       2.610   3.174  -1.925  0.00  0.00     0.161 C 
BRANCH  14  15
ATOM     15  C   UNL d   1       1.476   3.401  -2.896  0.00  0.00    -0.041 A 
ATOM     16  C   UNL d   1       0.423   2.501  -3.105  0.00  0.00     0.009 A 
ATOM     17  C   UNL d   1      -0.590   2.792  -4.032  0.00  0.00     0.001 A 
ATOM     18  C   UNL d   1      -0.557   3.983  -4.754  0.00  0.00     0.000 A 
ATOM     19  C   UNL d   1       0.478   4.892  -4.554  0.00  0.00     0.001 A 
ATOM     20  C   UNL d   1       1.486   4.601  -3.633  0.00  0.00     0.009 A 
ENDBRANCH  14  15
ENDBRANCH  11  14
ENDBRANCH   9  10
ENDBRANCH   8   9
ENDBRANCH   2   8
BRANCH   1  21
ATOM     21  C   UNL d   1      -0.695  -2.699  -0.082  0.00  0.00     0.043 A 
ATOM     22  C   UNL d   1       0.191  -3.568   0.580  0.00  0.00     0.030 A 
ATOM     23  C   UNL d   1       0.043  -4.952   0.472  0.00  0.00     0.002 A 
ATOM     24  C   UNL d   1      -1.004  -5.478  -0.276  0.00  0.00     0.000 A 
ATOM     25  C   UNL d   1      -1.911  -4.622  -0.900  0.00  0.00     0.002 A 
ATOM     26  C   UNL d   1      -1.763  -3.233  -0.806  0.00  0.00     0.030 A 
ENDBRANCH   1  21
BRANCH   3  27
ATOM     27  C   UNL d   1      -2.854  -0.315   0.110  0.00  0.00     0.254 C 
BRANCH  27  28
ATOM     28  O   UNL d   1      -3.348   0.169  -1.145  0.00  0.00    -0.343 OA
BRANCH  28  29
ATOM     29  C   UNL d   1      -4.707   0.312  -1.259  0.00  0.00     0.076 A 
ATOM     30  C   UNL d   1      -5.186   0.941  -2.406  0.00  0.00    -0.018 A 
ATOM     31  C   UNL d   1      -6.560   1.094  -2.639  0.00  0.00    -0.043 A 
ATOM     32  C   UNL d   1      -4.381   1.545  -3.514  0.00  0.00     0.042 A 
ATOM     33  C   UNL d   1      -6.831   1.788  -3.936  0.00  0.00     0.040 A 
ATOM     34  C   UNL d   1      -7.503   0.629  -1.728  0.00  0.00    -0.055 A 
ATOM     35  C   UNL d   1      -5.434   2.082  -4.494  0.00  0.00     0.009 A 
ATOM     36  C   UNL d   1      -7.028   0.014  -0.565  0.00  0.00     0.010 A 
ATOM     37  C   UNL d   1      -8.974   0.777  -1.977  0.00  0.00     0.049 C 
ATOM     38  C   UNL d   1      -5.649  -0.142  -0.333  0.00  0.00     0.038 A 
ENDBRANCH  28  29
ENDBRANCH  27  28
ENDBRANCH   3  27
TORSDOF 9
