REMARK  4 active torsions:
REMARK  status: ('A' for Active; 'I' for Inactive)
REMARK    1  A    between atoms: C_8  and  N_1 
REMARK    2  A    between atoms: C_4  and  C_2 
REMARK       I    between atoms: N_7  and  C_4 
REMARK    3  A    between atoms: C_11  and  N_7 
REMARK    4  A    between atoms: C_12  and  C_8 
ROOT
ATOM      1  N   UNL d   1       0.143  -0.949   0.158  0.00  0.00    -0.347 N 
ATOM      2  C   UNL d   1      -1.450   0.699  -0.185  0.00  0.00     0.105 C 
ATOM      3  C   UNL d   1       0.868   0.227   0.081  0.00  0.00     0.221 C 
ATOM      4  C   UNL d   1      -1.270  -0.715   0.334  0.00  0.00     0.140 C 
ATOM      5  C   UNL d   1      -0.107   1.381   0.087  0.00  0.00     0.118 C 
ATOM      6  O   UNL d   1       2.079   0.326  -0.028  0.00  0.00    -0.273 OA
ENDROOT
BRANCH   2   7
ATOM      7  C   UNL d   1      -1.837   0.752  -1.667  0.00  0.00     0.228 C 
ATOM      8  N   UNL d   1      -0.893   0.253  -2.549  0.00  0.00    -0.327 N 
ATOM      9  H   UNL d   1      -0.144  -0.311  -2.167  0.00  0.00     0.169 HD
ATOM     10  O   UNL d   1      -2.929   1.214  -1.984  0.00  0.00    -0.273 OA
BRANCH   8  11
ATOM     11  C   UNL d   1      -0.847   0.460  -3.947  0.00  0.00     0.034 A 
ATOM     12  C   UNL d   1      -1.693   1.339  -4.627  0.00  0.00     0.031 A 
ATOM     13  C   UNL d   1      -1.533   1.565  -5.999  0.00  0.00     0.026 A 
ATOM     14  C   UNL d   1      -0.532   0.904  -6.701  0.00  0.00     0.034 A 
ATOM     15  C   UNL d   1       0.306   0.008  -6.042  0.00  0.00     0.026 A 
ATOM     16 CL   UNL d   1      -0.317   1.207  -8.381  0.00  0.00    -0.084 Cl
ATOM     17  C   UNL d   1       0.152  -0.209  -4.670  0.00  0.00     0.031 A 
ENDBRANCH   8  11
ENDBRANCH   2   7
BRANCH   1  18
ATOM     18  C   UNL d   1       0.720  -2.276   0.063  0.00  0.00     0.164 C 
BRANCH  18  19
ATOM     19  C   UNL d   1       0.893  -3.010   1.368  0.00  0.00    -0.040 A 
ATOM     20  C   UNL d   1       0.157  -4.180   1.624  0.00  0.00     0.012 A 
ATOM     21  C   UNL d   1       0.433  -4.960   2.750  0.00  0.00     0.043 A 
ATOM     22  C   UNL d   1       1.436  -4.567   3.626  0.00  0.00     0.116 A 
ATOM     23  C   UNL d   1       2.154  -3.397   3.412  0.00  0.00     0.043 A 
ATOM     24  F   UNL d   1       1.728  -5.339   4.683  0.00  0.00    -0.206 F 
ATOM     25  C   UNL d   1       1.879  -2.615   2.287  0.00  0.00     0.012 A 
ENDBRANCH  18  19
ENDBRANCH   1  18
TORSDOF 4
