REMARK  4 active torsions:
REMARK  status: ('A' for Active; 'I' for Inactive)
REMARK    1  A    between atoms: C_2  and  S_1 
REMARK    2  A    between atoms: N_5  and  S_1 
REMARK    3  A    between atoms: C_4  and  C_10 
REMARK    4  A    between atoms: C_10  and  N_5 
ROOT
ATOM      1  N   UNL d   1       0.355   0.552   1.553  0.00  0.00    -0.210 NA
ATOM      2  H   UNL d   1      -0.650   0.716   1.611  0.00  0.00     0.140 HD
ENDROOT
BRANCH   1   3
ATOM      3  S   UNL d   1       0.776  -0.121   0.061  0.00  0.00     0.248 S 
ATOM      4  O   UNL d   1       0.137   0.664  -0.970  0.00  0.00    -0.205 OA
ATOM      5  O   UNL d   1       2.200  -0.372   0.067  0.00  0.00    -0.205 OA
BRANCH   3   6
ATOM      6  C   UNL d   1       0.030  -1.736  -0.028  0.00  0.00     0.115 A 
ATOM      7  S   UNL d   1      -1.680  -1.787   0.022  0.00  0.00    -0.089 SA
ATOM      8  C   UNL d   1      -1.696  -3.496  -0.075  0.00  0.00     0.051 A 
ATOM      9  C   UNL d   1      -0.424  -4.024  -0.128  0.00  0.00     0.009 A 
ATOM     10  C   UNL d   1       0.574  -3.007  -0.105  0.00  0.00     0.033 A 
ENDBRANCH   3   6
ENDBRANCH   1   3
BRANCH   1  11
ATOM     11  C   UNL d   1       0.913  -0.139   2.713  0.00  0.00     0.161 C 
BRANCH  11  12
ATOM     12  C   UNL d   1       0.398   0.530   3.943  0.00  0.00     0.025 A 
ATOM     13  N   UNL d   1       0.983   1.629   4.544  0.00  0.00    -0.357 N 
ATOM     14  C   UNL d   1       0.329   1.907   5.730  0.00  0.00     0.007 A 
ATOM     15  C   UNL d   1       2.117   2.381   4.042  0.00  0.00     0.156 C 
ATOM     16  C   UNL d   1       0.730   2.977   6.687  0.00  0.00     0.068 C 
ATOM     17  C   UNL d   1      -0.722   1.018   5.842  0.00  0.00     0.027 A 
ATOM     18  C   UNL d   1      -0.687   0.167   4.720  0.00  0.00     0.028 A 
ENDBRANCH  11  12
ENDBRANCH   1  11
TORSDOF 4
