REMARK  4 active torsions:
REMARK  status: ('A' for Active; 'I' for Inactive)
REMARK    1  A    between atoms: C_5  and  C_1 
REMARK    2  A    between atoms: C_2  and  C_4 
REMARK       I    between atoms: C_3  and  N_6 
REMARK    3  A    between atoms: C_9  and  C_3 
REMARK    4  A    between atoms: N_6  and  C_7 
ROOT
ATOM      1  C   UNL d   1       0.862   4.028  -0.082  0.00  0.00     0.050 A 
ATOM      2  C   UNL d   1       0.826   1.604  -0.312  0.00  0.00     0.050 A 
ATOM      3  C   UNL d   1      -1.232   2.893  -0.637  0.00  0.00     0.036 A 
ATOM      4  C   UNL d   1       1.518   2.786  -0.033  0.00  0.00     0.032 A 
ATOM      5  C   UNL d   1      -0.531   1.683  -0.652  0.00  0.00     0.045 A 
ATOM      6  C   UNL d   1      -0.515   4.071  -0.389  0.00  0.00     0.045 A 
ENDROOT
BRANCH   3   7
ATOM      7  N   UNL d   1      -2.635   2.958  -0.840  0.00  0.00    -0.327 N 
ATOM      8  C   UNL d   1      -3.494   1.868  -0.760  0.00  0.00     0.229 C 
ATOM      9  O   UNL d   1      -3.134   0.732  -0.441  0.00  0.00    -0.272 OA
ATOM     10  H   UNL d   1      -3.052   3.876  -0.898  0.00  0.00     0.169 HD
BRANCH   8  11
ATOM     11  C   UNL d   1      -4.984   2.145  -1.035  0.00  0.00     0.030 C 
ATOM     12  C   UNL d   1      -5.181   2.811  -2.402  0.00  0.00     0.025 C 
ATOM     13  C   UNL d   1      -5.730   0.792  -1.038  0.00  0.00     0.025 C 
ATOM     14  C   UNL d   1      -5.569   3.021   0.079  0.00  0.00     0.025 C 
ENDBRANCH   8  11
ENDBRANCH   3   7
BRANCH   2  15
ATOM     15  C   UNL d   1       1.485   0.248  -0.250  0.00  0.00     0.417 C 
ATOM     16  F   UNL d   1       2.671   0.262   0.419  0.00  0.00    -0.166 F 
ATOM     17  F   UNL d   1       1.756  -0.255  -1.485  0.00  0.00    -0.166 F 
ATOM     18  F   UNL d   1       0.717  -0.684   0.377  0.00  0.00    -0.166 F 
ENDBRANCH   2  15
BRANCH   1  19
ATOM     19  C   UNL d   1       1.622   5.302   0.215  0.00  0.00     0.417 C 
ATOM     20  F   UNL d   1       2.913   5.089   0.593  0.00  0.00    -0.166 F 
ATOM     21  F   UNL d   1       1.680   6.134  -0.860  0.00  0.00    -0.166 F 
ATOM     22  F   UNL d   1       1.054   6.024   1.220  0.00  0.00    -0.166 F 
ENDBRANCH   1  19
TORSDOF 4
