REMARK  5 active torsions:
REMARK  status: ('A' for Active; 'I' for Inactive)
REMARK    1  A    between atoms: C_6  and  C_1 
REMARK    2  A    between atoms: N_11  and  C_2 
REMARK    3  A    between atoms: C_10  and  C_5 
REMARK       I    between atoms: N_9  and  C_6 
REMARK    4  A    between atoms: N_7  and  N_9 
REMARK    5  A    between atoms: C_14  and  C_13 
ROOT
ATOM      1  C   UNL d   1      -0.019   1.559   0.017  0.00  0.00     0.068 A 
ATOM      2  C   UNL d   1       0.748   0.403   0.080  0.00  0.00     0.084 A 
ATOM      3  C   UNL d   1      -1.417   1.216  -0.010  0.00  0.00     0.039 A 
ATOM      4  S   UNL d   1      -0.200  -1.018   0.064  0.00  0.00    -0.071 SA
ATOM      5  C   UNL d   1      -1.667  -0.145   0.006  0.00  0.00     0.018 A 
ENDROOT
BRANCH   1   6
ATOM      6  C   UNL d   1       0.578   2.905  -0.023  0.00  0.00     0.272 C 
ATOM      7  N   UNL d   1      -0.332   3.963  -0.040  0.00  0.00    -0.266 N 
ATOM      8  H   UNL d   1      -1.327   3.807  -0.014  0.00  0.00     0.190 HD
ATOM      9  O   UNL d   1       1.798   3.073  -0.051  0.00  0.00    -0.266 OA
BRANCH   7  10
ATOM     10  N   UNL d   1       0.140   5.244  -0.046  0.00  0.00    -0.308 N 
ATOM     11  C   UNL d   1      -0.734   6.199  -0.070  0.00  0.00     0.118 C 
ATOM     12  HN  UNL d   1       1.140   5.441  -0.032  1.00  0.00     0.186 HD
BRANCH  11  13
ATOM     13  C   UNL d   1      -0.296   7.612  -0.043  0.00  0.00    -0.019 A 
ATOM     14  C   UNL d   1       1.070   7.920   0.010  0.00  0.00     0.014 A 
ATOM     15  C   UNL d   1       1.486   9.251   0.059  0.00  0.00     0.024 A 
ATOM     16  C   UNL d   1       0.537  10.271   0.055  0.00  0.00     0.034 A 
ATOM     17  C   UNL d   1      -0.825   9.970  -0.003  0.00  0.00     0.024 A 
ATOM     18 CL   UNL d   1       1.049  11.912   0.127  0.00  0.00    -0.084 Cl
ATOM     19  C   UNL d   1      -1.247   8.636  -0.053  0.00  0.00     0.014 A 
ENDBRANCH  11  13
ENDBRANCH   7  10
ENDBRANCH   1   6
BRANCH   2  20
ATOM     20  N   UNL d   1       2.093   0.309   0.147  0.00  0.00    -0.393 N 
ATOM     21  H   UNL d   1       2.656   1.150  -0.011  0.00  0.00     0.156 HD
ATOM     22  H   UNL d   1       2.563  -0.566  -0.059  0.00  0.00     0.156 HD
ENDBRANCH   2  20
BRANCH   5  23
ATOM     23  C   UNL d   1      -2.971  -0.826  -0.051  0.00  0.00    -0.019 A 
ATOM     24  C   UNL d   1      -4.018  -0.252  -0.790  0.00  0.00     0.013 A 
ATOM     25  C   UNL d   1      -5.285  -0.839  -0.826  0.00  0.00     0.001 A 
ATOM     26  C   UNL d   1      -5.522  -2.019  -0.129  0.00  0.00     0.000 A 
ATOM     27  C   UNL d   1      -4.494  -2.613   0.599  0.00  0.00     0.001 A 
ATOM     28  C   UNL d   1      -3.227  -2.021   0.640  0.00  0.00     0.013 A 
ENDBRANCH   5  23
TORSDOF 5
