REMARK  6 active torsions:
REMARK  status: ('A' for Active; 'I' for Inactive)
REMARK    1  A    between atoms: C_7  and  C_1 
REMARK    2  A    between atoms: O_15  and  C_7 
REMARK    3  A    between atoms: O_13  and  C_12 
REMARK    4  A    between atoms: C_16  and  O_13 
REMARK    5  A    between atoms: C_18  and  O_15 
REMARK    6  A    between atoms: C_17  and  C_16 
ROOT
ATOM      1  C   UNL d   1      -1.875  -1.583  -0.130  0.00  0.00     0.154 A 
ATOM      2  C   UNL d   1      -2.373  -0.341  -0.095  0.00  0.00     0.099 A 
ATOM      3  C   UNL d   1       0.371  -0.856  -0.112  0.00  0.00     0.093 A 
ATOM      4  O   UNL d   1      -0.526  -1.886  -0.165  0.00  0.00    -0.303 OA
ATOM      5  C   UNL d   1      -1.443   0.801  -0.068  0.00  0.00     0.187 A 
ATOM      6  C   UNL d   1      -0.006   0.481  -0.076  0.00  0.00     0.048 A 
ATOM      7  C   UNL d   1       1.716  -1.213  -0.078  0.00  0.00     0.075 A 
ATOM      8  C   UNL d   1       0.968   1.480  -0.032  0.00  0.00     0.021 A 
ATOM      9  O   UNL d   1      -1.855   1.951  -0.015  0.00  0.00    -0.287 OA
ATOM     10  C   UNL d   1       2.696  -0.225   0.020  0.00  0.00     0.071 A 
ATOM     11  C   UNL d   1       2.320   1.122   0.008  0.00  0.00     0.038 A 
ENDROOT
BRANCH  10  12
ATOM     12  O   UNL d   1       4.038  -0.475   0.142  0.00  0.00    -0.347 OA
BRANCH  12  13
ATOM     13  C   UNL d   1       4.362  -1.782   0.631  0.00  0.00     0.214 C 
BRANCH  13  14
ATOM     14  C   UNL d   1       5.768  -1.837   1.175  0.00  0.00    -0.034 A 
ATOM     15  C   UNL d   1       6.041  -2.649   2.289  0.00  0.00     0.009 A 
ATOM     16  C   UNL d   1       7.338  -2.755   2.790  0.00  0.00     0.001 A 
ATOM     17  C   UNL d   1       8.377  -2.060   2.177  0.00  0.00     0.000 A 
ATOM     18  C   UNL d   1       8.120  -1.261   1.062  0.00  0.00     0.001 A 
ATOM     19  C   UNL d   1       6.823  -1.155   0.559  0.00  0.00     0.009 A 
ENDBRANCH  13  14
ENDBRANCH  12  13
ENDBRANCH  10  12
BRANCH   1  20
ATOM     20  C   UNL d   1      -2.826  -2.724  -0.049  0.00  0.00     0.317 C 
ATOM     21  O   UNL d   1      -4.041  -2.613   0.039  0.00  0.00    -0.257 OA
BRANCH  20  22
ATOM     22  O   UNL d   1      -2.117  -3.879   0.022  0.00  0.00    -0.316 OA
BRANCH  22  23
ATOM     23  C   UNL d   1      -2.833  -5.023   0.505  0.00  0.00     0.175 C 
ATOM     24  C   UNL d   1      -2.738  -5.035   2.020  0.00  0.00     0.034 C 
ENDBRANCH  22  23
ENDBRANCH  20  22
ENDBRANCH   1  20
TORSDOF 6
