REMARK  1 active torsions:
REMARK  status: ('A' for Active; 'I' for Inactive)
REMARK    1  A    between atoms: S_8  and  C_3 
ROOT
ATOM      1  N   UNL d   1       1.648  -1.103   0.003  0.00  0.00    -0.329 N 
ATOM      2  HN  UNL d   1       2.017  -2.054   0.004  1.00  0.00     0.168 HD
ATOM      3  C   UNL d   1       2.322   0.031   0.002  0.00  0.00     0.185 A 
ATOM      4  C   UNL d   1       0.334  -0.705   0.003  0.00  0.00     0.070 A 
ATOM      5  O   UNL d   1       1.543   1.158   0.001  0.00  0.00    -0.286 OA
ATOM      6  C   UNL d   1       0.268   0.679   0.002  0.00  0.00     0.105 A 
ATOM      7  C   UNL d   1      -0.856  -1.443   0.003  0.00  0.00     0.056 A 
ATOM      8  C   UNL d   1      -0.908   1.419   0.000  0.00  0.00     0.041 A 
ATOM      9  C   UNL d   1      -2.063  -0.730   0.002  0.00  0.00     0.036 A 
ATOM     10  C   UNL d   1      -2.091   0.671   0.001  0.00  0.00     0.026 A 
ATOM     11 CL   UNL d   1      -3.551  -1.599   0.003  0.00  0.00    -0.084 Cl
ENDROOT
BRANCH   3  12
ATOM     12  S   UNL d   1       4.056   0.097   0.001  0.00  0.00    -0.099 SA
ATOM     13  H   UNL d   1       4.251  -1.228   0.001  0.00  0.00     0.110 HD
ENDBRANCH   3  12
TORSDOF 1
