REMARK  3 active torsions:
REMARK  status: ('A' for Active; 'I' for Inactive)
REMARK       I    between atoms: N_3  and  C_1 
REMARK    1  A    between atoms: C_2  and  O_4 
REMARK    2  A    between atoms: C_7  and  N_3 
REMARK    3  A    between atoms: O_4  and  C_8 
ROOT
ATOM      1  C   UNL d   1       1.188   1.689  -1.839  0.00  0.00     0.034 A 
ATOM      2  C   UNL d   1       2.646   3.077  -3.784  0.00  0.00     0.079 A 
ATOM      3  C   UNL d   1       2.143   1.030  -2.618  0.00  0.00     0.032 A 
ATOM      4  C   UNL d   1       0.910   3.038  -2.104  0.00  0.00     0.032 A 
ATOM      5  C   UNL d   1       1.645   3.734  -3.071  0.00  0.00     0.039 A 
ATOM      6  C   UNL d   1       2.862   1.717  -3.597  0.00  0.00     0.039 A 
ENDROOT
BRANCH   1   7
ATOM      7  N   UNL d   1       0.481   1.058  -0.792  0.00  0.00    -0.328 N 
ATOM      8  C   UNL d   1       0.823  -0.141  -0.191  0.00  0.00     0.218 C 
ATOM      9  O   UNL d   1       1.814  -0.825  -0.428  0.00  0.00    -0.274 OA
ATOM     10  C   UNL d   1      -0.144  -0.570   0.883  0.00  0.00     0.117 C 
ATOM     11  H   UNL d   1      -0.258   1.597  -0.361  0.00  0.00     0.169 HD
ENDBRANCH   1   7
BRANCH   2  12
ATOM     12  O   UNL d   1       3.365   3.840  -4.719  0.00  0.00    -0.279 OA
BRANCH  12  13
ATOM     13  C   UNL d   1       4.743   3.639  -4.853  0.00  0.00     0.260 C 
ATOM     14  O   UNL d   1       5.432   2.819  -4.264  0.00  0.00    -0.265 OA
ATOM     15  C   UNL d   1       5.288   4.589  -5.879  0.00  0.00     0.126 C 
ENDBRANCH  12  13
ENDBRANCH   2  12
TORSDOF 3
