REMARK  5 active torsions:
REMARK  status: ('A' for Active; 'I' for Inactive)
REMARK    1  A    between atoms: C_2  and  C_1 
REMARK    2  A    between atoms: C_3  and  C_6 
REMARK    3  A    between atoms: N_8  and  C_4 
REMARK       I    between atoms: C_5  and  N_7 
REMARK    4  A    between atoms: C_9  and  C_5 
REMARK    5  A    between atoms: N_7  and  N_8 
ROOT
ATOM      1  C   UNL d   1      -1.947   1.954  -1.600  0.00  0.00     0.266 C 
ATOM      2  N   UNL d   1      -1.194   0.940  -1.038  0.00  0.00    -0.281 N 
ATOM      3  O   UNL d   1      -2.487   1.835  -2.699  0.00  0.00    -0.266 OA
ATOM      4  H   UNL d   1      -0.774   0.933  -0.116  0.00  0.00     0.184 HD
ENDROOT
BRANCH   2   5
ATOM      5  N   UNL d   1      -1.053  -0.256  -1.763  0.00  0.00    -0.187 NA
ATOM      6  H   UNL d   1      -1.636  -0.232  -2.609  0.00  0.00     0.154 HD
BRANCH   5   7
ATOM      7  C   UNL d   1      -1.306  -1.417  -0.991  0.00  0.00     0.113 A 
ATOM      8  C   UNL d   1      -1.196  -2.684  -1.565  0.00  0.00     0.087 A 
ATOM      9  C   UNL d   1      -1.414  -3.812  -0.749  0.00  0.00     0.021 A 
ATOM     10  C   UNL d   1      -1.725  -3.656   0.592  0.00  0.00     0.018 A 
ATOM     11  C   UNL d   1      -1.795  -2.370   1.084  0.00  0.00     0.089 A 
ATOM     12  N   UNL d   1      -1.577  -1.264   0.335  0.00  0.00    -0.355 N 
ATOM     13  HN  UNL d   1      -1.615  -0.336   0.754  1.00  0.00     0.166 HD
BRANCH   8  14
ATOM     14  C   UNL d   1      -0.819  -2.910  -2.999  0.00  0.00     0.420 C 
ATOM     15  F   UNL d   1      -0.680  -1.793  -3.760  0.00  0.00    -0.166 F 
ATOM     16  F   UNL d   1      -1.746  -3.674  -3.649  0.00  0.00    -0.166 F 
ATOM     17  F   UNL d   1       0.355  -3.592  -3.117  0.00  0.00    -0.166 F 
ENDBRANCH   8  14
ENDBRANCH   5   7
ENDBRANCH   2   5
BRANCH   1  18
ATOM     18  C   UNL d   1      -2.074   3.229  -0.825  0.00  0.00     0.034 A 
ATOM     19  C   UNL d   1      -1.695   3.349   0.519  0.00  0.00     0.033 A 
ATOM     20  C   UNL d   1      -1.840   4.571   1.202  0.00  0.00     0.048 A 
ATOM     21  C   UNL d   1      -2.369   5.677   0.521  0.00  0.00     0.016 A 
ATOM     22  C   UNL d   1      -2.749   5.568  -0.814  0.00  0.00     0.002 A 
ATOM     23  C   UNL d   1      -2.606   4.348  -1.483  0.00  0.00     0.017 A 
BRANCH  20  24
ATOM     24  C   UNL d   1      -1.446   4.701   2.655  0.00  0.00     0.417 C 
ATOM     25  F   UNL d   1      -0.920   3.558   3.177  0.00  0.00    -0.166 F 
ATOM     26  F   UNL d   1      -0.511   5.668   2.859  0.00  0.00    -0.166 F 
ATOM     27  F   UNL d   1      -2.501   5.023   3.453  0.00  0.00    -0.166 F 
ENDBRANCH  20  24
ENDBRANCH   1  18
TORSDOF 5
