REMARK  4 active torsions:
REMARK  status: ('A' for Active; 'I' for Inactive)
REMARK    1  A    between atoms: C_6  and  C_1 
REMARK    2  A    between atoms: C_19  and  C_12 
REMARK    3  A    between atoms: C_20  and  C_19 
REMARK    4  A    between atoms: O_23  and  C_22 
ROOT
ATOM      1  C   UNL d   1       0.696  -0.722   0.688  0.00  0.00     0.174 A 
ATOM      2  N   UNL d   1       0.612  -0.911  -0.614  0.00  0.00    -0.277 N 
ATOM      3  HN  UNL d   1       0.919  -1.734  -1.131  1.00  0.00     0.189 HD
ATOM      4  O   UNL d   1       0.189   0.492   1.076  0.00  0.00    -0.277 OA
ATOM      5  N   UNL d   1       0.027   0.223  -1.140  0.00  0.00    -0.281 N 
ATOM      6  HN  UNL d   1      -0.183   0.403  -2.122  1.00  0.00     0.189 HD
ATOM      7  C   UNL d   1      -0.206   1.026  -0.122  0.00  0.00     0.144 A 
ENDROOT
BRANCH   1   8
ATOM      8  C   UNL d   1       1.289  -1.563   1.726  0.00  0.00     0.019 A 
ATOM      9  C   UNL d   1       1.177  -1.198   3.087  0.00  0.00     0.048 A 
ATOM     10  C   UNL d   1       1.815  -2.039   4.030  0.00  0.00     0.067 A 
ATOM     11  N   UNL d   1       1.834  -1.855   5.359  0.00  0.00    -0.310 N 
ATOM     12  C   UNL d   1       2.567  -3.266   3.591  0.00  0.00     0.067 A 
ATOM     13  S   UNL d   1       2.721  -3.110   5.993  0.00  0.00     0.068 SA
ATOM     14  HN  UNL d   1       1.391  -1.096   5.877  1.00  0.00     0.176 HD
ATOM     15  N   UNL d   1       3.117  -3.942   4.610  0.00  0.00    -0.310 N 
ATOM     16  HN  UNL d   1       3.669  -4.798   4.549  1.00  0.00     0.176 HD
ATOM     17  C   UNL d   1       2.649  -3.611   2.223  0.00  0.00     0.033 A 
ATOM     18  C   UNL d   1       1.998  -2.737   1.328  0.00  0.00     0.018 A 
ENDBRANCH   1   8
BRANCH   7  19
ATOM     19  C   UNL d   1      -0.752   2.406  -0.113  0.00  0.00     0.124 C 
BRANCH  19  20
ATOM     20  C   UNL d   1      -2.259   2.471   0.006  0.00  0.00    -0.048 A 
ATOM     21  C   UNL d   1      -3.079   1.897  -0.983  0.00  0.00     0.044 A 
ATOM     22  C   UNL d   1      -4.470   1.982  -0.895  0.00  0.00     0.068 A 
ATOM     23  C   UNL d   1      -5.046   2.655   0.184  0.00  0.00     0.037 A 
ATOM     24  C   UNL d   1      -4.246   3.236   1.167  0.00  0.00     0.003 A 
ATOM     25  C   UNL d   1      -2.857   3.145   1.080  0.00  0.00     0.007 A 
BRANCH  22  26
ATOM     26  O   UNL d   1      -5.365   1.462  -1.789  0.00  0.00    -0.356 OA
ATOM     27  C   UNL d   1      -4.827   0.755  -2.899  0.00  0.00     0.210 C 
ENDBRANCH  22  26
ENDBRANCH  19  20
ENDBRANCH   7  19
TORSDOF 4
