REMARK  3 active torsions:
REMARK  status: ('A' for Active; 'I' for Inactive)
REMARK       I    between atoms: N_2  and  C_1 
REMARK       I    between atoms: N_6  and  C_1 
REMARK    1  A    between atoms: C_3  and  N_2 
REMARK    2  A    between atoms: C_13  and  N_6 
REMARK    3  A    between atoms: C_12  and  C_13 
ROOT
ATOM      1  C   UNL d   1       0.854   0.151   0.058  0.00  0.00     0.321 C 
ATOM      2  N   UNL d   1       2.080   0.667   0.428  0.00  0.00    -0.308 N 
ATOM      3  N   UNL d   1      -0.014   1.177  -0.270  0.00  0.00    -0.339 N 
ATOM      4  O   UNL d   1       0.519  -1.024   0.074  0.00  0.00    -0.247 OA
ATOM      5  H   UNL d   1       1.979   1.583   0.845  0.00  0.00     0.170 HD
ATOM      6  H   UNL d   1       0.407   1.946  -0.769  0.00  0.00     0.164 HD
ENDROOT
BRANCH   3   7
ATOM      7  C   UNL d   1      -1.372   0.842  -0.634  0.00  0.00     0.162 C 
BRANCH   7   8
ATOM      8  C   UNL d   1      -2.334   2.006  -0.569  0.00  0.00    -0.040 A 
ATOM      9  C   UNL d   1      -3.530   1.922  -1.306  0.00  0.00     0.018 A 
ATOM     10  C   UNL d   1      -4.491   2.906  -1.144  0.00  0.00    -0.022 A 
ATOM     11  C   UNL d   1      -5.858   2.977  -1.702  0.00  0.00     0.068 C 
ATOM     12  C   UNL d   1      -4.284   3.965  -0.282  0.00  0.00     0.075 A 
ATOM     13  C   UNL d   1      -6.281   4.354  -1.188  0.00  0.00     0.180 C 
ATOM     14  O   UNL d   1      -5.348   4.821  -0.185  0.00  0.00    -0.350 OA
ATOM     15  C   UNL d   1      -3.120   4.091   0.447  0.00  0.00     0.038 A 
ATOM     16  C   UNL d   1      -2.144   3.097   0.308  0.00  0.00     0.011 A 
ENDBRANCH   7   8
ENDBRANCH   3   7
BRANCH   2  17
ATOM     17  C   UNL d   1       3.177  -0.096   0.891  0.00  0.00     0.042 A 
ATOM     18  C   UNL d   1       3.627  -1.300   0.322  0.00  0.00    -0.035 A 
ATOM     19  C   UNL d   1       3.063  -1.918  -0.928  0.00  0.00     0.050 C 
ATOM     20  C   UNL d   1       4.700  -1.978   0.934  0.00  0.00     0.009 A 
ATOM     21  C   UNL d   1       5.347  -1.454   2.053  0.00  0.00     0.001 A 
ATOM     22  C   UNL d   1       4.938  -0.235   2.575  0.00  0.00     0.002 A 
ATOM     23  C   UNL d   1       3.868   0.444   1.990  0.00  0.00     0.030 A 
ENDBRANCH   2  17
TORSDOF 3
