REMARK  8 active torsions:
REMARK  status: ('A' for Active; 'I' for Inactive)
REMARK    1  A    between atoms: C_8  and  C_1 
REMARK    2  A    between atoms: C_10  and  N_2 
REMARK    3  A    between atoms: S_9  and  C_5 
REMARK    4  A    between atoms: C_14  and  S_9 
REMARK    5  A    between atoms: O_17  and  C_11 
REMARK    6  A    between atoms: C_12  and  C_14 
REMARK    7  A    between atoms: O_16  and  C_12 
REMARK    8  A    between atoms: C_21  and  O_16 
ROOT
ATOM      1  C   UNL d   1       0.024  -1.220   0.106  0.00  0.00     0.142 A 
ATOM      2  N   UNL d   1       1.321  -0.717  -0.095  0.00  0.00    -0.275 N 
ATOM      3  N   UNL d   1      -0.809  -0.199   0.230  0.00  0.00    -0.282 N 
ATOM      4  HN  UNL d   1      -1.813  -0.272   0.396  1.00  0.00     0.188 HD
ATOM      5  C   UNL d   1       1.148   0.660  -0.082  0.00  0.00     0.168 A 
ATOM      6  N   UNL d   1      -0.114   0.967   0.100  0.00  0.00    -0.278 N 
ATOM      7  HN  UNL d   1      -0.505   1.908   0.137  1.00  0.00     0.189 HD
ENDROOT
BRANCH   1   8
ATOM      8  C   UNL d   1      -0.382  -2.628   0.258  0.00  0.00     0.043 A 
ATOM      9  C   UNL d   1      -1.551  -3.155  -0.326  0.00  0.00     0.082 A 
ATOM     10  C   UNL d   1      -1.892  -4.503  -0.139  0.00  0.00     0.038 A 
ATOM     11  C   UNL d   1      -1.079  -5.348   0.613  0.00  0.00     0.003 A 
ATOM     12  C   UNL d   1       0.055  -4.836   1.228  0.00  0.00     0.001 A 
ATOM     13  C   UNL d   1       0.385  -3.488   1.071  0.00  0.00     0.018 A 
BRANCH   9  14
ATOM     14  O   UNL d   1      -2.504  -2.433  -0.998  0.00  0.00    -0.355 OA
ATOM     15  C   UNL d   1      -2.049  -1.788  -2.181  0.00  0.00     0.210 C 
ENDBRANCH   9  14
ENDBRANCH   1   8
BRANCH   2  16
ATOM     16  C   UNL d   1       2.536  -1.447  -0.276  0.00  0.00     0.043 A 
ATOM     17  C   UNL d   1       2.557  -2.626  -1.034  0.00  0.00     0.030 A 
ATOM     18  C   UNL d   1       3.741  -3.360  -1.158  0.00  0.00     0.002 A 
ATOM     19  C   UNL d   1       4.911  -2.915  -0.545  0.00  0.00     0.000 A 
ATOM     20  C   UNL d   1       4.901  -1.738   0.197  0.00  0.00     0.002 A 
ATOM     21  C   UNL d   1       3.718  -1.009   0.340  0.00  0.00     0.030 A 
ENDBRANCH   2  16
BRANCH   5  22
ATOM     22  S   UNL d   1       2.372   1.839  -0.453  0.00  0.00    -0.082 SA
BRANCH  22  23
ATOM     23  C   UNL d   1       1.673   3.316   0.333  0.00  0.00     0.193 C 
BRANCH  23  24
ATOM     24  C   UNL d   1       1.454   3.158   1.822  0.00  0.00     0.268 C 
ATOM     25  O   UNL d   1       1.820   2.225   2.527  0.00  0.00    -0.264 OA
BRANCH  24  26
ATOM     26  O   UNL d   1       0.782   4.263   2.268  0.00  0.00    -0.321 OA
BRANCH  26  27
ATOM     27  C   UNL d   1       0.256   4.210   3.602  0.00  0.00     0.174 C 
ATOM     28  C   UNL d   1      -1.234   3.951   3.497  0.00  0.00     0.034 C 
ENDBRANCH  26  27
ENDBRANCH  24  26
ENDBRANCH  23  24
ENDBRANCH  22  23
ENDBRANCH   5  22
TORSDOF 8
