REMARK  6 active torsions:
REMARK  status: ('A' for Active; 'I' for Inactive)
REMARK    1  A    between atoms: C_6  and  C_1 
REMARK    2  A    between atoms: C_9  and  N_2 
REMARK    3  A    between atoms: C_7  and  C_3 
REMARK    4  A    between atoms: O_10  and  C_6 
REMARK    5  A    between atoms: C_16  and  C_9 
REMARK    6  A    between atoms: S_12  and  C_16 
ROOT
ATOM      1  C   UNL d   1      -0.294   1.183  -0.023  0.00  0.00     0.061 A 
ATOM      2  N   UNL d   1       0.968  -0.704   0.014  0.00  0.00    -0.352 N 
ATOM      3  C   UNL d   1      -0.366  -1.123   0.058  0.00  0.00     0.020 A 
ATOM      4  C   UNL d   1       1.009   0.693  -0.026  0.00  0.00     0.025 A 
ATOM      5  C   UNL d   1      -1.130   0.039   0.008  0.00  0.00     0.046 A 
ATOM      6  C   UNL d   1       2.254   1.531  -0.047  0.00  0.00     0.069 C 
ENDROOT
BRANCH   1   7
ATOM      7  C   UNL d   1      -0.668   2.604  -0.043  0.00  0.00     0.178 C 
ATOM      8  O   UNL d   1       0.138   3.529  -0.055  0.00  0.00    -0.646 OA
BRANCH   7   9
ATOM      9  O   UNL d   1      -2.003   2.858  -0.041  0.00  0.00    -0.773 OA
ATOM     10  H   UNL d   1      -2.541   2.048  -0.029  0.00  0.00     0.167 HD
ENDBRANCH   7   9
ENDBRANCH   1   7
BRANCH   2  11
ATOM     11  C   UNL d   1       2.168  -1.536   0.117  0.00  0.00     0.139 C 
BRANCH  11  12
ATOM     12  C   UNL d   1       2.459  -2.426  -1.091  0.00  0.00     0.093 C 
BRANCH  12  13
ATOM     13  S   UNL d   1       4.092  -3.253  -0.987  0.00  0.00    -0.172 SA
ATOM     14  C   UNL d   1       3.830  -4.284   0.480  0.00  0.00     0.089 C 
ENDBRANCH  12  13
ENDBRANCH  11  12
ENDBRANCH   2  11
BRANCH   3  15
ATOM     15  C   UNL d   1      -0.939  -2.560   0.066  0.00  0.00    -0.009 C 
ATOM     16  C   UNL d   1      -1.032  -3.079  -1.385  0.00  0.00     0.021 C 
ATOM     17  C   UNL d   1      -0.190  -3.549   0.974  0.00  0.00     0.021 C 
ATOM     18  C   UNL d   1      -2.393  -2.561   0.625  0.00  0.00     0.021 C 
ENDBRANCH   3  15
TORSDOF 6
