REMARK  1 active torsions:
REMARK  status: ('A' for Active; 'I' for Inactive)
REMARK    1  A    between atoms: C_12  and  C_3 
ROOT
ATOM      1  N   UNL d   1      -0.224   0.690  -0.016  0.00  0.00    -0.140 N 
ATOM      2  C   UNL d   1      -0.227  -0.700  -0.013  0.00  0.00     0.704 A 
ATOM      3  C   UNL d   1       0.955   1.437  -0.008  0.00  0.00     0.069 A 
ATOM      4  N   UNL d   1      -1.479  -1.112  -0.018  0.00  0.00    -0.131 N 
ATOM      5  HN  UNL d   1      -1.786  -2.085  -0.015  1.00  0.00     0.205 HD
ATOM      6  N   UNL d   1      -2.305  -0.009  -0.027  0.00  0.00    -0.281 N 
ATOM      7  HN  UNL d   1      -3.325  -0.019  -0.033  1.00  0.00     0.188 HD
ATOM      8  N   UNL d   1       0.940  -1.410  -0.005  0.00  0.00    -0.200 N 
ATOM      9  HN  UNL d   1       0.953  -2.430  -0.004  1.00  0.00     0.183 HD
ATOM     10  C   UNL d   1      -1.540   1.057  -0.027  0.00  0.00     0.224 A 
ATOM     11  C   UNL d   1       2.128   0.777   0.000  0.00  0.00     0.049 A 
ATOM     12  C   UNL d   1       2.030  -0.708   0.000  0.00  0.00     0.108 A 
ENDROOT
BRANCH   3  13
ATOM     13  C   UNL d   1       0.974   2.904  -0.005  0.00  0.00    -0.008 A 
ATOM     14  C   UNL d   1       0.991   3.613  -1.214  0.00  0.00     0.015 A 
ATOM     15  C   UNL d   1       1.071   5.008  -1.209  0.00  0.00     0.024 A 
ATOM     16  C   UNL d   1       1.136   5.695   0.002  0.00  0.00     0.034 A 
ATOM     17  C   UNL d   1       1.110   5.000   1.210  0.00  0.00     0.024 A 
ATOM     18 CL   UNL d   1       1.260   7.410   0.006  0.00  0.00    -0.084 Cl
ATOM     19  C   UNL d   1       1.029   3.605   1.207  0.00  0.00     0.015 A 
ENDBRANCH   3  13
TORSDOF 1
