REMARK  6 active torsions:
REMARK  status: ('A' for Active; 'I' for Inactive)
REMARK    1  A    between atoms: C_13  and  N_1 
REMARK    2  A    between atoms: C_2  and  O_8 
REMARK    3  A    between atoms: C_7  and  C_17 
REMARK    4  A    between atoms: O_8  and  C_7 
REMARK    5  A    between atoms: O_24  and  C_11 
REMARK    6  A    between atoms: O_25  and  C_14 
ROOT
ATOM      1  C   UNL d   1      -3.412   4.348  -1.493  0.00  0.00     0.152 A 
ATOM      2  N   UNL d   1      -2.382   4.317  -0.622  0.00  0.00    -0.340 N 
ATOM      3  HN  UNL d   1      -1.416   4.325  -0.949  1.00  0.00     0.167 HD
ATOM      4  C   UNL d   1      -3.991   4.246   1.223  0.00  0.00    -0.001 A 
ATOM      5  C   UNL d   1      -5.035   4.272   0.285  0.00  0.00    -0.017 A 
ATOM      6  C   UNL d   1      -2.673   4.277   0.709  0.00  0.00     0.018 A 
ATOM      7  C   UNL d   1      -4.327   4.163   2.602  0.00  0.00     0.054 A 
ATOM      8  C   UNL d   1      -5.655   4.090   3.054  0.00  0.00     0.102 A 
ATOM      9  C   UNL d   1      -6.364   4.217   0.740  0.00  0.00     0.052 A 
ATOM     10  C   UNL d   1      -6.687   4.117   2.104  0.00  0.00     0.102 A 
ATOM     11  C   UNL d   1      -4.737   4.318  -1.086  0.00  0.00     0.069 A 
ATOM     12  C   UNL d   1      -1.485   4.197   1.629  0.00  0.00     0.069 C 
ENDROOT
BRANCH   1  13
ATOM     13  O   UNL d   1      -3.023   4.229  -2.851  0.00  0.00    -0.258 OA
BRANCH  13  14
ATOM     14  C   UNL d   1      -3.804   4.733  -3.872  0.00  0.00     0.299 C 
ATOM     15  O   UNL d   1      -4.830   5.390  -3.752  0.00  0.00    -0.259 OA
BRANCH  14  16
ATOM     16  C   UNL d   1      -3.247   4.393  -5.218  0.00  0.00     0.040 A 
ATOM     17  C   UNL d   1      -2.049   3.689  -5.407  0.00  0.00     0.020 A 
ATOM     18  C   UNL d   1      -1.570   3.442  -6.704  0.00  0.00     0.037 A 
ATOM     19  C   UNL d   1      -2.292   3.897  -7.817  0.00  0.00     0.102 A 
ATOM     20  C   UNL d   1      -3.502   4.577  -7.642  0.00  0.00     0.037 A 
ATOM     21  C   UNL d   1      -3.971   4.820  -6.346  0.00  0.00     0.020 A 
BRANCH  19  22
ATOM     22  N   UNL d   1      -1.773   3.678  -9.178  0.00  0.00    -0.116 N 
ATOM     23  O   UNL d   1      -2.454   4.088 -10.125  0.00  0.00    -0.532 OA
ATOM     24  O   UNL d   1      -0.683   3.102  -9.289  0.00  0.00    -0.532 OA
ENDBRANCH  19  22
ENDBRANCH  14  16
ENDBRANCH  13  14
ENDBRANCH   1  13
BRANCH  10  25
ATOM     25  O   UNL d   1      -8.042   4.053   2.308  0.00  0.00    -0.353 OA
ATOM     26  C   UNL d   1      -8.540   3.900   3.628  0.00  0.00     0.210 C 
ENDBRANCH  10  25
BRANCH   8  27
ATOM     27  O   UNL d   1      -5.991   3.990   4.377  0.00  0.00    -0.353 OA
ATOM     28  C   UNL d   1      -4.956   3.945   5.349  0.00  0.00     0.210 C 
ENDBRANCH   8  27
TORSDOF 6
