REMARK  3 active torsions:
REMARK  status: ('A' for Active; 'I' for Inactive)
REMARK    1  A    between atoms: C_8  and  C_2 
REMARK    2  A    between atoms: C_7  and  C_9 
REMARK    3  A    between atoms: O_15  and  C_7 
ROOT
ATOM      1  C   UNL d   1       2.478  -1.676  -0.000  0.00  0.00    -0.008 A 
ATOM      2  C   UNL d   1       4.764  -3.329  -0.049  0.00  0.00     0.039 A 
ATOM      3  C   UNL d   1       2.638  -2.652  -0.997  0.00  0.00     0.015 A 
ATOM      4  C   UNL d   1       3.478  -1.540   0.974  0.00  0.00     0.015 A 
ATOM      5  C   UNL d   1       3.772  -3.474  -1.025  0.00  0.00     0.018 A 
ATOM      6  C   UNL d   1       4.615  -2.356   0.946  0.00  0.00     0.018 A 
ENDROOT
BRANCH   1   7
ATOM      7  C   UNL d   1       1.282  -0.843   0.008  0.00  0.00     0.063 A 
ATOM      8  N   UNL d   1       0.094  -1.285  -0.568  0.00  0.00    -0.292 N 
ATOM      9  N   UNL d   1      -0.874  -0.390  -0.460  0.00  0.00    -0.061 NA
ATOM     10  HN  UNL d   1      -0.017  -2.193  -1.020  1.00  0.00     0.183 HD
ATOM     11  S   UNL d   1      -0.384   1.007   0.315  0.00  0.00    -0.010 SA
ATOM     12  C   UNL d   1       1.217   0.430   0.548  0.00  0.00     0.096 A 
ENDBRANCH   1   7
BRANCH   2  13
ATOM     13  C   UNL d   1       5.984  -4.174  -0.022  0.00  0.00     0.292 C 
ATOM     14  O   UNL d   1       6.993  -3.877   0.599  0.00  0.00    -0.259 OA
BRANCH  13  15
ATOM     15  O   UNL d   1       5.786  -5.317  -0.724  0.00  0.00    -0.323 OA
ATOM     16  C   UNL d   1       6.886  -6.226  -0.667  0.00  0.00     0.213 C 
ENDBRANCH  13  15
ENDBRANCH   2  13
TORSDOF 3
