REMARK  0 active torsions:
REMARK  status: ('A' for Active; 'I' for Inactive)
ROOT
ATOM      1  N   UNL d   1      -0.336  -1.596  -0.017  0.00  0.00    -0.358 N 
ATOM      2  C   UNL d   1      -0.964   0.536  -0.079  0.00  0.00    -0.023 A 
ATOM      3  C   UNL d   1      -1.397  -0.758  -0.060  0.00  0.00     0.017 A 
ATOM      4  C   UNL d   1       0.439   0.531  -0.042  0.00  0.00     0.000 A 
ATOM      5  C   UNL d   1       0.820  -0.824  -0.003  0.00  0.00     0.043 A 
ATOM      6  C   UNL d   1       1.433   1.524  -0.033  0.00  0.00     0.033 A 
ATOM      7  C   UNL d   1       2.163  -1.219   0.043  0.00  0.00     0.031 A 
ATOM      8  C   UNL d   1       2.774   1.132   0.013  0.00  0.00     0.011 A 
ATOM      9  C   UNL d   1      -2.099   1.480  -0.117  0.00  0.00     0.042 C 
ATOM     10  C   UNL d   1      -2.860  -0.922  -0.075  0.00  0.00     0.058 C 
ATOM     11  C   UNL d   1       3.136  -0.214   0.051  0.00  0.00     0.021 A 
ATOM     12 BR   UNL d   1       4.125   2.459   0.027  0.00  0.00    -0.051 Br
ATOM     13  C   UNL d   1      -3.298   0.543   0.268  0.00  0.00     0.011 C 
ATOM     14  H   UNL d   1      -0.361  -2.606   0.009  0.00  0.00     0.166 HD
ENDROOT
TORSDOF 0
