REMARK  5 active torsions:
REMARK  status: ('A' for Active; 'I' for Inactive)
REMARK    1  A    between atoms: C_2  and  N_1 
REMARK    2  A    between atoms: C_11  and  C_10 
REMARK    3  A    between atoms: C_13  and  C_11 
REMARK    4  A    between atoms: O_17  and  C_13 
REMARK    5  A    between atoms: C_20  and  O_17 
ROOT
ATOM      1  C   UNL d   1       3.350  -0.034  -0.188  0.00  0.00     0.161 C 
ATOM      2  N   UNL d   1       4.107   0.721   0.579  0.00  0.00    -0.339 N 
ATOM      3  HN  UNL d   1       3.759   1.438   1.215  1.00  0.00     0.168 HD
ATOM      4  S   UNL d   1       4.215  -1.039  -1.279  0.00  0.00    -0.063 SA
ATOM      5  C   UNL d   1       5.448   0.404   0.403  0.00  0.00     0.027 C 
ATOM      6  C   UNL d   1       5.693  -0.479  -0.632  0.00  0.00     0.078 C 
ENDROOT
BRANCH   1   7
ATOM      7  N   UNL d   1       1.974  -0.048  -0.203  0.00  0.00    -0.222 N 
ATOM      8  C   UNL d   1       1.196  -1.109  -0.587  0.00  0.00     0.268 A 
ATOM      9  C   UNL d   1      -0.186  -0.706  -0.344  0.00  0.00     0.048 A 
ATOM     10  O   UNL d   1       1.466  -2.224  -0.996  0.00  0.00    -0.267 OA
ATOM     11  C   UNL d   1      -1.362  -1.406  -0.537  0.00  0.00     0.018 A 
ATOM     12  C   UNL d   1      -0.171   0.576   0.169  0.00  0.00     0.048 A 
ATOM     13  C   UNL d   1      -2.555  -0.752  -0.218  0.00  0.00     0.001 A 
ATOM     14  C   UNL d   1      -2.544   0.570   0.275  0.00  0.00     0.001 A 
ATOM     15  C   UNL d   1      -1.336   1.249   0.478  0.00  0.00     0.018 A 
ATOM     16  C   UNL d   1       1.228   0.993   0.290  0.00  0.00     0.268 A 
ATOM     17  O   UNL d   1       1.529   2.090   0.720  0.00  0.00    -0.267 OA
ENDBRANCH   1   7
BRANCH   5  18
ATOM     18  C   UNL d   1       6.461   1.007   1.317  0.00  0.00     0.168 C 
BRANCH  18  19
ATOM     19  C   UNL d   1       7.094  -0.038   2.212  0.00  0.00     0.264 C 
ATOM     20  O   UNL d   1       6.909  -1.246   2.157  0.00  0.00    -0.265 OA
BRANCH  19  21
ATOM     21  O   UNL d   1       7.910   0.578   3.119  0.00  0.00    -0.322 OA
BRANCH  21  22
ATOM     22  C   UNL d   1       8.387  -0.259   4.183  0.00  0.00     0.174 C 
ATOM     23  C   UNL d   1       7.391  -0.197   5.325  0.00  0.00     0.034 C 
ENDBRANCH  21  22
ENDBRANCH  19  21
ENDBRANCH  18  19
ENDBRANCH   5  18
TORSDOF 5
