REMARK  9 active torsions:
REMARK  status: ('A' for Active; 'I' for Inactive)
REMARK    1  A    between atoms: C_7  and  N_1 
REMARK    2  A    between atoms: C_8  and  C_2 
REMARK    3  A    between atoms: C_11  and  C_8 
REMARK    4  A    between atoms: C_9  and  O_20 
REMARK    5  A    between atoms: C_10  and  O_18 
REMARK    6  A    between atoms: C_19  and  C_10 
REMARK    7  A    between atoms: N_27  and  C_11 
REMARK    8  A    between atoms: O_18  and  N_14 
REMARK    9  A    between atoms: O_20  and  C_28 
ROOT
ATOM      1  C   UNL d   1       4.458   1.375  -0.037  0.00  0.00     0.082 C 
ATOM      2  N   UNL d   1       3.535   2.291  -0.175  0.00  0.00    -0.250 N 
ATOM      3  HN  UNL d   1       3.722   3.263  -0.422  1.00  0.00     0.196 HD
ENDROOT
BRANCH   1   4
ATOM      4  C   UNL d   1       5.931   1.828   0.028  0.00  0.00     0.148 C 
BRANCH   4   5
ATOM      5  C   UNL d   1       6.609   1.135   1.188  0.00  0.00     0.092 A 
ATOM      6  N   UNL d   1       7.723   1.557   1.895  0.00  0.00    -0.316 N 
ATOM      7  C   UNL d   1       7.924   0.672   2.937  0.00  0.00     0.136 A 
ATOM      8  C   UNL d   1       6.971  -0.315   2.749  0.00  0.00     0.078 A 
ATOM      9  N   UNL d   1       8.835   0.737   3.932  0.00  0.00    -0.350 N 
ATOM     10  C   UNL d   1       6.918  -1.378   3.654  0.00  0.00     0.035 A 
ATOM     11  N   UNL d   1       6.207  -0.049   1.654  0.00  0.00    -0.342 N 
ATOM     12  C   UNL d   1       7.827  -1.356   4.710  0.00  0.00     0.019 A 
ATOM     13  C   UNL d   1       8.733  -0.303   4.798  0.00  0.00     0.090 A 
ATOM     14  HN  UNL d   1       5.472  -0.639   1.266  1.00  0.00     0.167 HD
ATOM     15  HN  UNL d   1       9.524   1.484   4.022  1.00  0.00     0.166 HD
BRANCH   6  16
ATOM     16  C   UNL d   1       8.634   2.660   1.667  0.00  0.00     0.093 A 
ATOM     17  C   UNL d   1       8.191   4.085   1.419  0.00  0.00     0.028 A 
ATOM     18  C   UNL d   1       8.855   3.321   0.322  0.00  0.00     0.028 A 
ENDBRANCH   6  16
ENDBRANCH   4   5
ENDBRANCH   1   4
BRANCH   1  19
ATOM     19  N   UNL d   1       4.195   0.020   0.085  0.00  0.00    -0.290 NA
ATOM     20  H   UNL d   1       4.984  -0.484   0.507  0.00  0.00     0.125 HD
ATOM     21  H   UNL d   1       3.377  -0.165   0.652  0.00  0.00     0.125 HD
ENDBRANCH   1  19
BRANCH   2  22
ATOM     22  O   UNL d   1       2.245   1.760   0.061  0.00  0.00    -0.194 OA
BRANCH  22  23
ATOM     23  C   UNL d   1       1.724   1.050  -0.989  0.00  0.00     0.315 C 
ATOM     24  O   UNL d   1       1.944   1.177  -2.178  0.00  0.00    -0.257 OA
BRANCH  23  25
ATOM     25  C   UNL d   1       0.976  -0.098  -0.367  0.00  0.00     0.041 A 
ATOM     26  C   UNL d   1       0.775  -1.263  -1.117  0.00  0.00     0.020 A 
ATOM     27  C   UNL d   1       0.294  -2.435  -0.505  0.00  0.00     0.038 A 
ATOM     28  C   UNL d   1       0.037  -2.458   0.867  0.00  0.00     0.078 A 
ATOM     29  C   UNL d   1       0.185  -1.279   1.601  0.00  0.00     0.038 A 
ATOM     30  C   UNL d   1       0.640  -0.107   0.995  0.00  0.00     0.020 A 
BRANCH  28  31
ATOM     31  O   UNL d   1      -0.325  -3.526   1.629  0.00  0.00    -0.255 OA
BRANCH  31  32
ATOM     32  C   UNL d   1      -0.368  -4.823   1.060  0.00  0.00     0.530 C 
ATOM     33  F   UNL d   1       0.674  -5.062   0.237  0.00  0.00    -0.144 F 
ATOM     34  F   UNL d   1      -0.315  -5.728   2.063  0.00  0.00    -0.144 F 
ATOM     35  F   UNL d   1      -1.525  -5.000   0.391  0.00  0.00    -0.144 F 
ENDBRANCH  31  32
ENDBRANCH  28  31
ENDBRANCH  23  25
ENDBRANCH  22  23
ENDBRANCH   2  22
TORSDOF 9
