REMARK  3 active torsions:
REMARK  status: ('A' for Active; 'I' for Inactive)
REMARK    1  A    between atoms: C_2  and  C_1 
REMARK       I    between atoms: N_5  and  C_2 
REMARK    2  A    between atoms: C_8  and  C_12 
REMARK    3  A    between atoms: C_11  and  N_10 
ROOT
ATOM      1  C   UNL d   1      -0.469  -2.820  -0.059  0.00  0.00     0.263 C 
ATOM      2  N   UNL d   1       0.735  -3.493  -0.317  0.00  0.00    -0.344 N 
ATOM      3  N   UNL d   1       3.188  -4.910  -0.637  0.00  0.00    -0.364 N 
ATOM      4  O   UNL d   1      -0.579  -2.133   0.962  0.00  0.00    -0.267 OA
ATOM      5  C   UNL d   1       1.715  -3.579   0.786  0.00  0.00     0.146 C 
ATOM      6  C   UNL d   1       0.937  -4.456  -1.422  0.00  0.00     0.146 C 
ATOM      7  C   UNL d   1       2.405  -4.639  -1.842  0.00  0.00     0.144 C 
ATOM      8  C   UNL d   1       3.169  -3.798   0.318  0.00  0.00     0.144 C 
ENDROOT
BRANCH   3   9
ATOM      9  C   UNL d   1       4.312  -5.704  -0.772  0.00  0.00     0.103 A 
ATOM     10  C   UNL d   1       4.842  -6.338   0.348  0.00  0.00     0.064 A 
ATOM     11  C   UNL d   1       5.847  -7.303   0.207  0.00  0.00     0.052 A 
ATOM     12  C   UNL d   1       6.331  -7.575  -1.071  0.00  0.00     0.033 A 
ATOM     13  C   UNL d   1       5.780  -6.886  -2.132  0.00  0.00     0.090 A 
ATOM     14  N   UNL d   1       4.787  -5.979  -2.004  0.00  0.00    -0.352 N 
ATOM     15  HN  UNL d   1       4.402  -5.512  -2.825  1.00  0.00     0.166 HD
BRANCH  11  16
ATOM     16  C   UNL d   1       6.349  -8.071   1.397  0.00  0.00     0.417 C 
ATOM     17  F   UNL d   1       5.756  -7.710   2.569  0.00  0.00    -0.166 F 
ATOM     18  F   UNL d   1       6.140  -9.412   1.273  0.00  0.00    -0.166 F 
ATOM     19  F   UNL d   1       7.687  -7.917   1.591  0.00  0.00    -0.166 F 
ENDBRANCH  11  16
ENDBRANCH   3   9
BRANCH   1  20
ATOM     20  C   UNL d   1      -1.546  -2.866  -1.022  0.00  0.00     0.110 C 
ATOM     21  C   UNL d   1      -2.327  -1.834  -1.528  0.00  0.00     0.043 C 
ATOM     22  N   UNL d   1      -3.280  -2.234  -2.461  0.00  0.00    -0.296 N 
ATOM     23  C   UNL d   1      -2.269  -0.390  -1.192  0.00  0.00     0.071 C 
ATOM     24  N   UNL d   1      -3.321  -3.547  -2.593  0.00  0.00    -0.061 NA
ATOM     25  HN  UNL d   1      -3.876  -1.589  -2.981  1.00  0.00     0.183 HD
ATOM     26  S   UNL d   1      -2.272  -4.327  -1.558  0.00  0.00     0.007 SA
ENDBRANCH   1  20
TORSDOF 3
