REMARK  5 active torsions:
REMARK  status: ('A' for Active; 'I' for Inactive)
REMARK    1  A    between atoms: C_3  and  C_1 
REMARK    2  A    between atoms: N_9  and  C_2 
REMARK    3  A    between atoms: O_12  and  C_3 
REMARK    4  A    between atoms: N_7  and  N_9 
REMARK    5  A    between atoms: C_14  and  C_11 
ROOT
ATOM      1  N   UNL d   1       2.652   1.543   0.240  0.00  0.00    -0.300 N 
ATOM      2  H   UNL d   1       3.511   1.017   0.055  0.00  0.00     0.187 HD
ENDROOT
BRANCH   1   3
ATOM      3  N   UNL d   1       2.711   2.898   0.373  0.00  0.00    -0.311 N 
ATOM      4  C   UNL d   1       3.879   3.448   0.432  0.00  0.00     0.118 C 
ATOM      5  HN  UNL d   1       1.860   3.460   0.423  1.00  0.00     0.186 HD
BRANCH   4   6
ATOM      6  C   UNL d   1       4.006   4.922   0.496  0.00  0.00    -0.018 A 
ATOM      7  C   UNL d   1       2.865   5.730   0.562  0.00  0.00     0.036 A 
ATOM      8  C   UNL d   1       3.000   7.117   0.534  0.00  0.00     0.034 A 
ATOM      9 CL   UNL d   1       1.599   8.114   0.587  0.00  0.00    -0.084 Cl
ATOM     10  C   UNL d   1       4.262   7.702   0.449  0.00  0.00     0.024 A 
ATOM     11  C   UNL d   1       5.401   6.896   0.404  0.00  0.00     0.003 A 
ATOM     12  C   UNL d   1       5.276   5.504   0.430  0.00  0.00     0.013 A 
ENDBRANCH   4   6
ENDBRANCH   1   3
BRANCH   1  13
ATOM     13  C   UNL d   1       1.448   0.913   0.116  0.00  0.00     0.071 A 
ATOM     14  C   UNL d   1       1.248  -0.420  -0.216  0.00  0.00     0.108 A 
ATOM     15  S   UNL d   1      -0.440  -0.788  -0.282  0.00  0.00    -0.094 SA
ATOM     16  C   UNL d   1      -0.887   0.800   0.136  0.00  0.00     0.053 A 
ATOM     17  C   UNL d   1       0.210   1.603   0.320  0.00  0.00     0.039 A 
BRANCH  14  18
ATOM     18  C   UNL d   1       2.165  -1.507  -0.508  0.00  0.00     0.302 C 
ATOM     19  O   UNL d   1       1.846  -2.654  -0.808  0.00  0.00    -0.259 OA
BRANCH  18  20
ATOM     20  O   UNL d   1       3.467  -1.100  -0.400  0.00  0.00    -0.322 OA
ATOM     21  C   UNL d   1       4.398  -2.159  -0.639  0.00  0.00     0.213 C 
ENDBRANCH  18  20
ENDBRANCH  14  18
ENDBRANCH   1  13
TORSDOF 5
