REMARK  4 active torsions:
REMARK  status: ('A' for Active; 'I' for Inactive)
REMARK    1  A    between atoms: C_8  and  C_1 
REMARK    2  A    between atoms: C_11  and  N_5 
REMARK       I    between atoms: N_16  and  C_8 
REMARK    3  A    between atoms: C_13  and  C_14 
REMARK    4  A    between atoms: N_22  and  N_16 
ROOT
ATOM      1  C   UNL d   1       1.294   0.001   0.558  0.00  0.00     0.125 A 
ATOM      2  C   UNL d   1      -0.200   1.161  -0.913  0.00  0.00     0.122 A 
ATOM      3  N   UNL d   1       0.559  -1.068   0.631  0.00  0.00    -0.285 N 
ATOM      4  HN  UNL d   1       0.847  -1.860   1.206  1.00  0.00     0.188 HD
ATOM      5  N   UNL d   1      -0.622  -1.108  -0.090  0.00  0.00    -0.219 N 
ATOM      6  C   UNL d   1      -1.095  -0.023  -0.837  0.00  0.00     0.288 A 
ATOM      7  C   UNL d   1       0.971   1.208  -0.250  0.00  0.00    -0.002 A 
ATOM      8  C   UNL d   1      -0.641   2.237  -1.730  0.00  0.00     0.106 C 
ATOM      9  N   UNL d   1      -0.942   3.146  -2.388  0.00  0.00    -0.191 NA
ATOM     10  O   UNL d   1      -2.179   0.037  -1.414  0.00  0.00    -0.265 OA
ATOM     11  C   UNL d   1       1.931   2.364  -0.303  0.00  0.00     0.052 C 
ENDROOT
BRANCH   1  12
ATOM     12  C   UNL d   1       2.621  -0.023   1.336  0.00  0.00     0.284 C 
ATOM     13  O   UNL d   1       3.112   0.996   1.802  0.00  0.00    -0.265 OA
ATOM     14  N   UNL d   1       3.203  -1.279   1.427  0.00  0.00    -0.288 N 
ATOM     15  H   UNL d   1       2.630  -2.098   1.217  0.00  0.00     0.183 HD
BRANCH  14  16
ATOM     16  N   UNL d   1       4.418  -1.433   2.139  0.00  0.00    -0.247 NA
ATOM     17  H   UNL d   1       4.678  -0.506   2.508  0.00  0.00     0.143 HD
ATOM     18  H   UNL d   1       5.160  -1.654   1.470  0.00  0.00     0.143 HD
ENDBRANCH  14  16
ENDBRANCH   1  12
BRANCH   5  19
ATOM     19  C   UNL d   1      -1.321  -2.364  -0.021  0.00  0.00     0.060 A 
ATOM     20  C   UNL d   1      -2.250  -2.756  -0.993  0.00  0.00     0.032 A 
ATOM     21  C   UNL d   1      -2.907  -3.993  -0.927  0.00  0.00     0.010 A 
ATOM     22  C   UNL d   1      -2.674  -4.895   0.121  0.00  0.00    -0.051 A 
ATOM     23  C   UNL d   1      -1.750  -4.498   1.099  0.00  0.00     0.010 A 
ATOM     24  C   UNL d   1      -1.079  -3.265   1.024  0.00  0.00     0.032 A 
BRANCH  22  25
ATOM     25  C   UNL d   1      -3.411  -6.245   0.156  0.00  0.00    -0.024 C 
ATOM     26  C   UNL d   1      -3.044  -7.112   1.381  0.00  0.00     0.019 C 
ATOM     27  C   UNL d   1      -4.937  -6.013   0.197  0.00  0.00     0.019 C 
ATOM     28  C   UNL d   1      -3.065  -7.066  -1.107  0.00  0.00     0.019 C 
ENDBRANCH  22  25
ENDBRANCH   5  19
TORSDOF 4
