REMARK  3 active torsions:
REMARK  status: ('A' for Active; 'I' for Inactive)
REMARK    1  A    between atoms: C_2  and  C_1 
REMARK    2  A    between atoms: O_14  and  C_9 
REMARK    3  A    between atoms: C_15  and  O_14 
ROOT
ATOM      1  C   UNL d   1       0.438   0.285  -1.427  0.00  0.00     0.066 A 
ATOM      2  N   UNL d   1       0.040   1.977  -3.093  0.00  0.00    -0.354 N 
ATOM      3  HN  UNL d   1       0.042   2.959  -3.366  1.00  0.00     0.166 HD
ATOM      4  C   UNL d   1      -0.344   1.004  -3.972  0.00  0.00     0.147 A 
ATOM      5  N   UNL d   1      -1.009   1.964  -6.293  0.00  0.00    -0.190 NA
ATOM      6  C   UNL d   1       0.034  -0.694  -2.343  0.00  0.00     0.057 A 
ATOM      7  C   UNL d   1      -0.710   1.547  -5.250  0.00  0.00     0.120 C 
ATOM      8  C   UNL d   1      -0.367  -0.353  -3.646  0.00  0.00     0.107 A 
ATOM      9  C   UNL d   1       0.418   1.600  -1.854  0.00  0.00     0.105 A 
ENDROOT
BRANCH   8  10
ATOM     10  O   UNL d   1      -0.720  -1.449  -4.383  0.00  0.00    -0.348 OA
BRANCH  10  11
ATOM     11  C   UNL d   1      -1.136  -1.294  -5.738  0.00  0.00     0.171 C 
ATOM     12  C   UNL d   1      -1.456  -2.666  -6.308  0.00  0.00     0.034 C 
ENDBRANCH  10  11
ENDBRANCH   8  10
BRANCH   1  13
ATOM     13  C   UNL d   1       0.882  -0.028  -0.033  0.00  0.00     0.418 C 
ATOM     14  F   UNL d   1       0.880  -1.358   0.256  0.00  0.00    -0.166 F 
ATOM     15  F   UNL d   1       0.094   0.561   0.906  0.00  0.00    -0.166 F 
ATOM     16  F   UNL d   1       2.147   0.407   0.216  0.00  0.00    -0.166 F 
ENDBRANCH   1  13
TORSDOF 3
