REMARK  13 active torsions:
REMARK  status: ('A' for Active; 'I' for Inactive)
REMARK    1  A    between atoms: C_6  and  N_1 
REMARK    2  A    between atoms: S_11  and  C_5 
REMARK    3  A    between atoms: C_16  and  S_11 
REMARK    4  A    between atoms: C_17  and  C_16 
REMARK    5  A    between atoms: C_25  and  C_17 
REMARK    6  A    between atoms: C_18  and  C_19 
REMARK    7  A    between atoms: C_19  and  C_24 
REMARK    8  A    between atoms: C_20  and  C_26 
REMARK    9  A    between atoms: C_21  and  C_20 
REMARK   10  A    between atoms: C_22  and  C_21 
REMARK   11  A    between atoms: C_23  and  C_22 
REMARK   12  A    between atoms: C_24  and  C_23 
REMARK   13  A    between atoms: C_26  and  C_25 
ROOT
ATOM      1  N   UNL d   1       2.400  -3.517   3.176  0.00  0.00    -0.251 N 
ATOM      2  C   UNL d   1       2.360  -2.281   2.576  0.00  0.00     0.232 C 
ATOM      3  C   UNL d   1       1.551  -4.402   2.546  0.00  0.00     0.245 C 
ATOM      4  C   UNL d   1       1.457  -2.319   1.385  0.00  0.00     0.128 C 
ATOM      5  C   UNL d   1       1.032  -3.765   1.279  0.00  0.00     0.149 C 
ATOM      6  O   UNL d   1       2.943  -1.248   2.889  0.00  0.00    -0.273 OA
ATOM      7  O   UNL d   1       1.211  -5.522   2.916  0.00  0.00    -0.271 OA
ENDROOT
BRANCH   5   8
ATOM      8  S   UNL d   1       1.814  -4.602  -0.135  0.00  0.00    -0.154 SA
BRANCH   8   9
ATOM      9  C   UNL d   1       0.913  -3.819  -1.515  0.00  0.00     0.075 C 
BRANCH   9  10
ATOM     10  C   UNL d   1       1.322  -4.477  -2.831  0.00  0.00     0.010 C 
BRANCH  10  11
ATOM     11  C   UNL d   1       0.902  -5.945  -2.907  0.00  0.00     0.001 C 
BRANCH  11  12
ATOM     12  C   UNL d   1       1.390  -6.594  -4.193  0.00  0.00     0.000 C 
BRANCH  12  13
ATOM     13  C   UNL d   1       0.994  -8.065  -4.210  0.00  0.00     0.000 C 
BRANCH  13  14
ATOM     14  C   UNL d   1       1.476  -8.733  -5.487  0.00  0.00     0.000 C 
BRANCH  14  15
ATOM     15  C   UNL d   1       1.069 -10.200  -5.504  0.00  0.00     0.000 C 
BRANCH  15  16
ATOM     16  C   UNL d   1       1.548 -10.867  -6.786  0.00  0.00     0.000 C 
BRANCH  16  17
ATOM     17  C   UNL d   1       1.139 -12.334  -6.813  0.00  0.00     0.000 C 
BRANCH  17  18
ATOM     18  C   UNL d   1       1.619 -12.998  -8.098  0.00  0.00    -0.000 C 
BRANCH  18  19
ATOM     19  C   UNL d   1       1.216 -14.468  -8.136  0.00  0.00    -0.005 C 
ATOM     20  C   UNL d   1       1.694 -15.127  -9.417  0.00  0.00     0.005 C 
ENDBRANCH  18  19
ENDBRANCH  17  18
ENDBRANCH  16  17
ENDBRANCH  15  16
ENDBRANCH  14  15
ENDBRANCH  13  14
ENDBRANCH  12  13
ENDBRANCH  11  12
ENDBRANCH  10  11
ENDBRANCH   9  10
ENDBRANCH   8   9
ENDBRANCH   5   8
BRANCH   1  21
ATOM     21  C   UNL d   1       3.180  -3.838   4.326  0.00  0.00     0.045 A 
ATOM     22  C   UNL d   1       3.649  -2.840   5.196  0.00  0.00     0.032 A 
ATOM     23  C   UNL d   1       4.417  -3.156   6.323  0.00  0.00     0.026 A 
ATOM     24  C   UNL d   1       4.746  -4.478   6.590  0.00  0.00     0.034 A 
ATOM     25  C   UNL d   1       4.313  -5.486   5.737  0.00  0.00     0.026 A 
ATOM     26 CL   UNL d   1       5.685  -4.867   7.976  0.00  0.00    -0.084 Cl
ATOM     27  C   UNL d   1       3.534  -5.167   4.617  0.00  0.00     0.032 A 
ENDBRANCH   1  21
TORSDOF 13
