REMARK  8 active torsions:
REMARK  status: ('A' for Active; 'I' for Inactive)
REMARK    1  A    between atoms: C_6  and  N_1 
REMARK    2  A    between atoms: C_8  and  C_3 
REMARK    3  A    between atoms: C_15  and  C_6 
REMARK    4  A    between atoms: O_18  and  C_8 
REMARK    5  A    between atoms: O_17  and  C_9 
REMARK    6  A    between atoms: O_19  and  C_11 
REMARK    7  A    between atoms: C_14  and  C_15 
REMARK    8  A    between atoms: C_20  and  O_18 
ROOT
ATOM      1  C   UNL d   1       2.184   1.067   0.054  0.00  0.00     0.138 C 
ENDROOT
BRANCH   1   2
ATOM      2  N   UNL d   1       0.875   0.403   0.056  0.00  0.00    -0.298 N 
ATOM      3  C   UNL d   1      -0.083   0.537  -0.931  0.00  0.00     0.148 A 
ATOM      4  S   UNL d   1      -1.525  -0.371  -0.494  0.00  0.00    -0.053 SA
ATOM      5  S   UNL d   1       0.011   1.400  -2.355  0.00  0.00    -0.052 SA
ATOM      6  C   UNL d   1      -0.838  -0.923   0.978  0.00  0.00     0.097 A 
ATOM      7  C   UNL d   1       0.526  -0.373   1.151  0.00  0.00     0.268 A 
ATOM      8  O   UNL d   1       1.219  -0.584   2.137  0.00  0.00    -0.266 OA
BRANCH   6   9
ATOM      9  C   UNL d   1      -1.417  -1.736   1.865  0.00  0.00     0.159 C 
BRANCH   9  10
ATOM     10  O   UNL d   1      -2.701  -2.191   1.726  0.00  0.00    -0.362 OA
BRANCH  10  11
ATOM     11  C   UNL d   1      -2.904  -3.496   2.270  0.00  0.00     0.170 C 
ATOM     12  C   UNL d   1      -4.333  -3.897   1.955  0.00  0.00     0.034 C 
ENDBRANCH  10  11
ENDBRANCH   9  10
ENDBRANCH   6   9
ENDBRANCH   1   2
BRANCH   1  13
ATOM     13  C   UNL d   1       3.349   0.077  -0.070  0.00  0.00     0.059 C 
BRANCH  13  14
ATOM     14  C   UNL d   1       4.689   0.774  -0.066  0.00  0.00    -0.054 A 
ATOM     15  C   UNL d   1       5.319   1.116  -1.272  0.00  0.00     0.046 A 
ATOM     16  C   UNL d   1       6.580   1.738  -1.290  0.00  0.00     0.102 A 
ATOM     17  C   UNL d   1       7.195   2.053  -0.065  0.00  0.00     0.101 A 
ATOM     18  C   UNL d   1       6.566   1.712   1.137  0.00  0.00     0.040 A 
ATOM     19  C   UNL d   1       5.319   1.085   1.142  0.00  0.00     0.010 A 
BRANCH  16  20
ATOM     20  O   UNL d   1       7.260   2.027  -2.442  0.00  0.00    -0.353 OA
ATOM     21  C   UNL d   1       6.679   1.640  -3.680  0.00  0.00     0.210 C 
ENDBRANCH  16  20
BRANCH  17  22
ATOM     22  O   UNL d   1       8.428   2.629   0.118  0.00  0.00    -0.353 OA
ATOM     23  C   UNL d   1       8.832   3.588  -0.851  0.00  0.00     0.210 C 
ENDBRANCH  17  22
ENDBRANCH  13  14
ENDBRANCH   1  13
TORSDOF 8
