REMARK  8 active torsions:
REMARK  status: ('A' for Active; 'I' for Inactive)
REMARK    1  A    between atoms: C_4  and  N_1 
REMARK    2  A    between atoms: C_2  and  N_8 
REMARK    3  A    between atoms: N_13  and  C_2 
REMARK    4  A    between atoms: C_3  and  C_6 
REMARK       I    between atoms: N_5  and  C_3 
REMARK    5  A    between atoms: N_8  and  N_5 
REMARK    6  A    between atoms: C_14  and  N_13 
REMARK    7  A    between atoms: C_19  and  C_14 
REMARK    8  A    between atoms: C_15  and  C_19 
ROOT
ATOM      1  N   UNL d   1      -1.716   2.504  -5.622  0.00  0.00    -0.274 N 
ATOM      2  H   UNL d   1      -2.237   1.982  -4.912  0.00  0.00     0.189 HD
ENDROOT
BRANCH   1   3
ATOM      3  C   UNL d   1      -2.431   3.031  -6.669  0.00  0.00     0.186 C 
ATOM      4  S   UNL d   1      -1.987   2.978  -8.280  0.00  0.00    -0.040 SA
BRANCH   3   5
ATOM      5  N   UNL d   1      -3.546   3.742  -6.319  0.00  0.00    -0.366 N 
ATOM      6  H   UNL d   1      -4.039   4.143  -7.109  0.00  0.00     0.161 HD
BRANCH   5   7
ATOM      7  C   UNL d   1      -3.723   4.412  -5.031  0.00  0.00     0.126 C 
BRANCH   7   8
ATOM      8  C   UNL d   1      -2.653   5.485  -4.774  0.00  0.00     0.058 C 
BRANCH   8   9
ATOM      9  C   UNL d   1      -2.824   6.131  -3.422  0.00  0.00    -0.057 A 
ATOM     10  C   UNL d   1      -2.244   5.552  -2.285  0.00  0.00     0.007 A 
ATOM     11  C   UNL d   1      -2.435   6.123  -1.025  0.00  0.00     0.001 A 
ATOM     12  C   UNL d   1      -3.206   7.276  -0.893  0.00  0.00     0.000 A 
ATOM     13  C   UNL d   1      -3.778   7.864  -2.019  0.00  0.00     0.001 A 
ATOM     14  C   UNL d   1      -3.588   7.295  -3.280  0.00  0.00     0.007 A 
ENDBRANCH   8   9
ENDBRANCH   7   8
ENDBRANCH   5   7
ENDBRANCH   3   5
ENDBRANCH   1   3
BRANCH   1  15
ATOM     15  N   UNL d   1      -0.388   2.099  -5.793  0.00  0.00    -0.264 N 
ATOM     16  C   UNL d   1       0.104   1.109  -4.964  0.00  0.00     0.270 C 
ATOM     17  O   UNL d   1      -0.629   0.441  -4.242  0.00  0.00    -0.266 OA
ATOM     18  H   UNL d   1       0.181   2.711  -6.363  0.00  0.00     0.190 HD
BRANCH  16  19
ATOM     19  C   UNL d   1       1.585   0.899  -4.945  0.00  0.00     0.036 A 
ATOM     20  C   UNL d   1       2.082  -0.190  -4.207  0.00  0.00     0.053 A 
ATOM     21  C   UNL d   1       3.465  -0.397  -4.113  0.00  0.00     0.103 A 
ATOM     22  C   UNL d   1       4.363   0.471  -4.745  0.00  0.00     0.036 A 
ATOM     23  C   UNL d   1       3.871   1.547  -5.481  0.00  0.00     0.003 A 
ATOM     24  C   UNL d   1       2.493   1.759  -5.584  0.00  0.00     0.017 A 
BRANCH  21  25
ATOM     25  N   UNL d   1       3.980  -1.535  -3.341  0.00  0.00    -0.116 N 
ATOM     26  O   UNL d   1       3.157  -2.315  -2.843  0.00  0.00    -0.532 OA
ATOM     27  O   UNL d   1       5.210  -1.647  -3.235  0.00  0.00    -0.532 OA
ENDBRANCH  21  25
ENDBRANCH  16  19
ENDBRANCH   1  15
TORSDOF 8
