REMARK  4 active torsions:
REMARK  status: ('A' for Active; 'I' for Inactive)
REMARK    1  A    between atoms: C_8  and  C_1 
REMARK    2  A    between atoms: N_2  and  C_7 
REMARK    3  A    between atoms: C_9  and  C_8 
REMARK    4  A    between atoms: O_17  and  C_8 
ROOT
ATOM      1  C   UNL d   1      -2.335  -0.197  -0.105  0.00  0.00     0.087 A 
ATOM      2  O   UNL d   1      -1.569   0.939  -0.089  0.00  0.00    -0.311 OA
ATOM      3  C   UNL d   1      -1.523  -1.313  -0.106  0.00  0.00     0.050 A 
ATOM      4  C   UNL d   1      -0.186  -0.849  -0.074  0.00  0.00     0.003 A 
ATOM      5  C   UNL d   1      -0.265   0.540  -0.070  0.00  0.00     0.086 A 
ATOM      6  C   UNL d   1       2.216  -0.636  -0.008  0.00  0.00     0.103 A 
ATOM      7  C   UNL d   1       1.078  -1.462  -0.037  0.00  0.00     0.050 A 
ATOM      8  C   UNL d   1       0.845   1.383  -0.040  0.00  0.00     0.040 A 
ATOM      9  C   UNL d   1       2.105   0.765  -0.011  0.00  0.00     0.039 A 
ENDROOT
BRANCH   1  10
ATOM     10  C   UNL d   1      -3.822  -0.045  -0.047  0.00  0.00     0.208 C 
BRANCH  10  11
ATOM     11  C   UNL d   1      -4.341  -0.071   1.376  0.00  0.00    -0.022 A 
ATOM     12  C   UNL d   1      -3.989   0.931   2.298  0.00  0.00     0.034 A 
ATOM     13  C   UNL d   1      -4.410   0.847   3.625  0.00  0.00     0.034 A 
ATOM     14 CL   UNL d   1      -3.942   2.067   4.745  0.00  0.00    -0.084 Cl
ATOM     15  C   UNL d   1      -5.189  -0.225   4.052  0.00  0.00     0.024 A 
ATOM     16  C   UNL d   1      -5.557  -1.217   3.145  0.00  0.00     0.002 A 
ATOM     17  C   UNL d   1      -5.137  -1.141   1.815  0.00  0.00     0.010 A 
ENDBRANCH  10  11
BRANCH  10  18
ATOM     18  O   UNL d   1      -4.202   1.169  -0.687  0.00  0.00    -0.384 OA
ATOM     19  H   UNL d   1      -3.574   1.846  -0.383  0.00  0.00     0.211 HD
ENDBRANCH  10  18
ENDBRANCH   1  10
BRANCH   6  20
ATOM     20  N   UNL d   1       3.548  -1.262   0.022  0.00  0.00    -0.116 N 
ATOM     21  O   UNL d   1       3.602  -2.500   0.046  0.00  0.00    -0.532 OA
ATOM     22  O   UNL d   1       4.533  -0.513   0.026  0.00  0.00    -0.532 OA
ENDBRANCH   6  20
TORSDOF 4
