REMARK  5 active torsions:
REMARK  status: ('A' for Active; 'I' for Inactive)
REMARK    1  A    between atoms: N_6  and  C_1 
REMARK    2  A    between atoms: C_2  and  C_3 
REMARK       I    between atoms: C_9  and  N_7 
REMARK    3  A    between atoms: C_16  and  C_9 
REMARK    4  A    between atoms: S_17  and  C_16 
REMARK    5  A    between atoms: C_22  and  S_17 
ROOT
ATOM      1  N   UNL d   1       0.697   2.110  -0.145  0.00  0.00    -0.363 N 
ATOM      2  N   UNL d   1       2.382   4.384  -0.038  0.00  0.00    -0.348 N 
ATOM      3  C   UNL d   1       3.054   5.581  -0.210  0.00  0.00     0.229 C 
ATOM      4  C   UNL d   1       1.389   2.551  -1.369  0.00  0.00     0.144 C 
ATOM      5  C   UNL d   1       0.277   3.239   0.699  0.00  0.00     0.144 C 
ATOM      6  C   UNL d   1       2.687   3.259  -0.938  0.00  0.00     0.145 C 
ATOM      7  C   UNL d   1       1.535   4.029   1.120  0.00  0.00     0.145 C 
ATOM      8  O   UNL d   1       3.905   5.728  -1.095  0.00  0.00    -0.273 OA
ENDROOT
BRANCH   1   9
ATOM      9  C   UNL d   1      -0.126   0.996  -0.190  0.00  0.00     0.125 A 
ATOM     10  N   UNL d   1      -1.404   1.148   0.246  0.00  0.00    -0.350 N 
ATOM     11  C   UNL d   1      -2.205   0.058   0.334  0.00  0.00     0.106 A 
ATOM     12  HN  UNL d   1      -1.757   2.070   0.502  1.00  0.00     0.166 HD
ATOM     13  C   UNL d   1      -1.810  -1.223  -0.001  0.00  0.00     0.065 A 
ATOM     14  C   UNL d   1      -0.505  -1.385  -0.461  0.00  0.00     0.045 A 
ATOM     15  C   UNL d   1       0.347  -0.281  -0.544  0.00  0.00     0.078 A 
ATOM     16 CL   UNL d   1       1.999  -0.618  -0.946  0.00  0.00    -0.080 Cl
BRANCH  13  17
ATOM     17  C   UNL d   1      -2.744  -2.375   0.186  0.00  0.00     0.418 C 
ATOM     18  F   UNL d   1      -2.250  -3.553  -0.287  0.00  0.00    -0.166 F 
ATOM     19  F   UNL d   1      -3.040  -2.595   1.495  0.00  0.00    -0.166 F 
ATOM     20  F   UNL d   1      -3.935  -2.191  -0.444  0.00  0.00    -0.166 F 
ENDBRANCH  13  17
ENDBRANCH   1   9
BRANCH   3  21
ATOM     21  C   UNL d   1       2.654   6.767   0.651  0.00  0.00     0.177 C 
BRANCH  21  22
ATOM     22  S   UNL d   1       3.466   6.701   2.279  0.00  0.00    -0.151 SA
BRANCH  22  23
ATOM     23  C   UNL d   1       3.077   8.379   2.950  0.00  0.00    -0.003 C 
ATOM     24  C   UNL d   1       1.564   8.629   2.978  0.00  0.00     0.026 C 
ATOM     25  C   UNL d   1       3.618   8.409   4.388  0.00  0.00     0.026 C 
ATOM     26  C   UNL d   1       3.786   9.457   2.122  0.00  0.00     0.026 C 
ENDBRANCH  22  23
ENDBRANCH  21  22
ENDBRANCH   3  21
TORSDOF 5
