REMARK  4 active torsions:
REMARK  status: ('A' for Active; 'I' for Inactive)
REMARK    1  A    between atoms: C_3  and  C_1 
REMARK    2  A    between atoms: O_12  and  C_2 
REMARK       I    between atoms: N_8  and  C_3 
REMARK    3  A    between atoms: C_14  and  N_8 
REMARK    4  A    between atoms: C_10  and  O_12 
ROOT
ATOM      1  C   UNL d   1      -0.520   2.520  -0.028  0.00  0.00     0.280 C 
ATOM      2  N   UNL d   1      -1.897   2.689   0.002  0.00  0.00    -0.321 N 
ATOM      3  O   UNL d   1       0.287   3.449  -0.063  0.00  0.00    -0.265 OA
ATOM      4  H   UNL d   1      -2.446   1.858   0.193  0.00  0.00     0.169 HD
ENDROOT
BRANCH   1   5
ATOM      5  C   UNL d   1      -0.040   1.151   0.004  0.00  0.00     0.146 A 
ATOM      6  O   UNL d   1      -0.886   0.072  -0.014  0.00  0.00    -0.282 OA
ATOM      7  C   UNL d   1      -0.097  -1.048  -0.058  0.00  0.00     0.191 A 
ATOM      8  C   UNL d   1       1.236  -0.697  -0.006  0.00  0.00     0.067 A 
ATOM      9  C   UNL d   1       1.272   0.711   0.009  0.00  0.00     0.048 A 
BRANCH   7  10
ATOM     10  O   UNL d   1      -0.766  -2.197  -0.144  0.00  0.00    -0.288 OA
BRANCH  10  11
ATOM     11  C   UNL d   1      -0.174  -3.317  -0.691  0.00  0.00     0.081 A 
ATOM     12  C   UNL d   1      -0.470  -4.551  -0.109  0.00  0.00     0.061 A 
ATOM     13  C   UNL d   1       0.047  -5.723  -0.668  0.00  0.00     0.038 A 
ATOM     14 CL   UNL d   1      -0.330  -7.245   0.040  0.00  0.00    -0.084 Cl
ATOM     15  C   UNL d   1       0.856  -5.676  -1.802  0.00  0.00     0.048 A 
ATOM     16  C   UNL d   1       1.140  -4.443  -2.380  0.00  0.00     0.038 A 
ATOM     17  C   UNL d   1       0.620  -3.265  -1.841  0.00  0.00     0.061 A 
ATOM     18 CL   UNL d   1       2.133  -4.368  -3.784  0.00  0.00    -0.084 Cl
ENDBRANCH  10  11
ENDBRANCH   7  10
ENDBRANCH   1   5
BRANCH   2  19
ATOM     19  C   UNL d   1      -2.583   3.916  -0.167  0.00  0.00     0.035 A 
ATOM     20  C   UNL d   1      -1.967   5.078  -0.642  0.00  0.00     0.043 A 
ATOM     21  C   UNL d   1      -2.689   6.271  -0.835  0.00  0.00    -0.007 A 
ATOM     22  C   UNL d   1      -2.067   7.423  -1.329  0.00  0.00     0.015 A 
ATOM     23  C   UNL d   1      -4.062   6.329  -0.545  0.00  0.00     0.042 A 
ATOM     24  C   UNL d   1      -2.810   8.577  -1.532  0.00  0.00     0.025 A 
ATOM     25  C   UNL d   1      -4.164   8.552  -1.230  0.00  0.00     0.005 A 
ATOM     26  N   UNL d   1      -4.786   7.451  -0.736  0.00  0.00    -0.359 N 
ATOM     27  C   UNL d   1      -4.998   9.777  -1.460  0.00  0.00     0.068 C 
ATOM     28  HN  UNL d   1      -5.781   7.472  -0.513  1.00  0.00     0.166 HD
ATOM     29  C   UNL d   1      -4.664   5.172  -0.062  0.00  0.00     0.033 A 
ATOM     30  C   UNL d   1      -3.948   3.973   0.117  0.00  0.00     0.032 A 
ENDBRANCH   2  19
TORSDOF 4
