REMARK  4 active torsions:
REMARK  status: ('A' for Active; 'I' for Inactive)
REMARK    1  A    between atoms: C_7  and  C_1 
REMARK    2  A    between atoms: C_13  and  C_5 
REMARK    3  A    between atoms: C_9  and  C_8 
REMARK    4  A    between atoms: O_16  and  C_9 
ROOT
ATOM      1  C   UNL d   1       2.744   2.611   0.071  0.00  0.00     0.061 C 
ATOM      2  C   UNL d   1       1.843   2.665  -0.929  0.00  0.00     0.121 C 
ATOM      3  C   UNL d   1       2.163   2.503  -2.306  0.00  0.00     0.105 C 
ATOM      4  N   UNL d   1       2.425   2.414  -3.432  0.00  0.00    -0.191 NA
ENDROOT
BRANCH   2   5
ATOM      5  C   UNL d   1       0.434   2.922  -0.520  0.00  0.00     0.303 C 
ATOM      6  O   UNL d   1       0.076   3.048   0.644  0.00  0.00    -0.258 OA
BRANCH   5   7
ATOM      7  O   UNL d   1      -0.392   2.995  -1.594  0.00  0.00    -0.322 OA
ATOM      8  C   UNL d   1      -1.767   3.221  -1.263  0.00  0.00     0.213 C 
ENDBRANCH   5   7
ENDBRANCH   2   5
BRANCH   1   9
ATOM      9  C   UNL d   1       4.108   2.267  -0.100  0.00  0.00     0.066 A 
ATOM     10  C   UNL d   1       4.828   1.074  -0.217  0.00  0.00     0.071 A 
ATOM     11  N   UNL d   1       6.191   1.318  -0.311  0.00  0.00    -0.334 N 
ATOM     12  C   UNL d   1       6.287   2.611  -0.225  0.00  0.00     0.147 A 
ATOM     13  HN  UNL d   1       6.944   0.639  -0.421  1.00  0.00     0.168 HD
ATOM     14  N   UNL d   1       5.083   3.222  -0.098  0.00  0.00    -0.325 N 
ATOM     15  S   UNL d   1       7.617   3.692  -0.217  0.00  0.00    -0.092 SA
ATOM     16  C   UNL d   1       5.091   4.668  -0.056  0.00  0.00     0.142 C 
ATOM     17  C   UNL d   1       6.535   5.105   0.225  0.00  0.00     0.102 C 
BRANCH  10  18
ATOM     18  C   UNL d   1       4.300  -0.283  -0.260  0.00  0.00    -0.007 A 
ATOM     19  C   UNL d   1       3.128  -0.663   0.406  0.00  0.00     0.014 A 
ATOM     20  C   UNL d   1       2.658  -1.978   0.324  0.00  0.00     0.001 A 
ATOM     21  C   UNL d   1       3.363  -2.929  -0.413  0.00  0.00     0.000 A 
ATOM     22  C   UNL d   1       4.544  -2.571  -1.056  0.00  0.00     0.001 A 
ATOM     23  C   UNL d   1       5.011  -1.258  -0.976  0.00  0.00     0.014 A 
ENDBRANCH  10  18
ENDBRANCH   1   9
TORSDOF 4
