REMARK  1 active torsions:
REMARK  status: ('A' for Active; 'I' for Inactive)
REMARK    1  A    between atoms: N_10  and  C_2 
ROOT
ATOM      1  N   UNL d   1      -1.079   0.805   0.032  0.00  0.00    -0.068 N 
ATOM      2  C   UNL d   1       0.193   1.454   0.004  0.00  0.00     0.152 A 
ATOM      3  C   UNL d   1      -1.186  -0.604   0.048  0.00  0.00     0.706 A 
ATOM      4  C   UNL d   1       1.272   0.649   0.005  0.00  0.00     0.011 A 
ATOM      5  N   UNL d   1      -0.090  -1.424   0.050  0.00  0.00    -0.193 N 
ATOM      6  HN  UNL d   1      -0.166  -2.441   0.064  1.00  0.00     0.184 HD
ATOM      7  N   UNL d   1      -2.458  -0.944   0.050  0.00  0.00    -0.184 N 
ATOM      8  HN  UNL d   1      -2.860  -1.881   0.062  1.00  0.00     0.185 HD
ATOM      9  C   UNL d   1       1.048  -0.815   0.032  0.00  0.00     0.036 A 
ATOM     10  N   UNL d   1      -2.338   1.335   0.024  0.00  0.00    -0.273 N 
ATOM     11  HN  UNL d   1      -2.619   2.315   0.015  1.00  0.00     0.189 HD
ATOM     12  C   UNL d   1      -3.105   0.248   0.032  0.00  0.00     0.215 A 
ATOM     13  C   UNL d   1       2.732   0.919   0.035  0.00  0.00     0.045 A 
ATOM     14  C   UNL d   1       2.347  -1.553   0.026  0.00  0.00     0.058 A 
ATOM     15  C   UNL d   1       3.409  -0.454   0.087  0.00  0.00     0.011 A 
ENDROOT
BRANCH   2  16
ATOM     16  N   UNL d   1       0.310   2.863  -0.025  0.00  0.00    -0.361 N 
ATOM     17  C   UNL d   1      -0.713   3.744   0.601  0.00  0.00     0.154 C 
ATOM     18  C   UNL d   1      -0.121   5.146   0.898  0.00  0.00     0.291 C 
ATOM     19  N   UNL d   1       0.466   5.786  -0.301  0.00  0.00     0.087 N 
ATOM     20  C   UNL d   1       1.480   4.885  -0.880  0.00  0.00     0.291 C 
ATOM     21  C   UNL d   1       1.045   7.086   0.021  0.00  0.00     0.310 C 
ATOM     22  C   UNL d   1       0.875   3.512  -1.236  0.00  0.00     0.154 C 
ENDBRANCH   2  16
TORSDOF 1
