REMARK  5 active torsions:
REMARK  status: ('A' for Active; 'I' for Inactive)
REMARK    1  A    between atoms: C_7  and  C_1 
REMARK    2  A    between atoms: C_3  and  C_7 
REMARK    3  A    between atoms: N_4  and  C_10 
REMARK    4  A    between atoms: C_16  and  C_5 
REMARK    5  A    between atoms: C_11  and  C_9 
ROOT
ATOM      1  C   UNL d   1      -0.870  -3.478  -1.316  0.00  0.00     0.096 C 
ATOM      2  C   UNL d   1      -0.841  -4.826  -1.226  0.00  0.00     0.040 C 
ATOM      3  C   UNL d   1      -1.806  -2.895  -2.220  0.00  0.00     0.103 C 
ATOM      4  N   UNL d   1      -2.610  -2.447  -2.925  0.00  0.00    -0.191 NA
ENDROOT
BRANCH   1   5
ATOM      5  C   UNL d   1       0.094  -2.613  -0.558  0.00  0.00     0.205 C 
ATOM      6  O   UNL d   1       1.172  -3.051  -0.166  0.00  0.00    -0.286 OA
BRANCH   5   7
ATOM      7  C   UNL d   1      -0.302  -1.229  -0.320  0.00  0.00     0.048 A 
ATOM      8  C   UNL d   1      -1.599  -0.646  -0.184  0.00  0.00     0.056 A 
ATOM      9  C   UNL d   1      -1.430   0.707   0.020  0.00  0.00     0.086 A 
ATOM     10  O   UNL d   1      -0.099   0.991   0.072  0.00  0.00    -0.314 OA
ATOM     11  C   UNL d   1       0.581  -0.176  -0.115  0.00  0.00     0.064 A 
ATOM     12  C   UNL d   1       2.056  -0.051  -0.077  0.00  0.00     0.077 C 
BRANCH   9  13
ATOM     13  C   UNL d   1      -2.355   1.819   0.198  0.00  0.00    -0.002 A 
ATOM     14  C   UNL d   1      -1.965   2.999   0.846  0.00  0.00     0.014 A 
ATOM     15  C   UNL d   1      -2.884   4.030   1.065  0.00  0.00     0.001 A 
ATOM     16  C   UNL d   1      -4.201   3.897   0.630  0.00  0.00     0.000 A 
ATOM     17  C   UNL d   1      -4.598   2.741  -0.036  0.00  0.00     0.001 A 
ATOM     18  C   UNL d   1      -3.680   1.710  -0.252  0.00  0.00     0.014 A 
ENDBRANCH   9  13
ENDBRANCH   5   7
ENDBRANCH   1   5
BRANCH   2  19
ATOM     19  C   UNL d   1       0.050  -5.653  -0.395  0.00  0.00    -0.002 A 
ATOM     20  C   UNL d   1       1.341  -6.101  -0.753  0.00  0.00     0.113 A 
ATOM     21  C   UNL d   1       2.065  -6.937   0.120  0.00  0.00     0.037 A 
ATOM     22  C   UNL d   1       1.520  -7.315   1.347  0.00  0.00     0.002 A 
ATOM     23  C   UNL d   1       0.260  -6.858   1.717  0.00  0.00     0.001 A 
ATOM     24  C   UNL d   1      -0.469  -6.036   0.855  0.00  0.00     0.014 A 
BRANCH  20  25
ATOM     25  N   UNL d   1       1.984  -5.731  -2.030  0.00  0.00    -0.115 N 
ATOM     26  O   UNL d   1       1.353  -5.036  -2.839  0.00  0.00    -0.532 OA
ATOM     27  O   UNL d   1       3.127  -6.164  -2.242  0.00  0.00    -0.532 OA
ENDBRANCH  20  25
ENDBRANCH   2  19
TORSDOF 5
