REMARK  4 active torsions:
REMARK  status: ('A' for Active; 'I' for Inactive)
REMARK    1  A    between atoms: C_9  and  C_22 
REMARK    2  A    between atoms: C_26  and  N_10 
REMARK    3  A    between atoms: N_20  and  N_13 
REMARK    4  A    between atoms: C_27  and  C_14 
ROOT
ATOM      1  N   UNL d   1       5.232  -1.028  -1.427  0.00  0.00    -0.301 N 
ATOM      2  HN  UNL d   1       5.836  -1.087  -2.247  1.00  0.00     0.186 HD
ATOM      3  C   UNL d   1       5.702  -0.672  -0.274  0.00  0.00     0.123 C 
ENDROOT
BRANCH   1   4
ATOM      4  N   UNL d   1       3.876  -1.326  -1.509  0.00  0.00    -0.215 N 
ATOM      5  C   UNL d   1       3.152  -1.926  -0.464  0.00  0.00     0.286 A 
ATOM      6  C   UNL d   1       1.783  -2.159  -0.827  0.00  0.00     0.104 A 
ATOM      7  O   UNL d   1       3.633  -2.241   0.625  0.00  0.00    -0.265 OA
ATOM      8  C   UNL d   1       1.271  -1.902  -2.071  0.00  0.00     0.069 A 
ATOM      9  S   UNL d   1       0.628  -2.792   0.231  0.00  0.00    -0.064 SA
ATOM     10  C   UNL d   1      -0.117  -2.234  -2.201  0.00  0.00     0.032 A 
ATOM     11  N   UNL d   1       2.070  -1.383  -3.104  0.00  0.00    -0.349 N 
ATOM     12  C   UNL d   1      -1.067  -2.164  -3.254  0.00  0.00    -0.045 A 
ATOM     13  C   UNL d   1      -0.573  -2.743  -0.982  0.00  0.00     0.088 A 
ATOM     14  C   UNL d   1      -2.368  -2.618  -2.970  0.00  0.00     0.032 A 
ATOM     15  C   UNL d   1      -0.793  -1.647  -4.641  0.00  0.00     0.049 C 
ATOM     16  C   UNL d   1      -2.688  -3.107  -1.709  0.00  0.00     0.006 A 
ATOM     17  N   UNL d   1      -1.814  -3.176  -0.692  0.00  0.00    -0.354 N 
ATOM     18  C   UNL d   1      -4.082  -3.592  -1.430  0.00  0.00     0.068 C 
ATOM     19  HN  UNL d   1      -2.070  -3.531   0.230  1.00  0.00     0.166 HD
ATOM     20  C   UNL d   1       3.299  -1.141  -2.759  0.00  0.00     0.211 A 
ATOM     21  HN  UNL d   1       1.715  -1.210  -4.045  1.00  0.00     0.167 HD
ENDBRANCH   1   4
BRANCH   3  22
ATOM     22  C   UNL d   1       7.109  -0.371  -0.152  0.00  0.00     0.027 A 
ATOM     23  C   UNL d   1       7.755   0.478   0.790  0.00  0.00     0.072 A 
ATOM     24  N   UNL d   1       9.088   0.444   0.627  0.00  0.00    -0.292 N 
ATOM     25  N   UNL d   1       9.307  -0.370  -0.439  0.00  0.00    -0.266 N 
ATOM     26  HN  UNL d   1       9.790   0.927   1.188  1.00  0.00     0.187 HD
ATOM     27  C   UNL d   1       8.127  -0.878  -0.928  0.00  0.00     0.132 A 
BRANCH  23  28
ATOM     28  C   UNL d   1       7.126   1.309   1.824  0.00  0.00    -0.007 A 
ATOM     29  C   UNL d   1       5.906   1.960   1.577  0.00  0.00     0.014 A 
ATOM     30  C   UNL d   1       5.260   2.680   2.584  0.00  0.00     0.001 A 
ATOM     31  C   UNL d   1       5.845   2.787   3.842  0.00  0.00     0.000 A 
ATOM     32  C   UNL d   1       7.077   2.185   4.090  0.00  0.00     0.001 A 
ATOM     33  C   UNL d   1       7.716   1.449   3.086  0.00  0.00     0.014 A 
ENDBRANCH  23  28
BRANCH  25  34
ATOM     34  C   UNL d   1      10.623  -0.616  -0.930  0.00  0.00     0.056 A 
ATOM     35  C   UNL d   1      10.835  -1.435  -2.050  0.00  0.00     0.031 A 
ATOM     36  C   UNL d   1      12.130  -1.658  -2.525  0.00  0.00     0.002 A 
ATOM     37  C   UNL d   1      13.221  -1.071  -1.888  0.00  0.00     0.000 A 
ATOM     38  C   UNL d   1      13.020  -0.259  -0.774  0.00  0.00     0.002 A 
ATOM     39  C   UNL d   1      11.727  -0.029  -0.294  0.00  0.00     0.031 A 
ENDBRANCH  25  34
ENDBRANCH   3  22
TORSDOF 4
