REMARK  2 active torsions:
REMARK  status: ('A' for Active; 'I' for Inactive)
REMARK    1  A    between atoms: C_4  and  C_2 
REMARK    2  A    between atoms: C_7  and  C_3 
REMARK       I    between atoms: N_11  and  C_4 
ROOT
ATOM      1  S   UNL d   1      -1.016  -0.011  -0.101  0.00  0.00    -0.084 SA
ATOM      2  C   UNL d   1       0.143   1.245  -0.052  0.00  0.00     0.073 A 
ATOM      3  C   UNL d   1       0.175  -1.244  -0.008  0.00  0.00     0.016 A 
ATOM      4  C   UNL d   1       1.426   0.734  -0.017  0.00  0.00     0.026 A 
ATOM      5  C   UNL d   1       1.444  -0.692  -0.000  0.00  0.00     0.021 A 
ENDROOT
BRANCH   3   6
ATOM      6  C   UNL d   1      -0.215  -2.664   0.045  0.00  0.00    -0.019 A 
ATOM      7  C   UNL d   1       0.601  -3.643  -0.546  0.00  0.00     0.014 A 
ATOM      8  C   UNL d   1       0.275  -5.001  -0.453  0.00  0.00     0.024 A 
ATOM      9  C   UNL d   1      -0.872  -5.394   0.229  0.00  0.00     0.034 A 
ATOM     10  C   UNL d   1      -1.704  -4.441   0.809  0.00  0.00     0.024 A 
ATOM     11 CL   UNL d   1      -1.259  -7.064   0.368  0.00  0.00    -0.084 Cl
ATOM     12  C   UNL d   1      -1.375  -3.085   0.718  0.00  0.00     0.014 A 
ENDBRANCH   3   6
BRANCH   2  13
ATOM     13  C   UNL d   1      -0.238   2.647  -0.050  0.00  0.00     0.256 C 
ATOM     14  O   UNL d   1       0.563   3.577  -0.029  0.00  0.00    -0.267 OA
ATOM     15  N   UNL d   1      -1.577   2.921  -0.066  0.00  0.00    -0.366 N 
ATOM     16  H   UNL d   1      -2.271   2.187  -0.079  0.00  0.00     0.159 HD
ATOM     17  H   UNL d   1      -1.865   3.888  -0.057  0.00  0.00     0.159 HD
ENDBRANCH   2  13
TORSDOF 2
