REMARK  2 active torsions:
REMARK  status: ('A' for Active; 'I' for Inactive)
REMARK    1  A    between atoms: C_6  and  C_4 
REMARK    2  A    between atoms: C_7  and  C_5 
ROOT
ATOM      1  C   UNL d   1      -0.612  -1.382   1.400  0.00  0.00     0.019 C 
ATOM      2  C   UNL d   1      -0.806   1.098   1.671  0.00  0.00     0.019 C 
ATOM      3  C   UNL d   1      -0.350  -0.190   2.258  0.00  0.00     0.189 C 
ATOM      4  C   UNL d   1      -0.967  -2.501   2.059  0.00  0.00     0.050 C 
ATOM      5  C   UNL d   1      -1.364   1.971   2.528  0.00  0.00     0.050 C 
ATOM      6  O   UNL d   1      -1.229   0.056  -0.425  0.00  0.00    -0.382 OA
ATOM      7  O   UNL d   1       0.141  -0.270   3.378  0.00  0.00    -0.287 OA
ATOM      8  C   UNL d   1      -0.641   1.195   0.191  0.00  0.00     0.210 C 
ATOM      9  C   UNL d   1      -0.542  -1.145  -0.076  0.00  0.00     0.210 C 
ENDROOT
BRANCH   4  10
ATOM     10  C   UNL d   1      -1.363  -3.700   1.408  0.00  0.00     0.075 A 
ATOM     11  O   UNL d   1      -0.917  -4.106   0.171  0.00  0.00    -0.323 OA
ATOM     12  C   UNL d   1      -1.544  -5.261  -0.157  0.00  0.00     0.142 A 
ATOM     13  C   UNL d   1      -2.382  -5.652   0.854  0.00  0.00     0.027 A 
ATOM     14  C   UNL d   1      -2.252  -4.669   1.863  0.00  0.00     0.039 A 
ENDBRANCH   4  10
BRANCH   5  15
ATOM     15  C   UNL d   1      -2.068   3.127   2.101  0.00  0.00     0.075 A 
ATOM     16  O   UNL d   1      -2.819   3.175   0.948  0.00  0.00    -0.323 OA
ATOM     17  C   UNL d   1      -3.427   4.381   0.873  0.00  0.00     0.142 A 
ATOM     18  C   UNL d   1      -3.091   5.148   1.957  0.00  0.00     0.027 A 
ATOM     19  C   UNL d   1      -2.230   4.347   2.748  0.00  0.00     0.039 A 
ENDBRANCH   5  15
TORSDOF 2
