REMARK  3 active torsions:
REMARK  status: ('A' for Active; 'I' for Inactive)
REMARK    1  A    between atoms: C_7  and  C_1 
REMARK    2  A    between atoms: C_2  and  C_3 
REMARK    3  A    between atoms: O_12  and  C_7 
ROOT
ATOM      1  C   UNL d   1       0.773  -0.535  -0.368  0.00  0.00     0.120 C 
ATOM      2  C   UNL d   1       0.352  -0.748   0.894  0.00  0.00     0.041 C 
ATOM      3  C   UNL d   1       1.878  -1.232  -0.927  0.00  0.00     0.105 C 
ATOM      4  N   UNL d   1       2.788  -1.798  -1.381  0.00  0.00    -0.191 NA
ENDROOT
BRANCH   1   5
ATOM      5  C   UNL d   1       0.033   0.446  -1.205  0.00  0.00     0.303 C 
ATOM      6  O   UNL d   1      -0.932   1.093  -0.821  0.00  0.00    -0.258 OA
BRANCH   5   7
ATOM      7  O   UNL d   1       0.571   0.511  -2.451  0.00  0.00    -0.322 OA
ATOM      8  C   UNL d   1      -0.064   1.426  -3.349  0.00  0.00     0.213 C 
ENDBRANCH   5   7
ENDBRANCH   1   5
BRANCH   2   9
ATOM      9  C   UNL d   1       0.897  -1.719   1.801  0.00  0.00    -0.021 A 
ATOM     10  C   UNL d   1       1.931  -1.486   2.688  0.00  0.00    -0.011 A 
ATOM     11  S   UNL d   1       2.333  -2.907   3.563  0.00  0.00    -0.099 SA
ATOM     12  C   UNL d   1       2.719  -0.246   2.964  0.00  0.00     0.057 C 
ATOM     13  C   UNL d   1       1.089  -3.809   2.823  0.00  0.00    -0.020 A 
ATOM     14  C   UNL d   1       0.400  -3.056   1.896  0.00  0.00     0.026 A 
ATOM     15  C   UNL d   1       0.876  -5.230   3.218  0.00  0.00     0.056 C 
ENDBRANCH   2   9
TORSDOF 3
