REMARK  4 active torsions:
REMARK  status: ('A' for Active; 'I' for Inactive)
REMARK    1  A    between atoms: C_9  and  C_16 
REMARK       I    between atoms: N_10  and  C_9 
REMARK    2  A    between atoms: C_15  and  N_10 
REMARK    3  A    between atoms: O_14  and  C_13 
REMARK    4  A    between atoms: C_16  and  O_14 
ROOT
ATOM      1  C   UNL d   1      -0.512  -0.700  -0.039  0.00  0.00     0.086 A 
ATOM      2  C   UNL d   1      -0.720   0.669   0.083  0.00  0.00     0.043 A 
ATOM      3  C   UNL d   1       0.428   1.552   0.344  0.00  0.00     0.165 C 
ATOM      4  O   UNL d   1       0.707  -1.302   0.106  0.00  0.00    -0.340 OA
ATOM      5  C   UNL d   1       1.853  -0.455  -0.100  0.00  0.00     0.067 C 
ATOM      6  C   UNL d   1       1.736   0.878   0.642  0.00  0.00     0.121 C 
ATOM      7  C   UNL d   1      -1.596  -1.539  -0.314  0.00  0.00     0.074 A 
ATOM      8  C   UNL d   1      -2.007   1.200  -0.035  0.00  0.00     0.021 A 
ATOM      9  O   UNL d   1       0.295   2.771   0.371  0.00  0.00    -0.292 OA
ATOM     10  C   UNL d   1      -2.885  -1.016  -0.475  0.00  0.00     0.072 A 
ATOM     11  C   UNL d   1      -3.088   0.357  -0.311  0.00  0.00     0.038 A 
ATOM     12  C   UNL d   1       2.083  -0.278  -1.610  0.00  0.00     0.046 C 
ATOM     13  C   UNL d   1       3.053  -1.223   0.481  0.00  0.00     0.046 C 
ENDROOT
BRANCH  10  14
ATOM     14  O   UNL d   1      -3.848  -1.935  -0.804  0.00  0.00    -0.342 OA
BRANCH  14  15
ATOM     15  C   UNL d   1      -5.177  -1.448  -0.923  0.00  0.00     0.278 C 
BRANCH  15  16
ATOM     16  C   UNL d   1      -6.170  -2.592  -1.121  0.00  0.00     0.246 C 
ATOM     17  N   UNL d   1      -6.396  -2.924  -2.449  0.00  0.00    -0.325 N 
ATOM     18  H   UNL d   1      -5.721  -2.589  -3.126  0.00  0.00     0.169 HD
ATOM     19  O   UNL d   1      -6.714  -3.115  -0.147  0.00  0.00    -0.271 OA
BRANCH  17  20
ATOM     20  C   UNL d   1      -7.431  -3.755  -2.939  0.00  0.00     0.034 A 
ATOM     21  C   UNL d   1      -8.507  -4.180  -2.154  0.00  0.00     0.031 A 
ATOM     22  C   UNL d   1      -9.530  -4.963  -2.700  0.00  0.00     0.021 A 
ATOM     23  C   UNL d   1      -9.482  -5.327  -4.040  0.00  0.00     0.011 A 
ATOM     24  C   UNL d   1      -8.416  -4.917  -4.838  0.00  0.00     0.021 A 
ATOM     25 BR   UNL d   1     -10.874  -6.369  -4.780  0.00  0.00    -0.051 Br
ATOM     26  C   UNL d   1      -7.398  -4.126  -4.290  0.00  0.00     0.031 A 
ENDBRANCH  17  20
ENDBRANCH  15  16
ENDBRANCH  14  15
ENDBRANCH  10  14
TORSDOF 4
