REMARK  5 active torsions:
REMARK  status: ('A' for Active; 'I' for Inactive)
REMARK    1  A    between atoms: C_17  and  C_1 
REMARK    2  A    between atoms: C_9  and  C_2 
REMARK    3  A    between atoms: N_11  and  C_3 
REMARK    4  A    between atoms: N_5  and  C_4 
REMARK    5  A    between atoms: C_8  and  C_10 
REMARK       I    between atoms: C_10  and  N_11 
ROOT
ATOM      1  C   UNL d   1       1.508   0.750  -0.213  0.00  0.00     0.023 C 
ATOM      2  C   UNL d   1       0.222   1.269  -0.035  0.00  0.00     0.102 C 
ATOM      3  C   UNL d   1       1.526  -0.692   0.007  0.00  0.00     0.054 C 
ATOM      4  S   UNL d   1      -0.944   0.020   0.163  0.00  0.00    -0.094 SA
ATOM      5  C   UNL d   1       0.248  -1.181   0.184  0.00  0.00     0.081 C 
ENDROOT
BRANCH   3   6
ATOM      6  N   UNL d   1       2.671  -1.506   0.020  0.00  0.00    -0.321 N 
ATOM      7  C   UNL d   1       2.724  -2.746   0.648  0.00  0.00     0.263 C 
ATOM      8  O   UNL d   1       1.773  -3.236   1.256  0.00  0.00    -0.267 OA
ATOM      9  H   UNL d   1       3.534  -1.104  -0.326  0.00  0.00     0.169 HD
BRANCH   7  10
ATOM     10  C   UNL d   1       3.995  -3.465   0.618  0.00  0.00     0.075 A 
ATOM     11  S   UNL d   1       5.399  -2.919  -0.194  0.00  0.00    -0.061 SA
ATOM     12  C   UNL d   1       6.288  -4.294   0.287  0.00  0.00     0.144 A 
ATOM     13  C   UNL d   1       5.550  -5.164   1.058  0.00  0.00     0.045 A 
ATOM     14  C   UNL d   1       4.226  -4.681   1.246  0.00  0.00     0.027 A 
BRANCH  12  15
ATOM     15  N   UNL d   1       7.663  -4.467  -0.098  0.00  0.00    -0.108 N 
ATOM     16  O   UNL d   1       8.247  -5.460   0.360  0.00  0.00    -0.531 OA
ATOM     17  O   UNL d   1       8.168  -3.625  -0.854  0.00  0.00    -0.531 OA
ENDBRANCH  12  15
ENDBRANCH   7  10
ENDBRANCH   3   6
BRANCH   1  18
ATOM     18  C   UNL d   1       2.673   1.615  -0.460  0.00  0.00    -0.022 A 
ATOM     19  C   UNL d   1       3.853   1.446   0.281  0.00  0.00     0.012 A 
ATOM     20  C   UNL d   1       4.977   2.237   0.028  0.00  0.00     0.001 A 
ATOM     21  C   UNL d   1       4.923   3.239  -0.937  0.00  0.00     0.000 A 
ATOM     22  C   UNL d   1       3.753   3.436  -1.664  0.00  0.00     0.001 A 
ATOM     23  C   UNL d   1       2.643   2.613  -1.446  0.00  0.00     0.012 A 
ENDBRANCH   1  18
BRANCH   2  24
ATOM     24  C   UNL d   1      -0.314   2.669  -0.003  0.00  0.00     0.424 C 
ATOM     25  F   UNL d   1       0.634   3.618   0.201  0.00  0.00    -0.166 F 
ATOM     26  F   UNL d   1      -0.937   2.986  -1.170  0.00  0.00    -0.166 F 
ATOM     27  F   UNL d   1      -1.231   2.847   0.987  0.00  0.00    -0.166 F 
ENDBRANCH   2  24
TORSDOF 5
