REMARK  4 active torsions:
REMARK  status: ('A' for Active; 'I' for Inactive)
REMARK    1  A    between atoms: N_2  and  C_1 
REMARK    2  A    between atoms: N_4  and  C_1 
REMARK    3  A    between atoms: C_3  and  N_2 
REMARK    4  A    between atoms: C_5  and  N_4 
ROOT
ATOM      1  C   UNL d   1      -0.900   0.184  -1.040  0.00  0.00     0.176 C 
ATOM      2  S   UNL d   1      -2.228   0.105  -2.067  0.00  0.00    -0.041 SA
ENDROOT
BRANCH   1   3
ATOM      3  N   UNL d   1       0.345  -0.355  -1.246  0.00  0.00    -0.333 N 
ATOM      4  H   UNL d   1       0.801  -0.692  -0.410  0.00  0.00     0.168 HD
BRANCH   3   5
ATOM      5  C   UNL d   1       1.013  -0.625  -2.471  0.00  0.00     0.040 A 
ATOM      6  C   UNL d   1       2.072  -1.554  -2.520  0.00  0.00    -0.035 A 
ATOM      7  C   UNL d   1       2.762  -1.742  -3.735  0.00  0.00     0.009 A 
ATOM      8  C   UNL d   1       2.543  -2.364  -1.343  0.00  0.00     0.050 C 
ATOM      9  C   UNL d   1       2.409  -1.041  -4.888  0.00  0.00     0.007 A 
ATOM     10  C   UNL d   1       1.370  -0.116  -4.847  0.00  0.00    -0.060 A 
ATOM     11  C   UNL d   1       0.700   0.098  -3.634  0.00  0.00     0.037 A 
ATOM     12  C   UNL d   1       0.991   0.657  -6.075  0.00  0.00     0.048 C 
ENDBRANCH   3   5
ENDBRANCH   1   3
BRANCH   1  13
ATOM     13  N   UNL d   1      -1.082   0.945   0.082  0.00  0.00    -0.331 N 
ATOM     14  H   UNL d   1      -1.892   1.550  -0.009  0.00  0.00     0.168 HD
BRANCH  13  15
ATOM     15  C   UNL d   1      -0.382   1.051   1.301  0.00  0.00     0.073 A 
ATOM     16  C   UNL d   1       0.390   0.037   1.869  0.00  0.00     0.143 A 
ATOM     17  F   UNL d   1       0.547  -1.143   1.250  0.00  0.00    -0.204 F 
ATOM     18  C   UNL d   1       0.960   0.186   3.133  0.00  0.00     0.044 A 
ATOM     19  C   UNL d   1       0.779   1.374   3.842  0.00  0.00     0.003 A 
ATOM     20  C   UNL d   1       0.020   2.400   3.286  0.00  0.00     0.002 A 
ATOM     21  C   UNL d   1      -0.572   2.233   2.030  0.00  0.00     0.033 A 
ENDBRANCH  13  15
ENDBRANCH   1  13
TORSDOF 4
