REMARK  1 active torsions:
REMARK  status: ('A' for Active; 'I' for Inactive)
REMARK    1  A    between atoms: C_13  and  C_12 
ROOT
ATOM      1  N   UNL d   1      -0.793   1.038  -0.041  0.00  0.00    -0.196 N 
ATOM      2  C   UNL d   1       0.076  -0.025  -0.078  0.00  0.00     0.177 A 
ATOM      3  N   UNL d   1       1.363   0.036  -0.067  0.00  0.00    -0.300 N 
ATOM      4  HN  UNL d   1       1.956  -0.793  -0.107  1.00  0.00     0.171 HD
ATOM      5  N   UNL d   1      -0.367   2.348  -0.005  0.00  0.00    -0.288 N 
ATOM      6  HN  UNL d   1      -1.020   3.132   0.006  1.00  0.00     0.187 HD
ATOM      7  C   UNL d   1      -2.150   0.747  -0.054  0.00  0.00     0.285 A 
ATOM      8  C   UNL d   1      -2.328  -0.737  -0.069  0.00  0.00     0.079 A 
ATOM      9  S   UNL d   1      -0.797  -1.531  -0.146  0.00  0.00    -0.046 SA
ATOM     10  C   UNL d   1       1.868   1.314   0.005  0.00  0.00     0.271 A 
ATOM     11  C   UNL d   1       0.923   2.517   0.016  0.00  0.00     0.090 A 
ATOM     12  C   UNL d   1      -3.545  -1.298  -0.004  0.00  0.00     0.038 C 
ATOM     13  O   UNL d   1      -3.086   1.536  -0.056  0.00  0.00    -0.265 OA
ATOM     14  O   UNL d   1       3.070   1.543   0.066  0.00  0.00    -0.266 OA
ATOM     15  C   UNL d   1       1.502   3.901   0.049  0.00  0.00     0.076 C 
ENDROOT
BRANCH  12  16
ATOM     16  C   UNL d   1      -3.813  -2.744   0.029  0.00  0.00    -0.013 A 
ATOM     17  C   UNL d   1      -3.888  -3.478   1.225  0.00  0.00     0.044 A 
ATOM     18 CL   UNL d   1      -3.771  -2.711   2.771  0.00  0.00    -0.083 Cl
ATOM     19  C   UNL d   1      -4.087  -4.862   1.196  0.00  0.00     0.024 A 
ATOM     20  C   UNL d   1      -4.240  -5.521  -0.024  0.00  0.00     0.002 A 
ATOM     21  C   UNL d   1      -4.210  -4.795  -1.213  0.00  0.00     0.001 A 
ATOM     22  C   UNL d   1      -3.994  -3.415  -1.188  0.00  0.00     0.013 A 
ENDBRANCH  12  16
TORSDOF 1
