REMARK  7 active torsions:
REMARK  status: ('A' for Active; 'I' for Inactive)
REMARK    1  A    between atoms: C_4  and  N_1 
REMARK    2  A    between atoms: S_8  and  C_5 
REMARK    3  A    between atoms: O_17  and  C_7 
REMARK    4  A    between atoms: C_13  and  S_8 
REMARK    5  A    between atoms: O_20  and  C_11 
REMARK    6  A    between atoms: O_19  and  C_12 
REMARK    7  A    between atoms: N_18  and  C_16 
ROOT
ATOM      1  N   UNL d   1       0.070   0.887  -0.006  0.00  0.00    -0.251 N 
ATOM      2  C   UNL d   1      -1.055   0.137   0.237  0.00  0.00     0.232 A 
ATOM      3  C   UNL d   1       1.178   0.083  -0.178  0.00  0.00     0.245 A 
ATOM      4  C   UNL d   1       0.747  -1.372  -0.199  0.00  0.00     0.154 A 
ATOM      5  C   UNL d   1      -0.721  -1.323   0.170  0.00  0.00     0.129 A 
ATOM      6  O   UNL d   1      -2.195   0.520   0.486  0.00  0.00    -0.273 OA
ATOM      7  O   UNL d   1       2.352   0.429  -0.246  0.00  0.00    -0.271 OA
ENDROOT
BRANCH   1   8
ATOM      8  C   UNL d   1       0.107   2.316  -0.009  0.00  0.00     0.050 A 
ATOM      9  C   UNL d   1      -0.827   3.068   0.714  0.00  0.00     0.070 A 
ATOM     10  C   UNL d   1      -0.816   4.477   0.733  0.00  0.00     0.106 A 
ATOM     11  C   UNL d   1       0.136   5.179  -0.036  0.00  0.00     0.135 A 
ATOM     12  C   UNL d   1       1.085   4.431  -0.765  0.00  0.00     0.106 A 
ATOM     13  C   UNL d   1       1.065   3.023  -0.740  0.00  0.00     0.070 A 
BRANCH  10  14
ATOM     14  O   UNL d   1      -1.702   5.198   1.494  0.00  0.00    -0.353 OA
ATOM     15  C   UNL d   1      -2.661   4.500   2.278  0.00  0.00     0.210 C 
ENDBRANCH  10  14
BRANCH  11  16
ATOM     16  O   UNL d   1       0.219   6.540  -0.175  0.00  0.00    -0.351 OA
ATOM     17  C   UNL d   1      -0.706   7.397   0.473  0.00  0.00     0.210 C 
ENDBRANCH  11  16
BRANCH  12  18
ATOM     18  O   UNL d   1       2.058   4.921  -1.609  0.00  0.00    -0.353 OA
ATOM     19  C   UNL d   1       2.614   6.195  -1.312  0.00  0.00     0.210 C 
ENDBRANCH  12  18
ENDBRANCH   1   8
BRANCH   4  20
ATOM     20  S   UNL d   1       1.085  -2.029  -1.878  0.00  0.00    -0.113 SA
BRANCH  20  21
ATOM     21  C   UNL d   1       0.656  -3.769  -1.716  0.00  0.00     0.022 A 
ATOM     22  C   UNL d   1      -0.318  -4.323  -2.577  0.00  0.00     0.022 A 
ATOM     23  C   UNL d   1      -0.626  -5.685  -2.478  0.00  0.00     0.024 A 
ATOM     24  C   UNL d   1       0.108  -6.520  -1.636  0.00  0.00     0.002 A 
ATOM     25  C   UNL d   1       1.113  -5.985  -0.833  0.00  0.00     0.001 A 
ATOM     26  C   UNL d   1       1.379  -4.612  -0.861  0.00  0.00     0.020 A 
BRANCH  22  27
ATOM     27  N   UNL d   1      -1.126  -3.501  -3.390  0.00  0.00    -0.302 NA
ATOM     28  H   UNL d   1      -0.606  -2.678  -3.696  0.00  0.00     0.124 HD
ATOM     29  H   UNL d   1      -1.550  -3.993  -4.170  0.00  0.00     0.124 HD
ENDBRANCH  22  27
ENDBRANCH  20  21
ENDBRANCH   4  20
TORSDOF 7
