REMARK  2 active torsions:
REMARK  status: ('A' for Active; 'I' for Inactive)
REMARK    1  A    between atoms: C_4  and  C_1 
REMARK    2  A    between atoms: C_9  and  C_3 
ROOT
ATOM      1  C   UNL d   1       0.610  -3.594   0.711  0.00  0.00     0.125 C 
ATOM      2  N   UNL d   1       2.791  -3.185   2.034  0.00  0.00    -0.191 NA
ATOM      3  N   UNL d   1      -0.258  -6.023   0.548  0.00  0.00    -0.191 NA
ATOM      4  C   UNL d   1      -0.096  -2.617   0.105  0.00  0.00     0.052 C 
ATOM      5  C   UNL d   1       1.808  -3.369   1.444  0.00  0.00     0.111 C 
ATOM      6  C   UNL d   1       0.134  -4.934   0.632  0.00  0.00     0.111 C 
ENDROOT
BRANCH   4   7
ATOM      7  C   UNL d   1       0.278  -1.240   0.059  0.00  0.00     0.007 A 
ATOM      8  S   UNL d   1      -0.962  -0.042   0.059  0.00  0.00    -0.089 SA
ATOM      9  C   UNL d   1       0.150   1.260  -0.050  0.00  0.00     0.022 A 
ATOM     10  C   UNL d   1       1.446   0.786  -0.075  0.00  0.00     0.021 A 
ATOM     11  C   UNL d   1       1.519  -0.636  -0.034  0.00  0.00     0.020 A 
BRANCH   9  12
ATOM     12  C   UNL d   1      -0.283   2.638  -0.126  0.00  0.00     0.021 A 
ATOM     13  S   UNL d   1       0.693   3.837  -0.885  0.00  0.00    -0.101 SA
ATOM     14  C   UNL d   1      -0.454   5.067  -0.598  0.00  0.00     0.050 A 
ATOM     15  C   UNL d   1      -1.558   4.594   0.071  0.00  0.00     0.008 A 
ATOM     16  C   UNL d   1      -1.460   3.196   0.343  0.00  0.00     0.021 A 
ENDBRANCH   9  12
ENDBRANCH   4   7
TORSDOF 2
