REMARK  5 active torsions:
REMARK  status: ('A' for Active; 'I' for Inactive)
REMARK    1  A    between atoms: C_8  and  N_1 
REMARK    2  A    between atoms: C_12  and  C_3 
REMARK    3  A    between atoms: C_5  and  O_13 
REMARK    4  A    between atoms: C_20  and  C_8 
REMARK    5  A    between atoms: O_13  and  C_19 
ROOT
ATOM      1  N   UNL d   1      -2.515   0.327  -0.350  0.00  0.00     0.106 N 
ATOM      2  C   UNL d   1      -0.125   0.865  -0.021  0.00  0.00    -0.007 A 
ATOM      3  C   UNL d   1      -1.552   1.340   0.151  0.00  0.00     0.290 C 
ATOM      4  C   UNL d   1       0.201  -0.465  -0.198  0.00  0.00    -0.007 A 
ATOM      5  S   UNL d   1       1.876  -0.737  -0.280  0.00  0.00    -0.106 SA
ATOM      6  C   UNL d   1      -2.220  -1.066   0.035  0.00  0.00     0.279 C 
ATOM      7  C   UNL d   1       1.053   1.680  -0.005  0.00  0.00     0.018 A 
ATOM      8  C   UNL d   1      -0.800  -1.563  -0.322  0.00  0.00     0.077 C 
ATOM      9  C   UNL d   1       2.206   0.934  -0.115  0.00  0.00     0.051 A 
ENDROOT
BRANCH   3  10
ATOM     10  C   UNL d   1      -1.642   1.743   1.625  0.00  0.00    -0.020 A 
ATOM     11  C   UNL d   1      -1.939   3.079   1.952  0.00  0.00     0.012 A 
ATOM     12  C   UNL d   1      -2.042   3.499   3.287  0.00  0.00     0.037 A 
ATOM     13  C   UNL d   1      -1.876   2.583   4.319  0.00  0.00     0.078 A 
ATOM     14  C   UNL d   1      -1.528   1.271   4.010  0.00  0.00     0.037 A 
ATOM     15  C   UNL d   1      -1.410   0.854   2.681  0.00  0.00     0.012 A 
BRANCH  13  16
ATOM     16  O   UNL d   1      -1.978   2.827   5.653  0.00  0.00    -0.255 OA
BRANCH  16  17
ATOM     17  C   UNL d   1      -2.779   3.905   6.103  0.00  0.00     0.530 C 
ATOM     18  F   UNL d   1      -3.696   4.319   5.203  0.00  0.00    -0.144 F 
ATOM     19  F   UNL d   1      -3.446   3.503   7.209  0.00  0.00    -0.144 F 
ATOM     20  F   UNL d   1      -1.991   4.947   6.442  0.00  0.00    -0.144 F 
ENDBRANCH  16  17
ENDBRANCH  13  16
ENDBRANCH   3  10
BRANCH   1  21
ATOM     21  C   UNL d   1      -3.919   0.659  -0.051  0.00  0.00     0.312 C 
BRANCH  21  22
ATOM     22  C   UNL d   1      -4.395   1.957  -0.669  0.00  0.00    -0.030 A 
ATOM     23  C   UNL d   1      -4.361   2.141  -2.059  0.00  0.00     0.009 A 
ATOM     24  C   UNL d   1      -4.787   3.344  -2.625  0.00  0.00     0.001 A 
ATOM     25  C   UNL d   1      -5.252   4.374  -1.810  0.00  0.00     0.000 A 
ATOM     26  C   UNL d   1      -5.307   4.198  -0.429  0.00  0.00     0.001 A 
ATOM     27  C   UNL d   1      -4.890   2.993   0.138  0.00  0.00     0.009 A 
ENDBRANCH  21  22
ENDBRANCH   1  21
TORSDOF 5
