REMARK  9 active torsions:
REMARK  status: ('A' for Active; 'I' for Inactive)
REMARK    1  A    between atoms: O_7  and  C_1 
REMARK    2  A    between atoms: C_10  and  N_2 
REMARK    3  A    between atoms: S_24  and  C_5 
REMARK    4  A    between atoms: S_6  and  C_19 
REMARK    5  A    between atoms: C_15  and  S_6 
REMARK    6  A    between atoms: C_11  and  O_7 
REMARK    7  A    between atoms: C_12  and  C_11 
REMARK    8  A    between atoms: C_19  and  C_29 
REMARK    9  A    between atoms: C_29  and  S_24 
ROOT
ATOM      1  C   UNL d   1      -0.518  -0.875   0.134  0.00  0.00     0.251 A 
ATOM      2  N   UNL d   1       0.770  -0.454   0.433  0.00  0.00    -0.285 N 
ATOM      3  N   UNL d   1      -1.297   0.164  -0.036  0.00  0.00    -0.262 N 
ATOM      4  HN  UNL d   1      -2.294   0.138  -0.249  1.00  0.00     0.190 HD
ATOM      5  C   UNL d   1       0.701   0.918   0.362  0.00  0.00     0.165 A 
ATOM      6  N   UNL d   1      -0.536   1.292   0.124  0.00  0.00    -0.277 N 
ATOM      7  HN  UNL d   1      -0.872   2.253   0.068  1.00  0.00     0.189 HD
ENDROOT
BRANCH   5   8
ATOM      8  S   UNL d   1       2.035   2.004   0.470  0.00  0.00    -0.091 SA
BRANCH   8   9
ATOM      9  C   UNL d   1       1.297   3.659   0.564  0.00  0.00     0.098 C 
BRANCH   9  10
ATOM     10  C   UNL d   1       0.768   3.952   1.954  0.00  0.00     0.156 C 
BRANCH  10  11
ATOM     11  S   UNL d   1       0.684   5.693   2.297  0.00  0.00     0.176 S 
ATOM     12  O   UNL d   1       0.080   5.855   3.608  0.00  0.00    -0.223 OA
ATOM     13  O   UNL d   1       1.983   6.274   2.019  0.00  0.00    -0.223 OA
BRANCH  11  14
ATOM     14  C   UNL d   1      -0.465   6.372   1.122  0.00  0.00     0.059 A 
ATOM     15  C   UNL d   1      -1.837   6.314   1.396  0.00  0.00     0.026 A 
ATOM     16  C   UNL d   1      -2.737   6.916   0.515  0.00  0.00     0.044 A 
ATOM     17  C   UNL d   1      -2.259   7.575  -0.614  0.00  0.00     0.116 A 
ATOM     18  C   UNL d   1      -0.895   7.651  -0.880  0.00  0.00     0.044 A 
ATOM     19  F   UNL d   1      -3.126   8.159  -1.452  0.00  0.00    -0.206 F 
ATOM     20  C   UNL d   1       0.013   7.053  -0.004  0.00  0.00     0.026 A 
ENDBRANCH  11  14
ENDBRANCH  10  11
ENDBRANCH   9  10
ENDBRANCH   8   9
ENDBRANCH   5   8
BRANCH   2  21
ATOM     21  C   UNL d   1       1.844  -1.382   0.765  0.00  0.00     0.104 C 
ATOM     22  C   UNL d   1       1.682  -1.991   2.186  0.00  0.00     0.065 C 
ATOM     23  C   UNL d   1       3.084  -2.375   2.550  0.00  0.00    -0.050 A 
ATOM     24  C   UNL d   1       3.510  -3.115   3.642  0.00  0.00     0.007 A 
ATOM     25  C   UNL d   1       4.008  -1.814   1.668  0.00  0.00    -0.050 A 
ATOM     26  C   UNL d   1       4.884  -3.280   3.842  0.00  0.00     0.001 A 
ATOM     27  C   UNL d   1       5.810  -2.708   2.958  0.00  0.00     0.001 A 
ATOM     28  C   UNL d   1       5.373  -1.964   1.861  0.00  0.00     0.007 A 
ATOM     29  C   UNL d   1       3.329  -0.952   0.649  0.00  0.00     0.065 C 
ENDBRANCH   2  21
BRANCH   1  30
ATOM     30  O   UNL d   1      -0.834  -2.128   0.022  0.00  0.00    -0.240 OA
BRANCH  30  31
ATOM     31  C   UNL d   1      -1.766  -3.051  -0.229  0.00  0.00     0.307 C 
ATOM     32  O   UNL d   1      -1.391  -4.224  -0.271  0.00  0.00    -0.258 OA
BRANCH  31  33
ATOM     33  C   UNL d   1      -3.159  -2.648  -0.422  0.00  0.00     0.080 A 
ATOM     34  S   UNL d   1      -4.272  -3.938  -0.780  0.00  0.00    -0.096 SA
ATOM     35  C   UNL d   1      -5.616  -2.896  -0.849  0.00  0.00     0.050 A 
ATOM     36  C   UNL d   1      -5.255  -1.591  -0.620  0.00  0.00     0.009 A 
ATOM     37  C   UNL d   1      -3.852  -1.451  -0.375  0.00  0.00     0.025 A 
ENDBRANCH  31  33
ENDBRANCH  30  31
ENDBRANCH   1  30
TORSDOF 9
