REMARK  5 active torsions:
REMARK  status: ('A' for Active; 'I' for Inactive)
REMARK    1  A    between atoms: C_4  and  C_1 
REMARK    2  A    between atoms: C_3  and  C_2 
REMARK       I    between atoms: N_9  and  C_4 
REMARK    3  A    between atoms: C_14  and  N_9 
REMARK    4  A    between atoms: C_10  and  C_14 
REMARK    5  A    between atoms: O_24  and  C_12 
ROOT
ATOM      1  C   UNL d   1       0.664   1.235  -0.007  0.00  0.00     0.062 A 
ATOM      2  C   UNL d   1      -0.570   0.813   0.506  0.00  0.00     0.069 A 
ATOM      3  C   UNL d   1       1.466   0.276  -0.631  0.00  0.00     0.108 A 
ATOM      4  N   UNL d   1       1.127  -1.023  -0.810  0.00  0.00    -0.346 N 
ATOM      5  HN  UNL d   1       1.748  -1.680  -1.283  1.00  0.00     0.167 HD
ATOM      6  C   UNL d   1      -0.070  -1.402  -0.331  0.00  0.00     0.142 A 
ATOM      7  C   UNL d   1      -0.931  -0.538   0.318  0.00  0.00     0.073 A 
ENDROOT
BRANCH   1   8
ATOM      8  C   UNL d   1       1.259   2.587   0.087  0.00  0.00     0.254 C 
ATOM      9  N   UNL d   1       0.457   3.660  -0.209  0.00  0.00    -0.353 N 
ATOM     10  H   UNL d   1      -0.538   3.542  -0.343  0.00  0.00     0.163 HD
ATOM     11  O   UNL d   1       2.448   2.688   0.367  0.00  0.00    -0.268 OA
BRANCH   9  12
ATOM     12  C   UNL d   1       0.899   5.021   0.028  0.00  0.00     0.163 C 
BRANCH  12  13
ATOM     13  C   UNL d   1       0.455   5.957  -1.069  0.00  0.00    -0.019 A 
ATOM     14  C   UNL d   1      -0.898   6.200  -1.365  0.00  0.00     0.043 A 
ATOM     15  C   UNL d   1      -1.261   7.071  -2.396  0.00  0.00     0.048 A 
ATOM     16 CL   UNL d   1      -2.174   5.439  -0.480  0.00  0.00    -0.084 Cl
ATOM     17  C   UNL d   1      -0.274   7.718  -3.132  0.00  0.00     0.035 A 
ATOM     18  C   UNL d   1       1.072   7.506  -2.849  0.00  0.00     0.024 A 
ATOM     19 CL   UNL d   1      -0.721   8.790  -4.401  0.00  0.00    -0.084 Cl
ATOM     20  C   UNL d   1       1.434   6.628  -1.825  0.00  0.00     0.012 A 
ENDBRANCH  12  13
ENDBRANCH   9  12
ENDBRANCH   1   8
BRANCH   2  21
ATOM     21  C   UNL d   1      -1.537   1.671   1.266  0.00  0.00     0.418 C 
ATOM     22  F   UNL d   1      -1.069   2.883   1.655  0.00  0.00    -0.166 F 
ATOM     23  F   UNL d   1      -2.654   1.926   0.530  0.00  0.00    -0.166 F 
ATOM     24  F   UNL d   1      -1.974   1.070   2.406  0.00  0.00    -0.166 F 
ENDBRANCH   2  21
BRANCH   6  25
ATOM     25  O   UNL d   1      -0.490  -2.708  -0.459  0.00  0.00    -0.341 OA
ATOM     26  C   UNL d   1       0.458  -3.539  -1.123  0.00  0.00     0.211 C 
ENDBRANCH   6  25
TORSDOF 5
