REMARK  4 active torsions:
REMARK  status: ('A' for Active; 'I' for Inactive)
REMARK    1  A    between atoms: O_16  and  C_3 
REMARK    2  A    between atoms: O_18  and  C_6 
REMARK    3  A    between atoms: C_10  and  C_7 
REMARK    4  A    between atoms: O_20  and  C_8 
ROOT
ATOM      1  C   UNL d   1      -0.396   0.965   0.533  0.00  0.00     0.058 A 
ATOM      2  C   UNL d   1       1.915   0.413   0.099  0.00  0.00    -0.002 A 
ATOM      3  C   UNL d   1      -1.655   1.538   0.760  0.00  0.00     0.119 A 
ATOM      4  C   UNL d   1       0.943   1.540   0.227  0.00  0.00     0.192 A 
ATOM      5  C   UNL d   1      -0.216  -0.428   0.582  0.00  0.00    -0.034 A 
ATOM      6  C   UNL d   1      -2.743   0.654   1.061  0.00  0.00     0.136 A 
ATOM      7  C   UNL d   1       3.211   0.656  -0.135  0.00  0.00     0.024 C 
ATOM      8  C   UNL d   1      -2.533  -0.752   1.115  0.00  0.00     0.104 A 
ATOM      9  C   UNL d   1       1.187  -0.873   0.296  0.00  0.00     0.082 A 
ATOM     10  C   UNL d   1      -1.265  -1.281   0.868  0.00  0.00     0.048 A 
ATOM     11  O   UNL d   1       1.272   2.702   0.089  0.00  0.00    -0.287 OA
ENDROOT
BRANCH   7  12
ATOM     12  C   UNL d   1       4.229  -0.387  -0.260  0.00  0.00    -0.014 A 
ATOM     13  C   UNL d   1       4.960  -0.871   0.838  0.00  0.00     0.045 A 
ATOM     14  C   UNL d   1       5.970  -1.817   0.654  0.00  0.00     0.048 A 
ATOM     15 CL   UNL d   1       4.649  -0.325   2.450  0.00  0.00    -0.083 Cl
ATOM     16  C   UNL d   1       6.245  -2.289  -0.628  0.00  0.00     0.035 A 
ATOM     17  C   UNL d   1       5.510  -1.837  -1.723  0.00  0.00     0.024 A 
ATOM     18 CL   UNL d   1       7.506  -3.434  -0.863  0.00  0.00    -0.084 Cl
ATOM     19  C   UNL d   1       4.505  -0.886  -1.540  0.00  0.00     0.015 A 
ENDBRANCH   7  12
BRANCH   3  20
ATOM     20  O   UNL d   1      -1.989   2.858   0.728  0.00  0.00    -0.352 OA
ATOM     21  C   UNL d   1      -1.070   3.889   0.440  0.00  0.00     0.210 C 
ENDBRANCH   3  20
BRANCH   6  22
ATOM     22  O   UNL d   1      -4.037   1.040   1.319  0.00  0.00    -0.351 OA
ATOM     23  C   UNL d   1      -4.445   2.397   1.307  0.00  0.00     0.210 C 
ENDBRANCH   6  22
BRANCH   8  24
ATOM     24  O   UNL d   1      -3.432  -1.753   1.389  0.00  0.00    -0.353 OA
ATOM     25  C   UNL d   1      -4.787  -1.438   1.666  0.00  0.00     0.210 C 
ENDBRANCH   8  24
TORSDOF 4
