REMARK  6 active torsions:
REMARK  status: ('A' for Active; 'I' for Inactive)
REMARK    1  A    between atoms: N_5  and  C_1 
REMARK    2  A    between atoms: S_13  and  C_3 
REMARK       I    between atoms: C_4  and  N_5 
REMARK    3  A    between atoms: C_10  and  C_4 
REMARK    4  A    between atoms: O_16  and  C_11 
REMARK    5  A    between atoms: C_14  and  S_13 
REMARK    6  A    between atoms: C_28  and  O_16 
ROOT
ATOM      1  C   UNL d   1      -0.119   1.048  -0.287  0.00  0.00     0.168 C 
ATOM      2  S   UNL d   1       0.552  -0.229  -1.202  0.00  0.00    -0.026 SA
ATOM      3  C   UNL d   1      -0.562  -1.281  -0.425  0.00  0.00     0.135 C 
ATOM      4  N   UNL d   1      -1.175   0.700   0.416  0.00  0.00    -0.278 N 
ATOM      5  HN  UNL d   1      -1.760   1.360   0.927  1.00  0.00     0.189 HD
ATOM      6  N   UNL d   1      -1.401  -0.668   0.382  0.00  0.00    -0.286 N 
ATOM      7  HN  UNL d   1      -2.129  -1.141   0.918  1.00  0.00     0.188 HD
ENDROOT
BRANCH   1   8
ATOM      8  N   UNL d   1       0.326   2.346  -0.371  0.00  0.00    -0.302 N 
ATOM      9  C   UNL d   1       1.553   2.896  -0.688  0.00  0.00     0.262 C 
ATOM     10  O   UNL d   1       1.601   4.107  -0.907  0.00  0.00    -0.267 OA
ATOM     11  H   UNL d   1      -0.372   3.035  -0.117  0.00  0.00     0.171 HD
BRANCH   9  12
ATOM     12  C   UNL d   1       2.816   2.126  -0.625  0.00  0.00     0.083 C 
ATOM     13  C   UNL d   1       3.916   2.401  -1.441  0.00  0.00     0.163 C 
ATOM     14  N   UNL d   1       5.021   1.603  -1.470  0.00  0.00    -0.346 N 
ATOM     15  C   UNL d   1       5.106   0.599  -0.582  0.00  0.00     0.090 C 
ATOM     16  HN  UNL d   1       5.765   1.765  -2.149  1.00  0.00     0.167 HD
ATOM     17  C   UNL d   1       4.134   0.343   0.362  0.00  0.00     0.018 C 
ATOM     18  C   UNL d   1       2.989   1.133   0.352  0.00  0.00     0.023 C 
BRANCH  13  19
ATOM     19  O   UNL d   1       3.941   3.536  -2.243  0.00  0.00    -0.293 OA
BRANCH  19  20
ATOM     20  C   UNL d   1       5.179   4.133  -2.428  0.00  0.00     0.077 A 
ATOM     21  C   UNL d   1       5.487   4.601  -3.707  0.00  0.00     0.037 A 
ATOM     22  C   UNL d   1       6.746   5.154  -3.968  0.00  0.00     0.003 A 
ATOM     23  C   UNL d   1       7.696   5.254  -2.950  0.00  0.00     0.000 A 
ATOM     24  C   UNL d   1       7.373   4.839  -1.659  0.00  0.00     0.003 A 
ATOM     25  C   UNL d   1       6.111   4.304  -1.394  0.00  0.00     0.037 A 
ENDBRANCH  19  20
ENDBRANCH  13  19
ENDBRANCH   9  12
ENDBRANCH   1   8
BRANCH   3  26
ATOM     26  S   UNL d   1      -0.692  -2.981  -0.814  0.00  0.00    -0.063 SA
BRANCH  26  27
ATOM     27  C   UNL d   1      -0.135  -3.739   0.720  0.00  0.00     0.021 A 
ATOM     28  C   UNL d   1       1.193  -4.217   0.905  0.00  0.00     0.008 A 
ATOM     29  C   UNL d   1       1.449  -4.979   2.068  0.00  0.00     0.045 A 
ATOM     30  C   UNL d   1       2.263  -4.007  -0.005  0.00  0.00     0.017 A 
ATOM     31  C   UNL d   1       2.712  -5.514   2.278  0.00  0.00     0.054 A 
ATOM     32  N   UNL d   1       0.511  -5.239   2.990  0.00  0.00    -0.365 N 
ATOM     33  C   UNL d   1       3.745  -5.306   1.367  0.00  0.00     0.036 A 
ATOM     34  C   UNL d   1       3.527  -4.545   0.227  0.00  0.00     0.025 A 
ATOM     35 CL   UNL d   1       5.293  -6.000   1.650  0.00  0.00    -0.084 Cl
ATOM     36  C   UNL d   1      -0.735  -4.765   2.789  0.00  0.00     0.090 A 
ATOM     37  HN  UNL d   1       0.735  -5.782   3.824  1.00  0.00     0.165 HD
ATOM     38  C   UNL d   1      -1.105  -4.025   1.685  0.00  0.00     0.037 A 
ENDBRANCH  26  27
ENDBRANCH   3  26
TORSDOF 6
