REMARK  7 active torsions:
REMARK  status: ('A' for Active; 'I' for Inactive)
REMARK    1  A    between atoms: C_9  and  C_1 
REMARK    2  A    between atoms: C_7  and  C_2 
REMARK    3  A    between atoms: C_13  and  C_8 
REMARK    4  A    between atoms: O_17  and  C_9 
REMARK    5  A    between atoms: S_15  and  C_13 
REMARK    6  A    between atoms: C_16  and  S_15 
REMARK    7  A    between atoms: C_25  and  O_17 
ROOT
ATOM      1  C   UNL d   1       1.463   2.418   0.155  0.00  0.00     0.045 A 
ATOM      2  C   UNL d   1       2.283   2.759  -0.925  0.00  0.00    -0.028 A 
ATOM      3  S   UNL d   1       1.448   3.668   1.348  0.00  0.00    -0.099 SA
ATOM      4  C   UNL d   1       2.452   4.679   0.431  0.00  0.00     0.051 A 
ATOM      5  C   UNL d   1       2.812   4.093  -0.758  0.00  0.00     0.016 A 
ENDROOT
BRANCH   1   6
ATOM      6  C   UNL d   1       0.718   1.192   0.380  0.00  0.00     0.093 C 
ATOM      7  S   UNL d   1      -0.710   1.129   1.337  0.00  0.00    -0.063 SA
ATOM      8  C   UNL d   1      -0.699  -0.585   1.263  0.00  0.00     0.104 C 
ATOM      9  C   UNL d   1       0.296  -0.997   0.388  0.00  0.00     0.029 C 
ATOM     10  N   UNL d   1       1.082   0.032  -0.125  0.00  0.00    -0.352 N 
ATOM     11  C   UNL d   1       0.648  -2.391  -0.001  0.00  0.00     0.070 C 
ATOM     12  HN  UNL d   1       1.837  -0.096  -0.799  1.00  0.00     0.166 HD
BRANCH   8  13
ATOM     13  C   UNL d   1      -1.613  -1.320   2.107  0.00  0.00     0.302 C 
ATOM     14  O   UNL d   1      -2.453  -0.835   2.858  0.00  0.00    -0.259 OA
BRANCH  13  15
ATOM     15  O   UNL d   1      -1.333  -2.653   2.044  0.00  0.00    -0.317 OA
BRANCH  15  16
ATOM     16  C   UNL d   1      -1.791  -3.440   3.151  0.00  0.00     0.174 C 
ATOM     17  C   UNL d   1      -0.701  -3.436   4.210  0.00  0.00     0.034 C 
ENDBRANCH  15  16
ENDBRANCH  13  15
ENDBRANCH   8  13
ENDBRANCH   1   6
BRANCH   2  18
ATOM     18  C   UNL d   1       2.525   1.898  -2.143  0.00  0.00     0.119 C 
BRANCH  18  19
ATOM     19  S   UNL d   1       4.185   2.132  -2.886  0.00  0.00    -0.125 SA
BRANCH  19  20
ATOM     20  C   UNL d   1       3.964   1.209  -4.394  0.00  0.00     0.001 A 
ATOM     21  C   UNL d   1       4.152   1.848  -5.625  0.00  0.00     0.020 A 
ATOM     22  C   UNL d   1       3.947   1.150  -6.819  0.00  0.00     0.025 A 
ATOM     23  C   UNL d   1       3.565  -0.189  -6.781  0.00  0.00     0.034 A 
ATOM     24  C   UNL d   1       3.406  -0.842  -5.560  0.00  0.00     0.025 A 
ATOM     25 CL   UNL d   1       3.286  -1.042  -8.248  0.00  0.00    -0.084 Cl
ATOM     26  C   UNL d   1       3.612  -0.144  -4.368  0.00  0.00     0.020 A 
ENDBRANCH  19  20
ENDBRANCH  18  19
ENDBRANCH   2  18
TORSDOF 7
