REMARK  2 active torsions:
REMARK  status: ('A' for Active; 'I' for Inactive)
REMARK    1  A    between atoms: N_5  and  C_1 
REMARK       I    between atoms: C_2  and  N_5 
REMARK       I    between atoms: N_7  and  C_2 
REMARK    2  A    between atoms: C_8  and  N_7 
ROOT
ATOM      1  C   UNL d   1      -0.024  -3.965  -0.098  0.00  0.00     0.325 C 
ATOM      2  N   UNL d   1       0.771  -2.877   0.035  0.00  0.00    -0.307 N 
ATOM      3  N   UNL d   1      -1.343  -3.859   0.187  0.00  0.00    -0.306 N 
ATOM      4  O   UNL d   1       0.541  -5.029  -0.364  0.00  0.00    -0.247 OA
ATOM      5  H   UNL d   1       1.736  -3.183  -0.032  0.00  0.00     0.170 HD
ATOM      6  H   UNL d   1      -1.531  -3.240   0.964  0.00  0.00     0.171 HD
ENDROOT
BRANCH   2   7
ATOM      7  C   UNL d   1       0.606  -1.493   0.069  0.00  0.00     0.054 A 
ATOM      8  C   UNL d   1      -0.534  -0.597  -0.088  0.00  0.00     0.008 A 
ATOM      9  C   UNL d   1      -0.115   0.747  -0.088  0.00  0.00     0.017 A 
ATOM     10  C   UNL d   1      -1.930  -0.795  -0.287  0.00  0.00     0.015 A 
ATOM     11  C   UNL d   1      -0.998   1.831  -0.287  0.00  0.00     0.020 A 
ATOM     12  S   UNL d   1       1.575   0.906   0.165  0.00  0.00    -0.099 SA
ATOM     13  C   UNL d   1      -2.355   1.583  -0.459  0.00  0.00     0.001 A 
ATOM     14  C   UNL d   1      -2.819   0.281  -0.445  0.00  0.00     0.001 A 
ATOM     15  C   UNL d   1       1.777  -0.771   0.236  0.00  0.00     0.081 A 
ENDBRANCH   2   7
BRANCH   3  16
ATOM     16  C   UNL d   1      -2.287  -4.880  -0.090  0.00  0.00     0.075 A 
ATOM     17  C   UNL d   1      -2.204  -5.729  -1.209  0.00  0.00     0.146 A 
ATOM     18  C   UNL d   1      -3.154  -6.721  -1.438  0.00  0.00     0.086 A 
ATOM     19  F   UNL d   1      -1.250  -5.561  -2.137  0.00  0.00    -0.204 F 
ATOM     20  C   UNL d   1      -4.207  -6.860  -0.549  0.00  0.00     0.119 A 
ATOM     21  C   UNL d   1      -4.331  -6.017   0.553  0.00  0.00     0.044 A 
ATOM     22  F   UNL d   1      -5.131  -7.807  -0.759  0.00  0.00    -0.206 F 
ATOM     23  C   UNL d   1      -3.377  -5.019   0.778  0.00  0.00     0.036 A 
ENDBRANCH   3  16
TORSDOF 2
