REMARK  6 active torsions:
REMARK  status: ('A' for Active; 'I' for Inactive)
REMARK    1  A    between atoms: C_16  and  C_2 
REMARK    2  A    between atoms: S_11  and  C_7 
REMARK    3  A    between atoms: C_10  and  C_20 
REMARK       I    between atoms: N_13  and  C_10 
REMARK    4  A    between atoms: C_20  and  S_11 
REMARK    5  A    between atoms: C_21  and  N_13 
REMARK    6  A    between atoms: C_14  and  C_15 
ROOT
ATOM      1  C   UNL d   1       0.347  -1.671   1.375  0.00  0.00     0.135 A 
ATOM      2  C   UNL d   1      -0.473  -2.244   0.461  0.00  0.00     0.042 A 
ATOM      3  N   UNL d   1      -1.478  -0.196   1.882  0.00  0.00    -0.302 N 
ATOM      4  C   UNL d   1      -0.186  -0.531   2.148  0.00  0.00     0.270 A 
ATOM      5  N   UNL d   1      -1.788  -1.845   0.253  0.00  0.00    -0.338 N 
ATOM      6  HN  UNL d   1      -2.383  -2.312  -0.431  1.00  0.00     0.168 HD
ATOM      7  C   UNL d   1      -2.224  -0.858   0.963  0.00  0.00     0.147 A 
ATOM      8  C   UNL d   1       1.702  -2.051   1.604  0.00  0.00     0.107 C 
ATOM      9  N   UNL d   1       2.797  -2.396   1.754  0.00  0.00    -0.191 NA
ATOM     10  O   UNL d   1       0.483   0.093   2.959  0.00  0.00    -0.266 OA
ATOM     11  H   UNL d   1      -1.873   0.586   2.382  0.00  0.00     0.171 HD
ENDROOT
BRANCH   2  12
ATOM     12  C   UNL d   1       0.048  -3.339  -0.471  0.00  0.00     0.037 C 
ATOM     13  C   UNL d   1      -0.725  -4.667  -0.480  0.00  0.00     0.011 C 
ATOM     14  C   UNL d   1       0.095  -5.712  -1.252  0.00  0.00     0.001 C 
ATOM     15  C   UNL d   1       0.478  -5.248  -2.662  0.00  0.00     0.000 C 
ATOM     16  C   UNL d   1       1.035  -3.825  -2.715  0.00  0.00     0.001 C 
ATOM     17  C   UNL d   1       0.184  -2.839  -1.917  0.00  0.00     0.011 C 
ENDBRANCH   2  12
BRANCH   7  18
ATOM     18  S   UNL d   1      -3.824  -0.189   0.856  0.00  0.00    -0.085 SA
BRANCH  18  19
ATOM     19  C   UNL d   1      -4.684  -1.497  -0.052  0.00  0.00     0.185 C 
BRANCH  19  20
ATOM     20  C   UNL d   1      -6.196  -1.361   0.089  0.00  0.00     0.231 C 
ATOM     21  N   UNL d   1      -6.739  -0.225  -0.499  0.00  0.00    -0.327 N 
ATOM     22  H   UNL d   1      -6.096   0.397  -0.975  0.00  0.00     0.169 HD
ATOM     23  O   UNL d   1      -6.834  -2.253   0.646  0.00  0.00    -0.272 OA
BRANCH  21  24
ATOM     24  C   UNL d   1      -8.097   0.181  -0.471  0.00  0.00     0.034 A 
ATOM     25  C   UNL d   1      -9.083  -0.463   0.271  0.00  0.00     0.030 A 
ATOM     26  C   UNL d   1     -10.397   0.028   0.309  0.00  0.00     0.010 A 
ATOM     27  C   UNL d   1     -10.781   1.181  -0.398  0.00  0.00    -0.051 A 
ATOM     28  C   UNL d   1      -9.789   1.798  -1.177  0.00  0.00     0.010 A 
ATOM     29  C   UNL d   1      -8.468   1.312  -1.205  0.00  0.00     0.030 A 
BRANCH  27  30
ATOM     30  C   UNL d   1     -12.214   1.728  -0.257  0.00  0.00    -0.024 C 
ATOM     31  C   UNL d   1     -12.478   3.005  -1.087  0.00  0.00     0.019 C 
ATOM     32  C   UNL d   1     -13.246   0.671  -0.704  0.00  0.00     0.019 C 
ATOM     33  C   UNL d   1     -12.480   2.088   1.223  0.00  0.00     0.019 C 
ENDBRANCH  27  30
ENDBRANCH  21  24
ENDBRANCH  19  20
ENDBRANCH  18  19
ENDBRANCH   7  18
TORSDOF 6
