REMARK  0 active torsions:
REMARK  status: ('A' for Active; 'I' for Inactive)
ROOT
ATOM      1  C   UNL d   1       2.466   0.804   0.697  0.00  0.00     0.164 C 
ATOM      2  C   UNL d   1      -0.390   0.161   0.258  0.00  0.00     0.164 C 
ATOM      3  O   UNL d   1       3.846   0.891   0.312  0.00  0.00    -0.353 OA
ATOM      4  O   UNL d   1       2.320   1.264   2.053  0.00  0.00    -0.353 OA
ATOM      5  O   UNL d   1      -0.566  -0.330  -1.084  0.00  0.00    -0.353 OA
ATOM      6  O   UNL d   1      -1.662   0.171   0.929  0.00  0.00    -0.353 OA
ATOM      7  C   UNL d   1       0.541  -0.789   1.022  0.00  0.00     0.074 C 
ATOM      8  C   UNL d   1       1.608   1.681  -0.214  0.00  0.00     0.074 C 
ATOM      9  C   UNL d   1       2.004  -0.651   0.602  0.00  0.00     0.074 C 
ATOM     10  C   UNL d   1       0.133   1.602   0.179  0.00  0.00     0.074 C 
ATOM     11  C   UNL d   1       4.472   1.630   1.363  0.00  0.00     0.197 C 
ATOM     12  C   UNL d   1       3.646   1.294   2.573  0.00  0.00     0.197 C 
ATOM     13  C   UNL d   1      -1.907  -0.824  -1.120  0.00  0.00     0.197 C 
ATOM     14  C   UNL d   1      -2.626   0.029  -0.114  0.00  0.00     0.197 C 
ENDROOT
TORSDOF 0
