REMARK  7 active torsions:
REMARK  status: ('A' for Active; 'I' for Inactive)
REMARK    1  A    between atoms: O_17  and  C_3 
REMARK    2  A    between atoms: S_9  and  C_4 
REMARK    3  A    between atoms: C_19  and  C_5 
REMARK    4  A    between atoms: C_12  and  S_9 
REMARK    5  A    between atoms: C_10  and  C_12 
REMARK    6  A    between atoms: C_11  and  C_10 
REMARK    7  A    between atoms: C_14  and  C_19 
ROOT
ATOM      1  N   UNL d   1      -0.590   1.263   0.171  0.00  0.00    -0.317 N 
ATOM      2  HN  UNL d   1      -1.051   2.172   0.202  1.00  0.00     0.170 HD
ATOM      3  C   UNL d   1      -1.270   0.119   0.036  0.00  0.00     0.150 A 
ATOM      4  C   UNL d   1       0.737   1.127   0.262  0.00  0.00     0.146 A 
ATOM      5  C   UNL d   1      -0.728  -1.148  -0.011  0.00  0.00     0.018 A 
ATOM      6  N   UNL d   1       1.389  -0.045   0.208  0.00  0.00    -0.340 N 
ATOM      7  HN  UNL d   1       2.406  -0.085   0.273  1.00  0.00     0.167 HD
ATOM      8  C   UNL d   1       0.656  -1.171   0.066  0.00  0.00     0.018 A 
ATOM      9  C   UNL d   1       1.444  -2.446   0.019  0.00  0.00     0.069 C 
ENDROOT
BRANCH   4  10
ATOM     10  S   UNL d   1       1.685   2.597   0.560  0.00  0.00    -0.086 SA
BRANCH  10  11
ATOM     11  C   UNL d   1       3.358   1.888   0.510  0.00  0.00     0.166 C 
BRANCH  11  12
ATOM     12  C   UNL d   1       4.383   2.949   0.848  0.00  0.00     0.169 C 
ATOM     13  O   UNL d   1       4.963   3.572  -0.040  0.00  0.00    -0.291 OA
BRANCH  12  14
ATOM     14  C   UNL d   1       4.705   3.256   2.280  0.00  0.00     0.011 A 
ATOM     15  C   UNL d   1       4.133   2.570   3.360  0.00  0.00     0.017 A 
ATOM     16  C   UNL d   1       4.444   2.939   4.675  0.00  0.00     0.025 A 
ATOM     17  C   UNL d   1       5.324   3.992   4.916  0.00  0.00     0.034 A 
ATOM     18  C   UNL d   1       5.919   4.666   3.853  0.00  0.00     0.025 A 
ATOM     19 CL   UNL d   1       5.665   4.470   6.532  0.00  0.00    -0.084 Cl
ATOM     20  C   UNL d   1       5.613   4.296   2.540  0.00  0.00     0.017 A 
ENDBRANCH  12  14
ENDBRANCH  11  12
ENDBRANCH  10  11
ENDBRANCH   4  10
BRANCH   3  21
ATOM     21  O   UNL d   1      -2.614   0.306  -0.049  0.00  0.00    -0.346 OA
ATOM     22  H   UNL d   1      -2.665   1.278   0.005  0.00  0.00     0.219 HD
ENDBRANCH   3  21
BRANCH   5  23
ATOM     23  C   UNL d   1      -1.579  -2.383  -0.075  0.00  0.00     0.071 C 
BRANCH  23  24
ATOM     24  C   UNL d   1      -1.911  -3.033   1.246  0.00  0.00    -0.032 C 
ATOM     25  C   UNL d   1      -1.629  -2.592   2.480  0.00  0.00     0.007 C 
ENDBRANCH  23  24
ENDBRANCH   5  23
TORSDOF 7
