REMARK  2 active torsions:
REMARK  status: ('A' for Active; 'I' for Inactive)
REMARK    1  A    between atoms: C_2  and  S_1 
REMARK    2  A    between atoms: N_5  and  S_1 
ROOT
ATOM      1  C   UNL d   1       0.491  -0.064  -1.746  0.00  0.00     0.116 A 
ATOM      2  S   UNL d   1      -1.065   0.583  -2.028  0.00  0.00    -0.074 SA
ATOM      3  C   UNL d   1      -0.975   0.293  -3.715  0.00  0.00     0.042 A 
ATOM      4  C   UNL d   1      -2.052   0.604  -4.615  0.00  0.00     0.117 A 
ATOM      5  C   UNL d   1       1.086  -0.468  -2.926  0.00  0.00     0.034 A 
ATOM      6  C   UNL d   1       0.240  -0.271  -4.056  0.00  0.00     0.024 A 
ATOM      7  N   UNL d   1      -3.150   0.718  -6.592  0.00  0.00    -0.272 N 
ATOM      8  HN  UNL d   1      -3.373   0.638  -7.584  1.00  0.00     0.194 HD
ATOM      9  O   UNL d   1      -1.975   0.347  -5.963  0.00  0.00    -0.237 OA
ATOM     10  C   UNL d   1      -3.293   1.162  -4.373  0.00  0.00     0.059 A 
ATOM     11  C   UNL d   1      -3.928   1.201  -5.625  0.00  0.00     0.117 A 
ENDROOT
BRANCH   1  12
ATOM     12  S   UNL d   1       1.063  -0.133  -0.048  0.00  0.00     0.250 S 
ATOM     13  O   UNL d   1       0.461   0.985   0.640  0.00  0.00    -0.205 OA
ATOM     14  O   UNL d   1       2.502  -0.257  -0.178  0.00  0.00    -0.205 OA
BRANCH  12  15
ATOM     15  N   UNL d   1       0.480  -1.595   0.647  0.00  0.00    -0.205 NA
ATOM     16  C   UNL d   1      -0.979  -1.583   0.972  0.00  0.00     0.117 C 
ATOM     17  C   UNL d   1      -1.423  -2.786   1.804  0.00  0.00     0.089 C 
ATOM     18  S   UNL d   1      -1.106  -4.359   0.951  0.00  0.00    -0.167 SA
ATOM     19  C   UNL d   1       0.677  -4.107   0.713  0.00  0.00     0.089 C 
ATOM     20  C   UNL d   1       0.956  -2.823  -0.063  0.00  0.00     0.117 C 
ENDBRANCH  12  15
ENDBRANCH   1  12
TORSDOF 2
