REMARK  3 active torsions:
REMARK  status: ('A' for Active; 'I' for Inactive)
REMARK    1  A    between atoms: C_6  and  N_1 
REMARK    2  A    between atoms: N_7  and  C_6 
REMARK    3  A    between atoms: C_8  and  N_7 
ROOT
ATOM      1  N   UNL d   1       1.922   0.091  -0.199  0.00  0.00    -0.267 N 
ATOM      2  C   UNL d   1       1.166   0.372   0.901  0.00  0.00     0.262 A 
ATOM      3  C   UNL d   1       1.150  -0.269  -1.272  0.00  0.00     0.262 A 
ATOM      4  C   UNL d   1      -0.238  -0.114  -0.848  0.00  0.00     0.048 A 
ATOM      5  C   UNL d   1      -0.231   0.271   0.480  0.00  0.00     0.048 A 
ATOM      6  O   UNL d   1       1.524   0.634   2.034  0.00  0.00    -0.267 OA
ATOM      7  O   UNL d   1       1.479  -0.697  -2.361  0.00  0.00    -0.267 OA
ATOM      8  C   UNL d   1      -1.411  -0.320  -1.547  0.00  0.00     0.018 A 
ATOM      9  C   UNL d   1      -1.401   0.473   1.187  0.00  0.00     0.018 A 
ATOM     10  C   UNL d   1      -2.608  -0.110  -0.858  0.00  0.00     0.001 A 
ATOM     11  C   UNL d   1      -2.603   0.283   0.497  0.00  0.00     0.001 A 
ENDROOT
BRANCH   1  12
ATOM     12  C   UNL d   1       3.352  -0.018  -0.192  0.00  0.00     0.230 C 
BRANCH  12  13
ATOM     13  N   UNL d   1       3.913   1.309  -0.418  0.00  0.00    -0.275 NA
ATOM     14  H   UNL d   1       3.509   1.959   0.247  0.00  0.00     0.129 HD
BRANCH  13  15
ATOM     15  C   UNL d   1       5.317   1.427  -0.480  0.00  0.00     0.016 A 
ATOM     16  C   UNL d   1       6.110   0.388  -1.007  0.00  0.00     0.042 A 
ATOM     17  C   UNL d   1       7.496   0.509  -1.135  0.00  0.00     0.008 A 
ATOM     18  I   UNL d   1       8.611  -1.099  -1.842  0.00  0.00    -0.045 I 
ATOM     19  C   UNL d   1       8.129   1.692  -0.793  0.00  0.00     0.019 A 
ATOM     20  C   UNL d   1       7.364   2.755  -0.321  0.00  0.00     0.010 A 
ATOM     21  C   UNL d   1       5.965   2.642  -0.160  0.00  0.00    -0.041 A 
ATOM     22  C   UNL d   1       5.266   3.871   0.364  0.00  0.00     0.050 C 
ENDBRANCH  13  15
ENDBRANCH  12  13
ENDBRANCH   1  12
TORSDOF 3
