REMARK  6 active torsions:
REMARK  status: ('A' for Active; 'I' for Inactive)
REMARK    1  A    between atoms: S_2  and  C_1 
REMARK    2  A    between atoms: N_7  and  S_2 
REMARK    3  A    between atoms: C_9  and  C_3 
REMARK    4  A    between atoms: C_8  and  C_10 
REMARK    5  A    between atoms: O_27  and  C_9 
REMARK    6  A    between atoms: C_12  and  N_11 
ROOT
ATOM      1  N   UNL d   1       1.438   3.693  -1.533  0.00  0.00    -0.205 NA
ATOM      2  N   UNL d   1       0.064   3.942  -4.242  0.00  0.00    -0.366 N 
ATOM      3  C   UNL d   1       1.636   2.768  -2.713  0.00  0.00     0.127 C 
ATOM      4  C   UNL d   1       1.427   3.437  -4.078  0.00  0.00     0.140 C 
ATOM      5  C   UNL d   1      -0.195   5.475  -2.316  0.00  0.00     0.035 C 
ATOM      6  C   UNL d   1       0.026   4.224  -1.470  0.00  0.00     0.109 C 
ATOM      7  C   UNL d   1      -0.152   5.324  -3.837  0.00  0.00     0.125 C 
ENDROOT
BRANCH   1   8
ATOM      8  S   UNL d   1       1.828   2.881  -0.045  0.00  0.00     0.247 S 
ATOM      9  O   UNL d   1       1.162   1.601  -0.090  0.00  0.00    -0.206 OA
ATOM     10  O   UNL d   1       1.608   3.782   1.063  0.00  0.00    -0.206 OA
BRANCH   8  11
ATOM     11  C   UNL d   1       3.514   2.525   0.053  0.00  0.00     0.122 A 
ATOM     12  C   UNL d   1       4.591   3.480   0.125  0.00  0.00     0.094 A 
ATOM     13  C   UNL d   1       5.725   2.718   0.380  0.00  0.00     0.067 A 
ATOM     14  C   UNL d   1       7.146   3.015   0.682  0.00  0.00     0.078 C 
ATOM     15  O   UNL d   1       5.425   1.396   0.373  0.00  0.00    -0.318 OA
ATOM     16  C   UNL d   1       4.085   1.268   0.178  0.00  0.00     0.073 A 
ATOM     17  C   UNL d   1       3.629  -0.141   0.192  0.00  0.00     0.078 C 
BRANCH  12  18
ATOM     18  C   UNL d   1       4.619   4.934   0.015  0.00  0.00     0.297 C 
ATOM     19  O   UNL d   1       5.661   5.576   0.023  0.00  0.00    -0.259 OA
BRANCH  18  20
ATOM     20  O   UNL d   1       3.398   5.508  -0.139  0.00  0.00    -0.322 OA
ATOM     21  C   UNL d   1       3.413   6.936  -0.203  0.00  0.00     0.213 C 
ENDBRANCH  18  20
ENDBRANCH  12  18
ENDBRANCH   8  11
ENDBRANCH   1   8
BRANCH   2  22
ATOM     22  C   UNL d   1      -0.916   3.266  -4.939  0.00  0.00     0.102 A 
ATOM     23  N   UNL d   1      -1.935   3.974  -5.476  0.00  0.00    -0.352 N 
ATOM     24  C   UNL d   1      -2.896   3.334  -6.189  0.00  0.00     0.106 A 
ATOM     25  HN  UNL d   1      -1.981   4.984  -5.346  1.00  0.00     0.166 HD
ATOM     26  C   UNL d   1      -2.929   1.969  -6.393  0.00  0.00     0.063 A 
ATOM     27  C   UNL d   1      -1.903   1.228  -5.814  0.00  0.00     0.021 A 
ATOM     28  C   UNL d   1      -0.896   1.879  -5.094  0.00  0.00     0.049 A 
BRANCH  26  29
ATOM     29  C   UNL d   1      -4.015   1.329  -7.196  0.00  0.00     0.418 C 
ATOM     30  F   UNL d   1      -4.920   2.213  -7.699  0.00  0.00    -0.166 F 
ATOM     31  F   UNL d   1      -3.532   0.642  -8.269  0.00  0.00    -0.166 F 
ATOM     32  F   UNL d   1      -4.737   0.428  -6.474  0.00  0.00    -0.166 F 
ENDBRANCH  26  29
ENDBRANCH   2  22
TORSDOF 6
