REMARK  6 active torsions:
REMARK  status: ('A' for Active; 'I' for Inactive)
REMARK    1  A    between atoms: C_7  and  C_1 
REMARK    2  A    between atoms: C_6  and  C_2 
REMARK    3  A    between atoms: C_11  and  N_3 
REMARK    4  A    between atoms: S_10  and  C_6 
REMARK    5  A    between atoms: N_8  and  C_12 
REMARK    6  A    between atoms: C_13  and  S_10 
ROOT
ATOM      1  C   UNL d   1       0.864  -0.540  -0.483  0.00  0.00     0.156 C 
ATOM      2  C   UNL d   1      -0.300  -1.056   0.100  0.00  0.00     0.072 C 
ATOM      3  N   UNL d   1       0.808   0.836  -0.291  0.00  0.00    -0.251 N 
ATOM      4  N   UNL d   1      -0.422   1.222   0.129  0.00  0.00    -0.303 N 
ATOM      5  HN  UNL d   1      -0.770   2.174   0.240  1.00  0.00     0.186 HD
ATOM      6  C   UNL d   1      -1.073   0.090   0.366  0.00  0.00     0.126 C 
ENDROOT
BRANCH   2   7
ATOM      7  C   UNL d   1      -0.610  -2.457   0.397  0.00  0.00     0.229 C 
ATOM      8  O   UNL d   1       0.023  -3.397  -0.059  0.00  0.00    -0.279 OA
BRANCH   7   9
ATOM      9  S   UNL d   1      -2.025  -2.798   1.384  0.00  0.00    -0.029 SA
BRANCH   9  10
ATOM     10  C   UNL d   1      -1.618  -2.099   2.972  0.00  0.00     0.077 A 
ATOM     11  N   UNL d   1      -0.747  -1.069   3.026  0.00  0.00    -0.360 N 
ATOM     12  C   UNL d   1      -0.622  -0.406   4.197  0.00  0.00     0.089 A 
ATOM     13  HN  UNL d   1      -0.201  -0.799   2.207  1.00  0.00     0.166 HD
ATOM     14  C   UNL d   1      -1.316  -0.740   5.345  0.00  0.00     0.017 A 
ATOM     15  C   UNL d   1      -2.170  -1.833   5.293  0.00  0.00     0.004 A 
ATOM     16  C   UNL d   1      -2.326  -2.524   4.092  0.00  0.00     0.037 A 
ENDBRANCH   9  10
ENDBRANCH   7   9
ENDBRANCH   2   7
BRANCH   1  17
ATOM     17  C   UNL d   1       2.049  -1.202  -1.058  0.00  0.00     0.435 C 
ATOM     18  F   UNL d   1       2.041  -2.550  -1.005  0.00  0.00    -0.165 F 
ATOM     19  F   UNL d   1       2.181  -0.888  -2.375  0.00  0.00    -0.165 F 
ATOM     20  F   UNL d   1       3.198  -0.824  -0.442  0.00  0.00    -0.165 F 
ENDBRANCH   1  17
BRANCH   3  21
ATOM     21  C   UNL d   1       1.841   1.826  -0.312  0.00  0.00     0.057 A 
ATOM     22  C   UNL d   1       2.919   1.790  -1.201  0.00  0.00     0.034 A 
ATOM     23  C   UNL d   1       3.990   2.679  -1.052  0.00  0.00     0.038 A 
ATOM     24  C   UNL d   1       3.976   3.622  -0.019  0.00  0.00     0.103 A 
ATOM     25  C   UNL d   1       2.866   3.725   0.827  0.00  0.00     0.038 A 
ATOM     26  C   UNL d   1       1.795   2.841   0.665  0.00  0.00     0.034 A 
BRANCH  24  27
ATOM     27  N   UNL d   1       5.142   4.483   0.197  0.00  0.00    -0.116 N 
ATOM     28  O   UNL d   1       5.088   5.308   1.121  0.00  0.00    -0.532 OA
ATOM     29  O   UNL d   1       6.123   4.325  -0.546  0.00  0.00    -0.532 OA
ENDBRANCH  24  27
ENDBRANCH   3  21
TORSDOF 6
