REMARK  2 active torsions:
REMARK  status: ('A' for Active; 'I' for Inactive)
REMARK       I    between atoms: C_2  and  N_1 
REMARK    1  A    between atoms: C_9  and  C_2 
REMARK    2  A    between atoms: N_8  and  C_9 
ROOT
ATOM      1  N   UNL d   1      -0.089  -1.242   0.926  0.00  0.00    -0.279 N 
ATOM      2  C   UNL d   1       0.083  -2.042   2.071  0.00  0.00     0.257 C 
ATOM      3  S   UNL d   1      -0.665  -1.367  -2.114  0.00  0.00    -0.086 SA
ATOM      4  C   UNL d   1       1.023  -0.936   0.062  0.00  0.00     0.059 A 
ATOM      5  C   UNL d   1      -1.356  -0.728   0.500  0.00  0.00     0.059 A 
ATOM      6  C   UNL d   1      -1.740  -0.726  -0.850  0.00  0.00     0.033 A 
ATOM      7  C   UNL d   1       0.885  -0.947  -1.340  0.00  0.00     0.033 A 
ATOM      8  O   UNL d   1       1.182  -2.299   2.578  0.00  0.00    -0.271 OA
ATOM      9  C   UNL d   1       2.275  -0.583   0.596  0.00  0.00     0.031 A 
ATOM     10  C   UNL d   1      -2.213  -0.134   1.441  0.00  0.00     0.031 A 
ATOM     11  C   UNL d   1       1.977  -0.652  -2.170  0.00  0.00     0.021 A 
ATOM     12  C   UNL d   1      -2.990  -0.218  -1.225  0.00  0.00     0.021 A 
ATOM     13  C   UNL d   1      -3.458   0.370   1.064  0.00  0.00     0.002 A 
ATOM     14  C   UNL d   1       3.350  -0.252  -0.236  0.00  0.00     0.002 A 
ATOM     15  C   UNL d   1      -3.851   0.317  -0.267  0.00  0.00     0.002 A 
ATOM     16  C   UNL d   1       3.206  -0.299  -1.618  0.00  0.00     0.002 A 
ENDROOT
BRANCH   2  17
ATOM     17  C   UNL d   1      -1.161  -2.743   2.684  0.00  0.00     0.375 C 
BRANCH  17  18
ATOM     18  N   UNL d   1      -1.949  -3.499   1.686  0.00  0.00     0.100 N 
ATOM     19  C   UNL d   1      -1.183  -4.631   1.128  0.00  0.00     0.303 C 
ATOM     20  C   UNL d   1      -2.020  -5.469   0.131  0.00  0.00     0.302 C 
ATOM     21  N   UNL d   1      -3.304  -5.970   0.662  0.00  0.00     0.087 N 
ATOM     22  C   UNL d   1      -4.038  -4.846   1.276  0.00  0.00     0.302 C 
ATOM     23  C   UNL d   1      -3.108  -7.070   1.602  0.00  0.00     0.310 C 
ATOM     24  C   UNL d   1      -3.215  -3.987   2.268  0.00  0.00     0.303 C 
ENDBRANCH  17  18
ENDBRANCH   2  17
TORSDOF 2
