REMARK  5 active torsions:
REMARK  status: ('A' for Active; 'I' for Inactive)
REMARK    1  A    between atoms: C_2  and  C_1 
REMARK    2  A    between atoms: C_10  and  C_2 
REMARK    3  A    between atoms: C_13  and  N_3 
REMARK    4  A    between atoms: C_12  and  C_10 
REMARK    5  A    between atoms: N_16  and  C_11 
ROOT
ATOM      1  C   UNL d   1      -0.237  -1.550   0.215  0.00  0.00     0.160 A 
ATOM      2  N   UNL d   1      -0.129  -0.671  -0.871  0.00  0.00    -0.222 N 
ATOM      3  N   UNL d   1       0.169   0.554  -0.353  0.00  0.00    -0.219 N 
ATOM      4  HN  UNL d   1       0.270   1.425  -0.876  1.00  0.00     0.210 HD
ATOM      5  N   UNL d   1       0.300   0.403   0.951  0.00  0.00    -0.226 N 
ATOM      6  HN  UNL d   1       0.537   1.154   1.599  1.00  0.00     0.210 HD
ATOM      7  N   UNL d   1       0.079  -0.887   1.314  0.00  0.00    -0.267 N 
ATOM      8  HN  UNL d   1       0.144  -1.272   2.257  1.00  0.00     0.190 HD
ENDROOT
BRANCH   1   9
ATOM      9  C   UNL d   1      -0.535  -2.932   0.083  0.00  0.00     0.077 C 
ATOM     10  C   UNL d   1       0.536  -3.758   0.038  0.00  0.00     0.104 C 
BRANCH   9  11
ATOM     11  C   UNL d   1      -1.966  -3.385  -0.005  0.00  0.00     0.197 C 
ATOM     12  O   UNL d   1      -2.286  -4.396  -0.637  0.00  0.00    -0.286 OA
BRANCH  11  13
ATOM     13  C   UNL d   1      -3.095  -2.625   0.613  0.00  0.00     0.017 A 
ATOM     14  C   UNL d   1      -2.984  -1.821   1.752  0.00  0.00     0.039 A 
ATOM     15  C   UNL d   1      -4.129  -1.239   2.309  0.00  0.00     0.035 A 
ATOM     16 CL   UNL d   1      -3.987  -0.250   3.712  0.00  0.00    -0.084 Cl
ATOM     17  C   UNL d   1      -5.391  -1.468   1.763  0.00  0.00     0.024 A 
ATOM     18  C   UNL d   1      -5.515  -2.269   0.634  0.00  0.00     0.003 A 
ATOM     19  C   UNL d   1      -4.375  -2.835   0.061  0.00  0.00     0.015 A 
ENDBRANCH  11  13
ENDBRANCH   9  11
BRANCH  10  20
ATOM     20  N   UNL d   1       0.749  -5.107  -0.234  0.00  0.00    -0.398 N 
ATOM     21  C   UNL d   1       0.006  -5.873  -1.236  0.00  0.00     0.148 C 
ATOM     22  C   UNL d   1       1.882  -5.837   0.345  0.00  0.00     0.148 C 
ENDBRANCH  10  20
ENDBRANCH   1   9
BRANCH   2  23
ATOM     23  C   UNL d   1      -0.221  -0.827  -2.289  0.00  0.00     0.060 A 
ATOM     24  C   UNL d   1      -0.552  -2.035  -2.911  0.00  0.00     0.031 A 
ATOM     25  C   UNL d   1      -0.583  -2.133  -4.307  0.00  0.00     0.002 A 
ATOM     26  C   UNL d   1      -0.284  -1.032  -5.100  0.00  0.00     0.000 A 
ATOM     27  C   UNL d   1       0.037   0.180  -4.500  0.00  0.00     0.002 A 
ATOM     28  C   UNL d   1       0.063   0.285  -3.106  0.00  0.00     0.031 A 
ENDBRANCH   2  23
TORSDOF 5
