REMARK  6 active torsions:
REMARK  status: ('A' for Active; 'I' for Inactive)
REMARK    1  A    between atoms: C_6  and  C_1 
REMARK    2  A    between atoms: C_7  and  N_2 
REMARK    3  A    between atoms: C_11  and  C_3 
REMARK    4  A    between atoms: O_14  and  C_6 
REMARK    5  A    between atoms: C_15  and  C_7 
REMARK    6  A    between atoms: O_16  and  C_12 
ROOT
ATOM      1  C   UNL d   1       1.664  -1.181   0.038  0.00  0.00     0.074 A 
ATOM      2  N   UNL d   1       1.536   1.059  -0.044  0.00  0.00    -0.344 N 
ATOM      3  C   UNL d   1       2.423  -0.008  -0.008  0.00  0.00     0.029 A 
ATOM      4  C   UNL d   1       0.284  -0.793  -0.011  0.00  0.00     0.012 A 
ATOM      5  C   UNL d   1       0.232   0.597  -0.110  0.00  0.00     0.046 A 
ATOM      6  C   UNL d   1      -0.991   1.285  -0.235  0.00  0.00     0.033 A 
ATOM      7  C   UNL d   1      -0.930  -1.519   0.018  0.00  0.00     0.051 A 
ATOM      8  C   UNL d   1      -2.140  -0.834  -0.076  0.00  0.00     0.066 A 
ATOM      9  C   UNL d   1      -2.175   0.543  -0.216  0.00  0.00     0.039 A 
ENDROOT
BRANCH   2  10
ATOM     10  C   UNL d   1       1.886   2.476   0.086  0.00  0.00     0.167 C 
BRANCH  10  11
ATOM     11  C   UNL d   1       2.316   3.173  -1.186  0.00  0.00    -0.040 A 
ATOM     12  C   UNL d   1       2.287   2.581  -2.456  0.00  0.00     0.009 A 
ATOM     13  C   UNL d   1       2.760   3.272  -3.575  0.00  0.00     0.001 A 
ATOM     14  C   UNL d   1       3.248   4.570  -3.445  0.00  0.00     0.000 A 
ATOM     15  C   UNL d   1       3.251   5.187  -2.198  0.00  0.00     0.001 A 
ATOM     16  C   UNL d   1       2.786   4.496  -1.078  0.00  0.00     0.009 A 
ENDBRANCH  10  11
ENDBRANCH   2  10
BRANCH   3  17
ATOM     17  C   UNL d   1       3.915   0.169  -0.083  0.00  0.00     0.054 C 
ATOM     18  C   UNL d   1       4.580   0.225   1.282  0.00  0.00     0.011 C 
ENDBRANCH   3  17
BRANCH   1  19
ATOM     19  C   UNL d   1       2.140  -2.567   0.091  0.00  0.00     0.295 C 
ATOM     20  O   UNL d   1       1.442  -3.525  -0.233  0.00  0.00    -0.259 OA
BRANCH  19  21
ATOM     21  O   UNL d   1       3.410  -2.691   0.567  0.00  0.00    -0.322 OA
ATOM     22  C   UNL d   1       3.861  -4.042   0.672  0.00  0.00     0.213 C 
ENDBRANCH  19  21
ENDBRANCH   1  19
BRANCH   8  23
ATOM     23  O   UNL d   1      -3.330  -1.502  -0.035  0.00  0.00    -0.361 OA
ATOM     24  H   UNL d   1      -3.142  -2.448   0.092  0.00  0.00     0.217 HD
ENDBRANCH   8  23
TORSDOF 6
