REMARK  5 active torsions:
REMARK  status: ('A' for Active; 'I' for Inactive)
REMARK    1  A    between atoms: C_2  and  C_1 
REMARK    2  A    between atoms: C_4  and  C_1 
REMARK    3  A    between atoms: C_5  and  C_1 
REMARK    4  A    between atoms: O_11  and  C_1 
REMARK    5  A    between atoms: S_3  and  C_2 
ROOT
ATOM      1  C   UNL d   1       1.078  -0.098  -0.032  0.00  0.00     0.123 C 
ENDROOT
BRANCH   1   2
ATOM      2  C   UNL d   1       0.588  -0.415   1.409  0.00  0.00     0.156 C 
BRANCH   2   3
ATOM      3  S   UNL d   1       1.160  -2.055   1.990  0.00  0.00     0.014 S 
ATOM      4  O   UNL d   1       2.654  -1.976   2.067  0.00  0.00    -0.258 OA
ATOM      5  C   UNL d   1       0.500  -1.901   3.666  0.00  0.00     0.127 C 
ENDBRANCH   2   3
ENDBRANCH   1   2
BRANCH   1   6
ATOM      6  C   UNL d   1       0.518   1.305  -0.374  0.00  0.00    -0.018 A 
ATOM      7  C   UNL d   1       1.231   2.465  -0.004  0.00  0.00     0.012 A 
ATOM      8  C   UNL d   1       0.691   3.742  -0.190  0.00  0.00     0.024 A 
ATOM      9  C   UNL d   1      -0.573   3.883  -0.751  0.00  0.00     0.034 A 
ATOM     10  C   UNL d   1      -1.292   2.759  -1.145  0.00  0.00     0.024 A 
ATOM     11 CL   UNL d   1      -1.260   5.448  -0.940  0.00  0.00    -0.084 Cl
ATOM     12  C   UNL d   1      -0.751   1.483  -0.957  0.00  0.00     0.012 A 
ENDBRANCH   1   6
BRANCH   1  13
ATOM     13  C   UNL d   1       0.715  -1.151  -1.097  0.00  0.00    -0.018 A 
ATOM     14  C   UNL d   1      -0.467  -1.916  -1.025  0.00  0.00     0.012 A 
ATOM     15  C   UNL d   1      -0.793  -2.848  -2.015  0.00  0.00     0.024 A 
ATOM     16  C   UNL d   1       0.057  -3.032  -3.100  0.00  0.00     0.034 A 
ATOM     17  C   UNL d   1       1.231  -2.295  -3.201  0.00  0.00     0.024 A 
ATOM     18 CL   UNL d   1      -0.357  -4.166  -4.326  0.00  0.00    -0.084 Cl
ATOM     19  C   UNL d   1       1.554  -1.358  -2.212  0.00  0.00     0.012 A 
ENDBRANCH   1  13
BRANCH   1  20
ATOM     20  O   UNL d   1       2.514   0.027  -0.006  0.00  0.00    -0.379 OA
ATOM     21  H   UNL d   1       2.864  -0.664   0.595  0.00  0.00     0.211 HD
ENDBRANCH   1  20
TORSDOF 5
