REMARK  2 active torsions:
REMARK  status: ('A' for Active; 'I' for Inactive)
REMARK    1  A    between atoms: C_6  and  C_4 
REMARK    2  A    between atoms: C_11  and  C_6 
ROOT
ATOM      1  C   UNL d   1      -2.394   0.560  -0.367  0.00  0.00     0.113 C 
ATOM      2  C   UNL d   1      -2.412  -0.825   0.222  0.00  0.00     0.315 C 
ATOM      3  N   UNL d   1      -1.286   1.343  -0.061  0.00  0.00    -0.349 N 
ATOM      4  C   UNL d   1      -3.393   0.969  -1.167  0.00  0.00     0.091 C 
ATOM      5  O   UNL d   1      -1.176  -1.466   0.193  0.00  0.00    -0.272 OA
ATOM      6  C   UNL d   1      -0.043   0.691  -0.015  0.00  0.00     0.067 A 
ATOM      7  C   UNL d   1       0.007  -0.707   0.064  0.00  0.00     0.106 A 
ATOM      8  O   UNL d   1      -3.402  -1.319   0.752  0.00  0.00    -0.257 OA
ATOM      9  C   UNL d   1       1.157   1.402   0.011  0.00  0.00     0.032 A 
ATOM     10  C   UNL d   1       1.213  -1.400   0.064  0.00  0.00     0.040 A 
ATOM     11  C   UNL d   1       2.405  -0.680   0.034  0.00  0.00     0.003 A 
ATOM     12  C   UNL d   1       2.377   0.717   0.027  0.00  0.00     0.002 A 
ATOM     13  H   UNL d   1      -1.254   2.256  -0.500  0.00  0.00     0.166 HD
ENDROOT
BRANCH   4  14
ATOM     14  C   UNL d   1      -4.452   0.076  -1.720  0.00  0.00     0.184 C 
ATOM     15  O   UNL d   1      -4.242  -1.112  -1.928  0.00  0.00    -0.288 OA
BRANCH  14  16
ATOM     16  C   UNL d   1      -5.706   0.719  -2.197  0.00  0.00     0.014 A 
ATOM     17  C   UNL d   1      -6.443   0.065  -3.195  0.00  0.00     0.015 A 
ATOM     18  C   UNL d   1      -7.598   0.651  -3.713  0.00  0.00     0.001 A 
ATOM     19  C   UNL d   1      -8.027   1.889  -3.236  0.00  0.00     0.000 A 
ATOM     20  C   UNL d   1      -7.311   2.535  -2.228  0.00  0.00     0.001 A 
ATOM     21  C   UNL d   1      -6.156   1.950  -1.703  0.00  0.00     0.015 A 
ENDBRANCH  14  16
ENDBRANCH   4  14
TORSDOF 2
