REMARK  6 active torsions:
REMARK  status: ('A' for Active; 'I' for Inactive)
REMARK    1  A    between atoms: C_5  and  C_1 
REMARK    2  A    between atoms: C_8  and  C_1 
REMARK    3  A    between atoms: C_3  and  C_2 
REMARK    4  A    between atoms: C_6  and  C_3 
REMARK    5  A    between atoms: C_4  and  C_5 
REMARK    6  A    between atoms: C_7  and  C_4 
ROOT
ATOM      1  C   UNL d   1       1.083  -0.100   0.201  0.00  0.00    -0.037 C 
ATOM      2  C   UNL d   1       0.730  -1.055   1.105  0.00  0.00     0.064 C 
ENDROOT
BRANCH   1   3
ATOM      3  C   UNL d   1       2.361  -0.231  -0.653  0.00  0.00     0.123 C 
BRANCH   3   4
ATOM      4  C   UNL d   1       3.587   0.381   0.040  0.00  0.00     0.163 C 
ATOM      5  O   UNL d   1       3.484   1.373   0.769  0.00  0.00    -0.292 OA
BRANCH   4   6
ATOM      6  C   UNL d   1       4.976  -0.140  -0.200  0.00  0.00     0.010 A 
ATOM      7  C   UNL d   1       5.287  -1.250  -0.996  0.00  0.00     0.018 A 
ATOM      8  C   UNL d   1       6.622  -1.664  -1.130  0.00  0.00     0.043 A 
ATOM      9  C   UNL d   1       7.638  -0.970  -0.480  0.00  0.00     0.116 A 
ATOM     10  C   UNL d   1       7.352   0.137   0.302  0.00  0.00     0.043 A 
ATOM     11  F   UNL d   1       8.908  -1.376  -0.610  0.00  0.00    -0.206 F 
ATOM     12  C   UNL d   1       6.027   0.548   0.441  0.00  0.00     0.018 A 
ENDBRANCH   4   6
ENDBRANCH   3   4
ENDBRANCH   1   3
BRANCH   1  13
ATOM     13  C   UNL d   1       0.272   1.167   0.012  0.00  0.00    -0.029 A 
ATOM     14  C   UNL d   1       0.864   2.336  -0.513  0.00  0.00     0.012 A 
ATOM     15  C   UNL d   1       0.170   3.548  -0.638  0.00  0.00     0.001 A 
ATOM     16  C   UNL d   1      -1.158   3.628  -0.254  0.00  0.00     0.000 A 
ATOM     17  C   UNL d   1      -1.787   2.491   0.243  0.00  0.00     0.001 A 
ATOM     18  C   UNL d   1      -1.084   1.277   0.368  0.00  0.00     0.012 A 
ENDBRANCH   1  13
BRANCH   2  19
ATOM     19  C   UNL d   1       1.648  -2.189   1.464  0.00  0.00     0.182 C 
ATOM     20  O   UNL d   1       2.856  -2.102   1.240  0.00  0.00    -0.288 OA
BRANCH  19  21
ATOM     21  C   UNL d   1       1.178  -3.442   2.127  0.00  0.00     0.014 A 
ATOM     22  C   UNL d   1      -0.155  -3.811   2.327  0.00  0.00     0.018 A 
ATOM     23  C   UNL d   1      -0.456  -5.064   2.900  0.00  0.00     0.043 A 
ATOM     24  C   UNL d   1       0.570  -5.938   3.267  0.00  0.00     0.116 A 
ATOM     25  C   UNL d   1       1.896  -5.584   3.088  0.00  0.00     0.043 A 
ATOM     26  F   UNL d   1       0.266  -7.134   3.787  0.00  0.00    -0.206 F 
ATOM     27  C   UNL d   1       2.194  -4.346   2.525  0.00  0.00     0.018 A 
ENDBRANCH  19  21
ENDBRANCH   2  19
TORSDOF 6
