REMARK  7 active torsions:
REMARK  status: ('A' for Active; 'I' for Inactive)
REMARK    1  A    between atoms: C_10  and  C_1 
REMARK    2  A    between atoms: O_15  and  C_9 
REMARK    3  A    between atoms: O_21  and  C_10 
REMARK    4  A    between atoms: C_12  and  C_14 
REMARK    5  A    between atoms: O_22  and  C_12 
REMARK    6  A    between atoms: C_20  and  O_15 
REMARK    7  A    between atoms: C_25  and  O_21 
ROOT
ATOM      1  C   UNL d   1      -2.334  -0.195   0.035  0.00  0.00     0.127 A 
ATOM      2  N   UNL d   1      -0.191  -0.661   0.026  0.00  0.00    -0.247 N 
ATOM      3  N   UNL d   1      -1.659   1.020   0.010  0.00  0.00    -0.335 N 
ATOM      4  HN  UNL d   1      -2.068   1.954   0.010  1.00  0.00     0.168 HD
ATOM      5  C   UNL d   1      -0.382   0.711  -0.013  0.00  0.00     0.127 A 
ATOM      6  C   UNL d   1      -1.426  -1.238   0.056  0.00  0.00     0.154 A 
ATOM      7  N   UNL d   1       0.986  -1.336   0.032  0.00  0.00    -0.272 N 
ATOM      8  HN  UNL d   1       1.061  -2.353   0.074  1.00  0.00     0.189 HD
ATOM      9  C   UNL d   1       2.001  -0.537  -0.024  0.00  0.00     0.163 A 
ATOM     10  C   UNL d   1       0.774   1.522  -0.093  0.00  0.00     0.054 A 
ATOM     11  C   UNL d   1       1.980   0.940  -0.121  0.00  0.00     0.061 A 
ENDROOT
BRANCH   9  12
ATOM     12  O   UNL d   1       3.324  -0.952   0.011  0.00  0.00    -0.293 OA
BRANCH  12  13
ATOM     13  C   UNL d   1       3.656  -2.225   0.522  0.00  0.00     0.077 A 
ATOM     14  C   UNL d   1       4.705  -2.902  -0.098  0.00  0.00     0.038 A 
ATOM     15  C   UNL d   1       5.162  -4.107   0.448  0.00  0.00     0.020 A 
ATOM     16  C   UNL d   1       4.584  -4.614   1.621  0.00  0.00     0.039 A 
ATOM     17  C   UNL d   1       3.523  -3.929   2.227  0.00  0.00     0.020 A 
ATOM     18  C   UNL d   1       3.065  -2.728   1.683  0.00  0.00     0.038 A 
BRANCH  16  19
ATOM     19  C   UNL d   1       5.138  -5.862   2.202  0.00  0.00     0.292 C 
ATOM     20  O   UNL d   1       5.752  -6.698   1.556  0.00  0.00    -0.259 OA
BRANCH  19  21
ATOM     21  O   UNL d   1       4.926  -5.880   3.542  0.00  0.00    -0.323 OA
ATOM     22  C   UNL d   1       5.513  -6.997   4.211  0.00  0.00     0.213 C 
ENDBRANCH  19  21
ENDBRANCH  16  19
ENDBRANCH  12  13
ENDBRANCH   9  12
BRANCH   1  23
ATOM     23  C   UNL d   1      -3.784  -0.340  -0.044  0.00  0.00     0.311 C 
ATOM     24  O   UNL d   1      -4.346  -1.429  -0.106  0.00  0.00    -0.258 OA
BRANCH  23  25
ATOM     25  O   UNL d   1      -4.415   0.865  -0.148  0.00  0.00    -0.317 OA
BRANCH  25  26
ATOM     26  C   UNL d   1      -5.728   0.819  -0.715  0.00  0.00     0.175 C 
ATOM     27  C   UNL d   1      -5.589   0.903  -2.225  0.00  0.00     0.034 C 
ENDBRANCH  25  26
ENDBRANCH  23  25
ENDBRANCH   1  23
TORSDOF 7
