REMARK  1 active torsions:
REMARK  status: ('A' for Active; 'I' for Inactive)
REMARK    1  A    between atoms: S_9  and  C_3 
ROOT
ATOM      1  N   UNL d   1       0.426   0.670   0.052  0.00  0.00    -0.160 N 
ATOM      2  C   UNL d   1       0.176  -0.677   0.119  0.00  0.00     0.697 A 
ATOM      3  C   UNL d   1       1.782   0.795   0.013  0.00  0.00     0.174 A 
ATOM      4  N   UNL d   1       1.313  -1.328   0.145  0.00  0.00    -0.130 N 
ATOM      5  HN  UNL d   1       1.426  -2.340   0.206  1.00  0.00     0.205 HD
ATOM      6  N   UNL d   1       2.332  -0.397   0.074  0.00  0.00    -0.265 N 
ATOM      7  HN  UNL d   1       3.332  -0.599   0.071  1.00  0.00     0.189 HD
ATOM      8  N   UNL d   1      -1.090  -1.145   0.147  0.00  0.00    -0.225 N 
ATOM      9  C   UNL d   1      -0.615   1.666  -0.048  0.00  0.00     0.151 C 
ATOM     10  C   UNL d   1      -1.992   1.101   0.306  0.00  0.00     0.041 C 
ATOM     11  C   UNL d   1      -2.167  -0.286  -0.307  0.00  0.00     0.139 C 
ATOM     12  H   UNL d   1      -1.200  -2.143  -0.023  0.00  0.00     0.177 HD
ENDROOT
BRANCH   3  13
ATOM     13  S   UNL d   1       2.646   2.283  -0.128  0.00  0.00    -0.105 SA
ATOM     14  H   UNL d   1       1.631   3.153  -0.138  0.00  0.00     0.110 HD
ENDBRANCH   3  13
TORSDOF 1
