REMARK  5 active torsions:
REMARK  status: ('A' for Active; 'I' for Inactive)
REMARK    1  A    between atoms: C_6  and  C_1 
REMARK    2  A    between atoms: C_7  and  C_2 
REMARK    3  A    between atoms: C_11  and  N_3 
REMARK       I    between atoms: N_10  and  C_7 
REMARK    4  A    between atoms: N_8  and  C_12 
REMARK    5  A    between atoms: C_23  and  N_10 
ROOT
ATOM      1  C   UNL d   1       1.086  -0.596  -0.519  0.00  0.00     0.157 A 
ATOM      2  C   UNL d   1      -0.161  -1.144  -0.193  0.00  0.00     0.082 A 
ATOM      3  N   UNL d   1       1.019   0.762  -0.212  0.00  0.00    -0.251 N 
ATOM      4  N   UNL d   1      -0.190   1.089   0.303  0.00  0.00    -0.303 N 
ATOM      5  HN  UNL d   1      -0.491   2.002   0.644  1.00  0.00     0.186 HD
ATOM      6  C   UNL d   1      -0.898  -0.032   0.269  0.00  0.00     0.127 A 
ENDROOT
BRANCH   2   7
ATOM      7  C   UNL d   1      -0.724  -2.504  -0.200  0.00  0.00     0.259 C 
ATOM      8  N   UNL d   1       0.155  -3.536  -0.442  0.00  0.00    -0.323 N 
ATOM      9  H   UNL d   1       1.107  -3.297  -0.673  0.00  0.00     0.169 HD
ATOM     10  O   UNL d   1      -1.915  -2.654   0.048  0.00  0.00    -0.267 OA
BRANCH   8  11
ATOM     11  C   UNL d   1      -0.062  -4.924  -0.308  0.00  0.00     0.035 A 
ATOM     12  C   UNL d   1      -1.268  -5.502   0.089  0.00  0.00     0.032 A 
ATOM     13  C   UNL d   1      -1.363  -6.888   0.254  0.00  0.00     0.044 A 
ATOM     14  C   UNL d   1      -0.254  -7.690   0.018  0.00  0.00     0.116 A 
ATOM     15  C   UNL d   1       0.950  -7.138  -0.391  0.00  0.00     0.044 A 
ATOM     16  F   UNL d   1      -0.346  -9.016   0.192  0.00  0.00    -0.206 F 
ATOM     17  C   UNL d   1       1.046  -5.754  -0.556  0.00  0.00     0.032 A 
ENDBRANCH   8  11
ENDBRANCH   2   7
BRANCH   1  18
ATOM     18  C   UNL d   1       2.339  -1.199  -0.998  0.00  0.00     0.435 C 
ATOM     19  F   UNL d   1       2.356  -2.549  -0.861  0.00  0.00    -0.165 F 
ATOM     20  F   UNL d   1       2.535  -0.966  -2.317  0.00  0.00    -0.165 F 
ATOM     21  F   UNL d   1       3.433  -0.766  -0.330  0.00  0.00    -0.165 F 
ENDBRANCH   1  18
BRANCH   3  22
ATOM     22  C   UNL d   1       2.022   1.784  -0.249  0.00  0.00     0.057 A 
ATOM     23  C   UNL d   1       3.072   1.784  -1.175  0.00  0.00     0.034 A 
ATOM     24  C   UNL d   1       4.128   2.694  -1.049  0.00  0.00     0.038 A 
ATOM     25  C   UNL d   1       4.119   3.632  -0.011  0.00  0.00     0.103 A 
ATOM     26  C   UNL d   1       3.025   3.712   0.857  0.00  0.00     0.038 A 
ATOM     27  C   UNL d   1       1.974   2.798   0.726  0.00  0.00     0.034 A 
BRANCH  25  28
ATOM     28  N   UNL d   1       5.276   4.513   0.183  0.00  0.00    -0.116 N 
ATOM     29  O   UNL d   1       5.208   5.365   1.079  0.00  0.00    -0.532 OA
ATOM     30  O   UNL d   1       6.261   4.338  -0.549  0.00  0.00    -0.532 OA
ENDBRANCH  25  28
ENDBRANCH   3  22
TORSDOF 5
