REMARK  3 active torsions:
REMARK  status: ('A' for Active; 'I' for Inactive)
REMARK    1  A    between atoms: C_3  and  C_4 
REMARK    2  A    between atoms: C_17  and  C_5 
REMARK    3  A    between atoms: C_8  and  C_18 
ROOT
ATOM      1  N   UNL d   1       1.370  -0.409  -0.005  0.00  0.00    -0.352 N 
ATOM      2  HN  UNL d   1       2.231  -0.956   0.026  1.00  0.00     0.166 HD
ATOM      3  C   UNL d   1       1.331   0.981  -0.036  0.00  0.00     0.025 A 
ATOM      4  C   UNL d   1       0.162  -0.936  -0.021  0.00  0.00     0.084 A 
ATOM      5  S   UNL d   1      -1.103   0.233  -0.031  0.00  0.00    -0.081 SA
ATOM      6  C   UNL d   1       0.051   1.499  -0.045  0.00  0.00     0.077 A 
ENDROOT
BRANCH   4   7
ATOM      7  C   UNL d   1      -0.091  -2.394  -0.027  0.00  0.00    -0.002 A 
ATOM      8  C   UNL d   1       1.002  -3.273   0.089  0.00  0.00     0.015 A 
ATOM      9  C   UNL d   1       0.829  -4.665   0.084  0.00  0.00     0.014 A 
ATOM     10  C   UNL d   1      -0.450  -5.220  -0.042  0.00  0.00    -0.008 A 
ATOM     11  C   UNL d   1      -1.540  -4.354  -0.171  0.00  0.00     0.014 A 
ATOM     12  C   UNL d   1      -1.365  -2.962  -0.159  0.00  0.00     0.015 A 
BRANCH  10  13
ATOM     13  C   UNL d   1      -0.669  -6.660  -0.054  0.00  0.00     0.063 A 
ATOM     14  N   UNL d   1      -1.742  -7.216  -0.747  0.00  0.00    -0.292 N 
ATOM     15  N   UNL d   1      -1.782  -8.533  -0.628  0.00  0.00    -0.061 NA
ATOM     16  HN  UNL d   1      -2.419  -6.671  -1.282  1.00  0.00     0.183 HD
ATOM     17  S   UNL d   1      -0.550  -9.136   0.327  0.00  0.00    -0.010 SA
ATOM     18  C   UNL d   1       0.115  -7.580   0.621  0.00  0.00     0.096 A 
ENDBRANCH  10  13
ENDBRANCH   4   7
BRANCH   3  19
ATOM     19  C   UNL d   1       2.662   1.708  -0.073  0.00  0.00     0.004 C 
ATOM     20  C   UNL d   1       3.456   1.244  -1.328  0.00  0.00     0.020 C 
ATOM     21  C   UNL d   1       4.848   1.888  -1.370  0.00  0.00    -0.013 C 
ATOM     22  C   UNL d   1       4.693   3.414  -1.433  0.00  0.00     0.009 C 
ATOM     23  C   UNL d   1       5.618   1.496  -0.100  0.00  0.00     0.009 C 
ATOM     24  C   UNL d   1       3.932   3.915  -0.195  0.00  0.00    -0.013 C 
ATOM     25  C   UNL d   1       2.538   3.255  -0.143  0.00  0.00     0.020 C 
ATOM     26  C   UNL d   1       4.729   3.534   1.063  0.00  0.00     0.009 C 
ATOM     27  C   UNL d   1       4.877   2.007   1.147  0.00  0.00    -0.013 C 
ATOM     28  C   UNL d   1       3.482   1.365   1.201  0.00  0.00     0.020 C 
ENDBRANCH   3  19
TORSDOF 3
