REMARK  4 active torsions:
REMARK  status: ('A' for Active; 'I' for Inactive)
REMARK    1  A    between atoms: C_2  and  C_1 
REMARK    2  A    between atoms: C_18  and  C_6 
REMARK    3  A    between atoms: C_14  and  S_17 
REMARK    4  A    between atoms: S_17  and  C_18 
ROOT
ATOM      1  C   UNL d   1       0.483  -0.989   0.278  0.00  0.00     0.192 A 
ATOM      2  N   UNL d   1       1.124   0.119   0.579  0.00  0.00    -0.322 N 
ATOM      3  HN  UNL d   1       1.973   0.227   1.133  1.00  0.00     0.169 HD
ATOM      4  C   UNL d   1       0.378   1.096  -0.031  0.00  0.00     0.113 A 
ATOM      5  N   UNL d   1      -0.730   0.643  -0.635  0.00  0.00    -0.246 N 
ATOM      6  HN  UNL d   1      -1.450   1.178  -1.120  1.00  0.00     0.196 HD
ATOM      7  O   UNL d   1      -0.662  -0.739  -0.439  0.00  0.00    -0.217 OA
ENDROOT
BRANCH   4   8
ATOM      8  C   UNL d   1       0.746   2.539  -0.004  0.00  0.00     0.159 C 
BRANCH   8   9
ATOM      9  S   UNL d   1       2.560   2.779  -0.042  0.00  0.00    -0.105 SA
BRANCH   9  10
ATOM     10  C   UNL d   1       2.639   4.555   0.004  0.00  0.00     0.069 A 
ATOM     11  N   UNL d   1       1.478   5.246   0.018  0.00  0.00    -0.361 N 
ATOM     12  C   UNL d   1       1.561   6.594   0.033  0.00  0.00     0.089 A 
ATOM     13  HN  UNL d   1       0.576   4.770   0.017  1.00  0.00     0.165 HD
ATOM     14  C   UNL d   1       2.756   7.293   0.036  0.00  0.00     0.017 A 
ATOM     15  C   UNL d   1       3.940   6.566   0.028  0.00  0.00     0.004 A 
ATOM     16  C   UNL d   1       3.884   5.175   0.013  0.00  0.00     0.037 A 
ENDBRANCH   9  10
ENDBRANCH   8   9
ENDBRANCH   4   8
BRANCH   1  17
ATOM     17  C   UNL d   1       0.948  -2.288   0.636  0.00  0.00     0.096 A 
ATOM     18  C   UNL d   1       2.072  -2.675   1.356  0.00  0.00     0.041 A 
ATOM     19  N   UNL d   1       2.222  -4.055   1.487  0.00  0.00    -0.296 N 
ATOM     20  C   UNL d   1       3.117  -1.827   1.986  0.00  0.00     0.071 C 
ATOM     21  N   UNL d   1       1.248  -4.721   0.893  0.00  0.00    -0.061 NA
ATOM     22  HN  UNL d   1       2.994  -4.499   1.984  1.00  0.00     0.183 HD
ATOM     23  S   UNL d   1       0.129  -3.719   0.167  0.00  0.00     0.006 SA
ENDBRANCH   1  17
TORSDOF 4
