REMARK  4 active torsions:
REMARK  status: ('A' for Active; 'I' for Inactive)
REMARK    1  A    between atoms: C_7  and  N_1 
REMARK    2  A    between atoms: C_8  and  C_2 
REMARK    3  A    between atoms: O_15  and  C_8 
REMARK    4  A    between atoms: O_17  and  N_9 
ROOT
ATOM      1  N   UNL d   1      -0.405   1.055   0.027  0.00  0.00    -0.216 N 
ATOM      2  C   UNL d   1       0.944  -0.651  -0.137  0.00  0.00     0.158 A 
ATOM      3  C   UNL d   1      -1.318   0.019   0.133  0.00  0.00     0.298 A 
ATOM      4  N   UNL d   1       0.928   0.658  -0.137  0.00  0.00    -0.283 N 
ATOM      5  HN  UNL d   1       1.735   1.274  -0.237  1.00  0.00     0.188 HD
ATOM      6  C   UNL d   1      -0.422  -1.182   0.072  0.00  0.00     0.158 A 
ATOM      7  N   UNL d   1      -0.677  -2.441   0.242  0.00  0.00    -0.261 N 
ATOM      8  HN  UNL d   1       0.023  -3.182   0.203  1.00  0.00     0.194 HD
ATOM      9  O   UNL d   1      -2.529   0.027   0.227  0.00  0.00    -0.264 OA
ENDROOT
BRANCH   1  10
ATOM     10  C   UNL d   1      -0.643   2.376   0.467  0.00  0.00     0.087 A 
ATOM     11  C   UNL d   1      -1.145   2.627   1.765  0.00  0.00     0.063 A 
ATOM     12 CL   UNL d   1      -1.393   1.373   2.936  0.00  0.00    -0.082 Cl
ATOM     13  C   UNL d   1      -1.364   3.935   2.206  0.00  0.00     0.026 A 
ATOM     14  C   UNL d   1      -1.079   5.008   1.371  0.00  0.00     0.002 A 
ATOM     15  C   UNL d   1      -0.586   4.777   0.089  0.00  0.00     0.009 A 
ATOM     16  C   UNL d   1      -0.372   3.468  -0.386  0.00  0.00    -0.031 A 
ATOM     17  C   UNL d   1       0.084   3.316  -1.810  0.00  0.00     0.050 C 
ENDBRANCH   1  10
BRANCH   2  18
ATOM     18  C   UNL d   1       2.185  -1.464  -0.326  0.00  0.00     0.313 C 
ATOM     19  O   UNL d   1       2.203  -2.458  -1.027  0.00  0.00    -0.257 OA
BRANCH  18  20
ATOM     20  O   UNL d   1       3.213  -0.940   0.373  0.00  0.00    -0.321 OA
ATOM     21  C   UNL d   1       4.433  -1.676   0.237  0.00  0.00     0.213 C 
ENDBRANCH  18  20
ENDBRANCH   2  18
BRANCH   7  22
ATOM     22  O   UNL d   1      -2.038  -2.648   0.487  0.00  0.00    -0.289 OA
ATOM     23  H   UNL d   1      -2.097  -3.611   0.633  0.00  0.00     0.244 HD
ENDBRANCH   7  22
TORSDOF 4
