REMARK  5 active torsions:
REMARK  status: ('A' for Active; 'I' for Inactive)
REMARK    1  A    between atoms: C_4  and  C_1 
REMARK    2  A    between atoms: C_14  and  N_3 
REMARK    3  A    between atoms: S_15  and  C_10 
REMARK    4  A    between atoms: C_17  and  S_15 
REMARK    5  A    between atoms: C_19  and  C_17 
ROOT
ATOM      1  C   UNL d   1      -0.826   2.635   0.163  0.00  0.00     0.180 A 
ATOM      2  O   UNL d   1      -1.908   3.040   0.909  0.00  0.00    -0.267 OA
ATOM      3  N   UNL d   1      -0.241   3.651  -0.441  0.00  0.00    -0.276 N 
ATOM      4  HN  UNL d   1       0.576   3.608  -1.050  1.00  0.00     0.189 HD
ATOM      5  C   UNL d   1      -1.916   4.392   0.711  0.00  0.00     0.204 A 
ATOM      6  N   UNL d   1      -0.949   4.785  -0.089  0.00  0.00    -0.272 N 
ATOM      7  HN  UNL d   1      -0.758   5.741  -0.391  1.00  0.00     0.189 HD
ENDROOT
BRANCH   1   8
ATOM      8  C   UNL d   1      -0.364   1.231   0.088  0.00  0.00     0.079 C 
ATOM      9  C   UNL d   1      -0.958   0.145   0.694  0.00  0.00     0.137 C 
ATOM     10  N   UNL d   1      -0.166  -0.961   0.343  0.00  0.00    -0.240 N 
ATOM     11  N   UNL d   1      -2.047   0.091   1.514  0.00  0.00    -0.383 N 
ATOM     12  N   UNL d   1       0.956  -0.571  -0.330  0.00  0.00    -0.302 N 
ATOM     13  C   UNL d   1       0.779   0.734  -0.550  0.00  0.00     0.127 C 
ATOM     14  HN  UNL d   1       1.752  -1.148  -0.604  1.00  0.00     0.186 HD
ATOM     15  H   UNL d   1      -2.441   0.960   1.873  0.00  0.00     0.157 HD
ATOM     16  H   UNL d   1      -2.140  -0.669   2.185  0.00  0.00     0.157 HD
BRANCH  10  17
ATOM     17  C   UNL d   1      -0.403  -2.343   0.591  0.00  0.00     0.058 A 
ATOM     18  C   UNL d   1      -1.707  -2.834   0.745  0.00  0.00     0.031 A 
ATOM     19  C   UNL d   1      -1.925  -4.195   0.969  0.00  0.00     0.002 A 
ATOM     20  C   UNL d   1      -0.845  -5.072   1.041  0.00  0.00     0.000 A 
ATOM     21  C   UNL d   1       0.455  -4.593   0.882  0.00  0.00     0.002 A 
ATOM     22  C   UNL d   1       0.679  -3.234   0.644  0.00  0.00     0.031 A 
ENDBRANCH  10  17
ENDBRANCH   1   8
BRANCH   5  23
ATOM     23  S   UNL d   1      -3.071   5.434   1.480  0.00  0.00    -0.080 SA
BRANCH  23  24
ATOM     24  C   UNL d   1      -3.048   6.839   0.334  0.00  0.00     0.121 C 
BRANCH  24  25
ATOM     25  C   UNL d   1      -3.941   7.961   0.813  0.00  0.00    -0.048 A 
ATOM     26  C   UNL d   1      -3.420   8.987   1.618  0.00  0.00     0.009 A 
ATOM     27  C   UNL d   1      -4.244  10.020   2.072  0.00  0.00     0.024 A 
ATOM     28  C   UNL d   1      -5.594  10.030   1.732  0.00  0.00     0.034 A 
ATOM     29  C   UNL d   1      -6.128   9.018   0.937  0.00  0.00     0.024 A 
ATOM     30 CL   UNL d   1      -6.610  11.295   2.303  0.00  0.00    -0.084 Cl
ATOM     31  C   UNL d   1      -5.304   7.985   0.481  0.00  0.00     0.009 A 
ENDBRANCH  24  25
ENDBRANCH  23  24
ENDBRANCH   5  23
TORSDOF 5
