REMARK  2 active torsions:
REMARK  status: ('A' for Active; 'I' for Inactive)
REMARK    1  A    between atoms: C_4  and  C_3 
REMARK    2  A    between atoms: C_14  and  C_5 
ROOT
ATOM      1  N   UNL d   1      -0.443   0.532   1.090  0.00  0.00    -0.317 N 
ATOM      2  HN  UNL d   1      -0.917   0.999   1.863  1.00  0.00     0.169 HD
ATOM      3  C   UNL d   1      -0.404  -0.755   0.808  0.00  0.00     0.200 A 
ATOM      4  C   UNL d   1       0.313   1.093   0.082  0.00  0.00     0.138 A 
ATOM      5  N   UNL d   1       0.771   0.203  -0.811  0.00  0.00    -0.242 N 
ATOM      6  HN  UNL d   1       1.330   0.379  -1.646  1.00  0.00     0.196 HD
ATOM      7  O   UNL d   1       0.306  -1.018  -0.331  0.00  0.00    -0.215 OA
ENDROOT
BRANCH   4   8
ATOM      8  C   UNL d   1       0.615   2.521   0.033  0.00  0.00     0.010 A 
ATOM      9  C   UNL d   1       0.153   3.380   1.043  0.00  0.00     0.017 A 
ATOM     10  C   UNL d   1       0.473   4.742   1.022  0.00  0.00     0.025 A 
ATOM     11  C   UNL d   1       1.254   5.255  -0.010  0.00  0.00     0.034 A 
ATOM     12  C   UNL d   1       1.713   4.420  -1.026  0.00  0.00     0.025 A 
ATOM     13 CL   UNL d   1       1.661   6.926  -0.027  0.00  0.00    -0.084 Cl
ATOM     14  C   UNL d   1       1.393   3.058  -1.003  0.00  0.00     0.017 A 
ENDBRANCH   4   8
BRANCH   3  15
ATOM     15  C   UNL d   1      -1.030  -1.817   1.643  0.00  0.00     0.106 A 
ATOM     16  N   UNL d   1      -0.885  -3.162   1.336  0.00  0.00    -0.288 N 
ATOM     17  N   UNL d   1      -1.493  -3.932   2.223  0.00  0.00    -0.061 NA
ATOM     18  HN  UNL d   1      -0.373  -3.513   0.527  1.00  0.00     0.183 HD
ATOM     19  S   UNL d   1      -2.258  -3.058   3.429  0.00  0.00    -0.010 SA
ATOM     20  C   UNL d   1      -1.775  -1.547   2.775  0.00  0.00     0.100 A 
ENDBRANCH   3  15
TORSDOF 2
