REMARK  6 active torsions:
REMARK  status: ('A' for Active; 'I' for Inactive)
REMARK    1  A    between atoms: C_7  and  N_1 
REMARK    2  A    between atoms: C_6  and  C_2 
REMARK    3  A    between atoms: O_14  and  C_2 
REMARK    4  A    between atoms: C_8  and  C_6 
REMARK    5  A    between atoms: N_9  and  C_7 
REMARK    6  A    between atoms: C_13  and  C_8 
ROOT
ATOM      1  N   UNL d   1      -1.783   0.624   0.403  0.00  0.00    -0.287 N 
ATOM      2  C   UNL d   1      -1.278  -1.653  -0.103  0.00  0.00     0.175 C 
ATOM      3  C   UNL d   1      -2.402  -0.610   0.151  0.00  0.00     0.266 C 
ATOM      4  C   UNL d   1      -0.049  -0.856   0.265  0.00  0.00     0.014 A 
ATOM      5  C   UNL d   1      -0.393   0.470   0.525  0.00  0.00     0.049 A 
ATOM      6  C   UNL d   1       0.566   1.421   0.792  0.00  0.00     0.032 A 
ATOM      7  C   UNL d   1       1.286  -1.255   0.227  0.00  0.00     0.032 A 
ATOM      8  O   UNL d   1      -3.597  -0.841   0.132  0.00  0.00    -0.269 OA
ATOM      9  C   UNL d   1       2.258  -0.287   0.419  0.00  0.00     0.011 A 
ATOM     10  C   UNL d   1       1.912   1.046   0.722  0.00  0.00     0.021 A 
ATOM     11 BR   UNL d   1       4.078  -0.747   0.191  0.00  0.00    -0.051 Br
ENDROOT
BRANCH   2  12
ATOM     12  C   UNL d   1      -1.165  -1.976  -1.604  0.00  0.00     0.137 C 
BRANCH  12  13
ATOM     13  C   UNL d   1      -2.311  -2.782  -2.183  0.00  0.00     0.163 C 
ATOM     14  O   UNL d   1      -2.323  -4.005  -2.067  0.00  0.00    -0.292 OA
BRANCH  13  15
ATOM     15  C   UNL d   1      -3.440  -2.121  -2.911  0.00  0.00     0.010 A 
ATOM     16  C   UNL d   1      -3.392  -0.821  -3.432  0.00  0.00     0.017 A 
ATOM     17  C   UNL d   1      -4.547  -0.244  -3.985  0.00  0.00     0.025 A 
ATOM     18  C   UNL d   1      -5.738  -0.967  -4.037  0.00  0.00     0.034 A 
ATOM     19  C   UNL d   1      -5.770  -2.290  -3.610  0.00  0.00     0.025 A 
ATOM     20 CL   UNL d   1      -7.176  -0.220  -4.607  0.00  0.00    -0.084 Cl
ATOM     21  C   UNL d   1      -4.621  -2.865  -3.057  0.00  0.00     0.017 A 
ENDBRANCH  13  15
ENDBRANCH  12  13
ENDBRANCH   2  12
BRANCH   2  22
ATOM     22  O   UNL d   1      -1.319  -2.788   0.730  0.00  0.00    -0.375 OA
ATOM     23  H   UNL d   1      -2.258  -3.016   0.867  0.00  0.00     0.211 HD
ENDBRANCH   2  22
BRANCH   1  24
ATOM     24  C   UNL d   1      -2.516   1.858   0.546  0.00  0.00     0.405 C 
BRANCH  24  25
ATOM     25  N   UNL d   1      -1.986   2.914  -0.333  0.00  0.00     0.106 N 
ATOM     26  C   UNL d   1      -2.088   2.535  -1.750  0.00  0.00     0.274 C 
ATOM     27  C   UNL d   1      -1.736   3.664  -2.721  0.00  0.00     0.030 C 
ATOM     28  C   UNL d   1      -2.535   4.920  -2.419  0.00  0.00     0.003 C 
ATOM     29  C   UNL d   1      -2.298   5.321  -0.971  0.00  0.00     0.030 C 
ATOM     30  C   UNL d   1      -2.668   4.180  -0.022  0.00  0.00     0.274 C 
ENDBRANCH  24  25
ENDBRANCH   1  24
TORSDOF 6
