REMARK  2 active torsions:
REMARK  status: ('A' for Active; 'I' for Inactive)
REMARK    1  A    between atoms: C_8  and  C_3 
REMARK    2  A    between atoms: O_10  and  C_5 
ROOT
ATOM      1  N   UNL d   1      -1.093   0.976   0.476  0.00  0.00    -0.322 N 
ATOM      2  HN  UNL d   1      -1.894   1.437   0.908  1.00  0.00     0.169 HD
ATOM      3  C   UNL d   1      -0.114   1.656  -0.034  0.00  0.00     0.120 A 
ATOM      4  N   UNL d   1       0.984   1.059  -0.606  0.00  0.00    -0.309 N 
ATOM      5  C   UNL d   1      -1.004  -0.384   0.408  0.00  0.00     0.146 A 
ATOM      6  C   UNL d   1       0.020  -1.066  -0.105  0.00  0.00     0.130 A 
ATOM      7  C   UNL d   1       1.140  -0.294  -0.646  0.00  0.00     0.251 A 
ATOM      8  O   UNL d   1       2.145  -0.832  -1.094  0.00  0.00    -0.268 OA
ATOM      9  H   UNL d   1       1.772   1.593  -0.939  0.00  0.00     0.170 HD
ENDROOT
BRANCH   3  10
ATOM     10  C   UNL d   1      -0.112   3.142   0.003  0.00  0.00     0.008 A 
ATOM     11  C   UNL d   1      -0.734   3.790   1.078  0.00  0.00     0.015 A 
ATOM     12  C   UNL d   1      -0.721   5.183   1.157  0.00  0.00     0.001 A 
ATOM     13  C   UNL d   1      -0.099   5.932   0.159  0.00  0.00     0.000 A 
ATOM     14  C   UNL d   1       0.504   5.293  -0.924  0.00  0.00     0.001 A 
ATOM     15  C   UNL d   1       0.496   3.899  -1.006  0.00  0.00     0.015 A 
ENDBRANCH   3  10
BRANCH   5  16
ATOM     16  O   UNL d   1      -2.076  -1.061   0.923  0.00  0.00    -0.346 OA
ATOM     17  H   UNL d   1      -2.661  -0.332   1.198  0.00  0.00     0.219 HD
ENDBRANCH   5  16
TORSDOF 2
