REMARK  2 active torsions:
REMARK  status: ('A' for Active; 'I' for Inactive)
REMARK    1  A    between atoms: O_9  and  C_5 
REMARK    2  A    between atoms: O_10  and  C_6 
ROOT
ATOM      1  N   UNL d   1       2.422  -0.654   0.069  0.00  0.00    -0.277 N 
ATOM      2  HN  UNL d   1       3.308  -1.160   0.086  1.00  0.00     0.189 HD
ATOM      3  N   UNL d   1       2.403   0.698   0.069  0.00  0.00    -0.277 N 
ATOM      4  HN  UNL d   1       3.273   1.230   0.089  1.00  0.00     0.189 HD
ATOM      5  C   UNL d   1       1.250  -1.323   0.048  0.00  0.00     0.166 A 
ATOM      6  C   UNL d   1       1.211   1.332   0.041  0.00  0.00     0.166 A 
ATOM      7  C   UNL d   1      -0.006  -0.716   0.024  0.00  0.00     0.030 A 
ATOM      8  C   UNL d   1      -0.027   0.688   0.015  0.00  0.00     0.030 A 
ATOM      9  C   UNL d   1      -1.228  -1.424   0.004  0.00  0.00     0.017 A 
ATOM     10  C   UNL d   1      -1.268   1.361  -0.021  0.00  0.00     0.017 A 
ATOM     11  C   UNL d   1      -2.446  -0.745  -0.032  0.00  0.00     0.001 A 
ATOM     12  C   UNL d   1      -2.467   0.647  -0.048  0.00  0.00     0.001 A 
ENDROOT
BRANCH   5  13
ATOM     13  O   UNL d   1       1.382  -2.679   0.038  0.00  0.00    -0.344 OA
ATOM     14  H   UNL d   1       2.351  -2.775   0.032  0.00  0.00     0.219 HD
ENDBRANCH   5  13
BRANCH   6  15
ATOM     15  O   UNL d   1       1.303   2.692   0.036  0.00  0.00    -0.344 OA
ATOM     16  H   UNL d   1       2.269   2.817   0.056  0.00  0.00     0.219 HD
ENDBRANCH   6  15
TORSDOF 2
