REMARK  6 active torsions:
REMARK  status: ('A' for Active; 'I' for Inactive)
REMARK    1  A    between atoms: C_5  and  C_1 
REMARK    2  A    between atoms: C_8  and  C_1 
REMARK    3  A    between atoms: C_3  and  C_2 
REMARK    4  A    between atoms: C_6  and  C_3 
REMARK    5  A    between atoms: C_4  and  C_5 
REMARK    6  A    between atoms: C_7  and  C_4 
ROOT
ATOM      1  C   UNL d   1       1.287  -0.210   0.241  0.00  0.00    -0.037 C 
ATOM      2  C   UNL d   1       1.046  -1.165   1.173  0.00  0.00     0.064 C 
ENDROOT
BRANCH   1   3
ATOM      3  C   UNL d   1       2.502  -0.261  -0.682  0.00  0.00     0.123 C 
BRANCH   3   4
ATOM      4  C   UNL d   1       3.739   0.331   0.006  0.00  0.00     0.163 C 
ATOM      5  O   UNL d   1       3.655   1.296   0.771  0.00  0.00    -0.292 OA
BRANCH   4   6
ATOM      6  C   UNL d   1       5.108  -0.193  -0.298  0.00  0.00     0.010 A 
ATOM      7  C   UNL d   1       5.352  -1.286  -1.136  0.00  0.00     0.016 A 
ATOM      8  C   UNL d   1       6.663  -1.726  -1.359  0.00  0.00     0.020 A 
ATOM      9  C   UNL d   1       7.733  -1.070  -0.751  0.00  0.00     0.011 A 
ATOM     10  C   UNL d   1       7.507   0.022   0.080  0.00  0.00     0.020 A 
ATOM     11 BR   UNL d   1       9.498  -1.672  -1.051  0.00  0.00    -0.051 Br
ATOM     12  C   UNL d   1       6.199   0.456   0.305  0.00  0.00     0.016 A 
ENDBRANCH   4   6
ENDBRANCH   3   4
ENDBRANCH   1   3
BRANCH   1  13
ATOM     13  C   UNL d   1       0.373   0.974   0.088  0.00  0.00    -0.029 A 
ATOM     14  C   UNL d   1       0.847   2.197  -0.423  0.00  0.00     0.012 A 
ATOM     15  C   UNL d   1       0.013   3.308  -0.584  0.00  0.00     0.001 A 
ATOM     16  C   UNL d   1      -1.327   3.227  -0.231  0.00  0.00     0.000 A 
ATOM     17  C   UNL d   1      -1.830   2.031   0.271  0.00  0.00     0.001 A 
ATOM     18  C   UNL d   1      -0.992   0.916   0.420  0.00  0.00     0.012 A 
ENDBRANCH   1  13
BRANCH   2  19
ATOM     19  C   UNL d   1       1.942  -2.341   1.416  0.00  0.00     0.182 C 
ATOM     20  O   UNL d   1       3.099  -2.372   1.002  0.00  0.00    -0.288 OA
BRANCH  19  21
ATOM     21  C   UNL d   1       1.446  -3.516   2.188  0.00  0.00     0.014 A 
ATOM     22  C   UNL d   1       0.090  -3.799   2.391  0.00  0.00     0.017 A 
ATOM     23  C   UNL d   1      -0.289  -4.963   3.074  0.00  0.00     0.020 A 
ATOM     24  C   UNL d   1       0.682  -5.848   3.544  0.00  0.00     0.011 A 
ATOM     25  C   UNL d   1       2.033  -5.581   3.347  0.00  0.00     0.020 A 
ATOM     26 BR   UNL d   1       0.163  -7.431   4.438  0.00  0.00    -0.051 Br
ATOM     27  C   UNL d   1       2.410  -4.419   2.671  0.00  0.00     0.017 A 
ENDBRANCH  19  21
ENDBRANCH   2  19
TORSDOF 6
