REMARK  4 active torsions:
REMARK  status: ('A' for Active; 'I' for Inactive)
REMARK    1  A    between atoms: C_8  and  N_1 
REMARK    2  A    between atoms: S_10  and  C_2 
REMARK    3  A    between atoms: C_13  and  C_7 
REMARK    4  A    between atoms: C_14  and  C_8 
ROOT
ATOM      1  N   UNL d   1       0.135  -1.456   0.032  0.00  0.00    -0.288 N 
ATOM      2  C   UNL d   1       1.393  -0.950  -0.036  0.00  0.00     0.149 A 
ATOM      3  C   UNL d   1      -0.725  -0.397   0.067  0.00  0.00     0.276 A 
ATOM      4  C   UNL d   1       0.188   0.784  -0.005  0.00  0.00     0.104 A 
ATOM      5  N   UNL d   1       1.493   0.342  -0.069  0.00  0.00    -0.332 N 
ATOM      6  HN  UNL d   1       2.342   0.904  -0.128  1.00  0.00     0.168 HD
ATOM      7  C   UNL d   1      -0.157   2.077   0.013  0.00  0.00     0.048 C 
ATOM      8  O   UNL d   1      -1.937  -0.404   0.175  0.00  0.00    -0.265 OA
ENDROOT
BRANCH   7   9
ATOM      9  C   UNL d   1      -1.516   2.607   0.096  0.00  0.00    -0.018 A 
ATOM     10  C   UNL d   1      -2.138   2.842   1.320  0.00  0.00     0.099 A 
ATOM     11  N   UNL d   1      -3.375   3.377   1.457  0.00  0.00    -0.374 N 
ATOM     12  C   UNL d   1      -4.032   3.674   0.316  0.00  0.00     0.087 A 
ATOM     13  HN  UNL d   1      -3.789   3.546   2.374  1.00  0.00     0.164 HD
ATOM     14  C   UNL d   1      -3.509   3.468  -0.951  0.00  0.00     0.018 A 
ATOM     15  C   UNL d   1      -2.229   2.927  -1.059  0.00  0.00     0.014 A 
ENDBRANCH   7   9
BRANCH   1  16
ATOM     16  C   UNL d   1      -0.320  -2.829   0.158  0.00  0.00     0.173 C 
BRANCH  16  17
ATOM     17  C   UNL d   1      -0.607  -3.489  -1.172  0.00  0.00    -0.040 A 
ATOM     18  C   UNL d   1       0.379  -4.243  -1.827  0.00  0.00     0.009 A 
ATOM     19  C   UNL d   1       0.105  -4.872  -3.042  0.00  0.00     0.001 A 
ATOM     20  C   UNL d   1      -1.159  -4.761  -3.617  0.00  0.00     0.000 A 
ATOM     21  C   UNL d   1      -2.147  -4.013  -2.980  0.00  0.00     0.001 A 
ATOM     22  C   UNL d   1      -1.872  -3.374  -1.768  0.00  0.00     0.009 A 
ENDBRANCH  16  17
ENDBRANCH   1  16
BRANCH   2  23
ATOM     23  S   UNL d   1       2.758  -2.016  -0.049  0.00  0.00    -0.098 SA
ATOM     24  C   UNL d   1       4.129  -0.845  -0.130  0.00  0.00     0.099 C 
ENDBRANCH   2  23
TORSDOF 4
