REMARK  4 active torsions:
REMARK  status: ('A' for Active; 'I' for Inactive)
REMARK    1  A    between atoms: C_2  and  C_1 
REMARK       I    between atoms: N_4  and  C_1 
REMARK    2  A    between atoms: S_5  and  C_3 
REMARK    3  A    between atoms: C_12  and  N_4 
REMARK    4  A    between atoms: C_17  and  S_5 
ROOT
ATOM      1  C   UNL d   1       0.267  -0.799  -0.822  0.00  0.00     0.066 A 
ATOM      2  C   UNL d   1      -0.604  -0.167  -1.720  0.00  0.00     0.090 A 
ATOM      3  N   UNL d   1      -1.151  -0.832  -2.779  0.00  0.00    -0.359 N 
ATOM      4  HN  UNL d   1      -1.775  -0.355  -3.429  1.00  0.00     0.166 HD
ATOM      5  C   UNL d   1       0.571  -2.155  -1.038  0.00  0.00     0.021 A 
ATOM      6  C   UNL d   1      -0.847  -2.136  -2.945  0.00  0.00     0.089 A 
ATOM      7  C   UNL d   1       0.013  -2.830  -2.118  0.00  0.00     0.018 A 
ENDROOT
BRANCH   1   8
ATOM      8  C   UNL d   1       0.761  -0.152   0.421  0.00  0.00     0.259 C 
ATOM      9  N   UNL d   1       2.048  -0.494   0.823  0.00  0.00    -0.323 N 
ATOM     10  H   UNL d   1       2.659  -0.931   0.144  0.00  0.00     0.169 HD
ATOM     11  O   UNL d   1       0.001   0.587   1.035  0.00  0.00    -0.267 OA
BRANCH   9  12
ATOM     12  C   UNL d   1       2.594  -0.287   2.116  0.00  0.00     0.035 A 
ATOM     13  C   UNL d   1       1.818   0.117   3.212  0.00  0.00     0.043 A 
ATOM     14  C   UNL d   1       2.392   0.205   4.497  0.00  0.00    -0.006 A 
ATOM     15  C   UNL d   1       1.873   0.513   5.781  0.00  0.00     0.030 A 
ATOM     16  C   UNL d   1       3.747  -0.074   4.652  0.00  0.00     0.042 A 
ATOM     17  C   UNL d   1       2.907   0.421   6.684  0.00  0.00     0.089 A 
ATOM     18  N   UNL d   1       4.040   0.089   5.987  0.00  0.00    -0.365 N 
ATOM     19  H   UNL d   1       4.957  -0.039   6.394  0.00  0.00     0.165 HD
ATOM     20  C   UNL d   1       4.558  -0.450   3.575  0.00  0.00     0.033 A 
ATOM     21  C   UNL d   1       3.952  -0.568   2.311  0.00  0.00     0.032 A 
ENDBRANCH   9  12
ENDBRANCH   1   8
BRANCH   2  22
ATOM     22  S   UNL d   1      -0.971   1.583  -1.729  0.00  0.00    -0.072 SA
BRANCH  22  23
ATOM     23  C   UNL d   1      -2.468   1.669  -0.759  0.00  0.00     0.007 A 
ATOM     24  C   UNL d   1      -2.517   2.563   0.318  0.00  0.00     0.019 A 
ATOM     25  C   UNL d   1      -3.659   2.654   1.117  0.00  0.00     0.001 A 
ATOM     26  C   UNL d   1      -4.770   1.861   0.835  0.00  0.00     0.000 A 
ATOM     27  C   UNL d   1      -4.745   0.996  -0.257  0.00  0.00     0.001 A 
ATOM     28  C   UNL d   1      -3.602   0.906  -1.058  0.00  0.00     0.019 A 
ENDBRANCH  22  23
ENDBRANCH   2  22
TORSDOF 4
