REMARK  3 active torsions:
REMARK  status: ('A' for Active; 'I' for Inactive)
REMARK    1  A    between atoms: C_2  and  C_3 
REMARK       I    between atoms: C_9  and  N_16 
REMARK       I    between atoms: N_14  and  C_9 
REMARK    2  A    between atoms: N_16  and  C_12 
REMARK    3  A    between atoms: C_13  and  N_14 
ROOT
ATOM      1  C   UNL d   1      -4.999  -0.561  -0.017  0.00  0.00     0.325 C 
ATOM      2  N   UNL d   1      -4.907   0.818   0.095  0.00  0.00    -0.308 N 
ATOM      3  N   UNL d   1      -3.806  -1.188   0.297  0.00  0.00    -0.309 N 
ATOM      4  O   UNL d   1      -6.026  -1.149  -0.339  0.00  0.00    -0.247 OA
ATOM      5  H   UNL d   1      -4.198   1.151   0.738  0.00  0.00     0.170 HD
ATOM      6  H   UNL d   1      -2.981  -0.602   0.289  0.00  0.00     0.170 HD
ENDROOT
BRANCH   3   7
ATOM      7  C   UNL d   1      -3.601  -2.592   0.311  0.00  0.00     0.038 A 
ATOM      8  C   UNL d   1      -4.678  -3.503   0.292  0.00  0.00     0.062 A 
ATOM      9  C   UNL d   1      -4.359  -4.876   0.169  0.00  0.00     0.069 A 
ATOM     10  C   UNL d   1      -2.932  -5.330   0.123  0.00  0.00     0.067 A 
ATOM     11  N   UNL d   1      -5.240  -5.884   0.076  0.00  0.00    -0.310 N 
ATOM     12  N   UNL d   1      -2.802  -6.658  -0.024  0.00  0.00    -0.310 N 
ATOM     13  C   UNL d   1      -1.875  -4.396   0.226  0.00  0.00     0.035 A 
ATOM     14  S   UNL d   1      -4.346  -7.270  -0.106  0.00  0.00     0.068 SA
ATOM     15  HN  UNL d   1      -1.931  -7.186  -0.075  1.00  0.00     0.176 HD
ATOM     16  C   UNL d   1      -2.252  -3.039   0.318  0.00  0.00     0.032 A 
ATOM     17  HN  UNL d   1      -6.257  -5.812   0.110  1.00  0.00     0.176 HD
ENDBRANCH   3   7
BRANCH   2  18
ATOM     18  C   UNL d   1      -6.010   1.679  -0.162  0.00  0.00     0.051 A 
ATOM     19  C   UNL d   1      -6.194   2.858   0.582  0.00  0.00     0.074 A 
ATOM     20  C   UNL d   1      -7.382   3.599   0.396  0.00  0.00     0.018 A 
ATOM     21  C   UNL d   1      -8.341   3.211  -0.539  0.00  0.00     0.001 A 
ATOM     22  C   UNL d   1      -8.114   2.095  -1.329  0.00  0.00     0.002 A 
ATOM     23  C   UNL d   1      -6.954   1.344  -1.147  0.00  0.00     0.030 A 
BRANCH  19  24
ATOM     24  C   UNL d   1      -5.224   3.344   1.622  0.00  0.00     0.419 C 
ATOM     25  F   UNL d   1      -4.049   2.644   1.657  0.00  0.00    -0.166 F 
ATOM     26  F   UNL d   1      -4.863   4.645   1.437  0.00  0.00    -0.166 F 
ATOM     27  F   UNL d   1      -5.727   3.272   2.885  0.00  0.00    -0.166 F 
ENDBRANCH  19  24
ENDBRANCH   2  18
TORSDOF 3
