REMARK  4 active torsions:
REMARK  status: ('A' for Active; 'I' for Inactive)
REMARK    1  A    between atoms: C_3  and  C_1 
REMARK    2  A    between atoms: O_4  and  C_1 
REMARK    3  A    between atoms: C_2  and  C_7 
REMARK    4  A    between atoms: C_7  and  O_4 
ROOT
ATOM      1  O   UNL d   1       0.668  -1.202  -0.462  0.00  0.00    -0.314 OA
ENDROOT
BRANCH   1   2
ATOM      2  C   UNL d   1       0.930   0.054  -0.013  0.00  0.00     0.266 C 
ATOM      3  O   UNL d   1       1.669   0.309   0.931  0.00  0.00    -0.264 OA
BRANCH   2   4
ATOM      4  C   UNL d   1       0.225   1.139  -0.836  0.00  0.00     0.037 C 
ATOM      5  C   UNL d   1      -0.651   0.580  -1.966  0.00  0.00     0.025 C 
ATOM      6  C   UNL d   1      -0.652   1.969   0.113  0.00  0.00     0.025 C 
ATOM      7  C   UNL d   1       1.312   2.036  -1.449  0.00  0.00     0.025 C 
ENDBRANCH   2   4
ENDBRANCH   1   2
BRANCH   1   8
ATOM      8  C   UNL d   1       1.415  -2.265   0.148  0.00  0.00     0.247 C 
BRANCH   8   9
ATOM      9  C   UNL d   1       0.511  -3.370   0.683  0.00  0.00     0.095 C 
ATOM     10  S   UNL d   1       1.121  -4.747   1.401  0.00  0.00    -0.064 SA
ATOM     11  N   UNL d   1      -0.836  -3.210   0.552  0.00  0.00    -0.392 N 
ATOM     12  H   UNL d   1      -1.229  -2.397   0.094  0.00  0.00     0.156 HD
ATOM     13  H   UNL d   1      -1.464  -3.929   0.891  0.00  0.00     0.156 HD
ENDBRANCH   8   9
ENDBRANCH   1   8
TORSDOF 4
