REMARK  3 active torsions:
REMARK  status: ('A' for Active; 'I' for Inactive)
REMARK       I    between atoms: N_2  and  C_1 
REMARK       I    between atoms: N_8  and  C_1 
REMARK    1  A    between atoms: C_3  and  N_2 
REMARK    2  A    between atoms: C_5  and  C_10 
REMARK    3  A    between atoms: C_10  and  N_8 
ROOT
ATOM      1  C   UNL d   1       1.047  -0.964  -2.297  0.00  0.00     0.047 A 
ATOM      2  C   UNL d   1       0.938  -0.399  -3.601  0.00  0.00     0.001 A 
ATOM      3  C   UNL d   1       1.623  -1.030  -4.666  0.00  0.00    -0.024 A 
ATOM      4  C   UNL d   1       1.802  -2.125  -2.088  0.00  0.00     0.030 A 
ATOM      5  C   UNL d   1       2.444  -2.748  -3.153  0.00  0.00     0.003 A 
ATOM      6  C   UNL d   1       0.233   0.796  -3.892  0.00  0.00     0.014 A 
ATOM      7  C   UNL d   1       2.358  -2.202  -4.435  0.00  0.00     0.012 A 
ATOM      8  C   UNL d   1       1.586  -0.474  -5.960  0.00  0.00     0.012 A 
ATOM      9  C   UNL d   1       0.211   1.343  -5.181  0.00  0.00     0.001 A 
ATOM     10  C   UNL d   1       0.888   0.705  -6.211  0.00  0.00     0.001 A 
ENDROOT
BRANCH   1  11
ATOM     11  N   UNL d   1       0.362  -0.382  -1.202  0.00  0.00    -0.308 N 
ATOM     12  C   UNL d   1       1.008  -0.029  -0.028  0.00  0.00     0.320 C 
ATOM     13  N   UNL d   1       0.147   0.623   0.824  0.00  0.00    -0.342 N 
ATOM     14  O   UNL d   1       2.193  -0.211   0.220  0.00  0.00    -0.247 OA
ATOM     15  H   UNL d   1      -0.838   0.606   0.618  0.00  0.00     0.164 HD
ATOM     16  H   UNL d   1      -0.410   0.220  -1.429  0.00  0.00     0.170 HD
BRANCH  13  17
ATOM     17  C   UNL d   1       0.556   1.172   2.098  0.00  0.00     0.129 C 
BRANCH  17  18
ATOM     18  C   UNL d   1      -0.131   0.441   3.211  0.00  0.00     0.003 A 
ATOM     19  C   UNL d   1      -1.638   0.392   3.308  0.00  0.00     0.007 A 
ATOM     20  C   UNL d   1      -0.853   1.200   4.301  0.00  0.00     0.007 A 
ENDBRANCH  17  18
ENDBRANCH  13  17
ENDBRANCH   1  11
TORSDOF 3
