REMARK  7 active torsions:
REMARK  status: ('A' for Active; 'I' for Inactive)
REMARK    1  A    between atoms: C_3  and  N_1 
REMARK    2  A    between atoms: C_6  and  N_1 
REMARK    3  A    between atoms: C_7  and  N_1 
REMARK    4  A    between atoms: C_2  and  C_3 
REMARK    5  A    between atoms: C_4  and  C_2 
REMARK    6  A    between atoms: C_13  and  C_6 
REMARK    7  A    between atoms: C_14  and  C_7 
ROOT
ATOM      1  N   UNL d   1       1.070  -0.056   0.165  0.00  0.00     0.104 N 
ENDROOT
BRANCH   1   2
ATOM      2  C   UNL d   1       0.624  -0.548   1.487  0.00  0.00     0.356 C 
BRANCH   2   3
ATOM      3  C   UNL d   1      -0.858  -0.311   1.792  0.00  0.00     0.187 C 
ATOM      4  O   UNL d   1      -1.190   0.276   2.827  0.00  0.00    -0.290 OA
BRANCH   3   5
ATOM      5  C   UNL d   1      -1.948  -0.835   0.907  0.00  0.00     0.011 A 
ATOM      6  C   UNL d   1      -1.715  -1.629  -0.217  0.00  0.00     0.015 A 
ATOM      7  C   UNL d   1      -2.785  -2.093  -0.994  0.00  0.00     0.007 A 
ATOM      8  C   UNL d   1      -4.106  -1.774  -0.656  0.00  0.00    -0.062 A 
ATOM      9  C   UNL d   1      -4.342  -0.974   0.464  0.00  0.00     0.007 A 
ATOM     10  C   UNL d   1      -5.243  -2.269  -1.501  0.00  0.00     0.048 C 
ATOM     11  C   UNL d   1      -3.273  -0.512   1.238  0.00  0.00     0.015 A 
ENDBRANCH   3   5
ENDBRANCH   2   3
ENDBRANCH   1   2
BRANCH   1  12
ATOM     12  C   UNL d   1       0.736   1.372  -0.081  0.00  0.00     0.311 C 
BRANCH  12  13
ATOM     13  C   UNL d   1       1.327   2.423   0.845  0.00  0.00    -0.030 A 
ATOM     14  C   UNL d   1       2.597   2.974   0.607  0.00  0.00     0.009 A 
ATOM     15  C   UNL d   1       3.129   3.950   1.456  0.00  0.00     0.001 A 
ATOM     16  C   UNL d   1       2.390   4.402   2.548  0.00  0.00     0.000 A 
ATOM     17  C   UNL d   1       1.124   3.881   2.789  0.00  0.00     0.001 A 
ATOM     18  C   UNL d   1       0.595   2.903   1.942  0.00  0.00     0.009 A 
ENDBRANCH  12  13
ENDBRANCH   1  12
BRANCH   1  19
ATOM     19  C   UNL d   1       2.520  -0.278  -0.043  0.00  0.00     0.311 C 
BRANCH  19  20
ATOM     20  C   UNL d   1       3.048  -1.700   0.029  0.00  0.00    -0.030 A 
ATOM     21  C   UNL d   1       2.321  -2.818  -0.396  0.00  0.00     0.009 A 
ATOM     22  C   UNL d   1       2.871  -4.102  -0.314  0.00  0.00     0.001 A 
ATOM     23  C   UNL d   1       4.172  -4.281   0.150  0.00  0.00     0.000 A 
ATOM     24  C   UNL d   1       4.929  -3.176   0.527  0.00  0.00     0.001 A 
ATOM     25  C   UNL d   1       4.371  -1.898   0.466  0.00  0.00     0.009 A 
ENDBRANCH  19  20
ENDBRANCH   1  19
TORSDOF 7
