REMARK  6 active torsions:
REMARK  status: ('A' for Active; 'I' for Inactive)
REMARK       I    between atoms: N_3  and  C_1 
REMARK    1  A    between atoms: C_9  and  C_1 
REMARK    2  A    between atoms: C_2  and  C_5 
REMARK    3  A    between atoms: C_6  and  N_4 
REMARK    4  A    between atoms: C_11  and  C_9 
REMARK    5  A    between atoms: C_27  and  C_24 
REMARK    6  A    between atoms: C_29  and  C_27 
ROOT
ATOM      1  C   UNL d   1       0.867  -0.117  -0.168  0.00  0.00     0.228 C 
ATOM      2  N   UNL d   1       2.048  -0.448  -0.818  0.00  0.00    -0.348 N 
ATOM      3  N   UNL d   1       3.708  -1.280  -3.023  0.00  0.00    -0.364 N 
ATOM      4  O   UNL d   1       0.339   0.994  -0.336  0.00  0.00    -0.273 OA
ATOM      5  C   UNL d   1       2.717   0.558  -1.656  0.00  0.00     0.145 C 
ATOM      6  C   UNL d   1       2.798  -1.715  -0.734  0.00  0.00     0.145 C 
ATOM      7  C   UNL d   1       3.096  -2.282  -2.136  0.00  0.00     0.144 C 
ATOM      8  C   UNL d   1       3.032   0.027  -3.070  0.00  0.00     0.144 C 
ENDROOT
BRANCH   1   9
ATOM      9  C   UNL d   1       0.212  -1.142   0.777  0.00  0.00     0.107 C 
ATOM     10  C   UNL d   1      -1.319  -1.080   0.659  0.00  0.00     0.025 C 
BRANCH   9  11
ATOM     11  C   UNL d   1       0.623  -0.959   2.232  0.00  0.00    -0.045 A 
ATOM     12  C   UNL d   1       0.457   0.268   2.894  0.00  0.00     0.008 A 
ATOM     13  C   UNL d   1       0.730   0.389   4.262  0.00  0.00     0.007 A 
ATOM     14  C   UNL d   1       1.176  -0.710   5.003  0.00  0.00    -0.058 A 
ATOM     15  C   UNL d   1       1.365  -1.929   4.340  0.00  0.00     0.007 A 
ATOM     16  C   UNL d   1       1.096  -2.050   2.971  0.00  0.00     0.008 A 
BRANCH  14  17
ATOM     17  C   UNL d   1       1.390  -0.591   6.496  0.00  0.00     0.042 C 
BRANCH  17  18
ATOM     18  C   UNL d   1       2.808  -0.945   6.986  0.00  0.00    -0.019 C 
ATOM     19  C   UNL d   1       3.865   0.004   6.418  0.00  0.00     0.010 C 
ATOM     20  C   UNL d   1       2.854  -0.908   8.517  0.00  0.00     0.010 C 
ENDBRANCH  17  18
ENDBRANCH  14  17
ENDBRANCH   9  11
ENDBRANCH   1   9
BRANCH   3  21
ATOM     21  C   UNL d   1       5.039  -1.415  -3.367  0.00  0.00     0.103 A 
ATOM     22  N   UNL d   1       5.827  -2.239  -2.640  0.00  0.00    -0.352 N 
ATOM     23  C   UNL d   1       7.110  -2.442  -3.036  0.00  0.00     0.106 A 
ATOM     24  HN  UNL d   1       5.463  -2.701  -1.807  1.00  0.00     0.166 HD
ATOM     25  C   UNL d   1       7.681  -1.868  -4.157  0.00  0.00     0.063 A 
ATOM     26  C   UNL d   1       6.873  -1.015  -4.904  0.00  0.00     0.021 A 
ATOM     27  C   UNL d   1       5.554  -0.787  -4.502  0.00  0.00     0.049 A 
BRANCH  25  28
ATOM     28  C   UNL d   1       9.089  -2.177  -4.561  0.00  0.00     0.418 C 
ATOM     29  F   UNL d   1       9.734  -3.015  -3.703  0.00  0.00    -0.166 F 
ATOM     30  F   UNL d   1       9.161  -2.772  -5.784  0.00  0.00    -0.166 F 
ATOM     31  F   UNL d   1       9.865  -1.062  -4.645  0.00  0.00    -0.166 F 
ENDBRANCH  25  28
ENDBRANCH   3  21
TORSDOF 6
