REMARK  6 active torsions:
REMARK  status: ('A' for Active; 'I' for Inactive)
REMARK    1  A    between atoms: C_4  and  N_1 
REMARK    2  A    between atoms: C_5  and  C_2 
REMARK    3  A    between atoms: O_19  and  C_5 
REMARK    4  A    between atoms: N_9  and  C_6 
REMARK    5  A    between atoms: C_8  and  C_18 
REMARK    6  A    between atoms: C_18  and  N_9 
ROOT
ATOM      1  C   UNL d   1       0.211  -1.843   3.249  0.00  0.00     0.061 A 
ATOM      2  C   UNL d   1       0.836  -0.968   2.335  0.00  0.00     0.056 A 
ATOM      3  C   UNL d   1       0.407  -0.914   1.006  0.00  0.00     0.104 A 
ATOM      4  C   UNL d   1      -0.883  -2.646   2.835  0.00  0.00     0.025 A 
ATOM      5  C   UNL d   1      -0.618  -1.750   0.567  0.00  0.00     0.038 A 
ATOM      6  C   UNL d   1      -1.240  -2.613   1.471  0.00  0.00     0.027 A 
ENDROOT
BRANCH   4   7
ATOM      7  N   UNL d   1      -1.536  -3.519   3.749  0.00  0.00    -0.286 NA
ATOM      8  H   UNL d   1      -0.983  -4.381   3.844  0.00  0.00     0.128 HD
BRANCH   7   9
ATOM      9  C   UNL d   1      -2.913  -3.925   3.378  0.00  0.00     0.157 C 
BRANCH   9  10
ATOM     10  C   UNL d   1      -3.758  -4.502   4.460  0.00  0.00     0.065 A 
ATOM     11  O   UNL d   1      -3.135  -5.108   5.511  0.00  0.00    -0.326 OA
ATOM     12  C   UNL d   1      -4.113  -5.566   6.335  0.00  0.00     0.142 A 
ATOM     13  C   UNL d   1      -5.357  -5.280   5.821  0.00  0.00     0.027 A 
ATOM     14  C   UNL d   1      -5.129  -4.592   4.608  0.00  0.00     0.036 A 
ENDBRANCH   9  10
ENDBRANCH   7   9
ENDBRANCH   4   7
BRANCH   1  15
ATOM     15  C   UNL d   1       0.769  -1.839   4.641  0.00  0.00     0.178 C 
ATOM     16  O   UNL d   1       1.812  -1.266   4.921  0.00  0.00    -0.646 OA
BRANCH  15  17
ATOM     17  O   UNL d   1       0.043  -2.513   5.551  0.00  0.00    -0.773 OA
ATOM     18  H   UNL d   1      -0.793  -2.875   5.172  0.00  0.00     0.167 HD
ENDBRANCH  15  17
ENDBRANCH   1  15
BRANCH   3  19
ATOM     19  N   UNL d   1       1.032   0.018   0.060  0.00  0.00    -0.116 N 
ATOM     20  O   UNL d   1       1.923   0.764   0.488  0.00  0.00    -0.532 OA
ATOM     21  O   UNL d   1       0.625   0.008  -1.110  0.00  0.00    -0.532 OA
ENDBRANCH   3  19
TORSDOF 6
