REMARK  1 active torsions:
REMARK  status: ('A' for Active; 'I' for Inactive)
REMARK    1  A    between atoms: C_4  and  C_2 
ROOT
ATOM      1  S   UNL d   1      -1.044  -0.002  -0.023  0.00  0.00    -0.088 SA
ATOM      2  C   UNL d   1       0.128   1.250  -0.056  0.00  0.00     0.022 A 
ATOM      3  C   UNL d   1       0.138  -1.244   0.032  0.00  0.00     0.022 A 
ATOM      4  C   UNL d   1      -0.234  -2.641   0.087  0.00  0.00     0.021 A 
ATOM      5  C   UNL d   1       1.410  -0.704   0.028  0.00  0.00     0.021 A 
ATOM      6  C   UNL d   1       1.404   0.721  -0.025  0.00  0.00     0.021 A 
ATOM      7  S   UNL d   1       0.787  -3.813   0.824  0.00  0.00    -0.101 SA
ATOM      8  C   UNL d   1      -1.388  -3.234  -0.396  0.00  0.00     0.021 A 
ATOM      9  C   UNL d   1      -0.316  -5.080   0.516  0.00  0.00     0.050 A 
ATOM     10  C   UNL d   1      -1.436  -4.638  -0.148  0.00  0.00     0.008 A 
ENDROOT
BRANCH   2  11
ATOM     11  C   UNL d   1      -0.255   2.643  -0.121  0.00  0.00     0.021 A 
ATOM     12  S   UNL d   1       0.769   3.821  -0.844  0.00  0.00    -0.101 SA
ATOM     13  C   UNL d   1      -0.350   5.080  -0.562  0.00  0.00     0.050 A 
ATOM     14  C   UNL d   1      -1.478   4.630   0.084  0.00  0.00     0.008 A 
ATOM     15  C   UNL d   1      -1.422   3.228   0.339  0.00  0.00     0.021 A 
ENDBRANCH   2  11
TORSDOF 1
