REMARK  2 active torsions:
REMARK  status: ('A' for Active; 'I' for Inactive)
REMARK    1  A    between atoms: C_7  and  C_1 
REMARK    2  A    between atoms: O_9  and  C_7 
ROOT
ATOM      1  C   UNL d   1      -0.029  -1.234  -0.040  0.00  0.00     0.061 A 
ATOM      2  C   UNL d   1      -1.276  -0.545  -0.039  0.00  0.00    -0.008 A 
ATOM      3  C   UNL d   1       1.225  -0.559   0.011  0.00  0.00    -0.008 A 
ATOM      4  C   UNL d   1      -0.008   1.565   0.022  0.00  0.00    -0.040 A 
ATOM      5  C   UNL d   1      -1.260   0.868   0.009  0.00  0.00    -0.018 A 
ATOM      6  C   UNL d   1       1.237   0.858   0.028  0.00  0.00    -0.018 A 
ATOM      7  C   UNL d   1      -2.542  -1.197  -0.097  0.00  0.00     0.013 A 
ATOM      8  C   UNL d   1       2.471  -1.245   0.048  0.00  0.00     0.013 A 
ATOM      9  C   UNL d   1      -0.051   3.085   0.018  0.00  0.00     0.050 C 
ATOM     10  C   UNL d   1      -2.508   1.544   0.027  0.00  0.00     0.013 A 
ATOM     11  C   UNL d   1       2.505   1.501   0.040  0.00  0.00     0.013 A 
ATOM     12  C   UNL d   1       3.695  -0.580   0.069  0.00  0.00     0.001 A 
ATOM     13  C   UNL d   1      -3.749  -0.501  -0.070  0.00  0.00     0.001 A 
ATOM     14  C   UNL d   1      -3.732   0.877  -0.004  0.00  0.00     0.001 A 
ATOM     15  C   UNL d   1       3.711   0.800   0.056  0.00  0.00     0.001 A 
ENDROOT
BRANCH   1  16
ATOM     16  C   UNL d   1      -0.021  -2.712  -0.204  0.00  0.00     0.294 C 
ATOM     17  O   UNL d   1       0.512  -3.285  -1.141  0.00  0.00    -0.259 OA
BRANCH  16  18
ATOM     18  O   UNL d   1      -0.670  -3.304   0.830  0.00  0.00    -0.322 OA
ATOM     19  C   UNL d   1      -0.838  -4.717   0.686  0.00  0.00     0.213 C 
ENDBRANCH  16  18
ENDBRANCH   1  16
TORSDOF 2
