REMARK  4 active torsions:
REMARK  status: ('A' for Active; 'I' for Inactive)
REMARK    1  A    between atoms: C_10  and  C_1 
REMARK    2  A    between atoms: N_13  and  C_2 
REMARK    3  A    between atoms: C_6  and  C_9 
REMARK    4  A    between atoms: O_18  and  C_10 
ROOT
ATOM      1  C   UNL d   1       2.629   0.066  -0.011  0.00  0.00     0.102 A 
ATOM      2  C   UNL d   1       1.685   1.070   0.061  0.00  0.00     0.058 A 
ATOM      3  S   UNL d   1       1.886  -1.473  -0.136  0.00  0.00    -0.079 SA
ATOM      4  C   UNL d   1       0.340   0.572   0.050  0.00  0.00     0.072 A 
ATOM      5  C   UNL d   1       0.304  -0.818  -0.038  0.00  0.00     0.035 A 
ATOM      6  N   UNL d   1      -0.786   1.340   0.105  0.00  0.00    -0.363 N 
ATOM      7  HN  UNL d   1      -0.748   2.358   0.158  1.00  0.00     0.165 HD
ATOM      8  C   UNL d   1      -2.088  -0.717   0.019  0.00  0.00     0.064 A 
ATOM      9  C   UNL d   1      -0.926  -1.491  -0.046  0.00  0.00     0.038 A 
ATOM     10  C   UNL d   1      -1.954   0.662   0.084  0.00  0.00     0.104 A 
ENDROOT
BRANCH   1  11
ATOM     11  C   UNL d   1       4.075   0.143   0.030  0.00  0.00     0.185 C 
ATOM     12  O   UNL d   1       4.861  -0.700  -0.380  0.00  0.00    -0.646 OA
BRANCH  11  13
ATOM     13  O   UNL d   1       4.506   1.296   0.609  0.00  0.00    -0.772 OA
ATOM     14  H   UNL d   1       3.753   1.835   0.943  0.00  0.00     0.167 HD
ENDBRANCH  11  13
ENDBRANCH   1  11
BRANCH   2  15
ATOM     15  N   UNL d   1       1.983   2.404   0.142  0.00  0.00    -0.300 NA
ATOM     16  H   UNL d   1       2.626   2.784  -0.557  0.00  0.00     0.124 HD
ATOM     17  H   UNL d   1       1.151   3.007   0.148  0.00  0.00     0.124 HD
ENDBRANCH   2  15
BRANCH   8  18
ATOM     18  C   UNL d   1      -3.456  -1.328   0.013  0.00  0.00     0.418 C 
ATOM     19  F   UNL d   1      -3.443  -2.689   0.005  0.00  0.00    -0.166 F 
ATOM     20  F   UNL d   1      -4.191  -0.967   1.101  0.00  0.00    -0.166 F 
ATOM     21  F   UNL d   1      -4.186  -0.953  -1.072  0.00  0.00    -0.166 F 
ENDBRANCH   8  18
TORSDOF 4
