REMARK  2 active torsions:
REMARK  status: ('A' for Active; 'I' for Inactive)
REMARK       I    between atoms: C_7  and  N_1 
REMARK    1  A    between atoms: C_8  and  C_5 
REMARK    2  A    between atoms: C_9  and  C_7 
ROOT
ATOM      1  N   UNL d   1      -3.035   1.144  -0.100  0.00  0.00    -0.246 N 
ATOM      2  N   UNL d   1      -1.722   1.550  -0.238  0.00  0.00    -0.298 N 
ATOM      3  HN  UNL d   1      -1.389   2.472  -0.520  1.00  0.00     0.187 HD
ATOM      4  C   UNL d   1      -0.999   0.517   0.067  0.00  0.00     0.043 C 
ATOM      5  C   UNL d   1      -3.166  -0.298   0.180  0.00  0.00     0.156 C 
ATOM      6  C   UNL d   1      -1.747  -0.665   0.624  0.00  0.00     0.068 C 
ATOM      7  C   UNL d   1      -4.145   1.999  -0.088  0.00  0.00     0.279 C 
ATOM      8  C   UNL d   1       0.460   0.444  -0.006  0.00  0.00    -0.005 A 
ATOM      9  C   UNL d   1      -1.139  -2.031   0.330  0.00  0.00     0.018 C 
ATOM     10  O   UNL d   1      -5.263   1.534   0.158  0.00  0.00    -0.265 OA
ATOM     11  C   UNL d   1       1.024  -0.821  -0.216  0.00  0.00    -0.046 A 
ATOM     12  C   UNL d   1       0.129  -1.994  -0.529  0.00  0.00     0.040 C 
ATOM     13  C   UNL d   1       1.249   1.582   0.152  0.00  0.00     0.014 A 
ATOM     14  C   UNL d   1       2.418  -0.935  -0.240  0.00  0.00     0.008 A 
ATOM     15  C   UNL d   1       2.636   1.452   0.136  0.00  0.00     0.001 A 
ATOM     16  C   UNL d   1       3.219   0.196  -0.050  0.00  0.00     0.001 A 
ENDROOT
BRANCH   5  17
ATOM     17  C   UNL d   1      -3.760  -1.032  -1.013  0.00  0.00    -0.011 A 
ATOM     18  C   UNL d   1      -4.930  -1.808  -0.898  0.00  0.00     0.042 A 
ATOM     19 CL   UNL d   1      -5.683  -2.139   0.624  0.00  0.00    -0.084 Cl
ATOM     20  C   UNL d   1      -5.539  -2.362  -2.030  0.00  0.00     0.024 A 
ATOM     21  C   UNL d   1      -4.980  -2.177  -3.292  0.00  0.00     0.002 A 
ATOM     22  C   UNL d   1      -3.802  -1.449  -3.423  0.00  0.00     0.001 A 
ATOM     23  C   UNL d   1      -3.199  -0.880  -2.297  0.00  0.00     0.011 A 
ENDBRANCH   5  17
BRANCH   7  24
ATOM     24  C   UNL d   1      -3.936   3.422  -0.336  0.00  0.00     0.074 A 
ATOM     25  S   UNL d   1      -5.042   4.536   0.373  0.00  0.00    -0.097 SA
ATOM     26  C   UNL d   1      -4.230   5.881  -0.293  0.00  0.00     0.050 A 
ATOM     27  C   UNL d   1      -3.154   5.506  -1.062  0.00  0.00     0.009 A 
ATOM     28  C   UNL d   1      -2.988   4.088  -1.093  0.00  0.00     0.025 A 
ENDBRANCH   7  24
TORSDOF 2
