REMARK  5 active torsions:
REMARK  status: ('A' for Active; 'I' for Inactive)
REMARK    1  A    between atoms: C_10  and  C_2 
REMARK    2  A    between atoms: C_13  and  C_12 
REMARK    3  A    between atoms: C_14  and  C_13 
REMARK    4  A    between atoms: O_24  and  C_14 
REMARK    5  A    between atoms: C_25  and  O_24 
ROOT
ATOM      1  N   UNL d   1      -0.524  -0.772   0.060  0.00  0.00    -0.214 N 
ATOM      2  C   UNL d   1      -1.882  -1.050  -0.028  0.00  0.00     0.154 A 
ATOM      3  C   UNL d   1      -0.451   0.601   0.011  0.00  0.00     0.182 A 
ATOM      4  N   UNL d   1      -2.543   0.097  -0.104  0.00  0.00    -0.281 N 
ATOM      5  HN  UNL d   1      -3.556   0.194  -0.169  1.00  0.00     0.188 HD
ATOM      6  N   UNL d   1       0.493  -1.676   0.263  0.00  0.00    -0.297 N 
ATOM      7  HN  UNL d   1       0.306  -2.635   0.555  1.00  0.00     0.187 HD
ATOM      8  N   UNL d   1      -1.640   1.134  -0.082  0.00  0.00    -0.277 N 
ATOM      9  HN  UNL d   1      -1.857   2.129  -0.128  1.00  0.00     0.189 HD
ATOM     10  S   UNL d   1       1.060   1.418   0.140  0.00  0.00    -0.085 SA
ATOM     11  C   UNL d   1       1.710  -1.247   0.062  0.00  0.00     0.023 C 
ATOM     12  C   UNL d   1       2.091   0.101  -0.532  0.00  0.00     0.137 C 
ENDROOT
BRANCH   2  13
ATOM     13  C   UNL d   1      -2.504  -2.380  -0.017  0.00  0.00     0.014 A 
ATOM     14  C   UNL d   1      -3.826  -2.510   0.438  0.00  0.00     0.039 A 
ATOM     15  C   UNL d   1      -4.452  -3.758   0.458  0.00  0.00     0.036 A 
ATOM     16 CL   UNL d   1      -6.070  -3.892   1.029  0.00  0.00    -0.084 Cl
ATOM     17  C   UNL d   1      -3.782  -4.896   0.021  0.00  0.00     0.047 A 
ATOM     18  C   UNL d   1      -2.478  -4.772  -0.446  0.00  0.00     0.036 A 
ATOM     19  C   UNL d   1      -1.842  -3.529  -0.474  0.00  0.00     0.039 A 
ATOM     20 CL   UNL d   1      -1.635  -6.167  -1.000  0.00  0.00    -0.084 Cl
ENDBRANCH   2  13
BRANCH  11  21
ATOM     21  C   UNL d   1       2.837  -2.212   0.358  0.00  0.00     0.165 C 
BRANCH  21  22
ATOM     22  C   UNL d   1       3.529  -2.691  -0.882  0.00  0.00     0.264 C 
ATOM     23  O   UNL d   1       3.315  -2.261  -2.006  0.00  0.00    -0.265 OA
BRANCH  22  24
ATOM     24  O   UNL d   1       4.403  -3.682  -0.561  0.00  0.00    -0.322 OA
BRANCH  24  25
ATOM     25  C   UNL d   1       4.930  -4.433  -1.666  0.00  0.00     0.174 C 
ATOM     26  C   UNL d   1       3.994  -5.596  -1.940  0.00  0.00     0.034 C 
ENDBRANCH  24  25
ENDBRANCH  22  24
ENDBRANCH  21  22
ENDBRANCH  11  21
TORSDOF 5
