REMARK  4 active torsions:
REMARK  status: ('A' for Active; 'I' for Inactive)
REMARK    1  A    between atoms: C_19  and  N_3 
REMARK    2  A    between atoms: N_11  and  N_7 
REMARK    3  A    between atoms: C_14  and  C_13 
REMARK    4  A    between atoms: C_21  and  C_19 
ROOT
ATOM      1  C   UNL d   1      -0.023  -0.637  -0.067  0.00  0.00     0.133 A 
ATOM      2  C   UNL d   1      -0.192   0.683  -0.091  0.00  0.00     0.122 A 
ATOM      3  N   UNL d   1      -1.216  -1.341  -0.054  0.00  0.00    -0.314 N 
ATOM      4  N   UNL d   1       1.183  -1.263  -0.012  0.00  0.00    -0.329 N 
ATOM      5  HN  UNL d   1       1.253  -2.280  -0.006  1.00  0.00     0.168 HD
ATOM      6  C   UNL d   1       0.975   1.570  -0.030  0.00  0.00     0.288 A 
ATOM      7  N   UNL d   1       2.205   0.882  -0.018  0.00  0.00    -0.207 N 
ATOM      8  C   UNL d   1      -2.357  -0.531  -0.072  0.00  0.00     0.147 A 
ATOM      9  S   UNL d   1      -1.833   1.172  -0.117  0.00  0.00    -0.051 SA
ATOM     10  C   UNL d   1       2.244  -0.509   0.034  0.00  0.00     0.104 A 
ATOM     11  S   UNL d   1      -3.961  -0.979  -0.040  0.00  0.00    -0.052 SA
ATOM     12  O   UNL d   1       0.847   2.794   0.004  0.00  0.00    -0.265 OA
ATOM     13  C   UNL d   1       3.551  -1.255   0.157  0.00  0.00     0.091 C 
ENDROOT
BRANCH   7  14
ATOM     14  N   UNL d   1       3.302   1.707   0.174  0.00  0.00    -0.300 N 
ATOM     15  C   UNL d   1       4.341   1.590  -0.589  0.00  0.00     0.120 C 
ATOM     16  HN  UNL d   1       3.291   2.406   0.917  1.00  0.00     0.186 HD
BRANCH  15  17
ATOM     17  C   UNL d   1       5.462   2.557  -0.476  0.00  0.00     0.003 A 
ATOM     18  C   UNL d   1       6.743   2.272  -0.966  0.00  0.00     0.047 A 
ATOM     19  C   UNL d   1       7.747   3.248  -0.920  0.00  0.00     0.048 A 
ATOM     20 CL   UNL d   1       7.163   0.727  -1.614  0.00  0.00    -0.083 Cl
ATOM     21  C   UNL d   1       7.469   4.507  -0.390  0.00  0.00     0.035 A 
ATOM     22  C   UNL d   1       6.205   4.796   0.116  0.00  0.00     0.025 A 
ATOM     23 CL   UNL d   1       8.694   5.716  -0.369  0.00  0.00    -0.084 Cl
ATOM     24  C   UNL d   1       5.204   3.821   0.079  0.00  0.00     0.016 A 
ENDBRANCH  15  17
ENDBRANCH   7  14
BRANCH   3  25
ATOM     25  C   UNL d   1      -1.236  -2.798   0.058  0.00  0.00     0.158 C 
BRANCH  25  26
ATOM     26  C   UNL d   1      -1.270  -3.504  -1.274  0.00  0.00    -0.017 C 
ATOM     27  C   UNL d   1      -1.258  -2.979  -2.504  0.00  0.00     0.008 C 
ENDBRANCH  25  26
ENDBRANCH   3  25
TORSDOF 4
