REMARK  5 active torsions:
REMARK  status: ('A' for Active; 'I' for Inactive)
REMARK    1  A    between atoms: C_7  and  C_1 
REMARK    2  A    between atoms: N_19  and  C_2 
REMARK    3  A    between atoms: S_6  and  C_12 
REMARK    4  A    between atoms: N_18  and  S_6 
REMARK       I    between atoms: N_11  and  C_7 
REMARK    5  A    between atoms: C_22  and  N_11 
ROOT
ATOM      1  C   UNL d   1       3.909   0.151   0.109  0.00  0.00     0.265 C 
ATOM      2  N   UNL d   1       4.560  -1.073   0.197  0.00  0.00    -0.322 N 
ATOM      3  O   UNL d   1       4.502   1.225   0.007  0.00  0.00    -0.267 OA
ATOM      4  H   UNL d   1       3.965  -1.893   0.190  0.00  0.00     0.169 HD
ENDROOT
BRANCH   1   5
ATOM      5  C   UNL d   1       2.445   0.099   0.125  0.00  0.00     0.102 A 
ATOM      6  C   UNL d   1       1.574   1.177   0.040  0.00  0.00     0.062 A 
ATOM      7  C   UNL d   1       0.178   0.803   0.058  0.00  0.00     0.032 A 
ATOM      8  C   UNL d   1      -1.058   1.512  -0.005  0.00  0.00    -0.045 A 
ATOM      9  C   UNL d   1       0.084  -0.585   0.161  0.00  0.00     0.088 A 
ATOM     10  C   UNL d   1      -2.238   0.743  -0.000  0.00  0.00     0.032 A 
ATOM     11  C   UNL d   1      -1.241   3.004  -0.094  0.00  0.00     0.049 C 
ATOM     12  C   UNL d   1      -2.183  -0.640   0.085  0.00  0.00     0.006 A 
ATOM     13  N   UNL d   1      -1.037  -1.335   0.184  0.00  0.00    -0.354 N 
ATOM     14  C   UNL d   1      -3.459  -1.431   0.062  0.00  0.00     0.068 C 
ATOM     15  HN  UNL d   1      -1.017  -2.351   0.271  1.00  0.00     0.166 HD
ATOM     16  S   UNL d   1       1.591  -1.370   0.261  0.00  0.00    -0.064 SA
BRANCH   6  17
ATOM     17  N   UNL d   1       2.043   2.443  -0.057  0.00  0.00    -0.397 N 
ATOM     18  H   UNL d   1       3.054   2.599  -0.151  0.00  0.00     0.156 HD
ATOM     19  H   UNL d   1       1.500   3.233  -0.373  0.00  0.00     0.156 HD
ENDBRANCH   6  17
ENDBRANCH   1   5
BRANCH   2  20
ATOM     20  C   UNL d   1       5.949  -1.294   0.329  0.00  0.00     0.035 A 
ATOM     21  C   UNL d   1       6.887  -0.266   0.471  0.00  0.00     0.031 A 
ATOM     22  C   UNL d   1       8.238  -0.551   0.681  0.00  0.00     0.027 A 
ATOM     23  C   UNL d   1       8.659  -1.877   0.754  0.00  0.00     0.074 A 
ATOM     24  C   UNL d   1       7.749  -2.918   0.566  0.00  0.00     0.027 A 
ATOM     25  C   UNL d   1       6.395  -2.624   0.361  0.00  0.00     0.031 A 
BRANCH  23  26
ATOM     26  S   UNL d   1      10.357  -2.224   1.098  0.00  0.00     0.239 S 
ATOM     27  O   UNL d   1      10.661  -3.573   0.679  0.00  0.00    -0.206 OA
ATOM     28  O   UNL d   1      11.165  -1.092   0.720  0.00  0.00    -0.206 OA
BRANCH  26  29
ATOM     29  N   UNL d   1      10.349  -2.251   2.777  0.00  0.00    -0.225 NA
ATOM     30  H   UNL d   1      10.614  -3.175   3.115  0.00  0.00     0.136 HD
ATOM     31  H   UNL d   1      10.919  -1.490   3.144  0.00  0.00     0.136 HD
ENDBRANCH  26  29
ENDBRANCH  23  26
ENDBRANCH   2  20
TORSDOF 5
