REMARK  2 active torsions:
REMARK  status: ('A' for Active; 'I' for Inactive)
REMARK    1  A    between atoms: C_5  and  N_1 
REMARK    2  A    between atoms: C_9  and  C_5 
ROOT
ATOM      1  N   UNL d   1       0.513  -0.974  -0.065  0.00  0.00    -0.298 N 
ATOM      2  C   UNL d   1       0.607  -0.202  -1.201  0.00  0.00     0.144 A 
ATOM      3  C   UNL d   1       0.535  -0.305   1.146  0.00  0.00     0.235 A 
ATOM      4  S   UNL d   1       0.827   1.487  -0.777  0.00  0.00    -0.091 SA
ATOM      5  S   UNL d   1       0.513  -0.677  -2.797  0.00  0.00    -0.052 SA
ATOM      6  C   UNL d   1       0.636   1.186   0.983  0.00  0.00     0.185 A 
ATOM      7  O   UNL d   1       0.436  -0.835   2.250  0.00  0.00    -0.272 OA
ENDROOT
BRANCH   1   8
ATOM      8  C   UNL d   1       0.341  -2.427  -0.056  0.00  0.00     0.172 C 
BRANCH   8   9
ATOM      9  C   UNL d   1       1.649  -3.180   0.064  0.00  0.00    -0.040 A 
ATOM     10  C   UNL d   1       2.147  -3.542   1.325  0.00  0.00     0.009 A 
ATOM     11  C   UNL d   1       3.348  -4.248   1.440  0.00  0.00     0.001 A 
ATOM     12  C   UNL d   1       4.069  -4.591   0.299  0.00  0.00     0.000 A 
ATOM     13  C   UNL d   1       3.588  -4.234  -0.959  0.00  0.00     0.001 A 
ATOM     14  C   UNL d   1       2.384  -3.535  -1.075  0.00  0.00     0.009 A 
ENDBRANCH   8   9
ENDBRANCH   1   8
TORSDOF 2
