REMARK  5 active torsions:
REMARK  status: ('A' for Active; 'I' for Inactive)
REMARK    1  A    between atoms: C_6  and  C_1 
REMARK    2  A    between atoms: C_18  and  C_5 
REMARK    3  A    between atoms: C_8  and  C_12 
REMARK       I    between atoms: C_10  and  N_13 
REMARK    4  A    between atoms: C_12  and  C_10 
REMARK    5  A    between atoms: N_13  and  C_18 
ROOT
ATOM      1  C   UNL d   1       4.802   1.391  -0.600  0.00  0.00     0.222 C 
ATOM      2  N   UNL d   1       3.518   1.019  -0.927  0.00  0.00    -0.355 N 
ATOM      3  O   UNL d   1       5.748   0.605  -0.656  0.00  0.00    -0.273 OA
ATOM      4  H   UNL d   1       2.737   1.625  -0.716  0.00  0.00     0.162 HD
ENDROOT
BRANCH   2   5
ATOM      5  C   UNL d   1       3.213  -0.296  -1.449  0.00  0.00     0.180 C 
BRANCH   5   6
ATOM      6  C   UNL d   1       2.794  -1.211  -0.342  0.00  0.00     0.034 A 
ATOM      7  N   UNL d   1       1.464  -1.231   0.077  0.00  0.00    -0.351 N 
ATOM      8  C   UNL d   1       1.286  -2.148   1.014  0.00  0.00     0.091 A 
ATOM      9  HN  UNL d   1       0.731  -0.623  -0.287  1.00  0.00     0.166 HD
ATOM     10  S   UNL d   1       2.719  -3.004   1.458  0.00  0.00    -0.081 SA
ATOM     11  C   UNL d   1       3.614  -2.110   0.313  0.00  0.00     0.078 A 
BRANCH   8  12
ATOM     12  C   UNL d   1       0.003  -2.439   1.623  0.00  0.00     0.038 A 
ATOM     13  S   UNL d   1      -1.432  -1.635   1.116  0.00  0.00    -0.099 SA
ATOM     14  C   UNL d   1      -2.406  -2.503   2.221  0.00  0.00     0.050 A 
ATOM     15  C   UNL d   1      -1.670  -3.386   2.974  0.00  0.00     0.008 A 
ATOM     16  C   UNL d   1      -0.287  -3.348   2.629  0.00  0.00     0.022 A 
ENDBRANCH   8  12
ENDBRANCH   5   6
ENDBRANCH   2   5
BRANCH   1  17
ATOM     17  C   UNL d   1       4.969   2.863  -0.202  0.00  0.00     0.142 C 
BRANCH  17  18
ATOM     18  C   UNL d   1       6.038   3.543  -1.046  0.00  0.00    -0.038 C 
ATOM     19  C   UNL d   1       5.877   3.690  -2.450  0.00  0.00    -0.019 A 
ATOM     20  C   UNL d   1       7.019   3.986  -3.238  0.00  0.00    -0.025 A 
ATOM     21  C   UNL d   1       4.647   3.519  -3.117  0.00  0.00     0.013 A 
ATOM     22  C   UNL d   1       6.920   3.952  -4.637  0.00  0.00     0.012 A 
ATOM     23  C   UNL d   1       8.238   4.287  -2.610  0.00  0.00     0.012 C 
ATOM     24  C   UNL d   1       5.707   3.690  -5.268  0.00  0.00     0.001 A 
ATOM     25  C   UNL d   1       4.557   3.514  -4.506  0.00  0.00     0.001 A 
ATOM     26  C   UNL d   1       8.350   4.268  -1.222  0.00  0.00     0.001 C 
ATOM     27  C   UNL d   1       7.263   3.875  -0.444  0.00  0.00     0.008 C 
ENDBRANCH  17  18
ENDBRANCH   1  17
TORSDOF 5
