REMARK  5 active torsions:
REMARK  status: ('A' for Active; 'I' for Inactive)
REMARK    1  A    between atoms: C_2  and  C_1 
REMARK       I    between atoms: N_3  and  C_1 
REMARK    2  A    between atoms: C_7  and  N_3 
REMARK    3  A    between atoms: O_12  and  C_5 
REMARK    4  A    between atoms: O_11  and  C_6 
REMARK    5  A    between atoms: C_18  and  C_8 
ROOT
ATOM      1  C   UNL d   1       0.979   0.234  -0.296  0.00  0.00     0.261 C 
ATOM      2  N   UNL d   1       0.360   0.837   0.797  0.00  0.00    -0.323 N 
ATOM      3  O   UNL d   1       1.983   0.660  -0.863  0.00  0.00    -0.267 OA
ATOM      4  H   UNL d   1      -0.445   0.364   1.183  0.00  0.00     0.169 HD
ENDROOT
BRANCH   1   5
ATOM      5  C   UNL d   1       0.374  -1.033  -0.825  0.00  0.00     0.098 A 
ATOM      6  C   UNL d   1      -1.014  -1.155  -1.046  0.00  0.00     0.086 A 
ATOM      7  C   UNL d   1      -1.511  -2.295  -1.701  0.00  0.00     0.038 A 
ATOM      8  C   UNL d   1      -0.653  -3.295  -2.152  0.00  0.00     0.005 A 
ATOM      9  C   UNL d   1       0.712  -3.189  -1.923  0.00  0.00     0.038 A 
ATOM     10  C   UNL d   1       1.237  -2.066  -1.271  0.00  0.00     0.086 A 
BRANCH   6  11
ATOM     11  O   UNL d   1      -1.839  -0.155  -0.594  0.00  0.00    -0.355 OA
ATOM     12  C   UNL d   1      -3.074  -0.004  -1.294  0.00  0.00     0.210 C 
ENDBRANCH   6  11
BRANCH  10  13
ATOM     13  O   UNL d   1       2.577  -1.971  -0.982  0.00  0.00    -0.355 OA
ATOM     14  C   UNL d   1       3.465  -2.617  -1.889  0.00  0.00     0.210 C 
ENDBRANCH  10  13
ENDBRANCH   1   5
BRANCH   2  15
ATOM     15  C   UNL d   1       0.791   2.026   1.446  0.00  0.00     0.035 A 
ATOM     16  C   UNL d   1       1.782   2.866   0.934  0.00  0.00     0.030 A 
ATOM     17  C   UNL d   1       2.230   3.985   1.648  0.00  0.00     0.009 A 
ATOM     18  C   UNL d   1       1.685   4.302   2.893  0.00  0.00    -0.058 A 
ATOM     19  C   UNL d   1       0.652   3.493   3.391  0.00  0.00     0.009 A 
ATOM     20  C   UNL d   1       0.201   2.377   2.667  0.00  0.00     0.030 A 
BRANCH  18  21
ATOM     21  C   UNL d   1       2.236   5.462   3.686  0.00  0.00     0.034 C 
ATOM     22  C   UNL d   1       3.392   5.035   4.583  0.00  0.00     0.010 C 
ENDBRANCH  18  21
ENDBRANCH   2  15
TORSDOF 5
