REMARK  1 active torsions:
REMARK  status: ('A' for Active; 'I' for Inactive)
REMARK    1  A    between atoms: N_14  and  C_4 
ROOT
ATOM      1  C   UNL d   1      -1.495  -0.026  -0.002  0.00  0.00     0.089 A 
ATOM      2  N   UNL d   1      -2.850  -0.056   0.007  0.00  0.00    -0.187 N 
ATOM      3  HN  UNL d   1      -3.340  -0.950   0.037  1.00  0.00     0.184 HD
ATOM      4  C   UNL d   1      -3.544   1.088  -0.024  0.00  0.00     0.695 A 
ATOM      5  C   UNL d   1      -0.800   1.187  -0.030  0.00  0.00     0.087 A 
ATOM      6  N   UNL d   1      -1.529   2.315  -0.065  0.00  0.00    -0.283 N 
ATOM      7  HN  UNL d   1      -1.058   3.219  -0.090  1.00  0.00     0.187 HD
ATOM      8  N   UNL d   1      -2.903   2.265  -0.067  0.00  0.00    -0.132 N 
ATOM      9  HN  UNL d   1      -3.440   3.132  -0.101  1.00  0.00     0.205 HD
ATOM     10  C   UNL d   1      -0.771  -1.232   0.015  0.00  0.00     0.005 A 
ATOM     11  C   UNL d   1       0.608   1.213  -0.023  0.00  0.00     0.005 A 
ATOM     12  C   UNL d   1       0.647  -1.239   0.008  0.00  0.00    -0.012 A 
ATOM     13  C   UNL d   1       1.350   0.007  -0.002  0.00  0.00    -0.012 A 
ATOM     14  C   UNL d   1      -1.459  -2.469   0.034  0.00  0.00     0.014 A 
ATOM     15  C   UNL d   1       1.303   2.446  -0.034  0.00  0.00     0.014 A 
ATOM     16  C   UNL d   1       1.294  -2.504   0.010  0.00  0.00     0.013 A 
ATOM     17  C   UNL d   1       2.767   0.112   0.009  0.00  0.00     0.013 A 
ATOM     18  C   UNL d   1       2.695   2.512  -0.023  0.00  0.00     0.001 A 
ATOM     19  C   UNL d   1       3.429   1.341  -0.001  0.00  0.00     0.001 A 
ATOM     20  C   UNL d   1       0.589  -3.709   0.021  0.00  0.00     0.001 A 
ATOM     21  C   UNL d   1      -0.792  -3.691   0.036  0.00  0.00     0.001 A 
ENDROOT
BRANCH   4  22
ATOM     22  N   UNL d   1      -4.917   1.035   0.003  0.00  0.00    -0.216 N 
ATOM     23  C   UNL d   1      -5.724   2.237  -0.137  0.00  0.00     0.141 C 
ATOM     24  C   UNL d   1      -6.673   2.348   1.058  0.00  0.00     0.020 C 
ATOM     25  C   UNL d   1      -7.478   1.064   1.261  0.00  0.00     0.003 C 
ATOM     26  C   UNL d   1      -6.564  -0.160   1.332  0.00  0.00     0.020 C 
ATOM     27  C   UNL d   1      -5.624  -0.230   0.127  0.00  0.00     0.141 C 
ENDBRANCH   4  22
TORSDOF 1
