REMARK  5 active torsions:
REMARK  status: ('A' for Active; 'I' for Inactive)
REMARK    1  A    between atoms: N_3  and  S_1 
REMARK    2  A    between atoms: C_6  and  S_1 
REMARK    3  A    between atoms: C_17  and  N_3 
REMARK    4  A    between atoms: N_7  and  C_16 
REMARK    5  A    between atoms: C_16  and  C_18 
ROOT
ATOM      1  C   UNL d   1       0.203   0.179  -2.639  0.00  0.00     0.022 A 
ATOM      2  C   UNL d   1       1.175   1.560  -4.903  0.00  0.00    -0.030 A 
ATOM      3  C   UNL d   1       1.572   0.356  -2.813  0.00  0.00     0.025 A 
ATOM      4  C   UNL d   1      -0.684   0.624  -3.616  0.00  0.00     0.025 A 
ATOM      5  C   UNL d   1      -0.197   1.292  -4.754  0.00  0.00     0.011 A 
ATOM      6  C   UNL d   1       2.053   1.043  -3.935  0.00  0.00     0.011 A 
ENDROOT
BRANCH   1   7
ATOM      7  N   UNL d   1      -0.289  -0.410  -1.435  0.00  0.00    -0.181 NA
ATOM      8  H   UNL d   1       0.140  -1.296  -1.167  0.00  0.00     0.146 HD
BRANCH   7   9
ATOM      9  S   UNL d   1      -0.349   0.593  -0.061  0.00  0.00     0.245 S 
ATOM     10  O   UNL d   1       0.512   1.741  -0.231  0.00  0.00    -0.206 OA
ATOM     11  O   UNL d   1      -0.188  -0.294   1.075  0.00  0.00    -0.206 OA
BRANCH   9  12
ATOM     12  C   UNL d   1      -2.036   1.159  -0.048  0.00  0.00     0.074 A 
ATOM     13  C   UNL d   1      -3.003   0.438   0.663  0.00  0.00     0.026 A 
ATOM     14  C   UNL d   1      -4.306   0.935   0.755  0.00  0.00     0.025 A 
ATOM     15  C   UNL d   1      -4.630   2.148   0.148  0.00  0.00     0.034 A 
ATOM     16  C   UNL d   1      -3.663   2.874  -0.550  0.00  0.00     0.025 A 
ATOM     17 CL   UNL d   1      -6.232   2.764   0.274  0.00  0.00    -0.084 Cl
ATOM     18  C   UNL d   1      -2.358   2.382  -0.645  0.00  0.00     0.026 A 
ENDBRANCH   9  12
ENDBRANCH   7   9
ENDBRANCH   1   7
BRANCH   2  19
ATOM     19  C   UNL d   1       1.765   2.309  -6.094  0.00  0.00     0.311 C 
BRANCH  19  20
ATOM     20  N   UNL d   1       0.877   3.281  -6.754  0.00  0.00     0.094 N 
ATOM     21  C   UNL d   1       0.517   4.460  -5.953  0.00  0.00     0.287 C 
ATOM     22  C   UNL d   1       1.605   5.500  -5.755  0.00  0.00     0.170 C 
ATOM     23  S   UNL d   1       2.203   6.104  -7.311  0.00  0.00     0.147 S 
ATOM     24  C   UNL d   1       2.470   4.620  -8.242  0.00  0.00     0.170 C 
ATOM     25  O   UNL d   1       3.493   6.718  -7.078  0.00  0.00    -0.228 OA
ATOM     26  O   UNL d   1       1.135   6.855  -7.949  0.00  0.00    -0.228 OA
ATOM     27  C   UNL d   1       1.306   3.651  -8.113  0.00  0.00     0.287 C 
ENDBRANCH  19  20
ENDBRANCH   2  19
TORSDOF 5
