REMARK  5 active torsions:
REMARK  status: ('A' for Active; 'I' for Inactive)
REMARK    1  A    between atoms: S_12  and  C_1 
REMARK    2  A    between atoms: C_11  and  C_18 
REMARK       I    between atoms: N_13  and  C_11 
REMARK    3  A    between atoms: C_18  and  S_12 
REMARK    4  A    between atoms: C_19  and  N_13 
REMARK    5  A    between atoms: C_22  and  C_14 
ROOT
ATOM      1  S   UNL d   1      -6.752  -3.849   1.694  0.00  0.00    -0.085 SA
ENDROOT
BRANCH   1   2
ATOM      2  C   UNL d   1      -7.056  -2.660   2.897  0.00  0.00     0.145 A 
ATOM      3  N   UNL d   1      -7.627  -1.490   2.741  0.00  0.00    -0.335 N 
ATOM      4  C   UNL d   1      -7.483  -0.869   3.959  0.00  0.00     0.062 A 
ATOM      5  HN  UNL d   1      -8.078  -1.123   1.902  1.00  0.00     0.168 HD
ATOM      6  C   UNL d   1      -7.829   0.434   4.339  0.00  0.00     0.057 A 
ATOM      7  C   UNL d   1      -6.883  -1.714   4.886  0.00  0.00     0.062 A 
ATOM      8  C   UNL d   1      -7.552   0.848   5.650  0.00  0.00     0.058 A 
ATOM      9 CL   UNL d   1      -7.960   2.479   6.062  0.00  0.00    -0.082 Cl
ATOM     10  C   UNL d   1      -6.962  -0.030   6.572  0.00  0.00     0.058 A 
ATOM     11  C   UNL d   1      -6.618  -1.341   6.207  0.00  0.00     0.057 A 
ATOM     12 CL   UNL d   1      -6.615   0.446   8.200  0.00  0.00    -0.082 Cl
ATOM     13  N   UNL d   1      -6.639  -2.868   4.182  0.00  0.00    -0.335 N 
ATOM     14  H   UNL d   1      -6.175  -3.698   4.514  0.00  0.00     0.168 HD
ENDBRANCH   1   2
BRANCH   1  15
ATOM     15  C   UNL d   1      -7.105  -2.912   0.178  0.00  0.00     0.185 C 
BRANCH  15  16
ATOM     16  C   UNL d   1      -6.178  -1.711   0.025  0.00  0.00     0.231 C 
ATOM     17  N   UNL d   1      -6.855  -0.499   0.088  0.00  0.00    -0.327 N 
ATOM     18  H   UNL d   1      -7.792  -0.545   0.476  0.00  0.00     0.169 HD
ATOM     19  O   UNL d   1      -4.969  -1.861  -0.135  0.00  0.00    -0.272 OA
BRANCH  17  20
ATOM     20  C   UNL d   1      -6.283   0.790   0.061  0.00  0.00     0.034 A 
ATOM     21  C   UNL d   1      -4.966   1.045  -0.314  0.00  0.00     0.030 A 
ATOM     22  C   UNL d   1      -4.418   2.320  -0.143  0.00  0.00     0.010 A 
ATOM     23  C   UNL d   1      -5.177   3.362   0.405  0.00  0.00    -0.055 A 
ATOM     24  C   UNL d   1      -6.532   3.129   0.670  0.00  0.00     0.010 A 
ATOM     25  C   UNL d   1      -7.081   1.856   0.492  0.00  0.00     0.030 A 
BRANCH  23  26
ATOM     26  C   UNL d   1      -4.540   4.680   0.809  0.00  0.00     0.010 C 
ATOM     27  C   UNL d   1      -3.485   4.441   1.897  0.00  0.00     0.015 C 
ATOM     28  C   UNL d   1      -3.939   5.437  -0.374  0.00  0.00     0.015 C 
ENDBRANCH  23  26
ENDBRANCH  17  20
ENDBRANCH  15  16
ENDBRANCH   1  15
TORSDOF 5
