REMARK  5 active torsions:
REMARK  status: ('A' for Active; 'I' for Inactive)
REMARK    1  A    between atoms: C_8  and  C_2 
REMARK    2  A    between atoms: S_14  and  C_7 
REMARK    3  A    between atoms: C_12  and  C_15 
REMARK    4  A    between atoms: C_21  and  S_14 
REMARK    5  A    between atoms: C_15  and  C_21 
ROOT
ATOM      1  C   UNL d   1       0.445  -0.672   0.625  0.00  0.00     0.140 A 
ATOM      2  C   UNL d   1      -0.438  -1.645   0.327  0.00  0.00     0.077 A 
ATOM      3  N   UNL d   1      -1.470   0.778   0.672  0.00  0.00    -0.302 N 
ATOM      4  C   UNL d   1      -0.119   0.678   0.815  0.00  0.00     0.270 A 
ATOM      5  N   UNL d   1      -1.806  -1.486   0.206  0.00  0.00    -0.334 N 
ATOM      6  HN  UNL d   1      -2.424  -2.268  -0.011  1.00  0.00     0.168 HD
ATOM      7  C   UNL d   1      -2.254  -0.291   0.384  0.00  0.00     0.148 A 
ATOM      8  C   UNL d   1       1.841  -0.864   0.794  0.00  0.00     0.107 C 
ATOM      9  N   UNL d   1       2.979  -1.052   0.939  0.00  0.00    -0.191 NA
ATOM     10  O   UNL d   1       0.568   1.653   1.096  0.00  0.00    -0.266 OA
ATOM     11  H   UNL d   1      -1.898   1.683   0.804  0.00  0.00     0.171 HD
ENDROOT
BRANCH   2  12
ATOM     12  C   UNL d   1       0.010  -2.993   0.169  0.00  0.00     0.033 A 
ATOM     13  S   UNL d   1       0.554  -3.568  -1.360  0.00  0.00    -0.100 SA
ATOM     14  C   UNL d   1       0.973  -5.096  -0.716  0.00  0.00     0.050 A 
ATOM     15  C   UNL d   1       0.676  -5.191   0.624  0.00  0.00     0.008 A 
ATOM     16  C   UNL d   1       0.110  -3.985   1.129  0.00  0.00     0.021 A 
ENDBRANCH   2  12
BRANCH   7  17
ATOM     17  S   UNL d   1      -3.917   0.168   0.301  0.00  0.00    -0.086 SA
BRANCH  17  18
ATOM     18  C   UNL d   1      -4.752  -1.414  -0.017  0.00  0.00     0.166 C 
BRANCH  18  19
ATOM     19  C   UNL d   1      -6.269  -1.230  -0.034  0.00  0.00     0.169 C 
ATOM     20  O   UNL d   1      -6.831  -0.175   0.261  0.00  0.00    -0.291 OA
BRANCH  19  21
ATOM     21  C   UNL d   1      -7.133  -2.388  -0.433  0.00  0.00     0.011 A 
ATOM     22  C   UNL d   1      -6.608  -3.645  -0.764  0.00  0.00     0.023 A 
ATOM     23  C   UNL d   1      -7.451  -4.684  -1.209  0.00  0.00    -0.039 A 
ATOM     24  C   UNL d   1      -6.847  -5.999  -1.618  0.00  0.00     0.050 C 
ATOM     25  C   UNL d   1      -8.834  -4.455  -1.285  0.00  0.00     0.040 A 
ATOM     26  C   UNL d   1      -9.366  -3.217  -0.924  0.00  0.00     0.025 A 
ATOM     27 CL   UNL d   1      -9.925  -5.673  -1.840  0.00  0.00    -0.084 Cl
ATOM     28  C   UNL d   1      -8.520  -2.189  -0.504  0.00  0.00     0.017 A 
ENDBRANCH  19  21
ENDBRANCH  18  19
ENDBRANCH  17  18
ENDBRANCH   7  17
TORSDOF 5
