REMARK  9 active torsions:
REMARK  status: ('A' for Active; 'I' for Inactive)
REMARK    1  A    between atoms: C_2  and  S_1 
REMARK    2  A    between atoms: N_5  and  S_1 
REMARK    3  A    between atoms: C_11  and  C_3 
REMARK    4  A    between atoms: C_9  and  N_5 
REMARK    5  A    between atoms: C_14  and  N_5 
REMARK    6  A    between atoms: C_8  and  C_9 
REMARK    7  A    between atoms: O_20  and  C_11 
REMARK    8  A    between atoms: C_19  and  C_14 
REMARK    9  A    between atoms: O_28  and  C_21 
ROOT
ATOM      1  N   UNL d   1       0.333  -1.028   1.149  0.00  0.00    -0.295 N 
ENDROOT
BRANCH   1   2
ATOM      2  S   UNL d   1       1.109  -0.193  -0.119  0.00  0.00     0.283 S 
ATOM      3  O   UNL d   1       2.447  -0.720  -0.290  0.00  0.00    -0.198 OA
ATOM      4  O   UNL d   1       0.191  -0.058  -1.230  0.00  0.00    -0.198 OA
BRANCH   2   5
ATOM      5  C   UNL d   1       1.438   1.507   0.375  0.00  0.00     0.191 A 
ATOM      6  C   UNL d   1       2.091   2.510  -0.332  0.00  0.00     0.071 A 
ATOM      7  C   UNL d   1       2.131   3.680   0.474  0.00  0.00     0.072 A 
ATOM      8  C   UNL d   1       1.513   3.317   1.657  0.00  0.00     0.067 A 
ATOM      9  O   UNL d   1       1.088   2.021   1.605  0.00  0.00    -0.301 OA
ATOM     10  C   UNL d   1       1.233   4.047   2.914  0.00  0.00     0.078 C 
BRANCH   7  11
ATOM     11  C   UNL d   1       2.687   4.987   0.160  0.00  0.00     0.295 C 
ATOM     12  O   UNL d   1       2.667   5.938   0.928  0.00  0.00    -0.259 OA
BRANCH  11  13
ATOM     13  O   UNL d   1       3.215   5.024  -1.101  0.00  0.00    -0.322 OA
ATOM     14  C   UNL d   1       3.735   6.297  -1.488  0.00  0.00     0.213 C 
ENDBRANCH  11  13
ENDBRANCH   7  11
ENDBRANCH   2   5
ENDBRANCH   1   2
BRANCH   1  15
ATOM     15  C   UNL d   1      -1.123  -0.757   1.262  0.00  0.00     0.193 C 
BRANCH  15  16
ATOM     16  C   UNL d   1      -1.729  -1.465   2.443  0.00  0.00     0.029 C 
ATOM     17  N   UNL d   1      -1.459  -1.163   3.761  0.00  0.00    -0.363 N 
ATOM     18  C   UNL d   1      -2.004  -2.127   4.575  0.00  0.00     0.090 C 
ATOM     19  C   UNL d   1      -0.737  -0.021   4.272  0.00  0.00     0.155 C 
ATOM     20  C   UNL d   1      -2.753  -2.974   3.795  0.00  0.00     0.019 C 
ATOM     21  C   UNL d   1      -2.631  -2.521   2.463  0.00  0.00     0.028 C 
ENDBRANCH  15  16
ENDBRANCH   1  15
BRANCH   1  22
ATOM     22  C   UNL d   1       0.775  -2.442   1.290  0.00  0.00     0.174 C 
BRANCH  22  23
ATOM     23  C   UNL d   1       0.612  -3.354   0.091  0.00  0.00    -0.040 A 
ATOM     24  C   UNL d   1       1.739  -3.874  -0.562  0.00  0.00     0.011 A 
ATOM     25  C   UNL d   1       1.604  -4.765  -1.635  0.00  0.00     0.037 A 
ATOM     26  C   UNL d   1       0.337  -5.147  -2.071  0.00  0.00     0.068 A 
ATOM     27  C   UNL d   1      -0.787  -4.641  -1.427  0.00  0.00     0.037 A 
ATOM     28  C   UNL d   1      -0.650  -3.749  -0.363  0.00  0.00     0.011 A 
BRANCH  26  29
ATOM     29  O   UNL d   1       0.074  -6.037  -3.075  0.00  0.00    -0.356 OA
ATOM     30  C   UNL d   1       1.064  -6.129  -4.090  0.00  0.00     0.210 C 
ENDBRANCH  26  29
ENDBRANCH  22  23
ENDBRANCH   1  22
TORSDOF 9
