REMARK  3 active torsions:
REMARK  status: ('A' for Active; 'I' for Inactive)
REMARK    1  A    between atoms: C_6  and  C_1 
REMARK    2  A    between atoms: C_8  and  C_6 
REMARK    3  A    between atoms: C_12  and  C_8 
ROOT
ATOM      1  C   UNL d   1      -1.090   1.007  -0.320  0.00  0.00     0.023 C 
ATOM      2  C   UNL d   1       0.072   1.728   0.049  0.00  0.00    -0.041 C 
ATOM      3  C   UNL d   1      -0.985  -0.356  -0.710  0.00  0.00    -0.041 C 
ATOM      4  C   UNL d   1       1.332   1.073  -0.009  0.00  0.00    -0.049 C 
ATOM      5  C   UNL d   1       0.223  -1.058  -0.491  0.00  0.00    -0.049 C 
ATOM      6  C   UNL d   1       1.392  -0.338  -0.160  0.00  0.00    -0.049 C 
ATOM      7  C   UNL d   1      -2.155  -1.072  -1.353  0.00  0.00     0.050 C 
ATOM      8  C   UNL d   1       0.024   3.166   0.502  0.00  0.00     0.050 C 
ATOM      9  C   UNL d   1       2.625   1.844   0.150  0.00  0.00     0.049 C 
ATOM     10  C   UNL d   1       0.261  -2.567  -0.578  0.00  0.00     0.049 C 
ATOM     11  C   UNL d   1       2.722  -1.044  -0.005  0.00  0.00     0.049 C 
ENDROOT
BRANCH   1  12
ATOM     12  C   UNL d   1      -2.484   1.550  -0.165  0.00  0.00     0.164 C 
ATOM     13  O   UNL d   1      -3.323   0.807   0.343  0.00  0.00    -0.292 OA
BRANCH  12  14
ATOM     14  C   UNL d   1      -2.869   2.927  -0.683  0.00  0.00     0.122 C 
BRANCH  14  15
ATOM     15  C   UNL d   1      -3.598   3.829   0.305  0.00  0.00    -0.051 A 
ATOM     16  C   UNL d   1      -3.964   3.427   1.600  0.00  0.00     0.007 A 
ATOM     17  C   UNL d   1      -4.684   4.273   2.447  0.00  0.00     0.001 A 
ATOM     18  C   UNL d   1      -5.044   5.547   2.020  0.00  0.00     0.000 A 
ATOM     19  C   UNL d   1      -4.676   5.974   0.746  0.00  0.00     0.001 A 
ATOM     20  C   UNL d   1      -3.962   5.123  -0.106  0.00  0.00     0.007 A 
ENDBRANCH  14  15
ENDBRANCH  12  14
ENDBRANCH   1  12
TORSDOF 3
