REMARK  7 active torsions:
REMARK  status: ('A' for Active; 'I' for Inactive)
REMARK    1  A    between atoms: O_2  and  C_1 
REMARK       I    between atoms: N_7  and  C_1 
REMARK    2  A    between atoms: C_6  and  O_2 
REMARK    3  A    between atoms: N_4  and  C_16 
REMARK    4  A    between atoms: C_17  and  N_7 
REMARK    5  A    between atoms: C_9  and  C_8 
REMARK    6  A    between atoms: O_15  and  C_10 
REMARK    7  A    between atoms: C_16  and  C_17 
ROOT
ATOM      1  N   UNL d   1       5.807   0.124  -2.038  0.00  0.00    -0.397 N 
ATOM      2  HN  UNL d   1       5.321   0.553  -2.825  1.00  0.00     0.158 HD
ATOM      3  C   UNL d   1       6.986  -0.359  -2.170  0.00  0.00     0.094 C 
ENDROOT
BRANCH   1   4
ATOM      4  C   UNL d   1       5.181   0.035  -0.713  0.00  0.00     0.139 C 
BRANCH   4   5
ATOM      5  C   UNL d   1       3.675  -0.100  -0.960  0.00  0.00     0.144 C 
BRANCH   5   6
ATOM      6  N   UNL d   1       2.817   0.115   0.186  0.00  0.00    -0.335 N 
ATOM      7  C   UNL d   1       2.467  -0.789   1.146  0.00  0.00     0.361 C 
ATOM      8  O   UNL d   1       1.436  -0.621   1.785  0.00  0.00    -0.238 OA
ATOM      9  H   UNL d   1       2.095   0.814   0.078  0.00  0.00     0.164 HD
BRANCH   7  10
ATOM     10  O   UNL d   1       3.337  -1.814   1.304  0.00  0.00    -0.294 OA
BRANCH  10  11
ATOM     11  C   UNL d   1       3.046  -2.835   2.307  0.00  0.00     0.061 C 
ATOM     12  C   UNL d   1       1.748  -3.587   1.967  0.00  0.00     0.046 C 
ATOM     13  C   UNL d   1       4.229  -3.818   2.253  0.00  0.00     0.046 C 
ATOM     14  C   UNL d   1       2.985  -2.242   3.724  0.00  0.00     0.046 C 
ENDBRANCH  10  11
ENDBRANCH   7  10
ENDBRANCH   5   6
ENDBRANCH   4   5
ENDBRANCH   1   4
BRANCH   3  15
ATOM     15  C   UNL d   1       7.641  -0.387  -3.501  0.00  0.00    -0.021 A 
ATOM     16  C   UNL d   1       6.953   0.070  -4.632  0.00  0.00     0.015 A 
ATOM     17  C   UNL d   1       7.546  -0.005  -5.893  0.00  0.00     0.037 A 
ATOM     18  C   UNL d   1       8.826  -0.534  -6.017  0.00  0.00     0.065 A 
ATOM     19  C   UNL d   1       9.527  -0.983  -4.899  0.00  0.00     0.037 A 
ATOM     20  C   UNL d   1       8.932  -0.909  -3.634  0.00  0.00     0.015 A 
BRANCH  18  21
ATOM     21  O   UNL d   1       9.363  -0.600  -7.269  0.00  0.00    -0.361 OA
ATOM     22  H   UNL d   1      10.246  -0.999  -7.213  0.00  0.00     0.217 HD
ENDBRANCH  18  21
ENDBRANCH   3  15
TORSDOF 7
