REMARK  7 active torsions:
REMARK  status: ('A' for Active; 'I' for Inactive)
REMARK    1  A    between atoms: N_7  and  C_1 
REMARK    2  A    between atoms: N_3  and  C_20 
REMARK    3  A    between atoms: C_23  and  C_6 
REMARK       I    between atoms: C_17  and  N_7 
REMARK    4  A    between atoms: S_29  and  C_8 
REMARK    5  A    between atoms: C_14  and  C_17 
REMARK    6  A    between atoms: C_19  and  C_33 
REMARK    7  A    between atoms: C_33  and  S_29 
ROOT
ATOM      1  S   UNL d   1       0.917  -2.762  -1.500  0.00  0.00    -0.095 SA
ENDROOT
BRANCH   1   2
ATOM      2  C   UNL d   1       0.496  -1.119  -1.060  0.00  0.00     0.130 A 
ATOM      3  S   UNL d   1      -0.624  -0.169  -1.942  0.00  0.00    -0.026 SA
ATOM      4  C   UNL d   1      -0.399   1.058  -0.779  0.00  0.00     0.168 A 
ATOM      5  N   UNL d   1       0.498   0.768   0.139  0.00  0.00    -0.278 N 
ATOM      6  N   UNL d   1       1.005  -0.510  -0.011  0.00  0.00    -0.286 N 
ATOM      7  HN  UNL d   1       0.785   1.411   0.877  1.00  0.00     0.189 HD
ATOM      8  HN  UNL d   1       1.692  -0.929   0.615  1.00  0.00     0.188 HD
BRANCH   4   9
ATOM      9  N   UNL d   1      -1.056   2.264  -0.802  0.00  0.00    -0.301 N 
ATOM     10  C   UNL d   1      -2.117   2.619  -1.608  0.00  0.00     0.264 C 
ATOM     11  O   UNL d   1      -2.670   1.863  -2.400  0.00  0.00    -0.267 OA
ATOM     12  H   UNL d   1      -0.748   2.920  -0.098  0.00  0.00     0.171 HD
BRANCH  10  13
ATOM     13  C   UNL d   1      -2.589   3.995  -1.440  0.00  0.00     0.074 A 
ATOM     14  S   UNL d   1      -1.804   5.132  -0.418  0.00  0.00    -0.072 SA
ATOM     15  C   UNL d   1      -2.866   6.366  -0.875  0.00  0.00     0.075 A 
ATOM     16 CL   UNL d   1      -2.656   7.950  -0.247  0.00  0.00    -0.076 Cl
ATOM     17  C   UNL d   1      -3.834   5.958  -1.753  0.00  0.00     0.033 A 
ATOM     18  C   UNL d   1      -3.679   4.576  -2.073  0.00  0.00     0.027 A 
ENDBRANCH  10  13
ENDBRANCH   4   9
ENDBRANCH   1   2
BRANCH   1  19
ATOM     19  C   UNL d   1       1.787  -3.284   0.009  0.00  0.00     0.167 C 
BRANCH  19  20
ATOM     20  C   UNL d   1       2.246  -4.695  -0.059  0.00  0.00     0.150 A 
ATOM     21  O   UNL d   1       1.300  -5.693  -0.054  0.00  0.00    -0.277 OA
ATOM     22  C   UNL d   1       2.085  -6.823  -0.050  0.00  0.00     0.174 A 
ATOM     23  N   UNL d   1       3.372  -6.539  -0.038  0.00  0.00    -0.277 N 
ATOM     24  N   UNL d   1       3.477  -5.164  -0.042  0.00  0.00    -0.281 N 
ATOM     25  HN  UNL d   1       4.142  -7.207  -0.027  1.00  0.00     0.189 HD
ATOM     26  HN  UNL d   1       4.338  -4.617  -0.034  1.00  0.00     0.189 HD
BRANCH  22  27
ATOM     27  C   UNL d   1       1.421  -8.124  -0.052  0.00  0.00     0.017 A 
ATOM     28  C   UNL d   1       0.023  -8.253  -0.101  0.00  0.00     0.025 A 
ATOM     29  C   UNL d   1      -0.620  -9.514  -0.114  0.00  0.00    -0.028 A 
ATOM     30  C   UNL d   1      -2.124  -9.523  -0.179  0.00  0.00     0.050 C 
ATOM     31  C   UNL d   1       0.184 -10.675  -0.072  0.00  0.00     0.108 A 
ATOM     32  C   UNL d   1       1.584 -10.555  -0.018  0.00  0.00     0.037 A 
ATOM     33  C   UNL d   1       2.191  -9.293  -0.009  0.00  0.00     0.018 A 
BRANCH  31  34
ATOM     34  N   UNL d   1      -0.379 -12.046  -0.084  0.00  0.00    -0.115 N 
ATOM     35  O   UNL d   1      -1.605 -12.191  -0.120  0.00  0.00    -0.532 OA
ATOM     36  O   UNL d   1       0.425 -12.993  -0.056  0.00  0.00    -0.532 OA
ENDBRANCH  31  34
ENDBRANCH  22  27
ENDBRANCH  19  20
ENDBRANCH   1  19
TORSDOF 7
