REMARK  10 active torsions:
REMARK  status: ('A' for Active; 'I' for Inactive)
REMARK    1  A    between atoms: C_7  and  C_1 
REMARK    2  A    between atoms: C_2  and  C_5 
REMARK    3  A    between atoms: C_3  and  C_4 
REMARK    4  A    between atoms: C_8  and  O_17 
REMARK       I    between atoms: N_15  and  C_8 
REMARK    5  A    between atoms: C_26  and  C_13 
REMARK    6  A    between atoms: C_24  and  N_15 
REMARK    7  A    between atoms: O_17  and  C_26 
REMARK    8  A    between atoms: O_25  and  C_27 
REMARK    9  A    between atoms: C_28  and  O_25 
REMARK   10  A    between atoms: C_33  and  C_28 
ROOT
ATOM      1  C   UNL d   1       1.423  -2.954  -0.046  0.00  0.00     0.245 C 
ENDROOT
BRANCH   1   2
ATOM      2  O   UNL d   1       0.070  -3.413  -0.025  0.00  0.00    -0.297 OA
BRANCH   2   3
ATOM      3  C   UNL d   1      -0.130  -4.744  -0.112  0.00  0.00     0.365 C 
ATOM      4  N   UNL d   1      -1.442  -5.137  -0.093  0.00  0.00    -0.303 N 
ATOM      5  H   UNL d   1      -1.520  -6.146  -0.092  0.00  0.00     0.171 HD
ATOM      6  O   UNL d   1       0.764  -5.582  -0.176  0.00  0.00    -0.238 OA
BRANCH   4   7
ATOM      7  C   UNL d   1      -2.636  -4.404   0.045  0.00  0.00     0.037 A 
ATOM      8  C   UNL d   1      -2.731  -3.011   0.044  0.00  0.00     0.032 A 
ATOM      9  C   UNL d   1      -3.947  -2.380   0.331  0.00  0.00     0.039 A 
ATOM     10  C   UNL d   1      -5.080  -3.134   0.622  0.00  0.00     0.069 A 
ATOM     11  C   UNL d   1      -5.023  -4.521   0.501  0.00  0.00     0.039 A 
ATOM     12  C   UNL d   1      -3.806  -5.151   0.225  0.00  0.00     0.032 A 
BRANCH  10  13
ATOM     13  O   UNL d   1      -6.185  -2.432   1.021  0.00  0.00    -0.347 OA
BRANCH  13  14
ATOM     14  C   UNL d   1      -7.047  -3.149   1.909  0.00  0.00     0.214 C 
BRANCH  14  15
ATOM     15  C   UNL d   1      -7.766  -2.190   2.822  0.00  0.00    -0.034 A 
ATOM     16  C   UNL d   1      -9.029  -1.687   2.484  0.00  0.00     0.009 A 
ATOM     17  C   UNL d   1      -9.709  -0.841   3.363  0.00  0.00     0.001 A 
ATOM     18  C   UNL d   1      -9.131  -0.487   4.577  0.00  0.00     0.000 A 
ATOM     19  C   UNL d   1      -7.864  -0.958   4.915  0.00  0.00     0.001 A 
ATOM     20  C   UNL d   1      -7.182  -1.802   4.038  0.00  0.00     0.009 A 
ENDBRANCH  14  15
ENDBRANCH  13  14
ENDBRANCH  10  13
ENDBRANCH   4   7
ENDBRANCH   2   3
ENDBRANCH   1   2
BRANCH   1  21
ATOM     21  C   UNL d   1       1.626  -2.253  -1.337  0.00  0.00     0.078 A 
ATOM     22  O   UNL d   1       0.865  -1.142  -1.566  0.00  0.00    -0.312 OA
ATOM     23  C   UNL d   1       1.215  -0.644  -2.791  0.00  0.00     0.086 A 
ATOM     24  C   UNL d   1       2.198  -1.444  -3.342  0.00  0.00     0.040 A 
ATOM     25  C   UNL d   1       2.468  -2.472  -2.406  0.00  0.00     0.038 A 
BRANCH  23  26
ATOM     26  C   UNL d   1       0.550   0.589  -3.209  0.00  0.00    -0.001 A 
ATOM     27  C   UNL d   1      -0.402   1.223  -2.396  0.00  0.00     0.030 A 
ATOM     28  C   UNL d   1      -0.966   2.461  -2.754  0.00  0.00     0.049 A 
ATOM     29  C   UNL d   1      -0.587   3.057  -3.966  0.00  0.00     0.032 A 
ATOM     30  C   UNL d   1       0.353   2.441  -4.805  0.00  0.00     0.049 A 
ATOM     31  C   UNL d   1       0.903   1.205  -4.419  0.00  0.00     0.030 A 
BRANCH  28  32
ATOM     32  C   UNL d   1      -1.928   3.148  -1.814  0.00  0.00     0.417 C 
ATOM     33  F   UNL d   1      -2.289   4.395  -2.229  0.00  0.00    -0.166 F 
ATOM     34  F   UNL d   1      -3.088   2.458  -1.648  0.00  0.00    -0.166 F 
ATOM     35  F   UNL d   1      -1.404   3.312  -0.567  0.00  0.00    -0.166 F 
ENDBRANCH  28  32
BRANCH  30  36
ATOM     36  C   UNL d   1       0.821   3.098  -6.082  0.00  0.00     0.417 C 
ATOM     37  F   UNL d   1       0.269   4.323  -6.298  0.00  0.00    -0.166 F 
ATOM     38  F   UNL d   1       2.170   3.288  -6.095  0.00  0.00    -0.166 F 
ATOM     39  F   UNL d   1       0.537   2.356  -7.186  0.00  0.00    -0.166 F 
ENDBRANCH  30  36
ENDBRANCH  23  26
ENDBRANCH   1  21
TORSDOF 10
