REMARK  10 active torsions:
REMARK  status: ('A' for Active; 'I' for Inactive)
REMARK    1  A    between atoms: C_7  and  C_1 
REMARK       I    between atoms: N_13  and  C_7 
REMARK    2  A    between atoms: S_17  and  C_10 
REMARK    3  A    between atoms: N_20  and  C_10 
REMARK    4  A    between atoms: N_11  and  N_13 
REMARK    5  A    between atoms: C_16  and  C_22 
REMARK    6  A    between atoms: O_25  and  C_16 
REMARK    7  A    between atoms: C_22  and  S_17 
REMARK    8  A    between atoms: C_26  and  N_20 
REMARK    9  A    between atoms: C_21  and  C_26 
REMARK   10  A    between atoms: C_28  and  O_25 
ROOT
ATOM      1  C   UNL d   1       2.533   0.266   0.478  0.00  0.00     0.289 C 
ATOM      2  N   UNL d   1       3.826   0.495   0.030  0.00  0.00    -0.263 N 
ATOM      3  O   UNL d   1       1.828   1.156   0.947  0.00  0.00    -0.264 OA
ATOM      4  H   UNL d   1       4.422  -0.262  -0.283  0.00  0.00     0.190 HD
ENDROOT
BRANCH   2   5
ATOM      5  N   UNL d   1       4.414   1.729   0.184  0.00  0.00    -0.282 N 
ATOM      6  C   UNL d   1       5.694   1.773   0.004  0.00  0.00     0.134 C 
ATOM      7  HN  UNL d   1       3.873   2.559   0.427  1.00  0.00     0.188 HD
BRANCH   6   8
ATOM      8  S   UNL d   1       6.542   3.314  -0.004  0.00  0.00    -0.089 SA
BRANCH   8   9
ATOM      9  C   UNL d   1       5.297   4.437   0.670  0.00  0.00     0.193 C 
BRANCH   9  10
ATOM     10  C   UNL d   1       4.968   4.174   2.123  0.00  0.00     0.268 C 
ATOM     11  O   UNL d   1       5.407   3.277   2.830  0.00  0.00    -0.264 OA
BRANCH  10  12
ATOM     12  O   UNL d   1       4.078   5.132   2.529  0.00  0.00    -0.321 OA
BRANCH  12  13
ATOM     13  C   UNL d   1       3.410   4.891   3.773  0.00  0.00     0.174 C 
ATOM     14  C   UNL d   1       2.102   4.187   3.469  0.00  0.00     0.034 C 
ENDBRANCH  12  13
ENDBRANCH  10  12
ENDBRANCH   9  10
ENDBRANCH   8   9
ENDBRANCH   6   8
BRANCH   6  15
ATOM     15  N   UNL d   1       6.569   0.753  -0.269  0.00  0.00    -0.269 NA
ATOM     16  H   UNL d   1       7.480   1.158  -0.473  0.00  0.00     0.130 HD
BRANCH  15  17
ATOM     17  C   UNL d   1       6.742  -0.377   0.623  0.00  0.00     0.120 C 
BRANCH  17  18
ATOM     18  C   UNL d   1       6.869  -1.571  -0.274  0.00  0.00    -0.022 C 
ATOM     19  C   UNL d   1       6.130  -2.684  -0.190  0.00  0.00     0.008 C 
ENDBRANCH  17  18
ENDBRANCH  15  17
ENDBRANCH   6  15
ENDBRANCH   2   5
BRANCH   1  20
ATOM     20  C   UNL d   1       2.100  -1.118   0.452  0.00  0.00     0.132 A 
ATOM     21  N   UNL d   1       2.303  -2.094  -0.514  0.00  0.00    -0.302 N 
ATOM     22  C   UNL d   1       1.685  -3.254  -0.047  0.00  0.00     0.113 A 
ATOM     23  C   UNL d   1       2.948  -2.053  -1.754  0.00  0.00     0.099 A 
ATOM     24  C   UNL d   1       1.744  -4.421  -0.855  0.00  0.00     0.056 A 
ATOM     25  N   UNL d   1       1.101  -3.065   1.113  0.00  0.00    -0.344 N 
ATOM     26  C   UNL d   1       2.371  -4.392  -2.052  0.00  0.00    -0.057 A 
ATOM     27  C   UNL d   1       3.004  -3.161  -2.518  0.00  0.00     0.024 A 
ATOM     28  C   UNL d   1       2.412  -5.606  -2.932  0.00  0.00     0.048 C 
ATOM     29  C   UNL d   1       1.312  -1.746   1.416  0.00  0.00     0.040 A 
ATOM     30  HN  UNL d   1       0.597  -3.754   1.670  1.00  0.00     0.167 HD
ATOM     31  C   UNL d   1       0.747  -1.185   2.667  0.00  0.00     0.071 C 
ENDBRANCH   1  20
TORSDOF 10
