REMARK  5 active torsions:
REMARK  status: ('A' for Active; 'I' for Inactive)
REMARK    1  A    between atoms: C_3  and  S_1 
REMARK    2  A    between atoms: N_4  and  S_1 
REMARK    3  A    between atoms: N_2  and  C_10 
REMARK    4  A    between atoms: C_21  and  N_4 
REMARK    5  A    between atoms: C_22  and  C_21 
ROOT
ATOM      1  N   UNL d   1      -0.050   0.948   1.169  0.00  0.00    -0.311 N 
ATOM      2  H   UNL d   1      -1.024   1.237   1.165  0.00  0.00     0.172 HD
ENDROOT
BRANCH   1   3
ATOM      3  S   UNL d   1       0.284  -0.560   0.542  0.00  0.00     0.259 S 
ATOM      4  O   UNL d   1      -0.850  -0.934  -0.272  0.00  0.00    -0.201 OA
ATOM      5  O   UNL d   1       1.632  -0.542   0.013  0.00  0.00    -0.201 OA
BRANCH   3   6
ATOM      6  C   UNL d   1       0.280  -1.600   1.987  0.00  0.00     0.080 A 
ATOM      7  C   UNL d   1       1.482  -1.846   2.664  0.00  0.00     0.035 A 
ATOM      8  C   UNL d   1       1.436  -2.670   3.776  0.00  0.00    -0.021 A 
ATOM      9  C   UNL d   1       2.513  -3.047   4.718  0.00  0.00     0.068 C 
ATOM     10  C   UNL d   1       0.241  -3.233   4.198  0.00  0.00     0.075 A 
ATOM     11  C   UNL d   1       1.795  -4.165   5.476  0.00  0.00     0.180 C 
ATOM     12  O   UNL d   1       0.365  -4.003   5.324  0.00  0.00    -0.350 OA
ATOM     13  C   UNL d   1      -0.950  -3.014   3.535  0.00  0.00     0.039 A 
ATOM     14  C   UNL d   1      -0.929  -2.191   2.405  0.00  0.00     0.028 A 
ENDBRANCH   3   6
ENDBRANCH   1   3
BRANCH   1  15
ATOM     15  C   UNL d   1       0.911   1.602   2.042  0.00  0.00     0.170 C 
BRANCH  15  16
ATOM     16  C   UNL d   1       0.435   2.959   2.498  0.00  0.00    -0.040 A 
ATOM     17  C   UNL d   1      -0.714   3.079   3.283  0.00  0.00     0.011 A 
ATOM     18  C   UNL d   1      -1.145   4.335   3.720  0.00  0.00     0.030 A 
ATOM     19  C   UNL d   1      -0.452   5.515   3.406  0.00  0.00     0.030 A 
ATOM     20  C   UNL d   1       0.699   5.375   2.618  0.00  0.00     0.030 A 
ATOM     21  C   UNL d   1       1.138   4.121   2.169  0.00  0.00     0.011 A 
BRANCH  19  22
ATOM     22  N   UNL d   1      -0.953   6.741   3.809  0.00  0.00    -0.378 N 
ATOM     23  C   UNL d   1      -0.540   7.998   3.164  0.00  0.00     0.153 C 
ATOM     24  C   UNL d   1      -1.694   9.027   3.269  0.00  0.00     0.291 C 
ATOM     25  N   UNL d   1      -2.143   9.260   4.662  0.00  0.00     0.087 N 
ATOM     26  C   UNL d   1      -2.509   7.964   5.280  0.00  0.00     0.291 C 
ATOM     27  C   UNL d   1      -3.283  10.175   4.685  0.00  0.00     0.310 C 
ATOM     28  C   UNL d   1      -1.361   6.930   5.215  0.00  0.00     0.153 C 
ENDBRANCH  19  22
ENDBRANCH  15  16
ENDBRANCH   1  15
TORSDOF 5
