REMARK  9 active torsions:
REMARK  status: ('A' for Active; 'I' for Inactive)
REMARK    1  A    between atoms: N_8  and  C_3 
REMARK    2  A    between atoms: N_10  and  C_4 
REMARK       I    between atoms: C_5  and  N_7 
REMARK    3  A    between atoms: C_9  and  C_5 
REMARK    4  A    between atoms: N_7  and  C_6 
REMARK    5  A    between atoms: C_20  and  N_8 
REMARK    6  A    between atoms: C_21  and  N_8 
REMARK    7  A    between atoms: C_22  and  N_10 
REMARK    8  A    between atoms: C_23  and  N_10 
REMARK    9  A    between atoms: C_11  and  C_12 
ROOT
ATOM      1  N   UNL d   1      -1.418  -0.004  -0.105  0.00  0.00    -0.327 N 
ATOM      2  HN  UNL d   1      -2.406  -0.036  -0.358  1.00  0.00     0.169 HD
ATOM      3  C   UNL d   1      -0.806   1.212   0.054  0.00  0.00     0.132 A 
ATOM      4  C   UNL d   1      -0.735  -1.173   0.067  0.00  0.00     0.104 A 
ATOM      5  C   UNL d   1       0.594   1.258   0.252  0.00  0.00     0.079 A 
ATOM      6  C   UNL d   1       0.626  -1.136   0.359  0.00  0.00     0.051 A 
ATOM      7  C   UNL d   1       1.300   0.076   0.431  0.00  0.00     0.037 A 
ENDROOT
BRANCH   5   8
ATOM      8  N   UNL d   1       1.318   2.464   0.295  0.00  0.00    -0.320 N 
ATOM      9  C   UNL d   1       2.163   2.985  -0.668  0.00  0.00     0.256 C 
ATOM     10  O   UNL d   1       2.943   3.869  -0.324  0.00  0.00    -0.267 OA
ATOM     11  H   UNL d   1       1.654   2.726   1.216  0.00  0.00     0.169 HD
BRANCH   9  12
ATOM     12  C   UNL d   1       2.200   2.494  -2.076  0.00  0.00     0.032 A 
ATOM     13  C   UNL d   1       1.139   1.872  -2.730  0.00  0.00     0.017 A 
ATOM     14  C   UNL d   1       1.318   1.301  -3.996  0.00  0.00     0.009 A 
ATOM     15  C   UNL d   1       2.550   1.372  -4.668  0.00  0.00    -0.051 A 
ATOM     16  C   UNL d   1       3.568   2.118  -4.055  0.00  0.00     0.009 A 
ATOM     17  C   UNL d   1       3.397   2.667  -2.778  0.00  0.00     0.017 A 
BRANCH  15  18
ATOM     18  C   UNL d   1       2.761   0.607  -5.985  0.00  0.00    -0.024 C 
ATOM     19  C   UNL d   1       4.174   0.795  -6.581  0.00  0.00     0.019 C 
ATOM     20  C   UNL d   1       2.573  -0.905  -5.724  0.00  0.00     0.019 C 
ATOM     21  C   UNL d   1       1.745   1.057  -7.054  0.00  0.00     0.019 C 
ENDBRANCH  15  18
ENDBRANCH   9  12
ENDBRANCH   5   8
BRANCH   3  22
ATOM     22  N   UNL d   1      -1.617   2.364   0.014  0.00  0.00    -0.366 N 
BRANCH  22  23
ATOM     23  C   UNL d   1      -1.146   3.643   0.565  0.00  0.00     0.120 C 
ATOM     24  C   UNL d   1      -2.264   4.596   0.969  0.00  0.00     0.026 C 
ENDBRANCH  22  23
BRANCH  22  25
ATOM     25  C   UNL d   1      -2.592   2.397  -1.077  0.00  0.00     0.120 C 
ATOM     26  C   UNL d   1      -3.994   2.101  -0.570  0.00  0.00     0.026 C 
ENDBRANCH  22  25
ENDBRANCH   3  22
BRANCH   4  27
ATOM     27  N   UNL d   1      -1.414  -2.388  -0.019  0.00  0.00    -0.368 N 
BRANCH  27  28
ATOM     28  C   UNL d   1      -0.898  -3.644   0.539  0.00  0.00     0.120 C 
ATOM     29  C   UNL d   1      -0.927  -3.650   2.061  0.00  0.00     0.026 C 
ENDBRANCH  27  28
BRANCH  27  30
ATOM     30  C   UNL d   1      -2.457  -2.509  -1.042  0.00  0.00     0.120 C 
ATOM     31  C   UNL d   1      -1.884  -3.066  -2.345  0.00  0.00     0.026 C 
ENDBRANCH  27  30
ENDBRANCH   4  27
TORSDOF 9
