REMARK  3 active torsions:
REMARK  status: ('A' for Active; 'I' for Inactive)
REMARK    1  A    between atoms: C_2  and  N_1 
REMARK    2  A    between atoms: O_4  and  C_5 
REMARK    3  A    between atoms: C_6  and  O_4 
ROOT
ATOM      1  C   UNL d   1       0.352  -0.725   1.036  0.00  0.00     0.104 A 
ATOM      2  C   UNL d   1       0.878  -0.759   2.331  0.00  0.00     0.062 A 
ATOM      3  C   UNL d   1      -0.941  -2.217   3.006  0.00  0.00     0.098 A 
ATOM      4  C   UNL d   1       0.224  -1.502   3.317  0.00  0.00     0.070 A 
ATOM      5  C   UNL d   1      -0.844  -1.387   0.733  0.00  0.00     0.039 A 
ATOM      6  C   UNL d   1      -1.503  -2.112   1.727  0.00  0.00     0.041 A 
ATOM      7 CL   UNL d   1       0.906  -1.543   4.900  0.00  0.00    -0.081 Cl
ENDROOT
BRANCH   3   8
ATOM      8  O   UNL d   1      -1.518  -2.995   3.989  0.00  0.00    -0.307 OA
BRANCH   8   9
ATOM      9  C   UNL d   1      -2.043  -4.220   3.626  0.00  0.00     0.098 A 
ATOM     10  C   UNL d   1      -3.238  -4.639   4.225  0.00  0.00     0.069 A 
ATOM     11  C   UNL d   1      -3.827  -5.849   3.848  0.00  0.00     0.050 A 
ATOM     12 CL   UNL d   1      -4.031  -3.676   5.417  0.00  0.00    -0.081 Cl
ATOM     13  C   UNL d   1      -3.217  -6.639   2.877  0.00  0.00     0.035 A 
ATOM     14  C   UNL d   1      -2.005  -6.253   2.306  0.00  0.00     0.026 A 
ATOM     15 CL   UNL d   1      -3.962  -8.106   2.374  0.00  0.00    -0.084 Cl
ATOM     16  C   UNL d   1      -1.404  -5.058   2.699  0.00  0.00     0.041 A 
ENDBRANCH   8   9
ENDBRANCH   3   8
BRANCH   1  17
ATOM     17  N   UNL d   1       1.064   0.000  -0.024  0.00  0.00    -0.116 N 
ATOM     18  O   UNL d   1       2.076   0.638   0.297  0.00  0.00    -0.532 OA
ATOM     19  O   UNL d   1       0.619  -0.082  -1.175  0.00  0.00    -0.532 OA
ENDBRANCH   1  17
TORSDOF 3
