REMARK  4 active torsions:
REMARK  status: ('A' for Active; 'I' for Inactive)
REMARK    1  A    between atoms: N_9  and  C_1 
REMARK    2  A    between atoms: C_2  and  C_5 
REMARK    3  A    between atoms: N_7  and  N_9 
REMARK    4  A    between atoms: C_13  and  C_11 
ROOT
ATOM      1  C   UNL d   1      -0.267   1.097   0.013  0.00  0.00     0.143 A 
ATOM      2  N   UNL d   1      -1.608   1.047  -0.264  0.00  0.00    -0.349 N 
ATOM      3  HN  UNL d   1      -2.119   1.913  -0.432  1.00  0.00     0.167 HD
ATOM      4  C   UNL d   1      -1.660  -1.359  -0.121  0.00  0.00     0.065 A 
ATOM      5  C   UNL d   1       0.412  -0.127   0.212  0.00  0.00     0.080 A 
ATOM      6  C   UNL d   1      -0.292  -1.343   0.133  0.00  0.00     0.045 A 
ATOM      7  C   UNL d   1      -2.264  -0.137  -0.318  0.00  0.00     0.106 A 
ATOM      8 CL   UNL d   1       2.087  -0.329   0.607  0.00  0.00    -0.080 Cl
ENDROOT
BRANCH   1   9
ATOM      9  N   UNL d   1       0.310   2.389   0.147  0.00  0.00    -0.280 N 
ATOM     10  C   UNL d   1       1.747   2.575  -0.038  0.00  0.00     0.179 C 
BRANCH   9  11
ATOM     11  N   UNL d   1      -0.384   3.523  -0.224  0.00  0.00    -0.308 N 
ATOM     12  C   UNL d   1      -1.503   3.783   0.376  0.00  0.00     0.120 C 
ATOM     13  HN  UNL d   1      -0.025   4.141  -0.953  1.00  0.00     0.186 HD
BRANCH  12  14
ATOM     14  C   UNL d   1      -2.201   5.069   0.137  0.00  0.00     0.002 A 
ATOM     15  C   UNL d   1      -3.530   5.281   0.518  0.00  0.00     0.045 A 
ATOM     16 CL   UNL d   1      -4.526   4.035   1.182  0.00  0.00    -0.083 Cl
ATOM     17  C   UNL d   1      -4.105   6.548   0.357  0.00  0.00     0.024 A 
ATOM     18  C   UNL d   1      -3.361   7.601  -0.179  0.00  0.00     0.002 A 
ATOM     19  C   UNL d   1      -2.042   7.391  -0.574  0.00  0.00     0.001 A 
ATOM     20  C   UNL d   1      -1.468   6.128  -0.422  0.00  0.00     0.014 A 
ENDBRANCH  12  14
ENDBRANCH   9  11
ENDBRANCH   1   9
BRANCH   4  21
ATOM     21  C   UNL d   1      -2.465  -2.618  -0.158  0.00  0.00     0.418 C 
ATOM     22  F   UNL d   1      -1.713  -3.743   0.003  0.00  0.00    -0.166 F 
ATOM     23  F   UNL d   1      -3.409  -2.660   0.821  0.00  0.00    -0.166 F 
ATOM     24  F   UNL d   1      -3.133  -2.780  -1.332  0.00  0.00    -0.166 F 
ENDBRANCH   4  21
TORSDOF 4
