REMARK  7 active torsions:
REMARK  status: ('A' for Active; 'I' for Inactive)
REMARK    1  A    between atoms: S_2  and  C_1 
REMARK    2  A    between atoms: N_8  and  S_2 
REMARK    3  A    between atoms: C_9  and  C_3 
REMARK    4  A    between atoms: C_13  and  C_4 
REMARK    5  A    between atoms: C_7  and  C_5 
REMARK    6  A    between atoms: C_12  and  N_8 
REMARK    7  A    between atoms: O_19  and  C_9 
ROOT
ATOM      1  C   UNL d   1       1.585   0.887  -0.231  0.00  0.00     0.110 C 
ATOM      2  C   UNL d   1       0.285   1.366  -0.278  0.00  0.00     0.104 C 
ATOM      3  C   UNL d   1       1.627  -0.570  -0.209  0.00  0.00     0.021 C 
ATOM      4  C   UNL d   1       0.332  -1.101  -0.170  0.00  0.00     0.102 C 
ATOM      5  S   UNL d   1      -0.858   0.117  -0.384  0.00  0.00    -0.077 SA
ENDROOT
BRANCH   1   6
ATOM      6  S   UNL d   1       2.951   1.982  -0.206  0.00  0.00     0.248 S 
ATOM      7  O   UNL d   1       2.408   3.234  -0.680  0.00  0.00    -0.205 OA
ATOM      8  O   UNL d   1       3.488   1.839   1.125  0.00  0.00    -0.205 OA
BRANCH   6   9
ATOM      9  N   UNL d   1       4.106   1.490  -1.360  0.00  0.00    -0.181 NA
ATOM     10  H   UNL d   1       3.643   1.240  -2.234  0.00  0.00     0.146 HD
BRANCH   9  11
ATOM     11  C   UNL d   1       5.138   2.480  -1.559  0.00  0.00     0.028 A 
ATOM     12  C   UNL d   1       4.997   3.533  -2.483  0.00  0.00    -0.040 A 
ATOM     13  C   UNL d   1       3.831   3.687  -3.421  0.00  0.00     0.050 C 
ATOM     14  C   UNL d   1       6.003   4.515  -2.548  0.00  0.00     0.008 A 
ATOM     15  C   UNL d   1       7.112   4.465  -1.703  0.00  0.00     0.001 A 
ATOM     16  C   UNL d   1       7.231   3.432  -0.778  0.00  0.00     0.002 A 
ATOM     17  C   UNL d   1       6.242   2.448  -0.701  0.00  0.00     0.025 A 
ENDBRANCH   9  11
ENDBRANCH   6   9
ENDBRANCH   1   6
BRANCH   2  18
ATOM     18  C   UNL d   1      -0.217   2.722  -0.269  0.00  0.00     0.301 C 
ATOM     19  O   UNL d   1      -0.933   3.220  -1.129  0.00  0.00    -0.259 OA
BRANCH  18  20
ATOM     20  O   UNL d   1       0.179   3.336   0.880  0.00  0.00    -0.322 OA
ATOM     21  C   UNL d   1      -0.167   4.718   0.940  0.00  0.00     0.213 C 
ENDBRANCH  18  20
ENDBRANCH   2  18
BRANCH   3  22
ATOM     22  C   UNL d   1       2.790  -1.468  -0.164  0.00  0.00    -0.023 A 
ATOM     23  C   UNL d   1       3.776  -1.327   0.818  0.00  0.00     0.012 A 
ATOM     24  C   UNL d   1       4.838  -2.235   0.900  0.00  0.00     0.001 A 
ATOM     25  C   UNL d   1       4.907  -3.316   0.025  0.00  0.00     0.000 A 
ATOM     26  C   UNL d   1       3.932  -3.474  -0.955  0.00  0.00     0.001 A 
ATOM     27  C   UNL d   1       2.894  -2.542  -1.065  0.00  0.00     0.012 A 
ENDBRANCH   3  22
BRANCH   4  28
ATOM     28  C   UNL d   1      -0.175  -2.510  -0.019  0.00  0.00     0.424 C 
ATOM     29  F   UNL d   1       0.710  -3.348   0.576  0.00  0.00    -0.166 F 
ATOM     30  F   UNL d   1      -1.306  -2.572   0.734  0.00  0.00    -0.166 F 
ATOM     31  F   UNL d   1      -0.481  -3.053  -1.226  0.00  0.00    -0.166 F 
ENDBRANCH   4  28
TORSDOF 7
