REMARK  5 active torsions:
REMARK  status: ('A' for Active; 'I' for Inactive)
REMARK    1  A    between atoms: C_7  and  C_1 
REMARK    2  A    between atoms: O_9  and  C_2 
REMARK    3  A    between atoms: O_10  and  C_5 
REMARK    4  A    between atoms: O_11  and  C_6 
REMARK    5  A    between atoms: C_12  and  C_7 
ROOT
ATOM      1  C   UNL d   1       1.359  -0.332   0.080  0.00  0.00     0.046 A 
ATOM      2  C   UNL d   1       0.474  -1.419   0.073  0.00  0.00     0.085 A 
ATOM      3  C   UNL d   1       0.804   0.964   0.097  0.00  0.00     0.057 A 
ATOM      4  C   UNL d   1      -0.917  -1.169   0.025  0.00  0.00     0.077 A 
ATOM      5  C   UNL d   1      -0.574   1.201   0.078  0.00  0.00     0.102 A 
ATOM      6  C   UNL d   1      -1.458   0.120   0.001  0.00  0.00     0.104 A 
ENDROOT
BRANCH   1   7
ATOM      7  C   UNL d   1       2.858  -0.410   0.137  0.00  0.00     0.162 C 
ATOM      8  O   UNL d   1       3.422  -1.360   0.662  0.00  0.00    -0.292 OA
BRANCH   7   9
ATOM      9  C   UNL d   1       3.661   0.776  -0.405  0.00  0.00     0.079 C 
ATOM     10  C   UNL d   1       5.052   0.402  -0.886  0.00  0.00     0.013 C 
ENDBRANCH   7   9
ENDBRANCH   1   7
BRANCH   2  11
ATOM     11  O   UNL d   1       0.705  -2.761   0.181  0.00  0.00    -0.355 OA
ATOM     12  C   UNL d   1       1.851  -3.348  -0.403  0.00  0.00     0.210 C 
ENDBRANCH   2  11
BRANCH   5  13
ATOM     13  O   UNL d   1      -0.897   2.533   0.097  0.00  0.00    -0.353 OA
ATOM     14  C   UNL d   1      -2.106   2.885   0.760  0.00  0.00     0.210 C 
ENDBRANCH   5  13
BRANCH   6  15
ATOM     15  O   UNL d   1      -2.794   0.388  -0.103  0.00  0.00    -0.353 OA
ATOM     16  C   UNL d   1      -3.685  -0.707  -0.270  0.00  0.00     0.210 C 
ENDBRANCH   6  15
TORSDOF 5
