REMARK  1 active torsions:
REMARK  status: ('A' for Active; 'I' for Inactive)
REMARK    1  A    between atoms: N_6  and  C_1 
ROOT
ATOM      1  C   UNL d   1       1.192  -1.245  -0.054  0.00  0.00     0.115 A 
ATOM      2  N   UNL d   1      -1.168  -1.053  -0.736  0.00  0.00    -0.274 N 
ATOM      3  C   UNL d   1      -0.062  -1.859  -0.662  0.00  0.00     0.277 A 
ATOM      4  C   UNL d   1      -1.271   0.200  -0.217  0.00  0.00     0.327 A 
ATOM      5  C   UNL d   1       1.037  -0.001   0.432  0.00  0.00     0.128 A 
ATOM      6  N   UNL d   1      -0.140   0.690   0.364  0.00  0.00    -0.316 N 
ATOM      7  O   UNL d   1      -0.121  -3.024  -1.049  0.00  0.00    -0.266 OA
ATOM      8  O   UNL d   1      -2.311   0.849  -0.260  0.00  0.00    -0.247 OA
ATOM      9  H   UNL d   1      -2.002  -1.458  -1.129  0.00  0.00     0.173 HD
ATOM     10  H   UNL d   1      -0.207   1.630   0.736  0.00  0.00     0.170 HD
ENDROOT
BRANCH   1  11
ATOM     11  N   UNL d   1       2.398  -1.955  -0.033  0.00  0.00    -0.371 N 
ATOM     12  C   UNL d   1       2.760  -2.995  -1.019  0.00  0.00     0.149 C 
ATOM     13  C   UNL d   1       4.187  -2.732  -1.536  0.00  0.00     0.187 C 
ATOM     14  O   UNL d   1       5.145  -2.655  -0.467  0.00  0.00    -0.388 OA
ATOM     15  C   UNL d   1       4.784  -1.613   0.454  0.00  0.00     0.187 C 
ATOM     16  C   UNL d   1       3.394  -1.860   1.052  0.00  0.00     0.149 C 
ENDBRANCH   1  11
TORSDOF 1
