REMARK  4 active torsions:
REMARK  status: ('A' for Active; 'I' for Inactive)
REMARK    1  A    between atoms: C_6  and  N_2 
REMARK    2  A    between atoms: C_8  and  C_6 
REMARK    3  A    between atoms: C_7  and  C_11 
REMARK       I    between atoms: N_12  and  C_8 
REMARK    4  A    between atoms: C_15  and  N_12 
ROOT
ATOM      1  C   UNL d   1       1.905  -3.364  -0.053  0.00  0.00     0.241 C 
ATOM      2  N   UNL d   1       1.572  -4.090   1.086  0.00  0.00    -0.326 N 
ATOM      3  O   UNL d   1       1.966  -3.811  -1.195  0.00  0.00    -0.271 OA
ATOM      4  H   UNL d   1       1.245  -3.560   1.889  0.00  0.00     0.169 HD
ENDROOT
BRANCH   1   5
ATOM      5  C   UNL d   1       2.227  -1.905   0.196  0.00  0.00     0.248 C 
BRANCH   5   6
ATOM      6  N   UNL d   1       1.127  -0.975   0.452  0.00  0.00    -0.228 N 
ATOM      7  S   UNL d   1      -0.350  -1.494   1.051  0.00  0.00     0.269 S 
ATOM      8  C   UNL d   1      -0.785   0.089   1.625  0.00  0.00     0.095 A 
ATOM      9  O   UNL d   1      -1.226  -1.857  -0.035  0.00  0.00    -0.200 OA
ATOM     10  O   UNL d   1      -0.105  -2.326   2.208  0.00  0.00    -0.200 OA
ATOM     11  C   UNL d   1       0.186   1.016   1.275  0.00  0.00     0.056 A 
ATOM     12  C   UNL d   1      -1.823   0.383   2.488  0.00  0.00     0.026 A 
ATOM     13  C   UNL d   1       0.142   2.306   1.775  0.00  0.00     0.018 A 
ATOM     14  C   UNL d   1       1.306   0.424   0.525  0.00  0.00     0.269 A 
ATOM     15  C   UNL d   1      -0.895   2.631   2.656  0.00  0.00     0.001 A 
ATOM     16  C   UNL d   1      -1.869   1.677   3.009  0.00  0.00     0.002 A 
ATOM     17  O   UNL d   1       2.283   1.031   0.130  0.00  0.00    -0.266 OA
ENDBRANCH   5   6
ENDBRANCH   1   5
BRANCH   2  18
ATOM     18  C   UNL d   1       1.223  -5.458   1.076  0.00  0.00     0.035 A 
ATOM     19  C   UNL d   1       1.651  -6.325   0.071  0.00  0.00     0.045 A 
ATOM     20  C   UNL d   1       1.156  -7.632  -0.016  0.00  0.00     0.050 A 
ATOM     21  C   UNL d   1       0.275  -8.090   0.973  0.00  0.00     0.016 A 
ATOM     22  C   UNL d   1      -0.095  -7.255   2.028  0.00  0.00     0.003 A 
ATOM     23  C   UNL d   1       0.381  -5.941   2.082  0.00  0.00     0.029 A 
BRANCH  20  24
ATOM     24  C   UNL d   1       1.527  -8.503  -1.189  0.00  0.00     0.417 C 
ATOM     25  F   UNL d   1       2.355  -7.899  -2.086  0.00  0.00    -0.166 F 
ATOM     26  F   UNL d   1       2.163  -9.646  -0.809  0.00  0.00    -0.166 F 
ATOM     27  F   UNL d   1       0.436  -8.902  -1.901  0.00  0.00    -0.166 F 
ENDBRANCH  20  24
ENDBRANCH   2  18
TORSDOF 4
