REMARK  5 active torsions:
REMARK  status: ('A' for Active; 'I' for Inactive)
REMARK    1  A    between atoms: N_2  and  C_1 
REMARK       I    between atoms: C_3  and  N_2 
REMARK    2  A    between atoms: C_8  and  N_2 
REMARK    3  A    between atoms: C_6  and  C_3 
REMARK    4  A    between atoms: C_9  and  C_11 
REMARK    5  A    between atoms: C_10  and  C_12 
ROOT
ATOM      1  N   UNL d   1      -3.278  -1.424  -0.026  0.00  0.00    -0.257 N 
ATOM      2  C   UNL d   1      -3.519  -2.816  -0.031  0.00  0.00     0.270 C 
ATOM      3  O   UNL d   1      -4.523  -3.336  -0.523  0.00  0.00    -0.266 OA
ENDROOT
BRANCH   1   4
ATOM      4  C   UNL d   1      -1.970  -0.916  -0.069  0.00  0.00     0.159 A 
ATOM      5  N   UNL d   1      -1.569   0.235   0.429  0.00  0.00    -0.335 N 
ATOM      6  C   UNL d   1      -0.214   0.416   0.238  0.00  0.00     0.051 A 
ATOM      7  HN  UNL d   1      -2.180   0.905   0.894  1.00  0.00     0.168 HD
ATOM      8  C   UNL d   1       0.535   1.530   0.663  0.00  0.00     0.031 A 
ATOM      9  C   UNL d   1       0.435  -0.621  -0.427  0.00  0.00     0.035 A 
ATOM     10  C   UNL d   1       1.917   1.558   0.450  0.00  0.00     0.002 A 
ATOM     11  C   UNL d   1       2.552   0.490  -0.178  0.00  0.00     0.002 A 
ATOM     12  C   UNL d   1       1.824  -0.613  -0.635  0.00  0.00     0.021 A 
ATOM     13  S   UNL d   1      -0.736  -1.784  -0.906  0.00  0.00    -0.051 SA
ENDBRANCH   1   4
BRANCH   1  14
ATOM     14  C   UNL d   1      -4.378  -0.481   0.095  0.00  0.00     0.046 A 
ATOM     15  C   UNL d   1      -5.659  -0.908   0.499  0.00  0.00     0.046 A 
ATOM     16  C   UNL d   1      -6.735  -0.014   0.670  0.00  0.00     0.050 A 
ATOM     17  C   UNL d   1      -6.523   1.353   0.462  0.00  0.00     0.032 A 
ATOM     18  C   UNL d   1      -5.270   1.823   0.056  0.00  0.00     0.050 A 
ATOM     19  C   UNL d   1      -4.232   0.897  -0.158  0.00  0.00     0.046 A 
BRANCH  16  20
ATOM     20  C   UNL d   1      -8.102  -0.506   1.086  0.00  0.00     0.417 C 
ATOM     21  F   UNL d   1      -8.174  -1.851   1.275  0.00  0.00    -0.166 F 
ATOM     22  F   UNL d   1      -8.516   0.057   2.256  0.00  0.00    -0.166 F 
ATOM     23  F   UNL d   1      -9.061  -0.202   0.169  0.00  0.00    -0.166 F 
ENDBRANCH  16  20
BRANCH  18  24
ATOM     24  C   UNL d   1      -5.037   3.305  -0.121  0.00  0.00     0.417 C 
ATOM     25  F   UNL d   1      -3.759   3.627  -0.459  0.00  0.00    -0.166 F 
ATOM     26  F   UNL d   1      -5.827   3.842  -1.092  0.00  0.00    -0.166 F 
ATOM     27  F   UNL d   1      -5.311   4.008   1.013  0.00  0.00    -0.166 F 
ENDBRANCH  18  24
ENDBRANCH   1  14
BRANCH   2  28
ATOM     28  C   UNL d   1      -2.592  -3.732   0.682  0.00  0.00     0.110 A 
ATOM     29  C   UNL d   1      -2.035  -3.395   1.917  0.00  0.00     0.135 A 
ATOM     30  F   UNL d   1      -2.349  -2.241   2.521  0.00  0.00    -0.205 F 
ATOM     31  C   UNL d   1      -1.128  -4.243   2.553  0.00  0.00     0.043 A 
ATOM     32  C   UNL d   1      -0.801  -5.469   1.976  0.00  0.00     0.006 A 
ATOM     33  C   UNL d   1      -1.389  -5.840   0.767  0.00  0.00     0.043 A 
ATOM     34  C   UNL d   1      -2.279  -4.974   0.128  0.00  0.00     0.135 A 
ATOM     35  F   UNL d   1      -2.787  -5.354  -1.052  0.00  0.00    -0.205 F 
ENDBRANCH   2  28
TORSDOF 5
