REMARK  3 active torsions:
REMARK  status: ('A' for Active; 'I' for Inactive)
REMARK    1  A    between atoms: C_9  and  C_3 
REMARK    2  A    between atoms: N_4  and  C_16 
REMARK    3  A    between atoms: C_13  and  C_10 
ROOT
ATOM      1  C   UNL d   1       1.487  -2.159  -0.026  0.00  0.00    -0.001 A 
ATOM      2  C   UNL d   1       1.375  -3.080  -1.077  0.00  0.00     0.016 A 
ATOM      3  C   UNL d   1       2.467  -2.387   0.948  0.00  0.00     0.016 A 
ATOM      4  C   UNL d   1       3.145  -4.462  -0.137  0.00  0.00     0.031 A 
ATOM      5  C   UNL d   1       3.283  -3.525   0.889  0.00  0.00     0.030 A 
ATOM      6  C   UNL d   1       2.204  -4.206  -1.138  0.00  0.00     0.030 A 
ENDROOT
BRANCH   4   7
ATOM      7  N   UNL d   1       3.980  -5.594  -0.114  0.00  0.00    -0.365 N 
ATOM      8  C   UNL d   1       3.518  -6.727  -0.537  0.00  0.00     0.101 C 
ATOM      9  HN  UNL d   1       4.936  -5.524   0.233  1.00  0.00     0.165 HD
BRANCH   8  10
ATOM     10  C   UNL d   1       4.312  -7.964  -0.486  0.00  0.00    -0.005 A 
ATOM     11  C   UNL d   1       3.794  -9.124  -1.046  0.00  0.00     0.100 A 
ATOM     12  N   UNL d   1       4.427 -10.321  -1.014  0.00  0.00    -0.374 N 
ATOM     13  C   UNL d   1       5.627 -10.353  -0.391  0.00  0.00     0.087 A 
ATOM     14  HN  UNL d   1       4.021 -11.154  -1.439  1.00  0.00     0.164 HD
ATOM     15  C   UNL d   1       6.224  -9.246   0.194  0.00  0.00     0.018 A 
ATOM     16  C   UNL d   1       5.553  -8.025   0.142  0.00  0.00     0.015 A 
ENDBRANCH   8  10
ENDBRANCH   4   7
BRANCH   1  17
ATOM     17  C   UNL d   1       0.594  -1.009   0.033  0.00  0.00     0.102 A 
ATOM     18  C   UNL d   1      -0.506  -0.583  -0.685  0.00  0.00     0.127 A 
ATOM     19  N   UNL d   1      -0.979   0.601  -0.182  0.00  0.00    -0.354 N 
ATOM     20  C   UNL d   1      -0.160   0.851   0.816  0.00  0.00     0.233 A 
ATOM     21  HN  UNL d   1      -1.774   1.153  -0.503  1.00  0.00     0.166 HD
ATOM     22  O   UNL d   1       0.815  -0.074   1.012  0.00  0.00    -0.304 OA
ENDBRANCH   1  17
TORSDOF 3
