REMARK  4 active torsions:
REMARK  status: ('A' for Active; 'I' for Inactive)
REMARK    1  A    between atoms: C_14  and  C_2 
REMARK    2  A    between atoms: N_13  and  C_10 
REMARK    3  A    between atoms: C_15  and  N_13 
REMARK    4  A    between atoms: O_18  and  N_16 
ROOT
ATOM      1  N   UNL d   1       0.092   0.627  -0.019  0.00  0.00    -0.219 N 
ATOM      2  C   UNL d   1       1.373   1.162  -0.033  0.00  0.00     0.154 A 
ATOM      3  N   UNL d   1       2.241   0.162  -0.120  0.00  0.00    -0.282 N 
ATOM      4  HN  UNL d   1       3.254   0.262  -0.180  1.00  0.00     0.188 HD
ATOM      5  C   UNL d   1       0.280  -0.742  -0.052  0.00  0.00     0.143 A 
ATOM      6  N   UNL d   1      -1.119   1.290  -0.001  0.00  0.00    -0.275 N 
ATOM      7  HN  UNL d   1      -1.190   2.307   0.009  1.00  0.00     0.189 HD
ATOM      8  N   UNL d   1       1.558  -1.025  -0.117  0.00  0.00    -0.282 N 
ATOM      9  HN  UNL d   1       1.968  -1.958  -0.158  1.00  0.00     0.188 HD
ATOM     10  C   UNL d   1      -2.172   0.504   0.002  0.00  0.00     0.121 A 
ATOM     11  C   UNL d   1      -0.858  -1.562  -0.019  0.00  0.00     0.056 A 
ATOM     12  C   UNL d   1      -2.066  -0.992   0.009  0.00  0.00     0.054 A 
ENDROOT
BRANCH  10  13
ATOM     13  N   UNL d   1      -3.396   1.130  -0.001  0.00  0.00    -0.336 N 
ATOM     14  H   UNL d   1      -3.289   2.138  -0.018  0.00  0.00     0.168 HD
BRANCH  13  15
ATOM     15  C   UNL d   1      -4.693   0.688  -0.009  0.00  0.00     0.205 C 
ATOM     16  N   UNL d   1      -5.113  -0.532  -0.006  0.00  0.00    -0.265 N 
ATOM     17  HN  UNL d   1      -4.516  -1.359   0.004  1.00  0.00     0.194 HD
BRANCH  16  18
ATOM     18  O   UNL d   1      -6.510  -0.548  -0.018  0.00  0.00    -0.289 OA
ATOM     19  H   UNL d   1      -6.708  -1.503  -0.019  0.00  0.00     0.244 HD
ENDBRANCH  16  18
ENDBRANCH  13  15
ENDBRANCH  10  13
BRANCH   2  20
ATOM     20  C   UNL d   1       1.750   2.578   0.025  0.00  0.00     0.011 A 
ATOM     21  C   UNL d   1       0.970   3.550   0.664  0.00  0.00     0.015 A 
ATOM     22  C   UNL d   1       1.410   4.876   0.748  0.00  0.00     0.001 A 
ATOM     23  C   UNL d   1       2.635   5.246   0.196  0.00  0.00     0.000 A 
ATOM     24  C   UNL d   1       3.422   4.294  -0.443  0.00  0.00     0.001 A 
ATOM     25  C   UNL d   1       2.983   2.970  -0.525  0.00  0.00     0.015 A 
ENDBRANCH   2  20
TORSDOF 4
