REMARK  5 active torsions:
REMARK  status: ('A' for Active; 'I' for Inactive)
REMARK    1  A    between atoms: C_3  and  C_1 
REMARK    2  A    between atoms: C_10  and  C_2 
REMARK    3  A    between atoms: C_8  and  C_5 
REMARK    4  A    between atoms: C_9  and  C_7 
REMARK    5  A    between atoms: C_11  and  C_9 
ROOT
ATOM      1  C   UNL d   1       0.165   1.235   0.058  0.00  0.00     0.100 A 
ATOM      2  C   UNL d   1       1.468   0.763  -0.027  0.00  0.00    -0.003 A 
ATOM      3  S   UNL d   1      -0.966  -0.070   0.097  0.00  0.00    -0.085 SA
ATOM      4  C   UNL d   1       0.252  -1.274   0.064  0.00  0.00     0.006 A 
ATOM      5  C   UNL d   1       1.493  -0.674  -0.028  0.00  0.00     0.032 A 
ENDROOT
BRANCH   4   6
ATOM      6  C   UNL d   1      -0.115  -2.652   0.116  0.00  0.00     0.023 C 
ATOM      7  C   UNL d   1       0.817  -3.617   0.101  0.00  0.00     0.057 C 
BRANCH   7   8
ATOM      8  C   UNL d   1       0.434  -5.055   0.122  0.00  0.00     0.182 C 
ATOM      9  O   UNL d   1      -0.663  -5.436   0.505  0.00  0.00    -0.288 OA
BRANCH   8  10
ATOM     10  C   UNL d   1       1.483  -6.019  -0.299  0.00  0.00     0.014 A 
ATOM     11  C   UNL d   1       1.537  -7.271   0.325  0.00  0.00     0.017 A 
ATOM     12  C   UNL d   1       2.527  -8.190  -0.036  0.00  0.00     0.025 A 
ATOM     13  C   UNL d   1       3.450  -7.861  -1.028  0.00  0.00     0.034 A 
ATOM     14  C   UNL d   1       3.388  -6.625  -1.671  0.00  0.00     0.025 A 
ATOM     15 CL   UNL d   1       4.675  -8.988  -1.468  0.00  0.00    -0.084 Cl
ATOM     16  C   UNL d   1       2.401  -5.705  -1.312  0.00  0.00     0.017 A 
ENDBRANCH   8  10
ENDBRANCH   7   8
ENDBRANCH   4   6
BRANCH   1  17
ATOM     17  C   UNL d   1      -0.400   2.620   0.107  0.00  0.00     0.424 C 
ATOM     18  F   UNL d   1       0.505   3.569   0.458  0.00  0.00    -0.166 F 
ATOM     19  F   UNL d   1      -0.901   2.991  -1.102  0.00  0.00    -0.166 F 
ATOM     20  F   UNL d   1      -1.419   2.735   1.002  0.00  0.00    -0.166 F 
ENDBRANCH   1  17
BRANCH   2  21
ATOM     21  C   UNL d   1       2.677   1.591  -0.064  0.00  0.00    -0.025 A 
ATOM     22  C   UNL d   1       3.791   1.205   0.705  0.00  0.00     0.012 A 
ATOM     23  C   UNL d   1       4.984   1.929   0.658  0.00  0.00     0.001 A 
ATOM     24  C   UNL d   1       5.076   3.059  -0.149  0.00  0.00     0.000 A 
ATOM     25  C   UNL d   1       3.982   3.452  -0.919  0.00  0.00     0.001 A 
ATOM     26  C   UNL d   1       2.795   2.711  -0.895  0.00  0.00     0.012 A 
ENDBRANCH   2  21
TORSDOF 5
