REMARK  4 active torsions:
REMARK  status: ('A' for Active; 'I' for Inactive)
REMARK    1  A    between atoms: N_3  and  C_1 
REMARK    2  A    between atoms: N_9  and  C_1 
REMARK    3  A    between atoms: C_2  and  N_3 
REMARK    4  A    between atoms: C_11  and  N_9 
ROOT
ATOM      1  C   UNL d   1       1.010   0.026  -0.028  0.00  0.00     0.176 C 
ATOM      2  S   UNL d   1       0.480   1.238  -1.063  0.00  0.00    -0.041 SA
ENDROOT
BRANCH   1   3
ATOM      3  N   UNL d   1       2.333  -0.408   0.063  0.00  0.00    -0.332 N 
ATOM      4  H   UNL d   1       2.427  -1.418  -0.018  0.00  0.00     0.168 HD
BRANCH   3   5
ATOM      5  C   UNL d   1       3.502   0.338  -0.233  0.00  0.00     0.058 A 
ATOM      6  C   UNL d   1       3.593   1.690   0.116  0.00  0.00     0.057 A 
ATOM      7  C   UNL d   1       4.769   2.409  -0.119  0.00  0.00     0.058 A 
ATOM      8 CL   UNL d   1       4.801   4.069   0.357  0.00  0.00    -0.082 Cl
ATOM      9  C   UNL d   1       5.871   1.773  -0.699  0.00  0.00     0.057 A 
ATOM     10  C   UNL d   1       5.796   0.419  -1.038  0.00  0.00     0.051 A 
ATOM     11 CL   UNL d   1       7.359   2.596  -1.002  0.00  0.00    -0.082 Cl
ATOM     12  C   UNL d   1       4.622  -0.297  -0.792  0.00  0.00     0.062 A 
ATOM     13 CL   UNL d   1       4.574  -1.969  -1.227  0.00  0.00    -0.082 Cl
ENDBRANCH   3   5
ENDBRANCH   1   3
BRANCH   1  14
ATOM     14  N   UNL d   1       0.226  -0.702   0.868  0.00  0.00    -0.333 N 
ATOM     15  H   UNL d   1       0.696  -0.876   1.747  0.00  0.00     0.168 HD
BRANCH  14  16
ATOM     16  C   UNL d   1      -1.185  -0.782   0.901  0.00  0.00     0.035 A 
ATOM     17  C   UNL d   1      -1.834  -0.785   2.141  0.00  0.00     0.041 A 
ATOM     18  C   UNL d   1      -3.241  -0.830   2.220  0.00  0.00    -0.024 A 
ATOM     19  C   UNL d   1      -3.922  -0.763   3.447  0.00  0.00     0.012 A 
ATOM     20  C   UNL d   1      -3.994  -0.929   1.026  0.00  0.00    -0.026 A 
ATOM     21  C   UNL d   1      -5.319  -0.790   3.492  0.00  0.00     0.001 A 
ATOM     22  C   UNL d   1      -6.054  -0.891   2.314  0.00  0.00     0.001 A 
ATOM     23  C   UNL d   1      -5.395  -0.963   1.088  0.00  0.00     0.012 A 
ATOM     24  C   UNL d   1      -3.329  -0.987  -0.205  0.00  0.00     0.014 A 
ATOM     25  C   UNL d   1      -1.937  -0.916  -0.265  0.00  0.00     0.030 A 
ENDBRANCH  14  16
ENDBRANCH   1  14
TORSDOF 4
