REMARK  6 active torsions:
REMARK  status: ('A' for Active; 'I' for Inactive)
REMARK    1  A    between atoms: C_6  and  C_2 
REMARK    2  A    between atoms: C_15  and  C_3 
REMARK    3  A    between atoms: C_9  and  C_4 
REMARK    4  A    between atoms: O_18  and  C_6 
REMARK    5  A    between atoms: C_7  and  S_10 
REMARK    6  A    between atoms: S_10  and  C_15 
ROOT
ATOM      1  S   UNL d   1      -1.086   0.037   0.082  0.00  0.00    -0.087 SA
ATOM      2  C   UNL d   1       0.024   1.352   0.070  0.00  0.00     0.087 A 
ATOM      3  C   UNL d   1       1.343   0.901   0.093  0.00  0.00    -0.024 A 
ATOM      4  C   UNL d   1       0.144  -1.155   0.082  0.00  0.00    -0.008 A 
ATOM      5  C   UNL d   1       1.383  -0.545   0.126  0.00  0.00     0.024 A 
ENDROOT
BRANCH   3   6
ATOM      6  C   UNL d   1       2.606   1.727  -0.003  0.00  0.00     0.119 C 
BRANCH   6   7
ATOM      7  S   UNL d   1       3.189   2.349   1.611  0.00  0.00    -0.125 SA
BRANCH   7   8
ATOM      8  C   UNL d   1       4.776   3.052   1.125  0.00  0.00     0.007 A 
ATOM      9  C   UNL d   1       5.930   2.488   1.703  0.00  0.00     0.027 A 
ATOM     10  C   UNL d   1       7.223   2.929   1.361  0.00  0.00    -0.039 A 
ATOM     11  C   UNL d   1       8.428   2.329   2.032  0.00  0.00     0.050 C 
ATOM     12  C   UNL d   1       7.352   3.926   0.389  0.00  0.00     0.040 A 
ATOM     13  C   UNL d   1       6.216   4.525  -0.156  0.00  0.00     0.032 A 
ATOM     14 CL   UNL d   1       8.896   4.468  -0.163  0.00  0.00    -0.084 Cl
ATOM     15  C   UNL d   1       4.922   4.135   0.239  0.00  0.00    -0.044 A 
ATOM     16  C   UNL d   1       3.774   4.920  -0.328  0.00  0.00     0.049 C 
ENDBRANCH   7   8
ENDBRANCH   6   7
ENDBRANCH   3   6
BRANCH   2  17
ATOM     17  C   UNL d   1      -0.567   2.687   0.011  0.00  0.00     0.300 C 
ATOM     18  O   UNL d   1      -1.759   2.942  -0.114  0.00  0.00    -0.259 OA
BRANCH  17  19
ATOM     19  O   UNL d   1       0.398   3.648   0.095  0.00  0.00    -0.322 OA
ATOM     20  C   UNL d   1      -0.098   4.990   0.059  0.00  0.00     0.213 C 
ENDBRANCH  17  19
ENDBRANCH   2  17
BRANCH   4  21
ATOM     21  C   UNL d   1      -0.215  -2.650   0.031  0.00  0.00    -0.018 C 
ATOM     22  C   UNL d   1      -0.975  -2.984  -1.271  0.00  0.00     0.020 C 
ATOM     23  C   UNL d   1       1.057  -3.524   0.061  0.00  0.00     0.020 C 
ATOM     24  C   UNL d   1      -1.085  -3.047   1.240  0.00  0.00     0.020 C 
ENDBRANCH   4  21
TORSDOF 6
