REMARK  4 active torsions:
REMARK  status: ('A' for Active; 'I' for Inactive)
REMARK    1  A    between atoms: C_14  and  N_1 
REMARK    2  A    between atoms: C_13  and  C_6 
REMARK    3  A    between atoms: C_8  and  C_9 
REMARK       I    between atoms: C_9  and  N_12 
REMARK    4  A    between atoms: N_12  and  C_13 
ROOT
ATOM      1  N   UNL d   1      -0.046  -1.096   0.070  0.00  0.00    -0.197 N 
ATOM      2  N   UNL d   1       1.223  -0.644   0.282  0.00  0.00    -0.280 N 
ATOM      3  HN  UNL d   1       2.069  -1.181   0.470  1.00  0.00     0.189 HD
ATOM      4  N   UNL d   1      -0.992  -0.135  -0.111  0.00  0.00    -0.282 N 
ATOM      5  HN  UNL d   1      -1.992  -0.249  -0.276  1.00  0.00     0.189 HD
ATOM      6  C   UNL d   1       1.080   0.685   0.179  0.00  0.00     0.069 A 
ATOM      7  C   UNL d   1      -0.283   0.996  -0.018  0.00  0.00     0.049 A 
ATOM      8  C   UNL d   1      -0.925   2.325  -0.130  0.00  0.00     0.072 C 
ENDROOT
BRANCH   6   9
ATOM      9  C   UNL d   1       2.247   1.606   0.246  0.00  0.00     0.183 C 
BRANCH   9  10
ATOM     10  N   UNL d   1       2.478   2.016   1.614  0.00  0.00    -0.355 N 
ATOM     11  C   UNL d   1       2.345   3.324   2.004  0.00  0.00     0.222 C 
ATOM     12  O   UNL d   1       1.978   4.215   1.246  0.00  0.00    -0.273 OA
ATOM     13  H   UNL d   1       2.728   1.302   2.281  0.00  0.00     0.162 HD
BRANCH  11  14
ATOM     14  C   UNL d   1       2.658   3.661   3.416  0.00  0.00     0.078 A 
ATOM     15  C   UNL d   1       3.267   2.737   4.440  0.00  0.00     0.015 A 
ATOM     16  C   UNL d   1       1.808   3.080   4.522  0.00  0.00     0.015 A 
ENDBRANCH  11  14
ENDBRANCH   9  10
ENDBRANCH   6   9
BRANCH   1  17
ATOM     17  C   UNL d   1      -0.356  -2.482   0.039  0.00  0.00     0.074 A 
ATOM     18  C   UNL d   1       0.638  -3.428   0.333  0.00  0.00     0.033 A 
ATOM     19  C   UNL d   1       0.335  -4.791   0.311  0.00  0.00     0.002 A 
ATOM     20  C   UNL d   1      -0.952  -5.216  -0.019  0.00  0.00     0.000 A 
ATOM     21  C   UNL d   1      -1.941  -4.280  -0.323  0.00  0.00     0.002 A 
ATOM     22  C   UNL d   1      -1.649  -2.914  -0.291  0.00  0.00     0.033 A 
ENDBRANCH   1  17
TORSDOF 4
