REMARK  2 active torsions:
REMARK  status: ('A' for Active; 'I' for Inactive)
REMARK    1  A    between atoms: C_13  and  N_6 
REMARK    2  A    between atoms: O_23  and  C_20 
ROOT
ATOM      1  C   UNL d   1       0.954  -0.873  -0.378  0.00  0.00     0.102 C 
ATOM      2  C   UNL d   1       0.498   0.429  -0.282  0.00  0.00     0.071 C 
ATOM      3  C   UNL d   1       2.299  -1.391  -0.312  0.00  0.00     0.268 C 
ATOM      4  S   UNL d   1      -0.316  -2.007  -0.458  0.00  0.00    -0.064 SA
ATOM      5  C   UNL d   1      -0.962   0.497  -0.288  0.00  0.00     0.032 A 
ATOM      6  N   UNL d   1       3.015  -0.761   0.704  0.00  0.00    -0.304 N 
ATOM      7  C   UNL d   1      -1.484  -0.797  -0.239  0.00  0.00     0.088 A 
ATOM      8  N   UNL d   1       1.304   1.550  -0.135  0.00  0.00    -0.324 N 
ATOM      9  N   UNL d   1      -2.766  -1.161  -0.042  0.00  0.00    -0.354 N 
ATOM     10  HN  UNL d   1      -3.062  -2.137  -0.022  1.00  0.00     0.166 HD
ATOM     11  C   UNL d   1      -1.922   1.554  -0.235  0.00  0.00    -0.045 A 
ATOM     12  C   UNL d   1       2.612   1.686   0.205  0.00  0.00     0.240 C 
ATOM     13  C   UNL d   1       3.580   0.517   0.309  0.00  0.00     0.235 C 
ATOM     14  O   UNL d   1       2.725  -2.312  -0.993  0.00  0.00    -0.266 OA
ATOM     15  C   UNL d   1      -3.262   1.186  -0.004  0.00  0.00     0.032 A 
ATOM     16  C   UNL d   1      -3.624  -0.145   0.125  0.00  0.00     0.006 A 
ATOM     17  O   UNL d   1       3.037   2.843   0.323  0.00  0.00    -0.271 OA
ATOM     18  C   UNL d   1      -1.684   3.038  -0.370  0.00  0.00     0.049 C 
ATOM     19  C   UNL d   1      -5.039  -0.492   0.482  0.00  0.00     0.068 C 
ATOM     20  H   UNL d   1       0.852   2.449  -0.156  0.00  0.00     0.169 HD
ENDROOT
BRANCH   6  21
ATOM     21  C   UNL d   1       3.634  -1.501   1.762  0.00  0.00     0.040 A 
ATOM     22  C   UNL d   1       3.769  -2.898   1.716  0.00  0.00     0.066 A 
ATOM     23  C   UNL d   1       4.328  -3.611   2.781  0.00  0.00     0.070 A 
ATOM     24  C   UNL d   1       4.708  -2.928   3.935  0.00  0.00     0.037 A 
ATOM     25  C   UNL d   1       4.550  -1.547   4.018  0.00  0.00     0.005 A 
ATOM     26  C   UNL d   1       4.023  -0.838   2.936  0.00  0.00     0.030 A 
BRANCH  23  27
ATOM     27  O   UNL d   1       4.542  -4.963   2.814  0.00  0.00    -0.356 OA
ATOM     28  C   UNL d   1       4.291  -5.681   1.609  0.00  0.00     0.210 C 
ENDBRANCH  23  27
ENDBRANCH   6  21
TORSDOF 2
