REMARK  5 active torsions:
REMARK  status: ('A' for Active; 'I' for Inactive)
REMARK       I    between atoms: N_2  and  C_1 
REMARK       I    between atoms: N_8  and  C_1 
REMARK    1  A    between atoms: C_3  and  N_2 
REMARK    2  A    between atoms: C_4  and  N_2 
REMARK    3  A    between atoms: C_9  and  C_3 
REMARK    4  A    between atoms: C_10  and  C_4 
REMARK    5  A    between atoms: C_13  and  N_8 
ROOT
ATOM      1  C   UNL d   1       1.137   0.077   0.029  0.00  0.00     0.318 C 
ATOM      2  N   UNL d   1       0.315   0.164  -1.083  0.00  0.00    -0.326 N 
ATOM      3  O   UNL d   1       2.364   0.041  -0.049  0.00  0.00    -0.247 OA
ATOM      4  N   UNL d   1       0.495   0.048   1.240  0.00  0.00    -0.343 N 
ATOM      5  H   UNL d   1      -0.457  -0.281   1.262  0.00  0.00     0.164 HD
ENDROOT
BRANCH   2   6
ATOM      6  C   UNL d   1      -1.144   0.242  -1.046  0.00  0.00     0.167 C 
BRANCH   6   7
ATOM      7  C   UNL d   1      -1.839  -1.099  -0.965  0.00  0.00    -0.025 A 
ATOM      8  C   UNL d   1      -3.230  -1.136  -0.881  0.00  0.00     0.096 A 
ATOM      9  N   UNL d   1      -3.964  -2.269  -0.795  0.00  0.00    -0.375 N 
ATOM     10  C   UNL d   1      -3.285  -3.435  -0.798  0.00  0.00     0.087 A 
ATOM     11  HN  UNL d   1      -4.982  -2.244  -0.730  1.00  0.00     0.164 HD
ATOM     12  C   UNL d   1      -1.907  -3.518  -0.883  0.00  0.00     0.018 A 
ATOM     13  C   UNL d   1      -1.178  -2.332  -0.968  0.00  0.00     0.011 A 
ENDBRANCH   6   7
ENDBRANCH   2   6
BRANCH   2  14
ATOM     14  C   UNL d   1       0.938   0.179  -2.409  0.00  0.00     0.166 C 
BRANCH  14  15
ATOM     15  C   UNL d   1       1.130   1.568  -2.983  0.00  0.00    -0.040 A 
ATOM     16  C   UNL d   1       2.017   2.473  -2.382  0.00  0.00     0.009 A 
ATOM     17  C   UNL d   1       2.260   3.724  -2.953  0.00  0.00     0.001 A 
ATOM     18  C   UNL d   1       1.619   4.088  -4.135  0.00  0.00     0.000 A 
ATOM     19  C   UNL d   1       0.728   3.204  -4.740  0.00  0.00     0.001 A 
ATOM     20  C   UNL d   1       0.482   1.952  -4.168  0.00  0.00     0.009 A 
ENDBRANCH  14  15
ENDBRANCH   2  14
BRANCH   4  21
ATOM     21  C   UNL d   1       1.217  -0.004   2.496  0.00  0.00     0.120 C 
ATOM     22  C   UNL d   1       1.453  -1.431   2.960  0.00  0.00     0.026 C 
ENDBRANCH   4  21
TORSDOF 5
