REMARK  2 active torsions:
REMARK  status: ('A' for Active; 'I' for Inactive)
REMARK    1  A    between atoms: S_11  and  C_4 
REMARK    2  A    between atoms: C_12  and  C_7 
ROOT
ATOM      1  C   UNL d   1      -0.678   1.237   0.004  0.00  0.00     0.135 A 
ATOM      2  N   UNL d   1      -0.663  -1.174   0.026  0.00  0.00    -0.303 N 
ATOM      3  C   UNL d   1      -1.424  -0.044   0.032  0.00  0.00     0.270 A 
ATOM      4  C   UNL d   1       0.688  -1.116  -0.012  0.00  0.00     0.144 A 
ATOM      5  N   UNL d   1       1.372  -0.027  -0.046  0.00  0.00    -0.339 N 
ATOM      6  HN  UNL d   1       2.392  -0.042  -0.081  1.00  0.00     0.168 HD
ATOM      7  C   UNL d   1       0.671   1.167  -0.035  0.00  0.00     0.037 A 
ATOM      8  C   UNL d   1      -1.414   2.449   0.010  0.00  0.00     0.107 C 
ATOM      9  N   UNL d   1      -1.974   3.467   0.014  0.00  0.00    -0.191 NA
ATOM     10  O   UNL d   1      -2.648  -0.101   0.053  0.00  0.00    -0.266 OA
ATOM     11  H   UNL d   1      -1.131  -2.067   0.042  0.00  0.00     0.171 HD
ENDROOT
BRANCH   7  12
ATOM     12  C   UNL d   1       1.566   2.395  -0.105  0.00  0.00     0.054 C 
ATOM     13  C   UNL d   1       2.486   2.520   1.103  0.00  0.00     0.011 C 
ENDBRANCH   7  12
BRANCH   4  14
ATOM     14  S   UNL d   1       1.456  -2.663  -0.010  0.00  0.00    -0.107 SA
ATOM     15  H   UNL d   1       2.705  -2.176  -0.011  0.00  0.00     0.110 HD
ENDBRANCH   4  14
TORSDOF 2
