REMARK  8 active torsions:
REMARK  status: ('A' for Active; 'I' for Inactive)
REMARK    1  A    between atoms: C_9  and  C_1 
REMARK    2  A    between atoms: C_8  and  C_2 
REMARK    3  A    between atoms: C_7  and  C_3 
REMARK       I    between atoms: N_11  and  C_8 
REMARK    4  A    between atoms: O_19  and  C_9 
REMARK    5  A    between atoms: C_10  and  N_12 
REMARK    6  A    between atoms: N_13  and  C_10 
REMARK    7  A    between atoms: N_12  and  N_11 
REMARK    8  A    between atoms: C_22  and  N_13 
ROOT
ATOM      1  C   UNL d   1      -1.371  -0.314  -0.000  0.00  0.00     0.110 A 
ATOM      2  C   UNL d   1      -0.808   0.929  -0.238  0.00  0.00     0.186 A 
ATOM      3  C   UNL d   1      -0.283  -1.235  -0.156  0.00  0.00     0.087 A 
ATOM      4  N   UNL d   1       0.842  -0.569  -0.453  0.00  0.00    -0.259 N 
ATOM      5  HN  UNL d   1       1.757  -0.975  -0.645  1.00  0.00     0.195 HD
ATOM      6  O   UNL d   1       0.524   0.768  -0.448  0.00  0.00    -0.231 OA
ENDROOT
BRANCH   2   7
ATOM      7  C   UNL d   1      -1.300   2.289  -0.295  0.00  0.00     0.297 C 
ATOM      8  N   UNL d   1      -2.519   2.426  -0.923  0.00  0.00    -0.262 N 
ATOM      9  H   UNL d   1      -3.046   1.625  -1.268  0.00  0.00     0.190 HD
ATOM     10  O   UNL d   1      -0.695   3.265   0.142  0.00  0.00    -0.264 OA
BRANCH   8  11
ATOM     11  N   UNL d   1      -3.180   3.658  -0.953  0.00  0.00    -0.273 N 
ATOM     12  H   UNL d   1      -2.652   4.439  -0.561  0.00  0.00     0.189 HD
BRANCH  11  13
ATOM     13  C   UNL d   1      -4.054   3.937  -1.965  0.00  0.00     0.191 C 
ATOM     14  S   UNL d   1      -4.158   3.059  -3.394  0.00  0.00    -0.039 SA
BRANCH  13  15
ATOM     15  N   UNL d   1      -4.956   4.944  -1.794  0.00  0.00    -0.332 N 
ATOM     16  H   UNL d   1      -5.514   5.086  -2.630  0.00  0.00     0.168 HD
BRANCH  15  17
ATOM     17  C   UNL d   1      -5.455   5.577  -0.633  0.00  0.00     0.034 A 
ATOM     18  C   UNL d   1      -4.934   5.444   0.656  0.00  0.00     0.029 A 
ATOM     19  C   UNL d   1      -5.561   6.061   1.746  0.00  0.00     0.002 A 
ATOM     20  C   UNL d   1      -6.724   6.802   1.563  0.00  0.00     0.000 A 
ATOM     21  C   UNL d   1      -7.255   6.943   0.286  0.00  0.00     0.002 A 
ATOM     22  C   UNL d   1      -6.618   6.344  -0.804  0.00  0.00     0.029 A 
ENDBRANCH  15  17
ENDBRANCH  13  15
ENDBRANCH  11  13
ENDBRANCH   8  11
ENDBRANCH   2   7
BRANCH   1  23
ATOM     23  C   UNL d   1      -2.742  -0.628   0.333  0.00  0.00     0.298 C 
ATOM     24  O   UNL d   1      -3.053  -1.533   1.098  0.00  0.00    -0.259 OA
BRANCH  23  25
ATOM     25  O   UNL d   1      -3.632   0.114  -0.382  0.00  0.00    -0.322 OA
ATOM     26  C   UNL d   1      -4.999  -0.301  -0.275  0.00  0.00     0.213 C 
ENDBRANCH  23  25
ENDBRANCH   1  23
BRANCH   3  27
ATOM     27  C   UNL d   1      -0.285  -2.705  -0.086  0.00  0.00     0.037 A 
ATOM     28  C   UNL d   1      -1.221  -3.477  -0.809  0.00  0.00     0.048 A 
ATOM     29 CL   UNL d   1      -2.329  -2.797  -1.960  0.00  0.00    -0.083 Cl
ATOM     30  C   UNL d   1      -1.258  -4.873  -0.690  0.00  0.00     0.025 A 
ATOM     31  C   UNL d   1      -0.322  -5.539   0.091  0.00  0.00     0.003 A 
ATOM     32  C   UNL d   1       0.651  -4.806   0.761  0.00  0.00     0.025 A 
ATOM     33  C   UNL d   1       0.664  -3.404   0.692  0.00  0.00     0.048 A 
ATOM     34 CL   UNL d   1       1.891  -2.619   1.633  0.00  0.00    -0.083 Cl
ENDBRANCH   3  27
TORSDOF 8
