REMARK  8 active torsions:
REMARK  status: ('A' for Active; 'I' for Inactive)
REMARK    1  A    between atoms: N_2  and  C_1 
REMARK    2  A    between atoms: N_11  and  C_1 
REMARK    3  A    between atoms: C_4  and  N_3 
REMARK    4  A    between atoms: O_12  and  C_10 
REMARK    5  A    between atoms: C_16  and  N_11 
REMARK    6  A    between atoms: C_13  and  C_16 
REMARK    7  A    between atoms: C_17  and  C_13 
REMARK    8  A    between atoms: O_15  and  C_17 
ROOT
ATOM      1  N   UNL d   1       0.577  -1.132   0.665  0.00  0.00    -0.355 N 
ATOM      2  N   UNL d   1      -0.549  -3.322   2.148  0.00  0.00    -0.376 N 
ATOM      3  C   UNL d   1       0.891  -1.328   2.100  0.00  0.00     0.145 C 
ATOM      4  C   UNL d   1      -0.726  -1.700   0.287  0.00  0.00     0.145 C 
ATOM      5  C   UNL d   1       0.775  -2.806   2.527  0.00  0.00     0.143 C 
ATOM      6  C   UNL d   1      -0.853  -3.173   0.713  0.00  0.00     0.143 C 
ENDROOT
BRANCH   1   7
ATOM      7  C   UNL d   1       1.109  -0.025  -0.003  0.00  0.00     0.169 C 
ATOM      8  S   UNL d   1       0.211   1.069  -0.900  0.00  0.00    -0.041 SA
BRANCH   7   9
ATOM      9  N   UNL d   1       2.478   0.029   0.143  0.00  0.00    -0.367 N 
ATOM     10  H   UNL d   1       2.904  -0.822   0.483  0.00  0.00     0.161 HD
BRANCH   9  11
ATOM     11  C   UNL d   1       3.383   1.099  -0.237  0.00  0.00     0.124 C 
BRANCH  11  12
ATOM     12  C   UNL d   1       3.861   1.837   1.004  0.00  0.00     0.046 C 
BRANCH  12  13
ATOM     13  C   UNL d   1       4.725   3.028   0.625  0.00  0.00     0.168 C 
BRANCH  13  14
ATOM     14  O   UNL d   1       5.193   3.649   1.820  0.00  0.00    -0.396 OA
ATOM     15  C   UNL d   1       5.981   4.793   1.528  0.00  0.00     0.201 C 
ENDBRANCH  13  14
ENDBRANCH  12  13
ENDBRANCH  11  12
ENDBRANCH   9  11
ENDBRANCH   7   9
ENDBRANCH   1   7
BRANCH   2  16
ATOM     16  C   UNL d   1      -1.181  -4.315   2.897  0.00  0.00     0.064 A 
ATOM     17  C   UNL d   1      -1.379  -4.229   4.300  0.00  0.00     0.094 A 
ATOM     18  C   UNL d   1      -2.217  -5.152   4.956  0.00  0.00     0.039 A 
ATOM     19  C   UNL d   1      -2.810  -6.205   4.264  0.00  0.00     0.003 A 
ATOM     20  C   UNL d   1      -2.553  -6.360   2.914  0.00  0.00     0.002 A 
ATOM     21  C   UNL d   1      -1.756  -5.431   2.248  0.00  0.00     0.032 A 
BRANCH  17  22
ATOM     22  O   UNL d   1      -0.816  -3.173   4.981  0.00  0.00    -0.354 OA
ATOM     23  C   UNL d   1      -0.560  -3.401   6.365  0.00  0.00     0.210 C 
ENDBRANCH  17  22
ENDBRANCH   2  16
TORSDOF 8
