REMARK  4 active torsions:
REMARK  status: ('A' for Active; 'I' for Inactive)
REMARK    1  A    between atoms: C_8  and  N_1 
REMARK    2  A    between atoms: C_7  and  C_2 
REMARK    3  A    between atoms: N_13  and  C_10 
REMARK    4  A    between atoms: C_16  and  N_13 
ROOT
ATOM      1  N   UNL d   1       0.579  -0.150  -0.998  0.00  0.00    -0.225 N 
ATOM      2  C   UNL d   1       1.173  -0.675   0.151  0.00  0.00     0.139 A 
ATOM      3  N   UNL d   1      -0.796   0.042   0.644  0.00  0.00    -0.007 NA
ATOM      4  N   UNL d   1      -0.686   0.219  -0.660  0.00  0.00     0.001 NA
ATOM      5  N   UNL d   1       0.341  -0.503   1.160  0.00  0.00    -0.270 N 
ATOM      6  HN  UNL d   1       0.515  -0.735   2.139  1.00  0.00     0.185 HD
ENDROOT
BRANCH   2   7
ATOM      7  C   UNL d   1       2.429  -1.326   0.184  0.00  0.00     0.068 C 
ATOM      8  C   UNL d   1       2.552  -2.605  -0.200  0.00  0.00     0.092 C 
BRANCH   8   9
ATOM      9  N   UNL d   1       3.678  -3.381  -0.079  0.00  0.00    -0.366 N 
ATOM     10  H   UNL d   1       4.430  -2.989   0.479  0.00  0.00     0.165 HD
BRANCH   9  11
ATOM     11  C   UNL d   1       3.843  -4.726  -0.457  0.00  0.00     0.033 A 
ATOM     12  C   UNL d   1       4.781  -5.515   0.230  0.00  0.00     0.056 A 
ATOM     13  C   UNL d   1       4.941  -6.869  -0.079  0.00  0.00     0.074 A 
ATOM     14 CL   UNL d   1       6.091  -7.808   0.795  0.00  0.00    -0.081 Cl
ATOM     15  C   UNL d   1       4.168  -7.448  -1.080  0.00  0.00     0.138 A 
ATOM     16  C   UNL d   1       3.233  -6.687  -1.771  0.00  0.00     0.046 A 
ATOM     17  F   UNL d   1       4.308  -8.744  -1.395  0.00  0.00    -0.204 F 
ATOM     18  C   UNL d   1       3.067  -5.335  -1.454  0.00  0.00     0.032 A 
ENDBRANCH   9  11
ENDBRANCH   8   9
ENDBRANCH   2   7
BRANCH   1  19
ATOM     19  C   UNL d   1       1.050   0.082  -2.322  0.00  0.00     0.056 A 
ATOM     20  C   UNL d   1       0.112   0.388  -3.327  0.00  0.00     0.032 A 
ATOM     21  C   UNL d   1       0.527   0.663  -4.633  0.00  0.00     0.021 A 
ATOM     22  C   UNL d   1       1.883   0.652  -4.941  0.00  0.00     0.011 A 
ATOM     23  C   UNL d   1       2.825   0.357  -3.957  0.00  0.00     0.021 A 
ATOM     24 BR   UNL d   1       2.451   1.060  -6.696  0.00  0.00    -0.051 Br
ATOM     25  C   UNL d   1       2.412   0.067  -2.649  0.00  0.00     0.032 A 
ENDBRANCH   1  19
TORSDOF 4
