REMARK  2 active torsions:
REMARK  status: ('A' for Active; 'I' for Inactive)
REMARK    1  A    between atoms: C_7  and  N_1 
REMARK    2  A    between atoms: C_16  and  C_15 
ROOT
ATOM      1  N   UNL d   1      -1.779   7.809  -1.218  0.00  0.00    -0.197 NA
ATOM      2  C   UNL d   1      -0.933   7.290  -0.613  0.00  0.00     0.063 C 
ATOM      3  C   UNL d   1       0.148   6.662   0.159  0.00  0.00     0.162 C 
ENDROOT
BRANCH   3   4
ATOM      4  C   UNL d   1       0.108   5.154   0.100  0.00  0.00    -0.045 A 
ATOM      5  C   UNL d   1       0.809   4.459  -0.888  0.00  0.00     0.010 A 
ATOM      6  C   UNL d   1       0.783   3.060  -0.932  0.00  0.00     0.031 A 
ATOM      7  C   UNL d   1       0.039   2.313  -0.006  0.00  0.00     0.045 A 
ATOM      8  C   UNL d   1      -0.688   3.022   0.960  0.00  0.00     0.031 A 
ATOM      9  C   UNL d   1      -0.647   4.420   1.021  0.00  0.00     0.010 A 
BRANCH   7  10
ATOM     10  N   UNL d   1       0.035   0.891  -0.039  0.00  0.00    -0.245 N 
ATOM     11  C   UNL d   1      -0.905   0.085   0.543  0.00  0.00     0.255 A 
ATOM     12  C   UNL d   1      -0.511  -1.306   0.291  0.00  0.00     0.080 A 
ATOM     13  O   UNL d   1      -1.932   0.349   1.146  0.00  0.00    -0.268 OA
ATOM     14  C   UNL d   1       0.618  -1.290  -0.410  0.00  0.00     0.080 A 
ATOM     15  C   UNL d   1       0.989   0.111  -0.634  0.00  0.00     0.255 A 
ATOM     16  O   UNL d   1       2.019   0.404  -1.218  0.00  0.00    -0.268 OA
ENDBRANCH   7  10
ENDBRANCH   3   4
TORSDOF 2
