REMARK  5 active torsions:
REMARK  status: ('A' for Active; 'I' for Inactive)
REMARK    1  A    between atoms: C_6  and  C_1 
REMARK    2  A    between atoms: C_9  and  C_3 
REMARK    3  A    between atoms: C_7  and  C_4 
REMARK    4  A    between atoms: O_8  and  C_7 
REMARK    5  A    between atoms: C_14  and  O_8 
ROOT
ATOM      1  C   UNL d   1       0.177   1.220   0.220  0.00  0.00     0.100 A 
ATOM      2  S   UNL d   1      -0.978  -0.053   0.422  0.00  0.00    -0.079 SA
ATOM      3  C   UNL d   1       1.470   0.715   0.087  0.00  0.00    -0.002 A 
ATOM      4  C   UNL d   1       0.179  -1.276   0.200  0.00  0.00     0.082 A 
ATOM      5  C   UNL d   1       1.436  -0.725   0.040  0.00  0.00     0.038 A 
ENDROOT
BRANCH   4   6
ATOM      6  C   UNL d   1      -0.142  -2.694   0.141  0.00  0.00     0.305 C 
ATOM      7  O   UNL d   1       0.669  -3.548  -0.214  0.00  0.00    -0.258 OA
BRANCH   6   8
ATOM      8  O   UNL d   1      -1.465  -2.951   0.518  0.00  0.00    -0.275 OA
BRANCH   8   9
ATOM      9  C   UNL d   1      -2.029  -4.243   0.418  0.00  0.00     0.079 A 
ATOM     10  C   UNL d   1      -1.309  -5.423   0.601  0.00  0.00     0.037 A 
ATOM     11  C   UNL d   1      -1.945  -6.654   0.428  0.00  0.00     0.003 A 
ATOM     12  C   UNL d   1      -3.302  -6.704   0.108  0.00  0.00     0.000 A 
ATOM     13  C   UNL d   1      -4.030  -5.522  -0.023  0.00  0.00     0.003 A 
ATOM     14  C   UNL d   1      -3.397  -4.288   0.137  0.00  0.00     0.037 A 
ENDBRANCH   8   9
ENDBRANCH   6   8
ENDBRANCH   4   6
BRANCH   1  15
ATOM     15  C   UNL d   1      -0.341   2.627   0.203  0.00  0.00     0.424 C 
ATOM     16  F   UNL d   1      -1.629   2.738   0.623  0.00  0.00    -0.166 F 
ATOM     17  F   UNL d   1       0.386   3.465   0.986  0.00  0.00    -0.166 F 
ATOM     18  F   UNL d   1      -0.317   3.143  -1.057  0.00  0.00    -0.166 F 
ENDBRANCH   1  15
BRANCH   3  19
ATOM     19  C   UNL d   1       2.708   1.513  -0.011  0.00  0.00    -0.025 A 
ATOM     20  C   UNL d   1       3.899   0.992   0.530  0.00  0.00     0.012 A 
ATOM     21  C   UNL d   1       5.109   1.690   0.440  0.00  0.00     0.001 A 
ATOM     22  C   UNL d   1       5.149   2.935  -0.176  0.00  0.00     0.000 A 
ATOM     23  C   UNL d   1       3.983   3.469  -0.716  0.00  0.00     0.001 A 
ATOM     24  C   UNL d   1       2.779   2.756  -0.650  0.00  0.00     0.012 A 
ENDBRANCH   3  19
TORSDOF 5
