REMARK  3 active torsions:
REMARK  status: ('A' for Active; 'I' for Inactive)
REMARK    1  A    between atoms: C_3  and  C_1 
REMARK       I    between atoms: N_4  and  C_1 
REMARK    2  A    between atoms: N_2  and  C_7 
REMARK    3  A    between atoms: C_14  and  N_4 
ROOT
ATOM      1  C   UNL d   1      -3.999   0.879  -1.203  0.00  0.00     0.030 A 
ATOM      2  C   UNL d   1      -3.245   1.140  -0.050  0.00  0.00     0.031 A 
ATOM      3  C   UNL d   1      -3.277   0.511  -2.345  0.00  0.00     0.031 A 
ATOM      4  C   UNL d   1      -1.149   0.684  -1.191  0.00  0.00     0.035 A 
ATOM      5  C   UNL d   1      -1.877   0.413  -2.345  0.00  0.00     0.032 A 
ATOM      6  C   UNL d   1      -1.846   1.042  -0.037  0.00  0.00     0.032 A 
ENDROOT
BRANCH   4   7
ATOM      7  N   UNL d   1       0.256   0.607  -1.109  0.00  0.00    -0.323 N 
ATOM      8  C   UNL d   1       1.139   0.393  -2.153  0.00  0.00     0.256 C 
ATOM      9  O   UNL d   1       0.865   0.323  -3.346  0.00  0.00    -0.267 OA
ATOM     10  H   UNL d   1       0.656   0.807  -0.202  0.00  0.00     0.169 HD
BRANCH   8  11
ATOM     11  C   UNL d   1       2.570   0.293  -1.754  0.00  0.00     0.032 A 
ATOM     12  C   UNL d   1       3.541   0.812  -2.619  0.00  0.00     0.024 A 
ATOM     13  C   UNL d   1       4.904   0.747  -2.293  0.00  0.00    -0.055 A 
ATOM     14  C   UNL d   1       5.915   1.316  -3.252  0.00  0.00     0.049 C 
ATOM     15  C   UNL d   1       5.293   0.153  -1.076  0.00  0.00    -0.056 A 
ATOM     16  C   UNL d   1       4.314  -0.394  -0.230  0.00  0.00     0.008 A 
ATOM     17  C   UNL d   1       6.740   0.084  -0.667  0.00  0.00     0.049 C 
ATOM     18  C   UNL d   1       2.960  -0.330  -0.567  0.00  0.00     0.017 A 
ENDBRANCH   8  11
ENDBRANCH   4   7
BRANCH   1  19
ATOM     19  N   UNL d   1      -5.374   1.016  -1.209  0.00  0.00    -0.381 N 
ATOM     20  C   UNL d   1      -6.124   1.321  -2.428  0.00  0.00     0.123 C 
ATOM     21  C   UNL d   1      -7.099   2.464  -2.132  0.00  0.00     0.020 C 
ATOM     22  C   UNL d   1      -7.977   2.168  -0.916  0.00  0.00     0.003 C 
ATOM     23  C   UNL d   1      -7.135   1.760   0.294  0.00  0.00     0.020 C 
ATOM     24  C   UNL d   1      -6.187   0.616  -0.059  0.00  0.00     0.123 C 
ENDBRANCH   1  19
TORSDOF 3
