REMARK  5 active torsions:
REMARK  status: ('A' for Active; 'I' for Inactive)
REMARK       I    between atoms: N_2  and  C_1 
REMARK       I    between atoms: N_6  and  C_1 
REMARK    1  A    between atoms: C_4  and  N_2 
REMARK    2  A    between atoms: C_9  and  N_2 
REMARK    3  A    between atoms: C_3  and  C_4 
REMARK    4  A    between atoms: C_18  and  N_6 
REMARK    5  A    between atoms: C_7  and  C_9 
ROOT
ATOM      1  C   UNL d   1       1.080  -0.135   0.407  0.00  0.00     0.319 C 
ATOM      2  N   UNL d   1       0.046  -0.140   1.327  0.00  0.00    -0.325 N 
ATOM      3  N   UNL d   1       0.717  -0.131  -0.912  0.00  0.00    -0.339 N 
ATOM      4  O   UNL d   1       2.259  -0.055   0.747  0.00  0.00    -0.247 OA
ATOM      5  H   UNL d   1      -0.236  -0.329  -1.162  0.00  0.00     0.164 HD
ENDROOT
BRANCH   2   6
ATOM      6  C   UNL d   1      -1.370  -0.398   1.046  0.00  0.00     0.168 C 
BRANCH   6   7
ATOM      7  C   UNL d   1      -2.234   0.831   0.794  0.00  0.00    -0.017 A 
ATOM      8  C   UNL d   1      -3.646   0.725   0.790  0.00  0.00     0.063 A 
ATOM      9  C   UNL d   1      -4.444   1.853   0.527  0.00  0.00     0.056 A 
ATOM     10 CL   UNL d   1      -4.397  -0.814   1.096  0.00  0.00    -0.082 Cl
ATOM     11 CL   UNL d   1      -6.175   1.788   0.508  0.00  0.00    -0.083 Cl
ATOM     12  C   UNL d   1      -3.854   3.087   0.261  0.00  0.00     0.026 A 
ATOM     13  C   UNL d   1      -2.465   3.204   0.254  0.00  0.00     0.002 A 
ATOM     14  C   UNL d   1      -1.667   2.088   0.515  0.00  0.00     0.011 A 
ENDBRANCH   6   7
ENDBRANCH   2   6
BRANCH   2  15
ATOM     15  C   UNL d   1       0.404   0.084   2.728  0.00  0.00     0.174 C 
BRANCH  15  16
ATOM     16  C   UNL d   1       0.762  -1.206   3.410  0.00  0.00     0.000 A 
ATOM     17  S   UNL d   1      -0.362  -1.994   4.439  0.00  0.00    -0.105 SA
ATOM     18  C   UNL d   1       0.753  -3.233   4.822  0.00  0.00     0.050 A 
ATOM     19  C   UNL d   1       1.962  -3.055   4.184  0.00  0.00     0.008 A 
ATOM     20  C   UNL d   1       1.966  -1.886   3.372  0.00  0.00     0.017 A 
ENDBRANCH  15  16
ENDBRANCH   2  15
BRANCH   3  21
ATOM     21  C   UNL d   1       1.671  -0.063  -2.014  0.00  0.00     0.078 C 
ATOM     22  C   UNL d   1       2.695   1.066  -1.857  0.00  0.00     0.032 C 
ATOM     23  C   UNL d   1       2.355  -1.407  -2.250  0.00  0.00     0.032 C 
ENDBRANCH   3  21
TORSDOF 5
