REMARK  4 active torsions:
REMARK  status: ('A' for Active; 'I' for Inactive)
REMARK    1  A    between atoms: C_2  and  S_1 
REMARK    2  A    between atoms: N_6  and  S_1 
REMARK    3  A    between atoms: C_8  and  C_11 
REMARK    4  A    between atoms: C_10  and  N_9 
ROOT
ATOM      1  N   UNL d   1       0.557  -0.331   1.458  0.00  0.00    -0.203 NA
ATOM      2  N   UNL d   1       2.210  -2.173   2.923  0.00  0.00    -0.365 N 
ATOM      3  C   UNL d   1       1.481   0.145   2.554  0.00  0.00     0.127 C 
ATOM      4  C   UNL d   1       0.193  -1.778   1.662  0.00  0.00     0.127 C 
ATOM      5  C   UNL d   1       1.448  -2.665   1.770  0.00  0.00     0.140 C 
ATOM      6  C   UNL d   1       2.695  -0.795   2.771  0.00  0.00     0.140 C 
ENDROOT
BRANCH   2   7
ATOM      7  C   UNL d   1       2.975  -3.091   3.619  0.00  0.00     0.103 A 
ATOM      8  C   UNL d   1       3.202  -2.871   4.975  0.00  0.00     0.064 A 
ATOM      9  C   UNL d   1       3.755  -3.878   5.772  0.00  0.00     0.052 A 
ATOM     10  C   UNL d   1       4.142  -5.069   5.159  0.00  0.00     0.033 A 
ATOM     11  C   UNL d   1       3.928  -5.199   3.800  0.00  0.00     0.090 A 
ATOM     12  N   UNL d   1       3.339  -4.251   3.037  0.00  0.00    -0.352 N 
ATOM     13  HN  UNL d   1       3.173  -4.410   2.043  1.00  0.00     0.166 HD
BRANCH   9  14
ATOM     14  C   UNL d   1       3.853  -3.706   7.261  0.00  0.00     0.417 C 
ATOM     15  F   UNL d   1       3.403  -2.496   7.699  0.00  0.00    -0.166 F 
ATOM     16  F   UNL d   1       3.123  -4.637   7.937  0.00  0.00    -0.166 F 
ATOM     17  F   UNL d   1       5.127  -3.820   7.722  0.00  0.00    -0.166 F 
ENDBRANCH   9  14
ENDBRANCH   2   7
BRANCH   1  18
ATOM     18  S   UNL d   1       1.006   0.071  -0.131  0.00  0.00     0.250 S 
ATOM     19  O   UNL d   1       2.429   0.314  -0.180  0.00  0.00    -0.205 OA
ATOM     20  O   UNL d   1       0.366  -0.863  -1.036  0.00  0.00    -0.205 OA
BRANCH  18  21
ATOM     21  C   UNL d   1       0.250   1.625  -0.568  0.00  0.00     0.118 A 
ATOM     22  S   UNL d   1       0.621   2.983   0.404  0.00  0.00    -0.063 SA
ATOM     23  C   UNL d   1      -0.311   4.007  -0.574  0.00  0.00     0.097 A 
ATOM     24 CL   UNL d   1      -0.393   5.680  -0.184  0.00  0.00    -0.074 Cl
ATOM     25  C   UNL d   1      -0.918   3.354  -1.617  0.00  0.00     0.064 A 
ATOM     26  C   UNL d   1      -0.595   1.968  -1.611  0.00  0.00     0.058 A 
ATOM     27 CL   UNL d   1      -1.926   4.047  -2.810  0.00  0.00    -0.082 Cl
ENDBRANCH  18  21
ENDBRANCH   1  18
TORSDOF 4
