REMARK  3 active torsions:
REMARK  status: ('A' for Active; 'I' for Inactive)
REMARK    1  A    between atoms: N_2  and  S_1 
REMARK    2  A    between atoms: C_3  and  S_1 
REMARK    3  A    between atoms: C_6  and  N_2 
ROOT
ATOM      1  N   UNL d   1      -0.679  -3.331   1.954  0.00  0.00    -0.191 NA
ATOM      2  C   UNL d   1      -0.783   0.235   1.906  0.00  0.00     0.063 A 
ATOM      3  C   UNL d   1      -1.062  -2.236   1.985  0.00  0.00     0.102 C 
ATOM      4  C   UNL d   1      -1.584  -0.902   2.097  0.00  0.00     0.071 A 
ATOM      5  C   UNL d   1      -2.922  -0.743   2.489  0.00  0.00     0.025 A 
ATOM      6  C   UNL d   1      -1.318   1.510   2.123  0.00  0.00     0.031 A 
ATOM      7  C   UNL d   1      -3.452   0.532   2.693  0.00  0.00     0.002 A 
ATOM      8  C   UNL d   1      -2.649   1.656   2.515  0.00  0.00     0.002 A 
ENDROOT
BRANCH   2   9
ATOM      9  N   UNL d   1       0.571   0.143   1.473  0.00  0.00    -0.279 N 
ATOM     10  H   UNL d   1       1.289   0.652   1.986  0.00  0.00     0.179 HD
BRANCH   9  11
ATOM     11  S   UNL d   1       0.907  -0.012  -0.173  0.00  0.00     0.263 S 
ATOM     12  O   UNL d   1       0.096  -1.074  -0.724  0.00  0.00    -0.200 OA
ATOM     13  O   UNL d   1       2.349  -0.011  -0.295  0.00  0.00    -0.200 OA
BRANCH  11  14
ATOM     14  C   UNL d   1       0.329   1.518  -0.877  0.00  0.00     0.081 A 
ATOM     15  C   UNL d   1       1.178   2.628  -0.892  0.00  0.00     0.049 A 
ATOM     16  C   UNL d   1       0.776   3.793  -1.549  0.00  0.00     0.041 A 
ATOM     17 CL   UNL d   1       1.864   5.135  -1.546  0.00  0.00    -0.084 Cl
ATOM     18  C   UNL d   1      -0.467   3.860  -2.203  0.00  0.00    -0.040 A 
ATOM     19  C   UNL d   1      -1.308   2.735  -2.170  0.00  0.00     0.010 A 
ATOM     20  C   UNL d   1      -0.900   5.084  -2.962  0.00  0.00     0.050 C 
ATOM     21  C   UNL d   1      -0.912   1.566  -1.516  0.00  0.00     0.026 A 
ENDBRANCH  11  14
ENDBRANCH   9  11
ENDBRANCH   2   9
TORSDOF 3
