REMARK  1 active torsions:
REMARK  status: ('A' for Active; 'I' for Inactive)
REMARK    1  A    between atoms: N_13  and  C_5 
ROOT
ATOM      1  C   UNL d   1       1.554  -0.140  -0.019  0.00  0.00     0.126 A 
ATOM      2  S   UNL d   1       0.407  -0.626  -1.197  0.00  0.00    -0.031 SA
ATOM      3  N   UNL d   1       1.071   0.675   0.897  0.00  0.00    -0.289 N 
ATOM      4  HN  UNL d   1       1.624   1.074   1.655  1.00  0.00     0.188 HD
ATOM      5  C   UNL d   1      -0.762   0.287  -0.334  0.00  0.00     0.159 A 
ATOM      6  N   UNL d   1      -0.276   0.924   0.709  0.00  0.00    -0.279 N 
ATOM      7  HN  UNL d   1      -0.829   1.533   1.311  1.00  0.00     0.189 HD
ATOM      8  C   UNL d   1       2.916  -0.585  -0.025  0.00  0.00     0.110 A 
ATOM      9  O   UNL d   1       3.441  -1.436  -0.970  0.00  0.00    -0.320 OA
ATOM     10  C   UNL d   1       3.920  -0.273   0.881  0.00  0.00     0.042 A 
ATOM     11  C   UNL d   1       4.745  -1.649  -0.661  0.00  0.00     0.142 A 
ATOM     12  C   UNL d   1       5.090  -0.955   0.471  0.00  0.00     0.027 A 
ENDROOT
BRANCH   5  13
ATOM     13  N   UNL d   1      -2.049   0.327  -0.717  0.00  0.00    -0.379 N 
ATOM     14  H   UNL d   1      -2.302   0.037  -1.654  0.00  0.00     0.158 HD
ATOM     15  H   UNL d   1      -2.628   1.059  -0.319  0.00  0.00     0.158 HD
ENDBRANCH   5  13
TORSDOF 1
