REMARK  1 active torsions:
REMARK  status: ('A' for Active; 'I' for Inactive)
REMARK    1  A    between atoms: N_2  and  C_1 
ROOT
ATOM      1  C   UNL d   1       1.896  -0.731  -0.010  0.00  0.00     0.118 A 
ATOM      2  C   UNL d   1       0.654  -1.479  -0.012  0.00  0.00     0.049 A 
ATOM      3  C   UNL d   1      -0.561   0.655   0.008  0.00  0.00     0.251 A 
ATOM      4  N   UNL d   1       0.668   1.277   0.010  0.00  0.00    -0.331 N 
ATOM      5  C   UNL d   1      -0.535  -0.846   0.000  0.00  0.00     0.008 A 
ATOM      6  C   UNL d   1       1.875   0.611   0.003  0.00  0.00     0.127 A 
ATOM      7  O   UNL d   1      -1.609   1.289   0.013  0.00  0.00    -0.268 OA
ATOM      8  C   UNL d   1      -1.855  -1.545   0.013  0.00  0.00     0.054 C 
ATOM      9  H   UNL d   1       0.643   2.292   0.018  0.00  0.00     0.168 HD
ENDROOT
BRANCH   1  10
ATOM     10  N   UNL d   1       3.196  -1.403  -0.015  0.00  0.00    -0.114 N 
ATOM     11  O   UNL d   1       3.191  -2.642  -0.030  0.00  0.00    -0.532 OA
ATOM     12  O   UNL d   1       4.219  -0.705  -0.003  0.00  0.00    -0.532 OA
ENDBRANCH   1  10
TORSDOF 1
