REMARK  2 active torsions:
REMARK  status: ('A' for Active; 'I' for Inactive)
REMARK    1  A    between atoms: C_2  and  C_6 
REMARK    2  A    between atoms: O_18  and  C_8 
ROOT
ATOM      1  C   UNL d   1      -0.801  -0.352   0.045  0.00  0.00     0.052 A 
ATOM      2  C   UNL d   1      -1.205   0.991   0.015  0.00  0.00    -0.013 A 
ATOM      3  N   UNL d   1      -1.620  -1.405   0.027  0.00  0.00    -0.335 N 
ATOM      4  HN  UNL d   1      -1.280  -2.366   0.059  1.00  0.00     0.168 HD
ATOM      5  C   UNL d   1      -2.565   1.315  -0.049  0.00  0.00     0.015 A 
ATOM      6  C   UNL d   1      -3.456   0.213  -0.083  0.00  0.00     0.107 A 
ATOM      7  C   UNL d   1      -2.937  -1.099  -0.038  0.00  0.00     0.164 A 
ATOM      8  C   UNL d   1       0.640  -0.442   0.074  0.00  0.00    -0.002 A 
ATOM      9  C   UNL d   1       0.033   1.871   0.062  0.00  0.00     0.081 A 
ATOM     10  C   UNL d   1       1.162   0.864   0.088  0.00  0.00    -0.041 A 
ATOM     11  C   UNL d   1      -4.879   0.377  -0.186  0.00  0.00     0.104 C 
ATOM     12  N   UNL d   1      -6.025   0.533  -0.256  0.00  0.00    -0.191 NA
ATOM     13  C   UNL d   1       1.487  -1.536   0.051  0.00  0.00     0.014 A 
ATOM     14  C   UNL d   1       2.524   1.107   0.068  0.00  0.00     0.008 A 
ATOM     15  C   UNL d   1       2.867  -1.304   0.029  0.00  0.00     0.001 A 
ATOM     16  C   UNL d   1       3.379   0.005   0.036  0.00  0.00     0.001 A 
ENDROOT
BRANCH   7  17
ATOM     17  O   UNL d   1      -3.840  -2.149  -0.063  0.00  0.00    -0.340 OA
ATOM     18  C   UNL d   1      -3.222  -3.435  -0.030  0.00  0.00     0.211 C 
ENDBRANCH   7  17
BRANCH   5  19
ATOM     19  C   UNL d   1      -3.027   2.730  -0.054  0.00  0.00     0.018 A 
ATOM     20  C   UNL d   1      -4.111   3.318   0.586  0.00  0.00     0.039 A 
ATOM     21  C   UNL d   1      -4.170   4.723   0.379  0.00  0.00     0.018 A 
ATOM     22 BR   UNL d   1      -5.530   5.794   1.123  0.00  0.00    -0.051 Br
ATOM     23  C   UNL d   1      -3.143   5.201  -0.389  0.00  0.00     0.069 A 
ATOM     24  S   UNL d   1      -2.196   3.922  -0.992  0.00  0.00    -0.100 SA
ENDBRANCH   5  19
TORSDOF 2
