REMARK  3 active torsions:
REMARK  status: ('A' for Active; 'I' for Inactive)
REMARK    1  A    between atoms: C_6  and  N_1 
REMARK    2  A    between atoms: C_8  and  C_6 
REMARK    3  A    between atoms: O_10  and  C_8 
ROOT
ATOM      1  N   UNL d   1       0.942  -0.714  -0.017  0.00  0.00    -0.326 N 
ATOM      2  C   UNL d   1       1.213   0.662  -0.021  0.00  0.00     0.145 A 
ATOM      3  S   UNL d   1      -0.321   1.520   0.196  0.00  0.00    -0.070 SA
ATOM      4  C   UNL d   1      -0.410  -1.035   0.138  0.00  0.00     0.016 A 
ATOM      5  C   UNL d   1      -1.204   0.036   0.269  0.00  0.00     0.077 A 
ATOM      6  S   UNL d   1       2.683   1.430  -0.136  0.00  0.00    -0.052 SA
ATOM      7  C   UNL d   1      -0.905  -2.445   0.168  0.00  0.00     0.069 C 
ENDROOT
BRANCH   1   8
ATOM      8  C   UNL d   1       1.974  -1.745  -0.244  0.00  0.00     0.240 C 
BRANCH   8   9
ATOM      9  C   UNL d   1       2.612  -2.283   1.032  0.00  0.00     0.158 C 
ATOM     10  O   UNL d   1       3.467  -3.157   1.033  0.00  0.00    -0.649 OA
BRANCH   9  11
ATOM     11  O   UNL d   1       2.145  -1.739   2.179  0.00  0.00    -0.775 OA
ATOM     12  H   UNL d   1       1.477  -1.046   2.011  0.00  0.00     0.167 HD
ENDBRANCH   9  11
ENDBRANCH   8   9
ENDBRANCH   1   8
TORSDOF 3
