REMARK  7 active torsions:
REMARK  status: ('A' for Active; 'I' for Inactive)
REMARK    1  A    between atoms: C_15  and  N_1 
REMARK    2  A    between atoms: N_3  and  C_2 
REMARK    3  A    between atoms: C_18  and  C_8 
REMARK    4  A    between atoms: N_9  and  C_13 
REMARK    5  A    between atoms: C_14  and  N_23 
REMARK    6  A    between atoms: C_28  and  C_18 
REMARK    7  A    between atoms: N_23  and  N_21 
ROOT
ATOM      1  N   UNL d   1      -4.646  -1.786   0.207  0.00  0.00    -0.315 N 
ATOM      2  HN  UNL d   1      -5.272  -0.986   0.116  1.00  0.00     0.185 HD
ATOM      3  C   UNL d   1      -3.357  -1.668   0.182  0.00  0.00     0.087 C 
ENDROOT
BRANCH   3   4
ATOM      4  C   UNL d   1      -2.714  -0.312   0.046  0.00  0.00     0.126 C 
BRANCH   4   5
ATOM      5  C   UNL d   1      -1.790  -0.294  -1.115  0.00  0.00     0.125 A 
ATOM      6  N   UNL d   1      -0.998   0.773  -1.542  0.00  0.00    -0.227 N 
ATOM      7  N   UNL d   1      -0.398   0.386  -2.699  0.00  0.00    -0.220 N 
ATOM      8  N   UNL d   1      -0.771  -0.859  -2.927  0.00  0.00    -0.226 N 
ATOM      9  HN  UNL d   1       0.221   0.951  -3.280  1.00  0.00     0.210 HD
ATOM     10  N   UNL d   1      -1.624  -1.294  -1.962  0.00  0.00    -0.271 N 
ATOM     11  HN  UNL d   1      -0.460  -1.419  -3.720  1.00  0.00     0.210 HD
ATOM     12  HN  UNL d   1      -2.054  -2.217  -1.904  1.00  0.00     0.190 HD
BRANCH   6  13
ATOM     13  C   UNL d   1      -0.739   2.074  -1.013  0.00  0.00     0.059 A 
ATOM     14  C   UNL d   1       0.016   2.979  -1.791  0.00  0.00     0.034 A 
ATOM     15  C   UNL d   1       0.286   4.272  -1.331  0.00  0.00     0.044 A 
ATOM     16  C   UNL d   1      -0.182   4.665  -0.087  0.00  0.00     0.116 A 
ATOM     17  C   UNL d   1      -0.906   3.785   0.706  0.00  0.00     0.044 A 
ATOM     18  F   UNL d   1       0.068   5.902   0.357  0.00  0.00    -0.206 F 
ATOM     19  C   UNL d   1      -1.188   2.491   0.246  0.00  0.00     0.034 A 
ENDBRANCH   6  13
ENDBRANCH   4   5
ENDBRANCH   3   4
BRANCH   1  20
ATOM     20  N   UNL d   1      -5.105  -3.061   0.365  0.00  0.00    -0.299 N 
ATOM     21  H   UNL d   1      -4.502  -3.850   0.093  0.00  0.00     0.187 HD
BRANCH  20  22
ATOM     22  C   UNL d   1      -6.485  -3.285   0.132  0.00  0.00     0.081 A 
ATOM     23  C   UNL d   1      -7.030  -4.544  -0.216  0.00  0.00     0.133 A 
ATOM     24  C   UNL d   1      -8.413  -4.700  -0.460  0.00  0.00     0.074 A 
ATOM     25  C   UNL d   1      -9.265  -3.599  -0.323  0.00  0.00     0.105 A 
ATOM     26  C   UNL d   1      -8.763  -2.362   0.081  0.00  0.00     0.038 A 
ATOM     27  C   UNL d   1      -7.390  -2.218   0.309  0.00  0.00     0.036 A 
BRANCH  23  28
ATOM     28  N   UNL d   1      -6.177  -5.736  -0.358  0.00  0.00    -0.113 N 
ATOM     29  O   UNL d   1      -6.722  -6.803  -0.670  0.00  0.00    -0.532 OA
ATOM     30  O   UNL d   1      -4.957  -5.612  -0.159  0.00  0.00    -0.532 OA
ENDBRANCH  23  28
BRANCH  25  31
ATOM     31  N   UNL d   1     -10.698  -3.738  -0.616  0.00  0.00    -0.116 N 
ATOM     32  O   UNL d   1     -11.095  -4.842  -1.014  0.00  0.00    -0.532 OA
ATOM     33  O   UNL d   1     -11.417  -2.744  -0.456  0.00  0.00    -0.532 OA
ENDBRANCH  25  31
ENDBRANCH  20  22
ENDBRANCH   1  20
TORSDOF 7
