REMARK  5 active torsions:
REMARK  status: ('A' for Active; 'I' for Inactive)
REMARK    1  A    between atoms: C_15  and  N_2 
REMARK    2  A    between atoms: C_11  and  C_4 
REMARK    3  A    between atoms: C_14  and  N_5 
REMARK    4  A    between atoms: C_12  and  C_11 
REMARK    5  A    between atoms: C_24  and  C_13 
ROOT
ATOM      1  C   UNL d   1      -0.014  -0.259  -0.347  0.00  0.00     0.247 C 
ATOM      2  N   UNL d   1       1.122  -1.098  -0.642  0.00  0.00    -0.265 N 
ATOM      3  S   UNL d   1      -0.698  -0.636   1.338  0.00  0.00    -0.039 SA
ATOM      4  C   UNL d   1      -2.220  -0.106   0.721  0.00  0.00     0.141 C 
ATOM      5  N   UNL d   1      -1.214  -0.309  -1.227  0.00  0.00    -0.241 N 
ATOM      6  N   UNL d   1      -2.402  -0.015  -0.554  0.00  0.00    -0.284 N 
ATOM      7  HN  UNL d   1      -3.283   0.235  -1.004  1.00  0.00     0.188 HD
ATOM      8  S   UNL d   1       0.654   1.467  -0.244  0.00  0.00    -0.056 SA
ATOM      9  C   UNL d   1       2.334  -0.596  -0.153  0.00  0.00     0.268 C 
ATOM     10  C   UNL d   1       2.248   0.879   0.083  0.00  0.00     0.074 C 
ATOM     11  C   UNL d   1       3.252   1.694   0.436  0.00  0.00     0.035 C 
ATOM     12  O   UNL d   1       3.348  -1.252   0.046  0.00  0.00    -0.266 OA
ENDROOT
BRANCH   2  13
ATOM     13  C   UNL d   1       1.085  -2.383  -1.246  0.00  0.00     0.041 A 
ATOM     14  C   UNL d   1       0.063  -3.306  -1.029  0.00  0.00     0.030 A 
ATOM     15  C   UNL d   1       0.095  -4.552  -1.670  0.00  0.00     0.002 A 
ATOM     16  C   UNL d   1       1.114  -4.865  -2.570  0.00  0.00     0.000 A 
ATOM     17  C   UNL d   1       2.130  -3.949  -2.805  0.00  0.00     0.002 A 
ATOM     18  C   UNL d   1       2.124  -2.730  -2.131  0.00  0.00     0.030 A 
ENDBRANCH   2  13
BRANCH   5  19
ATOM     19  C   UNL d   1      -1.277  -0.231  -2.623  0.00  0.00     0.055 A 
ATOM     20  C   UNL d   1      -0.159  -0.133  -3.463  0.00  0.00     0.033 A 
ATOM     21  C   UNL d   1      -0.286  -0.163  -4.860  0.00  0.00     0.026 A 
ATOM     22  C   UNL d   1      -1.535  -0.275  -5.457  0.00  0.00     0.034 A 
ATOM     23  C   UNL d   1      -2.670  -0.317  -4.664  0.00  0.00     0.026 A 
ATOM     24 CL   UNL d   1      -1.678  -0.376  -7.167  0.00  0.00    -0.084 Cl
ATOM     25  C   UNL d   1      -2.535  -0.288  -3.271  0.00  0.00     0.033 A 
ENDBRANCH   5  19
BRANCH   4  26
ATOM     26  C   UNL d   1      -3.170   0.279   1.816  0.00  0.00     0.223 C 
ATOM     27  O   UNL d   1      -2.722   0.787   2.842  0.00  0.00    -0.284 OA
BRANCH  26  28
ATOM     28  C   UNL d   1      -4.587   0.129   1.513  0.00  0.00     0.057 A 
ATOM     29  S   UNL d   1      -5.709   1.119   2.356  0.00  0.00    -0.098 SA
ATOM     30  C   UNL d   1      -7.033   0.491   1.482  0.00  0.00     0.050 A 
ATOM     31  C   UNL d   1      -6.646  -0.485   0.590  0.00  0.00     0.009 A 
ATOM     32  C   UNL d   1      -5.233  -0.695   0.609  0.00  0.00     0.023 A 
ENDBRANCH  26  28
ENDBRANCH   4  26
BRANCH  11  33
ATOM     33  C   UNL d   1       4.643   1.292   0.662  0.00  0.00    -0.035 A 
ATOM     34  C   UNL d   1       5.539   1.232  -0.412  0.00  0.00     0.011 A 
ATOM     35  C   UNL d   1       6.869   0.864  -0.199  0.00  0.00     0.001 A 
ATOM     36  C   UNL d   1       7.310   0.555   1.087  0.00  0.00     0.000 A 
ATOM     37  C   UNL d   1       6.421   0.609   2.160  0.00  0.00     0.001 A 
ATOM     38  C   UNL d   1       5.089   0.976   1.950  0.00  0.00     0.011 A 
ENDBRANCH  11  33
TORSDOF 5
