REMARK  7 active torsions:
REMARK  status: ('A' for Active; 'I' for Inactive)
REMARK    1  A    between atoms: C_3  and  C_1 
REMARK    2  A    between atoms: C_2  and  C_4 
REMARK       I    between atoms: N_15  and  C_3 
REMARK    3  A    between atoms: C_4  and  O_16 
REMARK    4  A    between atoms: C_19  and  C_9 
REMARK    5  A    between atoms: C_20  and  C_10 
REMARK    6  A    between atoms: C_21  and  N_15 
REMARK    7  A    between atoms: O_16  and  C_22 
ROOT
ATOM      1  C   UNL d   1      -1.944  -3.579  -0.170  0.00  0.00     0.035 A 
ATOM      2  C   UNL d   1      -4.650  -3.271  -0.906  0.00  0.00     0.079 A 
ATOM      3  C   UNL d   1      -2.314  -2.704  -1.192  0.00  0.00     0.032 A 
ATOM      4  C   UNL d   1      -2.950  -4.364   0.419  0.00  0.00     0.032 A 
ATOM      5  C   UNL d   1      -4.309  -4.213   0.061  0.00  0.00     0.039 A 
ATOM      6  C   UNL d   1      -3.656  -2.544  -1.554  0.00  0.00     0.039 A 
ENDROOT
BRANCH   1   7
ATOM      7  N   UNL d   1      -0.614  -3.674   0.336  0.00  0.00    -0.323 N 
ATOM      8  C   UNL d   1       0.456  -2.842   0.004  0.00  0.00     0.261 C 
ATOM      9  O   UNL d   1       0.403  -1.972  -0.856  0.00  0.00    -0.267 OA
ATOM     10  H   UNL d   1      -0.484  -4.322   1.097  0.00  0.00     0.169 HD
BRANCH   8  11
ATOM     11  C   UNL d   1       1.691  -3.019   0.758  0.00  0.00     0.093 A 
ATOM     12  C   UNL d   1       2.737  -2.038   0.973  0.00  0.00     0.083 A 
ATOM     13  N   UNL d   1       3.779  -2.603   1.606  0.00  0.00    -0.259 N 
ATOM     14  O   UNL d   1       3.426  -3.894   1.874  0.00  0.00    -0.241 OA
ATOM     15  HN  UNL d   1       4.663  -2.153   1.842  1.00  0.00     0.195 HD
ATOM     16  C   UNL d   1       2.181  -4.147   1.398  0.00  0.00     0.090 A 
ATOM     17  C   UNL d   1       1.712  -5.520   1.665  0.00  0.00     0.080 C 
BRANCH  12  18
ATOM     18  C   UNL d   1       2.792  -0.595   0.689  0.00  0.00    -0.006 A 
ATOM     19  C   UNL d   1       4.019   0.017   0.381  0.00  0.00     0.014 A 
ATOM     20  C   UNL d   1       4.120   1.406   0.247  0.00  0.00     0.001 A 
ATOM     21  C   UNL d   1       2.992   2.203   0.419  0.00  0.00     0.000 A 
ATOM     22  C   UNL d   1       1.765   1.613   0.710  0.00  0.00     0.001 A 
ATOM     23  C   UNL d   1       1.665   0.224   0.849  0.00  0.00     0.014 A 
ENDBRANCH  12  18
ENDBRANCH   8  11
ENDBRANCH   1   7
BRANCH   2  24
ATOM     24  O   UNL d   1      -5.968  -2.900  -1.287  0.00  0.00    -0.275 OA
BRANCH  24  25
ATOM     25  C   UNL d   1      -7.204  -3.339  -0.806  0.00  0.00     0.303 C 
ATOM     26  O   UNL d   1      -7.353  -4.281  -0.035  0.00  0.00    -0.259 OA
BRANCH  25  27
ATOM     27  C   UNL d   1      -8.310  -2.555  -1.337  0.00  0.00     0.100 A 
ATOM     28  C   UNL d   1      -8.361  -1.239  -1.911  0.00  0.00     0.084 A 
ATOM     29  N   UNL d   1      -9.615  -0.954  -2.307  0.00  0.00    -0.259 N 
ATOM     30  O   UNL d   1     -10.391  -2.029  -1.970  0.00  0.00    -0.241 OA
ATOM     31  HN  UNL d   1      -9.927  -0.100  -2.769  1.00  0.00     0.195 HD
ATOM     32  C   UNL d   1      -9.625  -2.980  -1.386  0.00  0.00     0.091 A 
ATOM     33  C   UNL d   1     -10.345  -4.204  -0.984  0.00  0.00     0.080 C 
BRANCH  28  34
ATOM     34  C   UNL d   1      -7.332  -0.213  -2.092  0.00  0.00    -0.006 A 
ATOM     35  C   UNL d   1      -6.420   0.100  -1.078  0.00  0.00     0.014 A 
ATOM     36  C   UNL d   1      -5.490   1.131  -1.253  0.00  0.00     0.001 A 
ATOM     37  C   UNL d   1      -5.476   1.871  -2.435  0.00  0.00     0.000 A 
ATOM     38  C   UNL d   1      -6.388   1.581  -3.446  0.00  0.00     0.001 A 
ATOM     39  C   UNL d   1      -7.309   0.545  -3.275  0.00  0.00     0.014 A 
ENDBRANCH  28  34
ENDBRANCH  25  27
ENDBRANCH  24  25
ENDBRANCH   2  24
TORSDOF 7
