REMARK  5 active torsions:
REMARK  status: ('A' for Active; 'I' for Inactive)
REMARK    1  A    between atoms: C_9  and  N_1 
REMARK    2  A    between atoms: C_4  and  C_10 
REMARK    3  A    between atoms: C_24  and  C_8 
REMARK    4  A    between atoms: C_12  and  S_20 
REMARK    5  A    between atoms: S_20  and  C_24 
ROOT
ATOM      1  N   UNL d   1      -2.210  -5.716   1.189  0.00  0.00    -0.277 N 
ATOM      2  HN  UNL d   1      -1.999  -5.440   2.148  1.00  0.00     0.189 HD
ATOM      3  C   UNL d   1      -2.160  -4.947   0.121  0.00  0.00     0.174 A 
ATOM      4  O   UNL d   1      -2.531  -5.614  -1.019  0.00  0.00    -0.277 OA
ATOM      5  N   UNL d   1      -2.605  -6.968   0.760  0.00  0.00    -0.281 N 
ATOM      6  HN  UNL d   1      -2.743  -7.796   1.339  1.00  0.00     0.189 HD
ATOM      7  C   UNL d   1      -2.767  -6.882  -0.545  0.00  0.00     0.150 A 
ENDROOT
BRANCH   7   8
ATOM      8  C   UNL d   1      -3.179  -7.949  -1.501  0.00  0.00     0.165 C 
BRANCH   8   9
ATOM      9  S   UNL d   1      -2.353  -7.792  -3.127  0.00  0.00    -0.121 SA
BRANCH   9  10
ATOM     10  C   UNL d   1      -2.982  -9.230  -3.997  0.00  0.00     0.007 A 
ATOM     11  C   UNL d   1      -2.677 -10.508  -3.492  0.00  0.00     0.027 A 
ATOM     12  C   UNL d   1      -3.008 -11.681  -4.194  0.00  0.00    -0.039 A 
ATOM     13  C   UNL d   1      -2.626 -13.021  -3.628  0.00  0.00     0.050 C 
ATOM     14  C   UNL d   1      -3.642 -11.560  -5.434  0.00  0.00     0.040 A 
ATOM     15  C   UNL d   1      -3.964 -10.300  -5.941  0.00  0.00     0.032 A 
ATOM     16 CL   UNL d   1      -4.024 -12.942  -6.399  0.00  0.00    -0.084 Cl
ATOM     17  C   UNL d   1      -3.649  -9.124  -5.232  0.00  0.00    -0.044 A 
ATOM     18  C   UNL d   1      -4.012  -7.820  -5.893  0.00  0.00     0.049 C 
ENDBRANCH   9  10
ENDBRANCH   8   9
ENDBRANCH   7   8
BRANCH   3  19
ATOM     19  C   UNL d   1      -1.768  -3.546  -0.010  0.00  0.00     0.017 A 
ATOM     20  C   UNL d   1      -1.769  -2.889  -1.250  0.00  0.00     0.018 A 
ATOM     21  C   UNL d   1      -1.386  -1.549  -1.347  0.00  0.00     0.037 A 
ATOM     22  C   UNL d   1      -0.995  -0.856  -0.195  0.00  0.00     0.108 A 
ATOM     23  C   UNL d   1      -0.986  -1.469   1.068  0.00  0.00    -0.028 A 
ATOM     24  C   UNL d   1      -1.371  -2.824   1.134  0.00  0.00     0.025 A 
ATOM     25  C   UNL d   1      -0.581  -0.785   2.344  0.00  0.00     0.050 C 
BRANCH  22  26
ATOM     26  N   UNL d   1      -0.604   0.535  -0.363  0.00  0.00    -0.115 N 
ATOM     27  O   UNL d   1       0.549   0.846  -0.043  0.00  0.00    -0.532 OA
ATOM     28  O   UNL d   1      -1.454   1.301  -0.844  0.00  0.00    -0.532 OA
ENDBRANCH  22  26
ENDBRANCH   3  19
TORSDOF 5
