REMARK  4 active torsions:
REMARK  status: ('A' for Active; 'I' for Inactive)
REMARK    1  A    between atoms: C_8  and  N_1 
REMARK    2  A    between atoms: C_10  and  C_8 
REMARK    3  A    between atoms: O_15  and  C_10 
REMARK    4  A    between atoms: C_18  and  O_15 
ROOT
ATOM      1  N   UNL d   1       2.406   0.075   0.074  0.00  0.00    -0.272 N 
ATOM      2  C   UNL d   1       0.117   0.654  -0.022  0.00  0.00     0.074 A 
ATOM      3  C   UNL d   1       0.069  -0.733   0.022  0.00  0.00     0.107 A 
ATOM      4  C   UNL d   1       1.521   1.136  -0.044  0.00  0.00     0.267 A 
ATOM      5  S   UNL d   1       1.687  -1.471   0.098  0.00  0.00     0.010 SA
ATOM      6  N   UNL d   1      -1.055  -1.470   0.042  0.00  0.00    -0.352 N 
ATOM      7  HN  UNL d   1      -1.033  -2.489   0.078  1.00  0.00     0.166 HD
ATOM      8  C   UNL d   1      -1.074   1.373  -0.028  0.00  0.00    -0.042 A 
ATOM      9  C   UNL d   1      -2.263   0.621  -0.013  0.00  0.00     0.032 A 
ATOM     10  O   UNL d   1       1.840   2.313  -0.144  0.00  0.00    -0.266 OA
ATOM     11  C   UNL d   1      -2.217  -0.779   0.012  0.00  0.00     0.006 A 
ATOM     12  C   UNL d   1      -1.179   2.866  -0.027  0.00  0.00     0.049 C 
ATOM     13  C   UNL d   1      -3.490  -1.571   0.025  0.00  0.00     0.068 C 
ENDROOT
BRANCH   1  14
ATOM     14  C   UNL d   1       3.847   0.240   0.077  0.00  0.00     0.251 C 
BRANCH  14  15
ATOM     15  C   UNL d   1       4.520   0.181  -1.285  0.00  0.00     0.277 C 
ATOM     16  O   UNL d   1       5.732   0.313  -1.429  0.00  0.00    -0.263 OA
BRANCH  15  17
ATOM     17  O   UNL d   1       3.632   0.022  -2.304  0.00  0.00    -0.321 OA
BRANCH  17  18
ATOM     18  C   UNL d   1       4.142   0.279  -3.620  0.00  0.00     0.174 C 
ATOM     19  C   UNL d   1       3.927   1.750  -3.925  0.00  0.00     0.034 C 
ENDBRANCH  17  18
ENDBRANCH  15  17
ENDBRANCH  14  15
ENDBRANCH   1  14
TORSDOF 4
