REMARK  8 active torsions:
REMARK  status: ('A' for Active; 'I' for Inactive)
REMARK    1  A    between atoms: N_4  and  C_1 
REMARK       I    between atoms: C_5  and  N_4 
REMARK       I    between atoms: N_12  and  C_5 
REMARK    2  A    between atoms: C_9  and  C_6 
REMARK    3  A    between atoms: C_8  and  O_13 
REMARK    4  A    between atoms: C_11  and  C_9 
REMARK    5  A    between atoms: O_21  and  C_11 
REMARK    6  A    between atoms: C_19  and  N_12 
REMARK    7  A    between atoms: O_13  and  C_20 
REMARK    8  A    between atoms: C_26  and  O_21 
ROOT
ATOM      1  N   UNL d   1      -0.176  -1.997  -0.787  0.00  0.00    -0.288 N 
ATOM      2  C   UNL d   1       0.452  -3.123  -0.381  0.00  0.00     0.326 C 
ATOM      3  N   UNL d   1       1.737  -3.033   0.076  0.00  0.00    -0.309 N 
ATOM      4  O   UNL d   1      -0.209  -4.162  -0.461  0.00  0.00    -0.247 OA
ATOM      5  H   UNL d   1      -1.113  -2.160  -1.124  0.00  0.00     0.172 HD
ATOM      6  H   UNL d   1       2.079  -2.091   0.239  0.00  0.00     0.170 HD
ENDROOT
BRANCH   1   7
ATOM      7  C   UNL d   1       0.274  -0.717  -0.854  0.00  0.00     0.152 A 
ATOM      8  N   UNL d   1       1.419  -0.188  -0.493  0.00  0.00    -0.339 N 
ATOM      9  C   UNL d   1       1.394   1.188  -0.787  0.00  0.00     0.027 A 
ATOM     10  HN  UNL d   1       2.198  -0.691  -0.069  1.00  0.00     0.168 HD
ATOM     11  C   UNL d   1       0.224   1.617  -1.395  0.00  0.00     0.078 A 
ATOM     12  S   UNL d   1      -0.884   0.329  -1.543  0.00  0.00    -0.064 SA
BRANCH   9  13
ATOM     13  C   UNL d   1       2.611   2.019  -0.495  0.00  0.00     0.168 C 
BRANCH  13  14
ATOM     14  C   UNL d   1       2.331   3.494  -0.260  0.00  0.00     0.264 C 
ATOM     15  O   UNL d   1       1.244   3.992  -0.003  0.00  0.00    -0.265 OA
BRANCH  14  16
ATOM     16  O   UNL d   1       3.496   4.202  -0.362  0.00  0.00    -0.322 OA
BRANCH  16  17
ATOM     17  C   UNL d   1       3.399   5.626  -0.175  0.00  0.00     0.174 C 
ATOM     18  C   UNL d   1       3.323   6.316  -1.524  0.00  0.00     0.034 C 
ENDBRANCH  16  17
ENDBRANCH  14  16
ENDBRANCH  13  14
ENDBRANCH   9  13
ENDBRANCH   1   7
BRANCH   3  19
ATOM     19  C   UNL d   1       2.559  -4.122   0.458  0.00  0.00     0.036 A 
ATOM     20  C   UNL d   1       2.256  -5.455   0.159  0.00  0.00     0.032 A 
ATOM     21  C   UNL d   1       3.100  -6.495   0.560  0.00  0.00     0.039 A 
ATOM     22  C   UNL d   1       4.257  -6.227   1.287  0.00  0.00     0.078 A 
ATOM     23  C   UNL d   1       4.588  -4.902   1.569  0.00  0.00     0.039 A 
ATOM     24  C   UNL d   1       3.746  -3.857   1.150  0.00  0.00     0.032 A 
BRANCH  22  25
ATOM     25  O   UNL d   1       5.007  -7.323   1.601  0.00  0.00    -0.255 OA
BRANCH  25  26
ATOM     26  C   UNL d   1       5.660  -7.292   2.860  0.00  0.00     0.530 C 
ATOM     27  F   UNL d   1       6.713  -6.449   2.841  0.00  0.00    -0.144 F 
ATOM     28  F   UNL d   1       4.813  -6.936   3.849  0.00  0.00    -0.144 F 
ATOM     29  F   UNL d   1       6.125  -8.533   3.133  0.00  0.00    -0.144 F 
ENDBRANCH  25  26
ENDBRANCH  22  25
ENDBRANCH   3  19
TORSDOF 8
