REMARK  8 active torsions:
REMARK  status: ('A' for Active; 'I' for Inactive)
REMARK    1  A    between atoms: N_16  and  C_3 
REMARK    2  A    between atoms: C_6  and  C_4 
REMARK    3  A    between atoms: S_14  and  C_5 
REMARK    4  A    between atoms: O_21  and  C_6 
REMARK    5  A    between atoms: C_11  and  C_10 
REMARK    6  A    between atoms: C_13  and  C_11 
REMARK    7  A    between atoms: C_12  and  S_14 
REMARK    8  A    between atoms: C_25  and  O_21 
ROOT
ATOM      1  N   UNL d   1       0.315  -1.116   0.018  0.00  0.00    -0.327 N 
ATOM      2  HN  UNL d   1       0.865  -1.974   0.003  1.00  0.00     0.169 HD
ATOM      3  C   UNL d   1       0.910   0.088   0.061  0.00  0.00     0.097 A 
ATOM      4  C   UNL d   1       0.184   1.265   0.086  0.00  0.00     0.092 A 
ATOM      5  C   UNL d   1      -1.031  -1.152  -0.006  0.00  0.00     0.149 A 
ATOM      6  N   UNL d   1      -1.818  -0.064  -0.017  0.00  0.00    -0.345 N 
ATOM      7  HN  UNL d   1      -2.835  -0.134  -0.060  1.00  0.00     0.167 HD
ATOM      8  C   UNL d   1      -1.187   1.129   0.034  0.00  0.00     0.111 A 
ENDROOT
BRANCH   5   9
ATOM      9  S   UNL d   1      -1.746  -2.782   0.002  0.00  0.00    -0.066 SA
BRANCH   9  10
ATOM     10  C   UNL d   1      -3.454  -2.495   0.038  0.00  0.00     0.057 C 
ATOM     11  C   UNL d   1      -4.298  -3.537   0.035  0.00  0.00     0.063 C 
BRANCH  11  12
ATOM     12  C   UNL d   1      -5.766  -3.316   0.034  0.00  0.00     0.182 C 
ATOM     13  O   UNL d   1      -6.264  -2.257   0.398  0.00  0.00    -0.288 OA
BRANCH  12  14
ATOM     14  C   UNL d   1      -6.633  -4.445  -0.408  0.00  0.00     0.014 A 
ATOM     15  C   UNL d   1      -7.936  -4.527   0.101  0.00  0.00     0.017 A 
ATOM     16  C   UNL d   1      -8.799  -5.541  -0.328  0.00  0.00     0.025 A 
ATOM     17  C   UNL d   1      -8.362  -6.468  -1.273  0.00  0.00     0.034 A 
ATOM     18  C   UNL d   1      -7.069  -6.394  -1.788  0.00  0.00     0.025 A 
ATOM     19 CL   UNL d   1      -9.431  -7.697  -1.826  0.00  0.00    -0.084 Cl
ATOM     20  C   UNL d   1      -6.203  -5.383  -1.358  0.00  0.00     0.017 A 
ENDBRANCH  12  14
ENDBRANCH  11  12
ENDBRANCH   9  10
ENDBRANCH   5   9
BRANCH   3  21
ATOM     21  N   UNL d   1       2.294   0.051   0.212  0.00  0.00    -0.288 NA
ATOM     22  H   UNL d   1       2.635  -0.894   0.066  0.00  0.00     0.125 HD
ATOM     23  H   UNL d   1       2.779   0.758  -0.340  0.00  0.00     0.125 HD
ENDBRANCH   3  21
BRANCH   4  24
ATOM     24  C   UNL d   1       0.843   2.571   0.190  0.00  0.00     0.298 C 
ATOM     25  O   UNL d   1       1.965   2.811  -0.227  0.00  0.00    -0.259 OA
BRANCH  24  26
ATOM     26  O   UNL d   1       0.053   3.401   0.916  0.00  0.00    -0.318 OA
BRANCH  26  27
ATOM     27  C   UNL d   1       0.718   4.534   1.494  0.00  0.00     0.174 C 
ATOM     28  C   UNL d   1       1.268   4.117   2.846  0.00  0.00     0.034 C 
ENDBRANCH  26  27
ENDBRANCH  24  26
ENDBRANCH   4  24
TORSDOF 8
