REMARK  7 active torsions:
REMARK  status: ('A' for Active; 'I' for Inactive)
REMARK    1  A    between atoms: C_8  and  C_1 
REMARK    2  A    between atoms: N_7  and  C_2 
REMARK    3  A    between atoms: C_12  and  C_4 
REMARK       I    between atoms: C_6  and  N_7 
REMARK    4  A    between atoms: C_9  and  C_6 
REMARK    5  A    between atoms: O_19  and  C_8 
REMARK    6  A    between atoms: C_11  and  C_10 
REMARK    7  A    between atoms: O_18  and  C_11 
ROOT
ATOM      1  C   UNL d   1       0.201   1.395  -0.593  0.00  0.00     0.107 A 
ATOM      2  C   UNL d   1       1.460   0.826  -0.507  0.00  0.00     0.059 A 
ATOM      3  S   UNL d   1      -1.032   0.204  -0.370  0.00  0.00    -0.081 SA
ATOM      4  C   UNL d   1       0.091  -1.082  -0.295  0.00  0.00     0.018 A 
ATOM      5  C   UNL d   1       1.375  -0.598  -0.424  0.00  0.00     0.051 A 
ENDROOT
BRANCH   2   6
ATOM      6  N   UNL d   1       2.726   1.412  -0.495  0.00  0.00    -0.321 N 
ATOM      7  C   UNL d   1       3.042   2.638   0.051  0.00  0.00     0.257 C 
ATOM      8  O   UNL d   1       2.231   3.451   0.484  0.00  0.00    -0.267 OA
ATOM      9  H   UNL d   1       3.465   0.721  -0.511  0.00  0.00     0.169 HD
BRANCH   7  10
ATOM     10  C   UNL d   1       4.498   3.009   0.112  0.00  0.00     0.049 A 
ATOM     11  C   UNL d   1       5.592   2.149   0.351  0.00  0.00     0.053 A 
ATOM     12  C   UNL d   1       6.892   2.689   0.456  0.00  0.00     0.019 A 
ATOM     13  C   UNL d   1       7.120   4.053   0.280  0.00  0.00     0.001 A 
ATOM     14  C   UNL d   1       6.052   4.901   0.020  0.00  0.00     0.001 A 
ATOM     15  C   UNL d   1       4.756   4.386  -0.053  0.00  0.00     0.018 A 
BRANCH  11  16
ATOM     16  C   UNL d   1       5.443   0.691   0.589  0.00  0.00     0.177 C 
ATOM     17  O   UNL d   1       4.450   0.191   1.082  0.00  0.00    -0.646 OA
BRANCH  16  18
ATOM     18  O   UNL d   1       6.448  -0.067   0.102  0.00  0.00    -0.773 OA
ATOM     19  H   UNL d   1       7.144   0.386  -0.408  0.00  0.00     0.167 HD
ENDBRANCH  16  18
ENDBRANCH  11  16
ENDBRANCH   7  10
ENDBRANCH   2   6
BRANCH   1  20
ATOM     20  C   UNL d   1      -0.212   2.756  -0.870  0.00  0.00     0.302 C 
ATOM     21  O   UNL d   1      -1.229   3.310  -0.458  0.00  0.00    -0.259 OA
BRANCH  20  22
ATOM     22  O   UNL d   1       0.658   3.324  -1.759  0.00  0.00    -0.322 OA
ATOM     23  C   UNL d   1       0.501   4.730  -1.930  0.00  0.00     0.213 C 
ENDBRANCH  20  22
ENDBRANCH   1  20
BRANCH   4  24
ATOM     24  C   UNL d   1      -0.297  -2.487  -0.090  0.00  0.00    -0.019 A 
ATOM     25  C   UNL d   1      -1.434  -3.050  -0.683  0.00  0.00     0.014 A 
ATOM     26  C   UNL d   1      -1.706  -4.418  -0.546  0.00  0.00     0.024 A 
ATOM     27  C   UNL d   1      -0.844  -5.233   0.185  0.00  0.00     0.034 A 
ATOM     28  C   UNL d   1       0.279  -4.692   0.799  0.00  0.00     0.024 A 
ATOM     29 CL   UNL d   1      -1.159  -6.919   0.319  0.00  0.00    -0.084 Cl
ATOM     30  C   UNL d   1       0.545  -3.327   0.665  0.00  0.00     0.014 A 
ENDBRANCH   4  24
TORSDOF 7
