REMARK  6 active torsions:
REMARK  status: ('A' for Active; 'I' for Inactive)
REMARK    1  A    between atoms: C_15  and  N_1 
REMARK    2  A    between atoms: C_2  and  S_14 
REMARK    3  A    between atoms: C_16  and  N_3 
REMARK    4  A    between atoms: C_13  and  C_6 
REMARK    5  A    between atoms: C_19  and  C_9 
REMARK    6  A    between atoms: S_14  and  C_19 
ROOT
ATOM      1  C   UNL d   1       5.007   1.617  -0.270  0.00  0.00     0.152 A 
ATOM      2  N   UNL d   1       5.024   2.980   0.023  0.00  0.00    -0.301 N 
ATOM      3  N   UNL d   1       6.190   1.065  -0.117  0.00  0.00    -0.334 N 
ATOM      4  HN  UNL d   1       6.420   0.072  -0.170  1.00  0.00     0.168 HD
ATOM      5  C   UNL d   1       7.046   2.104   0.128  0.00  0.00     0.067 A 
ATOM      6  C   UNL d   1       6.353   3.280   0.263  0.00  0.00     0.130 A 
ENDROOT
BRANCH   1   7
ATOM      7  S   UNL d   1       3.703   0.825  -1.109  0.00  0.00    -0.086 SA
BRANCH   7   8
ATOM      8  C   UNL d   1       3.795  -0.879  -0.518  0.00  0.00     0.160 C 
BRANCH   8   9
ATOM      9  C   UNL d   1       4.934  -1.706  -1.068  0.00  0.00     0.115 A 
ATOM     10  N   UNL d   1       5.203  -2.980  -0.641  0.00  0.00    -0.275 N 
ATOM     11  C   UNL d   1       6.383  -3.321  -1.290  0.00  0.00     0.199 A 
ATOM     12  N   UNL d   1       6.711  -2.229  -2.078  0.00  0.00    -0.274 N 
ATOM     13  S   UNL d   1       7.300  -4.709  -1.335  0.00  0.00    -0.039 SA
ATOM     14  N   UNL d   1       5.788  -1.255  -1.948  0.00  0.00    -0.286 N 
ATOM     15  H   UNL d   1       7.507  -2.141  -2.699  0.00  0.00     0.189 HD
ATOM     16  HN  UNL d   1       5.761  -0.358  -2.434  1.00  0.00     0.188 HD
BRANCH  10  17
ATOM     17  C   UNL d   1       4.398  -3.841   0.160  0.00  0.00     0.043 A 
ATOM     18  C   UNL d   1       4.979  -4.741   1.070  0.00  0.00     0.033 A 
ATOM     19  C   UNL d   1       4.199  -5.654   1.792  0.00  0.00     0.044 A 
ATOM     20  C   UNL d   1       2.824  -5.663   1.626  0.00  0.00     0.116 A 
ATOM     21  C   UNL d   1       2.215  -4.775   0.754  0.00  0.00     0.044 A 
ATOM     22  F   UNL d   1       2.077  -6.543   2.305  0.00  0.00    -0.206 F 
ATOM     23  C   UNL d   1       3.000  -3.878   0.017  0.00  0.00     0.033 A 
ENDBRANCH  10  17
ENDBRANCH   8   9
ENDBRANCH   7   8
ENDBRANCH   1   7
BRANCH   2  24
ATOM     24  C   UNL d   1       3.956   3.926   0.039  0.00  0.00     0.041 A 
ATOM     25  C   UNL d   1       2.647   3.537   0.341  0.00  0.00     0.030 A 
ATOM     26  C   UNL d   1       1.600   4.460   0.275  0.00  0.00     0.009 A 
ATOM     27  C   UNL d   1       1.847   5.792  -0.079  0.00  0.00    -0.062 A 
ATOM     28  C   UNL d   1       3.162   6.192  -0.330  0.00  0.00     0.009 A 
ATOM     29  C   UNL d   1       0.703   6.750  -0.222  0.00  0.00     0.048 C 
ATOM     30  C   UNL d   1       4.213   5.273  -0.263  0.00  0.00     0.030 A 
ENDBRANCH   2  24
BRANCH   5  31
ATOM     31  C   UNL d   1       8.531   1.956   0.161  0.00  0.00     0.033 A 
ATOM     32  S   UNL d   1       9.633   3.205   0.539  0.00  0.00    -0.100 SA
ATOM     33  C   UNL d   1      10.980   2.187   0.264  0.00  0.00     0.050 A 
ATOM     34  C   UNL d   1      10.599   0.919  -0.117  0.00  0.00     0.008 A 
ATOM     35  C   UNL d   1       9.179   0.783  -0.166  0.00  0.00     0.021 A 
ENDBRANCH   5  31
TORSDOF 6
