REMARK  5 active torsions:
REMARK  status: ('A' for Active; 'I' for Inactive)
REMARK    1  A    between atoms: O_10  and  C_3 
REMARK    2  A    between atoms: N_9  and  C_4 
REMARK    3  A    between atoms: C_11  and  C_5 
REMARK    4  A    between atoms: C_13  and  C_11 
REMARK    5  A    between atoms: C_14  and  C_13 
ROOT
ATOM      1  N   UNL d   1      -0.604   1.292   0.097  0.00  0.00    -0.313 N 
ATOM      2  HN  UNL d   1      -1.085   2.191   0.113  1.00  0.00     0.170 HD
ATOM      3  C   UNL d   1      -1.263   0.129   0.041  0.00  0.00     0.150 A 
ATOM      4  C   UNL d   1       0.722   1.195   0.131  0.00  0.00     0.157 A 
ATOM      5  C   UNL d   1      -0.701  -1.128  -0.022  0.00  0.00     0.015 A 
ATOM      6  N   UNL d   1       1.400   0.051   0.071  0.00  0.00    -0.336 N 
ATOM      7  HN  UNL d   1       2.420   0.043   0.071  1.00  0.00     0.168 HD
ATOM      8  C   UNL d   1       0.690  -1.101   0.011  0.00  0.00     0.018 A 
ATOM      9  C   UNL d   1       1.518  -2.354   0.003  0.00  0.00     0.069 C 
ENDROOT
BRANCH   5  10
ATOM     10  C   UNL d   1      -1.474  -2.423  -0.017  0.00  0.00     0.045 C 
BRANCH  10  11
ATOM     11  C   UNL d   1      -2.858  -2.478  -0.679  0.00  0.00     0.004 C 
BRANCH  11  12
ATOM     12  C   UNL d   1      -2.838  -2.132  -2.169  0.00  0.00    -0.004 C 
ATOM     13  C   UNL d   1      -4.241  -2.162  -2.756  0.00  0.00     0.005 C 
ENDBRANCH  11  12
ENDBRANCH  10  11
ENDBRANCH   5  10
BRANCH   3  14
ATOM     14  O   UNL d   1      -2.605   0.318   0.066  0.00  0.00    -0.346 OA
ATOM     15  H   UNL d   1      -2.640   1.291   0.101  0.00  0.00     0.219 HD
ENDBRANCH   3  14
BRANCH   4  16
ATOM     16  N   UNL d   1       1.448   2.365   0.202  0.00  0.00    -0.274 NA
ATOM     17  H   UNL d   1       0.914   3.133  -0.178  0.00  0.00     0.127 HD
ATOM     18  H   UNL d   1       2.376   2.212  -0.167  0.00  0.00     0.127 HD
ENDBRANCH   4  16
TORSDOF 5
