REMARK  3 active torsions:
REMARK  status: ('A' for Active; 'I' for Inactive)
REMARK    1  A    between atoms: C_2  and  S_1 
REMARK    2  A    between atoms: N_4  and  S_1 
REMARK    3  A    between atoms: C_7  and  N_4 
ROOT
ATOM      1  N   UNL d   1       0.531  -1.443  -0.572  0.00  0.00    -0.302 N 
ATOM      2  H   UNL d   1      -0.462  -1.651  -0.514  0.00  0.00     0.173 HD
ENDROOT
BRANCH   1   3
ATOM      3  S   UNL d   1       0.878   0.116  -0.054  0.00  0.00     0.260 S 
ATOM      4  O   UNL d   1       0.430   0.179   1.321  0.00  0.00    -0.200 OA
ATOM      5  O   UNL d   1       2.228   0.448  -0.427  0.00  0.00    -0.200 OA
BRANCH   3   6
ATOM      6  C   UNL d   1      -0.162   1.281  -0.835  0.00  0.00     0.093 A 
ATOM      7  C   UNL d   1      -1.549   1.270  -0.822  0.00  0.00     0.002 A 
ATOM      8  S   UNL d   1      -2.188   2.562  -1.760  0.00  0.00    -0.099 SA
ATOM      9  C   UNL d   1      -2.518   0.350  -0.159  0.00  0.00     0.058 C 
ATOM     10  C   UNL d   1      -0.637   3.163  -2.138  0.00  0.00    -0.019 A 
ATOM     11  C   UNL d   1       0.354   2.399  -1.567  0.00  0.00     0.040 A 
ATOM     12  C   UNL d   1      -0.497   4.365  -3.009  0.00  0.00     0.056 C 
ENDBRANCH   3   6
ENDBRANCH   1   3
BRANCH   1  13
ATOM     13  C   UNL d   1       1.248  -2.067  -1.728  0.00  0.00     0.185 C 
ATOM     14  C   UNL d   1       0.933  -1.342  -3.046  0.00  0.00     0.241 C 
ATOM     15  N   UNL d   1       0.875  -1.992  -4.238  0.00  0.00    -0.359 N 
ATOM     16  O   UNL d   1       0.731  -0.129  -3.103  0.00  0.00    -0.271 OA
ATOM     17  C   UNL d   1       1.668  -3.129  -4.634  0.00  0.00     0.122 C 
ATOM     18  H   UNL d   1       0.682  -1.320  -4.974  0.00  0.00     0.162 HD
ATOM     19  C   UNL d   1       1.200  -4.430  -4.019  0.00  0.00     0.020 C 
ATOM     20  C   UNL d   1       1.565  -4.528  -2.547  0.00  0.00     0.004 C 
ATOM     21  C   UNL d   1       0.801  -3.542  -1.671  0.00  0.00     0.035 C 
ENDBRANCH   1  13
TORSDOF 3
