REMARK  4 active torsions:
REMARK  status: ('A' for Active; 'I' for Inactive)
REMARK    1  A    between atoms: C_2  and  S_1 
REMARK    2  A    between atoms: O_6  and  S_1 
REMARK    3  A    between atoms: N_4  and  C_3 
REMARK    4  A    between atoms: C_5  and  O_6 
ROOT
ATOM      1  S   UNL d   1       1.668   0.439   0.608  0.00  0.00     0.304 S 
ATOM      2  O   UNL d   1       2.564   1.114   1.532  0.00  0.00    -0.193 OA
ATOM      3  O   UNL d   1       2.200  -0.428  -0.424  0.00  0.00    -0.193 OA
ENDROOT
BRANCH   1   4
ATOM      4  C   UNL d   1       0.793   1.719  -0.256  0.00  0.00     0.110 A 
ATOM      5  C   UNL d   1       1.411   2.978  -0.346  0.00  0.00     0.053 A 
ATOM      6  C   UNL d   1       0.812   4.008  -1.075  0.00  0.00     0.057 A 
ATOM      7 CL   UNL d   1       1.655   5.510  -1.186  0.00  0.00    -0.083 Cl
ATOM      8  C   UNL d   1      -0.418   3.788  -1.700  0.00  0.00     0.057 A 
ATOM      9  C   UNL d   1      -1.032   2.533  -1.606  0.00  0.00     0.051 A 
ATOM     10 CL   UNL d   1      -1.218   5.010  -2.622  0.00  0.00    -0.082 Cl
ATOM     11  C   UNL d   1      -0.422   1.488  -0.899  0.00  0.00     0.059 A 
ATOM     12 CL   UNL d   1      -1.210  -0.043  -0.945  0.00  0.00    -0.083 Cl
ENDBRANCH   1   4
BRANCH   1  13
ATOM     13  O   UNL d   1       0.575  -0.373   1.502  0.00  0.00    -0.227 OA
BRANCH  13  14
ATOM     14  C   UNL d   1       0.866  -1.562   2.134  0.00  0.00     0.122 A 
ATOM     15  C   UNL d   1      -0.172  -2.330   2.694  0.00  0.00     0.138 A 
ATOM     16  C   UNL d   1       0.101  -3.583   3.287  0.00  0.00     0.045 A 
ATOM     17  C   UNL d   1       1.408  -4.076   3.344  0.00  0.00    -0.059 A 
ATOM     18  C   UNL d   1       2.443  -3.291   2.838  0.00  0.00     0.010 A 
ATOM     19  C   UNL d   1       1.687  -5.418   3.954  0.00  0.00     0.048 C 
ATOM     20  C   UNL d   1       2.176  -2.053   2.244  0.00  0.00     0.041 A 
BRANCH  15  21
ATOM     21  N   UNL d   1      -1.571  -1.865   2.706  0.00  0.00    -0.113 N 
ATOM     22  O   UNL d   1      -1.815  -0.702   2.360  0.00  0.00    -0.532 OA
ATOM     23  O   UNL d   1      -2.435  -2.664   3.094  0.00  0.00    -0.532 OA
ENDBRANCH  15  21
ENDBRANCH  13  14
ENDBRANCH   1  13
TORSDOF 4
