REMARK  4 active torsions:
REMARK  status: ('A' for Active; 'I' for Inactive)
REMARK    1  A    between atoms: N_2  and  C_1 
REMARK       I    between atoms: C_3  and  N_2 
REMARK    2  A    between atoms: C_4  and  C_3 
REMARK    3  A    between atoms: C_5  and  C_6 
REMARK    4  A    between atoms: O_13  and  C_5 
ROOT
ATOM      1  N   UNL d   1      -0.280   2.030   0.405  0.00  0.00    -0.321 N 
ATOM      2  C   UNL d   1      -1.282   2.674  -0.287  0.00  0.00     0.246 C 
ATOM      3  O   UNL d   1      -2.142   2.173  -0.997  0.00  0.00    -0.268 OA
ATOM      4  H   UNL d   1       0.511   2.601   0.688  0.00  0.00     0.169 HD
ENDROOT
BRANCH   1   5
ATOM      5  C   UNL d   1      -0.022   0.630   0.434  0.00  0.00     0.079 A 
ATOM      6  C   UNL d   1      -0.984  -0.395   0.366  0.00  0.00     0.062 A 
ATOM      7 CL   UNL d   1      -2.682  -0.146   0.585  0.00  0.00    -0.082 Cl
ATOM      8  C   UNL d   1      -0.583  -1.741   0.299  0.00  0.00     0.026 A 
ATOM      9  C   UNL d   1       0.765  -2.090   0.356  0.00  0.00     0.003 A 
ATOM     10  C   UNL d   1       1.723  -1.096   0.516  0.00  0.00     0.026 A 
ATOM     11  C   UNL d   1       1.331   0.245   0.563  0.00  0.00     0.062 A 
ATOM     12 CL   UNL d   1       2.581   1.433   0.762  0.00  0.00    -0.082 Cl
ENDBRANCH   1   5
BRANCH   2  13
ATOM     13  C   UNL d   1      -1.171   4.151  -0.181  0.00  0.00     0.081 C 
ATOM     14  C   UNL d   1      -2.219   4.903  -0.547  0.00  0.00     0.086 C 
BRANCH  14  15
ATOM     15  C   UNL d   1      -2.087   6.367  -0.502  0.00  0.00     0.165 C 
ATOM     16  O   UNL d   1      -1.029   6.957  -0.379  0.00  0.00    -0.647 OA
BRANCH  15  17
ATOM     17  O   UNL d   1      -3.280   6.985  -0.598  0.00  0.00    -0.773 OA
ATOM     18  H   UNL d   1      -4.056   6.396  -0.644  0.00  0.00     0.167 HD
ENDBRANCH  15  17
ENDBRANCH  14  15
ENDBRANCH   2  13
TORSDOF 4
