REMARK  2 active torsions:
REMARK  status: ('A' for Active; 'I' for Inactive)
REMARK    1  A    between atoms: C_8  and  C_2 
REMARK    2  A    between atoms: O_17  and  C_14 
ROOT
ATOM      1  C   UNL d   1       0.920  -0.707  -1.375  0.00  0.00     0.005 A 
ATOM      2  C   UNL d   1       0.907  -1.398  -0.086  0.00  0.00     0.049 A 
ATOM      3  C   UNL d   1       0.857   0.670  -1.399  0.00  0.00    -0.004 A 
ATOM      4  N   UNL d   1       0.911  -0.733   1.018  0.00  0.00    -0.388 N 
ATOM      5  HN  UNL d   1       0.912  -1.260   1.891  1.00  0.00     0.159 HD
ATOM      6  S   UNL d   1       0.816   1.329  -2.966  0.00  0.00    -0.105 SA
ATOM      7  C   UNL d   1       1.041  -1.209  -2.714  0.00  0.00     0.022 A 
ATOM      8  C   UNL d   1       0.952  -0.219  -3.669  0.00  0.00     0.051 A 
ATOM      9  C   UNL d   1       0.828   1.534  -0.197  0.00  0.00     0.066 A 
ATOM     10  C   UNL d   1       0.915   0.733   1.104  0.00  0.00     0.125 A 
ENDROOT
BRANCH   2  11
ATOM     11  C   UNL d   1       0.910  -2.890  -0.004  0.00  0.00    -0.009 A 
ATOM     12  C   UNL d   1       1.603  -3.503   1.051  0.00  0.00     0.016 A 
ATOM     13  C   UNL d   1       1.657  -4.897   1.162  0.00  0.00     0.037 A 
ATOM     14  C   UNL d   1       1.021  -5.696   0.212  0.00  0.00     0.068 A 
ATOM     15  C   UNL d   1       0.281  -5.090  -0.805  0.00  0.00     0.037 A 
ATOM     16  C   UNL d   1       0.211  -3.698  -0.907  0.00  0.00     0.016 A 
BRANCH  14  17
ATOM     17  O   UNL d   1       1.012  -7.062   0.199  0.00  0.00    -0.356 OA
ATOM     18  C   UNL d   1       2.096  -7.697   0.868  0.00  0.00     0.210 C 
ENDBRANCH  14  17
ENDBRANCH   2  11
TORSDOF 2
