REMARK  8 active torsions:
REMARK  status: ('A' for Active; 'I' for Inactive)
REMARK    1  A    between atoms: C_6  and  S_1 
REMARK    2  A    between atoms: N_13  and  S_1 
REMARK    3  A    between atoms: N_2  and  C_3 
REMARK    4  A    between atoms: C_4  and  C_7 
REMARK    5  A    between atoms: C_8  and  N_24 
REMARK    6  A    between atoms: C_25  and  N_13 
REMARK    7  A    between atoms: N_24  and  C_26 
REMARK    8  A    between atoms: C_26  and  C_25 
ROOT
ATOM      1  C   UNL d   1       3.079   1.269  -0.284  0.00  0.00     0.147 C 
ENDROOT
BRANCH   1   2
ATOM      2  N   UNL d   1       2.410   0.015   0.119  0.00  0.00    -0.314 N 
ATOM      3  H   UNL d   1       1.613  -0.303  -0.428  0.00  0.00     0.172 HD
BRANCH   2   4
ATOM      4  S   UNL d   1       2.416  -0.568   1.700  0.00  0.00     0.258 S 
ATOM      5  O   UNL d   1       1.322  -1.508   1.800  0.00  0.00    -0.201 OA
ATOM      6  O   UNL d   1       3.772  -0.925   2.045  0.00  0.00    -0.201 OA
BRANCH   4   7
ATOM      7  C   UNL d   1       1.972   0.871   2.651  0.00  0.00     0.080 C 
ATOM      8  C   UNL d   1       2.833   1.269   3.675  0.00  0.00     0.037 C 
ATOM      9  C   UNL d   1       2.882   2.616   4.039  0.00  0.00    -0.025 A 
ATOM     10  C   UNL d   1       3.829   3.075   4.965  0.00  0.00     0.012 A 
ATOM     11  C   UNL d   1       2.037   3.543   3.383  0.00  0.00    -0.026 A 
ATOM     12  C   UNL d   1       4.021   4.442   5.156  0.00  0.00     0.001 A 
ATOM     13  C   UNL d   1       3.260   5.359   4.436  0.00  0.00     0.001 A 
ATOM     14  C   UNL d   1       2.252   4.914   3.578  0.00  0.00     0.012 A 
ATOM     15  C   UNL d   1       1.042   3.077   2.506  0.00  0.00     0.014 C 
ATOM     16  C   UNL d   1       0.995   1.732   2.150  0.00  0.00     0.026 C 
ENDBRANCH   4   7
ENDBRANCH   2   4
ENDBRANCH   1   2
BRANCH   1  17
ATOM     17  C   UNL d   1       4.598   1.291  -0.076  0.00  0.00     0.113 C 
BRANCH  17  18
ATOM     18  N   UNL d   1       5.240   0.321  -0.965  0.00  0.00    -0.289 NA
ATOM     19  H   UNL d   1       4.867   0.385  -1.918  0.00  0.00     0.127 HD
BRANCH  18  20
ATOM     20  C   UNL d   1       6.637   0.197  -0.959  0.00  0.00     0.041 A 
ATOM     21  C   UNL d   1       7.370  -0.213  -2.098  0.00  0.00     0.124 A 
ATOM     22  C   UNL d   1       8.757  -0.459  -2.038  0.00  0.00     0.054 A 
ATOM     23  C   UNL d   1       9.451  -0.322  -0.828  0.00  0.00     0.050 A 
ATOM     24  C   UNL d   1       8.736   0.073   0.306  0.00  0.00     0.018 A 
ATOM     25  C   UNL d   1       7.359   0.312   0.241  0.00  0.00     0.027 A 
BRANCH  21  26
ATOM     26  N   UNL d   1       6.713  -0.366  -3.408  0.00  0.00    -0.114 N 
ATOM     27  O   UNL d   1       7.292  -1.049  -4.263  0.00  0.00    -0.532 OA
ATOM     28  O   UNL d   1       5.636   0.224  -3.598  0.00  0.00    -0.532 OA
ENDBRANCH  21  26
BRANCH  23  29
ATOM     29  C   UNL d   1      10.931  -0.605  -0.728  0.00  0.00     0.417 C 
ATOM     30  F   UNL d   1      11.481  -1.030  -1.897  0.00  0.00    -0.166 F 
ATOM     31  F   UNL d   1      11.640   0.498  -0.366  0.00  0.00    -0.166 F 
ATOM     32  F   UNL d   1      11.216  -1.559   0.189  0.00  0.00    -0.166 F 
ENDBRANCH  23  29
ENDBRANCH  18  20
ENDBRANCH  17  18
ENDBRANCH   1  17
TORSDOF 8
