REMARK  3 active torsions:
REMARK  status: ('A' for Active; 'I' for Inactive)
REMARK    1  A    between atoms: N_12  and  N_3 
REMARK    2  A    between atoms: C_10  and  C_4 
REMARK    3  A    between atoms: C_11  and  C_5 
ROOT
ATOM      1  C   UNL d   1      -0.698   1.218   0.014  0.00  0.00     0.125 A 
ATOM      2  C   UNL d   1      -1.454  -0.074   0.058  0.00  0.00     0.284 A 
ATOM      3  N   UNL d   1      -0.684  -1.245   0.120  0.00  0.00    -0.243 N 
ATOM      4  C   UNL d   1       0.652   1.196  -0.005  0.00  0.00     0.003 A 
ATOM      5  C   UNL d   1       0.698  -1.242   0.068  0.00  0.00     0.065 A 
ATOM      6  C   UNL d   1       1.359  -0.075  -0.003  0.00  0.00     0.046 A 
ATOM      7  C   UNL d   1      -1.463   2.421   0.005  0.00  0.00     0.106 C 
ATOM      8  N   UNL d   1      -2.050   3.422  -0.005  0.00  0.00    -0.191 NA
ATOM      9  O   UNL d   1      -2.687  -0.090   0.038  0.00  0.00    -0.265 OA
ENDROOT
BRANCH   4  10
ATOM     10  C   UNL d   1       1.411   2.465  -0.012  0.00  0.00    -0.024 A 
ATOM     11  C   UNL d   1       1.781   3.064   1.199  0.00  0.00     0.012 A 
ATOM     12  C   UNL d   1       2.444   4.292   1.200  0.00  0.00     0.001 A 
ATOM     13  C   UNL d   1       2.749   4.920  -0.007  0.00  0.00     0.000 A 
ATOM     14  C   UNL d   1       2.406   4.316  -1.216  0.00  0.00     0.001 A 
ATOM     15  C   UNL d   1       1.742   3.087  -1.221  0.00  0.00     0.012 A 
ENDBRANCH   4  10
BRANCH   3  16
ATOM     16  N   UNL d   1      -1.375  -2.469   0.308  0.00  0.00    -0.239 NA
ATOM     17  H   UNL d   1      -2.358  -2.293   0.073  0.00  0.00     0.143 HD
ATOM     18  H   UNL d   1      -1.042  -3.144  -0.381  0.00  0.00     0.143 HD
ENDBRANCH   3  16
BRANCH   5  19
ATOM     19  C   UNL d   1       1.481  -2.490   0.055  0.00  0.00    -0.008 A 
ATOM     20  C   UNL d   1       1.903  -3.077   1.254  0.00  0.00     0.014 A 
ATOM     21  C   UNL d   1       2.693  -4.229   1.233  0.00  0.00     0.001 A 
ATOM     22  C   UNL d   1       3.064  -4.801   0.017  0.00  0.00     0.000 A 
ATOM     23  C   UNL d   1       2.639  -4.230  -1.181  0.00  0.00     0.001 A 
ATOM     24  C   UNL d   1       1.850  -3.077  -1.164  0.00  0.00     0.014 A 
ENDBRANCH   5  19
TORSDOF 3
