REMARK  4 active torsions:
REMARK  status: ('A' for Active; 'I' for Inactive)
REMARK    1  A    between atoms: N_2  and  C_1 
REMARK    2  A    between atoms: S_9  and  C_3 
REMARK    3  A    between atoms: N_7  and  C_5 
REMARK    4  A    between atoms: C_16  and  S_9 
ROOT
ATOM      1  C   UNL d   1       1.770  -1.223   0.088  0.00  0.00     0.121 A 
ATOM      2  C   UNL d   1       2.462  -0.012   0.024  0.00  0.00     0.041 A 
ATOM      3  C   UNL d   1       0.370  -1.277   0.114  0.00  0.00     0.063 A 
ATOM      4  C   UNL d   1       0.283   1.146   0.003  0.00  0.00     0.061 A 
ATOM      5  C   UNL d   1       1.697   1.168  -0.033  0.00  0.00     0.053 A 
ATOM      6  C   UNL d   1      -0.377  -0.094   0.067  0.00  0.00     0.063 A 
ATOM      7 CL   UNL d   1      -2.087  -0.314  -0.084  0.00  0.00    -0.082 Cl
ENDROOT
BRANCH   2   8
ATOM      8  S   UNL d   1       4.239   0.150  -0.036  0.00  0.00    -0.088 SA
BRANCH   8   9
ATOM      9  C   UNL d   1       4.683   0.150   1.692  0.00  0.00     0.005 A 
ATOM     10  C   UNL d   1       5.519  -0.856   2.185  0.00  0.00     0.019 A 
ATOM     11  C   UNL d   1       5.955  -0.827   3.514  0.00  0.00     0.008 A 
ATOM     12  C   UNL d   1       5.564   0.211   4.367  0.00  0.00    -0.062 A 
ATOM     13  C   UNL d   1       4.722   1.212   3.875  0.00  0.00     0.008 A 
ATOM     14  C   UNL d   1       6.067   0.250   5.781  0.00  0.00     0.048 C 
ATOM     15  C   UNL d   1       4.288   1.184   2.545  0.00  0.00     0.019 A 
ENDBRANCH   8   9
ENDBRANCH   2   8
BRANCH   1  16
ATOM     16  N   UNL d   1       2.472  -2.490   0.078  0.00  0.00    -0.114 N 
ATOM     17  O   UNL d   1       3.112  -2.779  -0.942  0.00  0.00    -0.532 OA
ATOM     18  O   UNL d   1       2.319  -3.220   1.066  0.00  0.00    -0.532 OA
ENDBRANCH   1  16
BRANCH   4  19
ATOM     19  N   UNL d   1      -0.402   2.399  -0.029  0.00  0.00    -0.331 N 
ATOM     20  C   UNL d   1      -1.596   2.722   0.584  0.00  0.00     0.096 A 
ATOM     21  C   UNL d   1      -1.916   4.033   0.303  0.00  0.00     0.019 A 
ATOM     22  C   UNL d   1      -0.869   4.559  -0.476  0.00  0.00     0.019 A 
ATOM     23  C   UNL d   1       0.058   3.553  -0.643  0.00  0.00     0.096 A 
ENDBRANCH   4  19
TORSDOF 4
