REMARK  2 active torsions:
REMARK  status: ('A' for Active; 'I' for Inactive)
REMARK    1  A    between atoms: C_6  and  C_2 
REMARK    2  A    between atoms: O_12  and  C_6 
ROOT
ATOM      1  S   UNL d   1      -1.755   2.019   0.000  0.00  0.00    -0.082 SA
ATOM      2  C   UNL d   1      -3.256   1.216  -0.000  0.00  0.00     0.080 A 
ATOM      3  C   UNL d   1      -0.848   0.549   0.001  0.00  0.00     0.027 A 
ATOM      4  C   UNL d   1      -3.085  -0.152   0.000  0.00  0.00     0.038 A 
ATOM      5  C   UNL d   1      -1.705  -0.556   0.001  0.00  0.00    -0.017 A 
ATOM      6  C   UNL d   1       0.573   0.393   0.001  0.00  0.00    -0.008 A 
ATOM      7  C   UNL d   1      -1.132  -1.850   0.001  0.00  0.00     0.014 A 
ATOM      8  C   UNL d   1       1.114  -0.913   0.001  0.00  0.00    -0.025 A 
ATOM      9  C   UNL d   1       0.258  -2.016   0.001  0.00  0.00     0.013 A 
ATOM     10  C   UNL d   1       1.437   1.510   0.001  0.00  0.00     0.013 A 
ATOM     11  C   UNL d   1       2.511  -1.064   0.001  0.00  0.00     0.012 A 
ATOM     12  C   UNL d   1       2.818   1.335   0.001  0.00  0.00     0.001 A 
ATOM     13  C   UNL d   1       3.354   0.052   0.001  0.00  0.00     0.001 A 
ENDROOT
BRANCH   2  14
ATOM     14  C   UNL d   1      -4.509   1.950  -0.002  0.00  0.00     0.183 C 
ATOM     15  O   UNL d   1      -5.621   1.441  -0.000  0.00  0.00    -0.646 OA
BRANCH  14  16
ATOM     16  O   UNL d   1      -4.342   3.299  -0.004  0.00  0.00    -0.772 OA
ATOM     17  H   UNL d   1      -3.395   3.543  -0.006  0.00  0.00     0.167 HD
ENDBRANCH  14  16
ENDBRANCH   2  14
TORSDOF 2
