REMARK  2 active torsions:
REMARK  status: ('A' for Active; 'I' for Inactive)
REMARK    1  A    between atoms: C_6  and  C_2 
REMARK    2  A    between atoms: C_7  and  C_4 
ROOT
ATOM      1  C   UNL d   1      -0.085   0.978  -0.014  0.00  0.00    -0.023 A 
ATOM      2  C   UNL d   1      -1.242   0.106  -0.003  0.00  0.00     0.039 A 
ATOM      3  N   UNL d   1       0.623  -1.124   0.070  0.00  0.00    -0.362 N 
ATOM      4  C   UNL d   1       1.048   0.180   0.043  0.00  0.00     0.019 A 
ATOM      5  C   UNL d   1      -0.749  -1.196   0.035  0.00  0.00     0.020 A 
ATOM      6  C   UNL d   1      -0.072   2.471  -0.062  0.00  0.00     0.051 C 
ATOM      7  C   UNL d   1      -1.373  -2.544  -0.004  0.00  0.00     0.069 C 
ATOM      8  H   UNL d   1       1.241  -1.923   0.091  0.00  0.00     0.165 HD
ENDROOT
BRANCH   2   9
ATOM      9  C   UNL d   1      -2.649   0.544  -0.064  0.00  0.00     0.158 C 
ATOM     10  O   UNL d   1      -2.967   1.573  -0.666  0.00  0.00    -0.293 OA
ATOM     11  C   UNL d   1      -3.733  -0.231   0.636  0.00  0.00     0.097 C 
ENDBRANCH   2   9
BRANCH   4  12
ATOM     12  C   UNL d   1       2.509   0.543   0.059  0.00  0.00     0.028 C 
ATOM     13  C   UNL d   1       3.202   0.009   1.314  0.00  0.00     0.016 C 
ATOM     14  C   UNL d   1       3.223   0.054  -1.202  0.00  0.00     0.016 C 
ENDBRANCH   4  12
TORSDOF 2
