REMARK  3 active torsions:
REMARK  status: ('A' for Active; 'I' for Inactive)
REMARK    1  A    between atoms: C_6  and  N_2 
REMARK    2  A    between atoms: C_7  and  C_6 
REMARK    3  A    between atoms: C_10  and  C_7 
ROOT
ATOM      1  C   UNL d   1       2.398  -2.099   0.068  0.00  0.00     0.229 C 
ENDROOT
BRANCH   1   2
ATOM      2  N   UNL d   1       2.589  -1.306  -1.141  0.00  0.00    -0.230 N 
ATOM      3  S   UNL d   1       3.297  -1.974  -2.515  0.00  0.00     0.269 S 
ATOM      4  C   UNL d   1       3.148  -0.485  -3.416  0.00  0.00     0.095 A 
ATOM      5  O   UNL d   1       4.699  -2.212  -2.281  0.00  0.00    -0.200 OA
ATOM      6  O   UNL d   1       2.384  -2.928  -3.103  0.00  0.00    -0.200 OA
ATOM      7  C   UNL d   1       2.675   0.532  -2.601  0.00  0.00     0.056 A 
ATOM      8  C   UNL d   1       3.339  -0.321  -4.776  0.00  0.00     0.026 A 
ATOM      9  C   UNL d   1       2.365   1.775  -3.127  0.00  0.00     0.018 A 
ATOM     10  C   UNL d   1       2.442   0.096  -1.213  0.00  0.00     0.269 C 
ATOM     11  C   UNL d   1       2.538   1.966  -4.502  0.00  0.00     0.001 A 
ATOM     12  C   UNL d   1       3.028   0.929  -5.318  0.00  0.00     0.002 A 
ATOM     13  O   UNL d   1       2.129   0.822  -0.289  0.00  0.00    -0.266 OA
ENDBRANCH   1   2
BRANCH   1  14
ATOM     14  C   UNL d   1       2.114  -3.565  -0.155  0.00  0.00     0.178 C 
ATOM     15  O   UNL d   1       3.035  -4.369  -0.288  0.00  0.00    -0.290 OA
BRANCH  14  16
ATOM     16  C   UNL d   1       0.700  -4.071  -0.173  0.00  0.00     0.014 A 
ATOM     17  C   UNL d   1      -0.418  -3.229  -0.209  0.00  0.00     0.054 A 
ATOM     18  C   UNL d   1      -1.702  -3.775  -0.108  0.00  0.00     0.103 A 
ATOM     19  O   UNL d   1      -2.747  -2.885  -0.076  0.00  0.00    -0.346 OA
ATOM     20  C   UNL d   1      -1.884  -5.160  -0.029  0.00  0.00     0.102 A 
ATOM     21  C   UNL d   1      -3.931  -3.499   0.453  0.00  0.00     0.202 C 
ATOM     22  C   UNL d   1      -4.177  -4.846  -0.206  0.00  0.00     0.202 C 
ATOM     23  O   UNL d   1      -3.112  -5.758   0.078  0.00  0.00    -0.346 OA
ATOM     24  C   UNL d   1      -0.778  -6.003  -0.034  0.00  0.00     0.040 A 
ATOM     25  C   UNL d   1       0.507  -5.462  -0.105  0.00  0.00     0.018 A 
ENDBRANCH  14  16
ENDBRANCH   1  14
TORSDOF 3
