REMARK  6 active torsions:
REMARK  status: ('A' for Active; 'I' for Inactive)
REMARK    1  A    between atoms: C_10  and  C_1 
REMARK       I    between atoms: C_2  and  N_4 
REMARK    2  A    between atoms: C_6  and  C_2 
REMARK    3  A    between atoms: N_4  and  C_7 
REMARK    4  A    between atoms: C_7  and  C_10 
REMARK    5  A    between atoms: C_9  and  C_7 
REMARK    6  A    between atoms: O_18  and  C_9 
ROOT
ATOM      1  C   UNL d   1      -0.966  -3.287  -0.028  0.00  0.00     0.189 C 
ENDROOT
BRANCH   1   2
ATOM      2  N   UNL d   1      -0.232  -2.892   1.183  0.00  0.00    -0.342 N 
ATOM      3  C   UNL d   1       1.110  -2.745   1.429  0.00  0.00     0.259 C 
ATOM      4  O   UNL d   1       1.416  -2.582   2.614  0.00  0.00    -0.267 OA
ATOM      5  H   UNL d   1      -0.730  -3.000   2.058  0.00  0.00     0.163 HD
BRANCH   3   6
ATOM      6  C   UNL d   1       2.113  -2.705   0.377  0.00  0.00     0.072 A 
ATOM      7  S   UNL d   1       2.154  -3.773  -0.959  0.00  0.00    -0.097 SA
ATOM      8  C   UNL d   1       3.584  -3.069  -1.582  0.00  0.00     0.050 A 
ATOM      9  C   UNL d   1       4.080  -2.095  -0.747  0.00  0.00     0.009 A 
ATOM     10  C   UNL d   1       3.247  -1.908   0.393  0.00  0.00     0.025 A 
ENDBRANCH   3   6
ENDBRANCH   1   2
BRANCH   1  11
ATOM     11  C   UNL d   1      -2.406  -2.752  -0.023  0.00  0.00     0.076 C 
BRANCH  11  12
ATOM     12  C   UNL d   1      -2.576  -1.287  -0.296  0.00  0.00    -0.028 A 
ATOM     13  C   UNL d   1      -2.471  -0.667  -1.528  0.00  0.00     0.096 A 
ATOM     14  N   UNL d   1      -2.897   0.629  -1.397  0.00  0.00    -0.365 N 
ATOM     15  C   UNL d   1      -3.294   0.870  -0.103  0.00  0.00     0.042 A 
ATOM     16  H   UNL d   1      -2.965   1.301  -2.147  0.00  0.00     0.165 HD
ATOM     17  C   UNL d   1      -3.033  -0.292   0.630  0.00  0.00    -0.002 A 
ATOM     18  C   UNL d   1      -3.876   2.008   0.468  0.00  0.00     0.030 A 
ATOM     19  C   UNL d   1      -3.314  -0.290   2.010  0.00  0.00     0.014 A 
ATOM     20  C   UNL d   1      -3.879   0.845   2.601  0.00  0.00     0.001 A 
ATOM     21  C   UNL d   1      -4.173   1.970   1.834  0.00  0.00     0.002 A 
ENDBRANCH  11  12
ENDBRANCH   1  11
BRANCH   1  22
ATOM     22  C   UNL d   1      -1.106  -4.821  -0.110  0.00  0.00     0.281 C 
ATOM     23  O   UNL d   1      -1.554  -5.412  -1.087  0.00  0.00    -0.263 OA
BRANCH  22  24
ATOM     24  O   UNL d   1      -0.797  -5.423   1.075  0.00  0.00    -0.325 OA
ATOM     25  C   UNL d   1      -1.047  -6.828   1.117  0.00  0.00     0.213 C 
ENDBRANCH  22  24
ENDBRANCH   1  22
TORSDOF 6
