REMARK  8 active torsions:
REMARK  status: ('A' for Active; 'I' for Inactive)
REMARK    1  A    between atoms: C_13  and  C_4 
REMARK    2  A    between atoms: C_12  and  C_5 
REMARK    3  A    between atoms: O_22  and  C_6 
REMARK    4  A    between atoms: O_23  and  C_7 
REMARK    5  A    between atoms: O_27  and  C_8 
REMARK    6  A    between atoms: O_25  and  C_9 
REMARK    7  A    between atoms: O_26  and  C_10 
REMARK    8  A    between atoms: O_24  and  C_11 
ROOT
ATOM      1  C   UNL d   1      -0.547  -1.387   1.426  0.00  0.00     0.017 C 
ATOM      2  C   UNL d   1      -0.775   1.076   1.694  0.00  0.00     0.017 C 
ATOM      3  C   UNL d   1      -0.268  -0.198   2.278  0.00  0.00     0.188 C 
ATOM      4  C   UNL d   1      -0.915  -2.512   2.068  0.00  0.00     0.025 C 
ATOM      5  C   UNL d   1      -1.362   1.935   2.545  0.00  0.00     0.025 C 
ATOM      6  O   UNL d   1      -1.252   0.009  -0.386  0.00  0.00    -0.382 OA
ATOM      7  O   UNL d   1       0.252  -0.265   3.381  0.00  0.00    -0.287 OA
ATOM      8  C   UNL d   1      -0.504  -1.157  -0.048  0.00  0.00     0.210 C 
ATOM      9  C   UNL d   1      -0.690   1.177   0.207  0.00  0.00     0.210 C 
ENDROOT
BRANCH   4  10
ATOM     10  C   UNL d   1      -1.468  -3.676   1.373  0.00  0.00    -0.030 A 
ATOM     11  C   UNL d   1      -0.667  -4.731   0.966  0.00  0.00     0.051 A 
ATOM     12  C   UNL d   1      -1.229  -5.812   0.274  0.00  0.00     0.105 A 
ATOM     13  C   UNL d   1      -2.621  -5.876   0.026  0.00  0.00     0.135 A 
ATOM     14  C   UNL d   1      -3.430  -4.796   0.440  0.00  0.00     0.105 A 
ATOM     15  C   UNL d   1      -2.836  -3.699   1.087  0.00  0.00     0.051 A 
BRANCH  12  16
ATOM     16  O   UNL d   1      -0.308  -6.783  -0.049  0.00  0.00    -0.353 OA
ATOM     17  C   UNL d   1      -0.460  -7.371  -1.338  0.00  0.00     0.210 C 
ENDBRANCH  12  16
BRANCH  13  18
ATOM     18  O   UNL d   1      -3.054  -7.060  -0.511  0.00  0.00    -0.351 OA
ATOM     19  C   UNL d   1      -4.335  -7.170  -1.105  0.00  0.00     0.210 C 
ENDBRANCH  13  18
BRANCH  14  20
ATOM     20  O   UNL d   1      -4.778  -4.827   0.190  0.00  0.00    -0.353 OA
ATOM     21  C   UNL d   1      -5.609  -4.036   1.038  0.00  0.00     0.210 C 
ENDBRANCH  14  20
ENDBRANCH   4  10
BRANCH   5  22
ATOM     22  C   UNL d   1      -2.131   3.095   2.097  0.00  0.00    -0.030 A 
ATOM     23  C   UNL d   1      -3.505   2.965   1.924  0.00  0.00     0.051 A 
ATOM     24  C   UNL d   1      -4.271   4.040   1.464  0.00  0.00     0.105 A 
ATOM     25  C   UNL d   1      -3.673   5.293   1.212  0.00  0.00     0.135 A 
ATOM     26  C   UNL d   1      -2.276   5.422   1.385  0.00  0.00     0.105 A 
ATOM     27  C   UNL d   1      -1.517   4.312   1.804  0.00  0.00     0.051 A 
BRANCH  24  28
ATOM     28  O   UNL d   1      -5.611   3.746   1.375  0.00  0.00    -0.353 OA
ATOM     29  C   UNL d   1      -6.285   4.268   0.234  0.00  0.00     0.210 C 
ENDBRANCH  24  28
BRANCH  25  30
ATOM     30  O   UNL d   1      -4.560   6.300   0.934  0.00  0.00    -0.351 OA
ATOM     31  C   UNL d   1      -4.135   7.491   0.295  0.00  0.00     0.210 C 
ENDBRANCH  25  30
BRANCH  26  32
ATOM     32  O   UNL d   1      -1.677   6.633   1.130  0.00  0.00    -0.353 OA
ATOM     33  C   UNL d   1      -0.453   6.892   1.812  0.00  0.00     0.210 C 
ENDBRANCH  26  32
ENDBRANCH   5  22
TORSDOF 8
