REMARK  2 active torsions:
REMARK  status: ('A' for Active; 'I' for Inactive)
REMARK    1  A    between atoms: C_17  and  C_6 
REMARK    2  A    between atoms: C_12  and  C_18 
REMARK       I    between atoms: N_24  and  C_12 
ROOT
ATOM      1  C   UNL d   1      -0.917  -0.433  -0.017  0.00  0.00     0.015 A 
ATOM      2  C   UNL d   1       0.543  -0.341  -0.002  0.00  0.00     0.054 A 
ATOM      3  N   UNL d   1       1.201  -1.528   0.009  0.00  0.00    -0.341 N 
ATOM      4  HN  UNL d   1       0.698  -2.416  -0.009  1.00  0.00     0.167 HD
ATOM      5  C   UNL d   1      -1.723   0.688   0.019  0.00  0.00     0.053 A 
ATOM      6  C   UNL d   1       2.548  -1.484   0.043  0.00  0.00     0.116 A 
ATOM      7  S   UNL d   1      -1.221   2.359   0.100  0.00  0.00    -0.117 SA
ATOM      8  C   UNL d   1       1.193   0.878   0.013  0.00  0.00    -0.005 A 
ATOM      9  N   UNL d   1       3.262  -0.346   0.064  0.00  0.00    -0.351 N 
ATOM     10  HN  UNL d   1       4.282  -0.355   0.091  1.00  0.00     0.166 HD
ATOM     11  S   UNL d   1      -3.390   0.303   0.004  0.00  0.00    -0.094 SA
ATOM     12  C   UNL d   1      -1.716  -1.629  -0.036  0.00  0.00     0.023 A 
ATOM     13  C   UNL d   1      -3.068  -1.370  -0.025  0.00  0.00     0.052 A 
ATOM     14  C   UNL d   1       0.563   2.230  -0.043  0.00  0.00     0.122 C 
ATOM     15  C   UNL d   1       2.571   0.801   0.045  0.00  0.00     0.100 A 
ENDROOT
BRANCH   6  16
ATOM     16  C   UNL d   1       3.313  -2.748   0.081  0.00  0.00     0.008 A 
ATOM     17  C   UNL d   1       2.690  -4.004  -0.007  0.00  0.00     0.016 A 
ATOM     18  C   UNL d   1       3.428  -5.199   0.046  0.00  0.00     0.018 A 
ATOM     19  C   UNL d   1       4.819  -5.170   0.189  0.00  0.00     0.031 A 
ATOM     20  C   UNL d   1       5.458  -3.929   0.273  0.00  0.00     0.018 A 
ATOM     21  C   UNL d   1       4.717  -2.743   0.216  0.00  0.00     0.016 A 
BRANCH  19  22
ATOM     22  C   UNL d   1       5.671  -6.391   0.262  0.00  0.00     0.249 C 
ATOM     23  O   UNL d   1       6.888  -6.319   0.403  0.00  0.00    -0.268 OA
ATOM     24  N   UNL d   1       5.072  -7.617   0.169  0.00  0.00    -0.366 N 
ATOM     25  H   UNL d   1       4.086  -7.779   0.040  0.00  0.00     0.159 HD
ATOM     26  H   UNL d   1       5.681  -8.422   0.217  0.00  0.00     0.159 HD
ENDBRANCH  19  22
ENDBRANCH   6  16
TORSDOF 2
