REMARK  3 active torsions:
REMARK  status: ('A' for Active; 'I' for Inactive)
REMARK    1  A    between atoms: C_9  and  N_1 
REMARK    2  A    between atoms: N_13  and  C_2 
REMARK    3  A    between atoms: C_15  and  C_9 
ROOT
ATOM      1  N   UNL d   1       2.404   0.706  -0.048  0.00  0.00    -0.299 N 
ATOM      2  C   UNL d   1       2.419  -0.698  -0.012  0.00  0.00     0.106 A 
ATOM      3  C   UNL d   1       1.242  -1.381  -0.055  0.00  0.00     0.110 A 
ATOM      4  C   UNL d   1       1.228   1.462  -0.085  0.00  0.00     0.261 A 
ATOM      5  C   UNL d   1      -0.044   0.731  -0.091  0.00  0.00     0.060 A 
ATOM      6  C   UNL d   1      -0.032  -0.651  -0.097  0.00  0.00     0.072 A 
ATOM      7  C   UNL d   1       1.220  -2.811  -0.050  0.00  0.00     0.105 C 
ATOM      8  N   UNL d   1       1.289  -3.971  -0.028  0.00  0.00    -0.191 NA
ATOM      9  N   UNL d   1      -1.181  -1.378  -0.133  0.00  0.00    -0.364 N 
ATOM     10  HN  UNL d   1      -1.160  -2.398  -0.134  1.00  0.00     0.165 HD
ATOM     11  O   UNL d   1       1.192   2.692  -0.117  0.00  0.00    -0.267 OA
ATOM     12  C   UNL d   1      -1.266   1.409  -0.115  0.00  0.00     0.021 A 
ATOM     13  C   UNL d   1      -2.354  -0.702  -0.166  0.00  0.00     0.088 A 
ATOM     14  C   UNL d   1      -2.447   0.678  -0.155  0.00  0.00     0.018 A 
ENDROOT
BRANCH   2  15
ATOM     15  N   UNL d   1       3.645  -1.351   0.059  0.00  0.00    -0.287 NA
ATOM     16  H   UNL d   1       4.262  -0.908   0.738  0.00  0.00     0.125 HD
ATOM     17  H   UNL d   1       3.594  -2.351   0.252  0.00  0.00     0.125 HD
ENDBRANCH   2  15
BRANCH   1  18
ATOM     18  C   UNL d   1       3.663   1.467  -0.131  0.00  0.00     0.172 C 
BRANCH  18  19
ATOM     19  C   UNL d   1       4.321   1.699   1.215  0.00  0.00    -0.040 A 
ATOM     20  C   UNL d   1       5.652   1.311   1.431  0.00  0.00     0.009 A 
ATOM     21  C   UNL d   1       6.254   1.500   2.678  0.00  0.00     0.001 A 
ATOM     22  C   UNL d   1       5.539   2.093   3.716  0.00  0.00     0.000 A 
ATOM     23  C   UNL d   1       4.231   2.520   3.503  0.00  0.00     0.001 A 
ATOM     24  C   UNL d   1       3.629   2.333   2.258  0.00  0.00     0.009 A 
ENDBRANCH  18  19
ENDBRANCH   1  18
TORSDOF 3
