REMARK  2 active torsions:
REMARK  status: ('A' for Active; 'I' for Inactive)
REMARK    1  A    between atoms: C_8  and  C_1 
REMARK    2  A    between atoms: O_16  and  C_9 
ROOT
ATOM      1  C   UNL d   1       0.975  -1.331  -0.009  0.00  0.00     0.212 A 
ATOM      2  N   UNL d   1      -0.258  -0.667   0.009  0.00  0.00    -0.299 N 
ATOM      3  N   UNL d   1       2.104  -0.667  -0.022  0.00  0.00    -0.279 N 
ATOM      4  HN  UNL d   1       2.989  -1.174  -0.035  1.00  0.00     0.188 HD
ATOM      5  C   UNL d   1      -0.278   0.711   0.011  0.00  0.00     0.092 A 
ATOM      6  N   UNL d   1       2.109   0.757  -0.017  0.00  0.00    -0.277 N 
ATOM      7  HN  UNL d   1       2.986   1.278  -0.025  1.00  0.00     0.189 HD
ATOM      8  C   UNL d   1       0.975   1.372  -0.003  0.00  0.00     0.182 A 
ATOM      9  C   UNL d   1      -1.569  -1.095   0.029  0.00  0.00     0.099 A 
ATOM     10  C   UNL d   1      -1.581   1.155   0.025  0.00  0.00     0.036 A 
ATOM     11  C   UNL d   1      -2.400   0.008   0.037  0.00  0.00     0.020 A 
ENDROOT
BRANCH   1  12
ATOM     12  C   UNL d   1       0.963  -2.838  -0.019  0.00  0.00     0.451 C 
ATOM     13  F   UNL d   1      -0.253  -3.443   0.002  0.00  0.00    -0.163 F 
ATOM     14  F   UNL d   1       1.591  -3.334  -1.124  0.00  0.00    -0.163 F 
ATOM     15  F   UNL d   1       1.637  -3.350   1.051  0.00  0.00    -0.163 F 
ENDBRANCH   1  12
BRANCH   8  16
ATOM     16  O   UNL d   1       0.911   2.710  -0.000  0.00  0.00    -0.344 OA
ATOM     17  H   UNL d   1       1.823   3.043  -0.011  0.00  0.00     0.219 HD
ENDBRANCH   8  16
TORSDOF 2
