REMARK  4 active torsions:
REMARK  status: ('A' for Active; 'I' for Inactive)
REMARK    1  A    between atoms: C_2  and  S_1 
REMARK    2  A    between atoms: N_3  and  S_1 
REMARK    3  A    between atoms: C_11  and  N_3 
REMARK    4  A    between atoms: O_19  and  C_10 
ROOT
ATOM      1  S   UNL d   1       1.125  -0.038  -0.144  0.00  0.00     0.263 S 
ATOM      2  O   UNL d   1       0.599   1.096   0.585  0.00  0.00    -0.200 OA
ATOM      3  O   UNL d   1       2.548  -0.279  -0.237  0.00  0.00    -0.200 OA
ENDROOT
BRANCH   1   4
ATOM      4  C   UNL d   1       0.450   0.025  -1.786  0.00  0.00     0.081 A 
ATOM      5  C   UNL d   1      -0.780   0.652  -1.996  0.00  0.00     0.049 A 
ATOM      6  C   UNL d   1      -1.302   0.724  -3.288  0.00  0.00     0.041 A 
ATOM      7 CL   UNL d   1      -2.830   1.502  -3.498  0.00  0.00    -0.084 Cl
ATOM      8  C   UNL d   1      -0.601   0.179  -4.378  0.00  0.00    -0.040 A 
ATOM      9  C   UNL d   1       0.640  -0.439  -4.144  0.00  0.00     0.010 A 
ATOM     10  C   UNL d   1      -1.134   0.255  -5.782  0.00  0.00     0.050 C 
ATOM     11  C   UNL d   1       1.168  -0.513  -2.854  0.00  0.00     0.026 A 
ENDBRANCH   1   4
BRANCH   1  12
ATOM     12  N   UNL d   1       0.373  -1.389   0.488  0.00  0.00    -0.279 N 
ATOM     13  H   UNL d   1      -0.186  -1.248   1.329  0.00  0.00     0.179 HD
BRANCH  12  14
ATOM     14  C   UNL d   1       0.774  -2.690   0.108  0.00  0.00     0.058 A 
ATOM     15  C   UNL d   1       1.937  -3.288   0.586  0.00  0.00     0.120 A 
ATOM     16  N   UNL d   1       2.282  -4.575   0.333  0.00  0.00    -0.345 N 
ATOM     17  C   UNL d   1       1.429  -5.289  -0.434  0.00  0.00     0.141 A 
ATOM     18  HN  UNL d   1       3.141  -4.983   0.701  1.00  0.00     0.167 HD
ATOM     19  C   UNL d   1       0.259  -4.771  -0.969  0.00  0.00     0.058 A 
ATOM     20  C   UNL d   1      -0.079  -3.451  -0.682  0.00  0.00     0.036 A 
BRANCH  17  21
ATOM     21  O   UNL d   1       1.687  -6.616  -0.713  0.00  0.00    -0.341 OA
ATOM     22  C   UNL d   1       2.844  -7.113  -0.050  0.00  0.00     0.211 C 
ENDBRANCH  17  21
ENDBRANCH  12  14
ENDBRANCH   1  12
TORSDOF 4
