REMARK  1 active torsions:
REMARK  status: ('A' for Active; 'I' for Inactive)
REMARK    1  A    between atoms: C_5  and  C_1 
REMARK       I    between atoms: N_10  and  C_5 
ROOT
ATOM      1  C   UNL d   1      -0.683   1.231   0.003  0.00  0.00     0.147 A 
ATOM      2  O   UNL d   1      -1.438   0.036   0.003  0.00  0.00    -0.270 OA
ATOM      3  C   UNL d   1      -0.796  -1.172   0.003  0.00  0.00     0.288 A 
ATOM      4  C   UNL d   1       0.658   1.231   0.001  0.00  0.00     0.050 A 
ATOM      5  C   UNL d   1       1.374  -0.020  -0.002  0.00  0.00    -0.053 A 
ATOM      6  C   UNL d   1       0.679  -1.166  -0.000  0.00  0.00     0.089 A 
ATOM      7  O   UNL d   1      -1.407  -2.235   0.004  0.00  0.00    -0.260 OA
ATOM      8  C   UNL d   1       2.872   0.007  -0.007  0.00  0.00     0.048 C 
ENDROOT
BRANCH   1   9
ATOM      9  C   UNL d   1      -1.401   2.539   0.006  0.00  0.00     0.273 C 
ATOM     10  O   UNL d   1      -0.829   3.621   0.013  0.00  0.00    -0.266 OA
ATOM     11  N   UNL d   1      -2.758   2.459  -0.001  0.00  0.00    -0.364 N 
ATOM     12  H   UNL d   1      -3.256   1.579  -0.009  0.00  0.00     0.159 HD
ATOM     13  H   UNL d   1      -3.280   3.324  -0.002  0.00  0.00     0.159 HD
ENDBRANCH   1   9
TORSDOF 1
