REMARK  4 active torsions:
REMARK  status: ('A' for Active; 'I' for Inactive)
REMARK    1  A    between atoms: C_9  and  N_2 
REMARK    2  A    between atoms: C_8  and  C_9 
REMARK    3  A    between atoms: C_16  and  C_10 
REMARK    4  A    between atoms: O_25  and  C_21 
ROOT
ATOM      1  N   UNL d   1       1.608  -4.067  -1.117  0.00  0.00    -0.321 N 
ATOM      2  HN  UNL d   1       1.491  -3.649  -2.040  1.00  0.00     0.169 HD
ATOM      3  C   UNL d   1       2.135  -3.507   0.018  0.00  0.00     0.123 A 
ATOM      4  C   UNL d   1       1.292  -5.280  -0.717  0.00  0.00     0.182 A 
ATOM      5  N   UNL d   1       2.179  -4.327   1.079  0.00  0.00    -0.245 N 
ATOM      6  HN  UNL d   1       2.531  -4.132   2.016  1.00  0.00     0.196 HD
ATOM      7  O   UNL d   1       1.624  -5.515   0.588  0.00  0.00    -0.217 OA
ENDROOT
BRANCH   3   8
ATOM      8  C   UNL d   1       2.502  -2.064   0.091  0.00  0.00     0.223 C 
BRANCH   8   9
ATOM      9  N   UNL d   1       3.870  -1.835  -0.354  0.00  0.00    -0.230 N 
ATOM     10  S   UNL d   1       5.084  -1.804   0.796  0.00  0.00     0.269 S 
ATOM     11  C   UNL d   1       6.306  -1.394  -0.373  0.00  0.00     0.095 A 
ATOM     12  O   UNL d   1       4.881  -0.666   1.661  0.00  0.00    -0.200 OA
ATOM     13  O   UNL d   1       5.344  -3.139   1.273  0.00  0.00    -0.200 OA
ATOM     14  C   UNL d   1       5.751  -1.271  -1.640  0.00  0.00     0.056 A 
ATOM     15  C   UNL d   1       7.654  -1.218  -0.123  0.00  0.00     0.026 A 
ATOM     16  C   UNL d   1       6.553  -0.958  -2.727  0.00  0.00     0.018 A 
ATOM     17  C   UNL d   1       4.292  -1.501  -1.656  0.00  0.00     0.269 A 
ATOM     18  C   UNL d   1       7.924  -0.777  -2.504  0.00  0.00     0.001 A 
ATOM     19  C   UNL d   1       8.469  -0.905  -1.212  0.00  0.00     0.002 A 
ATOM     20  O   UNL d   1       3.576  -1.387  -2.630  0.00  0.00    -0.266 OA
ENDBRANCH   8   9
ENDBRANCH   3   8
BRANCH   4  21
ATOM     21  C   UNL d   1       0.599  -6.330  -1.450  0.00  0.00     0.017 A 
ATOM     22  C   UNL d   1       0.334  -6.132  -2.814  0.00  0.00     0.018 A 
ATOM     23  C   UNL d   1      -0.379  -7.075  -3.559  0.00  0.00     0.037 A 
ATOM     24  C   UNL d   1      -0.847  -8.236  -2.946  0.00  0.00     0.068 A 
ATOM     25  C   UNL d   1      -0.564  -8.460  -1.597  0.00  0.00     0.037 A 
ATOM     26  C   UNL d   1       0.146  -7.512  -0.849  0.00  0.00     0.018 A 
BRANCH  24  27
ATOM     27  O   UNL d   1      -1.553  -9.223  -3.576  0.00  0.00    -0.356 OA
ATOM     28  C   UNL d   1      -2.335  -8.799  -4.689  0.00  0.00     0.210 C 
ENDBRANCH  24  27
ENDBRANCH   4  21
TORSDOF 4
