REMARK  2 active torsions:
REMARK  status: ('A' for Active; 'I' for Inactive)
REMARK    1  A    between atoms: C_8  and  N_1 
REMARK    2  A    between atoms: S_11  and  C_2 
ROOT
ATOM      1  N   UNL d   1       2.454  -0.626  -0.038  0.00  0.00    -0.257 N 
ATOM      2  C   UNL d   1       2.348   0.761   0.034  0.00  0.00     0.152 A 
ATOM      3  C   UNL d   1       1.297  -1.416  -0.036  0.00  0.00     0.267 A 
ATOM      4  C   UNL d   1       0.008  -0.707   0.013  0.00  0.00     0.060 A 
ATOM      5  N   UNL d   1       1.225   1.404   0.079  0.00  0.00    -0.336 N 
ATOM      6  HN  UNL d   1       1.213   2.422   0.136  1.00  0.00     0.168 HD
ATOM      7  C   UNL d   1       0.032   0.680   0.047  0.00  0.00     0.050 A 
ATOM      8  O   UNL d   1       1.276  -2.647  -0.043  0.00  0.00    -0.267 OA
ATOM      9  C   UNL d   1      -1.204  -1.414   0.012  0.00  0.00     0.026 A 
ATOM     10  C   UNL d   1      -1.181   1.371   0.035  0.00  0.00     0.031 A 
ATOM     11  C   UNL d   1      -2.418  -0.722   0.024  0.00  0.00    -0.061 A 
ATOM     12  C   UNL d   1      -2.397   0.678   0.016  0.00  0.00     0.009 A 
ATOM     13  C   UNL d   1      -3.723  -1.460   0.011  0.00  0.00     0.048 C 
ENDROOT
BRANCH   1  14
ATOM     14  C   UNL d   1       3.695  -1.331  -0.099  0.00  0.00     0.060 A 
ATOM     15  C   UNL d   1       4.693  -1.183   0.861  0.00  0.00     0.117 A 
ATOM     16  N   UNL d   1       5.883  -1.832   0.827  0.00  0.00    -0.373 N 
ATOM     17  C   UNL d   1       6.077  -2.694  -0.194  0.00  0.00     0.088 A 
ATOM     18  HN  UNL d   1       6.597  -1.677   1.539  1.00  0.00     0.164 HD
ATOM     19  C   UNL d   1       5.144  -2.933  -1.187  0.00  0.00     0.019 A 
ATOM     20  C   UNL d   1       3.936  -2.244  -1.133  0.00  0.00     0.033 A 
ENDBRANCH   1  14
BRANCH   2  21
ATOM     21  S   UNL d   1       3.772   1.791  -0.019  0.00  0.00    -0.106 SA
ATOM     22  H   UNL d   1       4.598   0.964  -0.668  0.00  0.00     0.110 HD
ENDBRANCH   2  21
TORSDOF 2
