REMARK  3 active torsions:
REMARK  status: ('A' for Active; 'I' for Inactive)
REMARK       I    between atoms: C_3  and  N_1 
REMARK    1  A    between atoms: C_6  and  C_3 
REMARK    2  A    between atoms: S_9  and  C_6 
REMARK    3  A    between atoms: C_10  and  S_9 
ROOT
ATOM      1  N   UNL d   1       1.498   1.074  -0.170  0.00  0.00    -0.317 N 
ATOM      2  C   UNL d   1       0.152   0.647  -0.202  0.00  0.00     0.043 A 
ATOM      3  C   UNL d   1       1.921   2.388  -0.303  0.00  0.00     0.234 C 
ATOM      4  C   UNL d   1       2.331  -0.110   0.122  0.00  0.00     0.137 C 
ATOM      5  C   UNL d   1       0.080  -0.744  -0.098  0.00  0.00    -0.030 A 
ATOM      6  O   UNL d   1       1.158   3.337  -0.514  0.00  0.00    -0.272 OA
ATOM      7  C   UNL d   1       1.443  -1.351  -0.035  0.00  0.00     0.061 C 
ATOM      8  C   UNL d   1      -1.007   1.397  -0.305  0.00  0.00     0.030 A 
ATOM      9  C   UNL d   1      -1.134  -1.414  -0.119  0.00  0.00     0.009 A 
ATOM     10  C   UNL d   1      -2.240   0.737  -0.314  0.00  0.00     0.002 A 
ATOM     11  C   UNL d   1      -2.302  -0.662  -0.224  0.00  0.00     0.001 A 
ENDROOT
BRANCH   3  12
ATOM     12  C   UNL d   1       3.394   2.699  -0.086  0.00  0.00     0.182 C 
BRANCH  12  13
ATOM     13  S   UNL d   1       4.530   2.031  -1.337  0.00  0.00    -0.121 SA
BRANCH  13  14
ATOM     14  C   UNL d   1       3.976   2.689  -2.900  0.00  0.00     0.001 A 
ATOM     15  C   UNL d   1       3.304   3.900  -3.078  0.00  0.00     0.018 A 
ATOM     16  C   UNL d   1       3.005   4.363  -4.367  0.00  0.00     0.001 A 
ATOM     17  C   UNL d   1       3.376   3.622  -5.489  0.00  0.00     0.000 A 
ATOM     18  C   UNL d   1       4.037   2.411  -5.323  0.00  0.00     0.001 A 
ATOM     19  C   UNL d   1       4.335   1.951  -4.040  0.00  0.00     0.018 A 
ENDBRANCH  13  14
ENDBRANCH  12  13
ENDBRANCH   3  12
TORSDOF 3
