REMARK  2 active torsions:
REMARK  status: ('A' for Active; 'I' for Inactive)
REMARK    1  A    between atoms: N_4  and  C_1 
REMARK    2  A    between atoms: C_8  and  C_5 
ROOT
ATOM      1  C   UNL d   1      -1.444   0.290   0.011  0.00  0.00     0.156 A 
ATOM      2  N   UNL d   1      -1.374  -1.018   0.141  0.00  0.00    -0.335 N 
ATOM      3  HN  UNL d   1      -2.176  -1.640   0.244  1.00  0.00     0.168 HD
ATOM      4  C   UNL d   1      -0.043  -1.426   0.117  0.00  0.00     0.057 A 
ATOM      5  S   UNL d   1       0.041   1.114  -0.002  0.00  0.00    -0.056 SA
ATOM      6  C   UNL d   1       0.879  -0.389   0.029  0.00  0.00     0.010 A 
ATOM      7  C   UNL d   1       2.365  -0.388  -0.066  0.00  0.00     0.059 C 
ENDROOT
BRANCH   4   8
ATOM      8  C   UNL d   1       0.273  -2.855   0.116  0.00  0.00    -0.007 A 
ATOM      9  C   UNL d   1      -0.596  -3.744  -0.533  0.00  0.00     0.038 A 
ATOM     10  C   UNL d   1      -0.315  -5.114  -0.584  0.00  0.00     0.040 A 
ATOM     11 CL   UNL d   1      -1.438  -6.141  -1.403  0.00  0.00    -0.084 Cl
ATOM     12  C   UNL d   1       0.845  -5.630   0.012  0.00  0.00    -0.040 A 
ATOM     13  C   UNL d   1       1.696  -4.746   0.686  0.00  0.00     0.009 A 
ATOM     14  C   UNL d   1       1.187  -7.093  -0.040  0.00  0.00     0.050 C 
ATOM     15  C   UNL d   1       1.407  -3.378   0.747  0.00  0.00     0.014 A 
ENDBRANCH   4   8
BRANCH   1  16
ATOM     16  N   UNL d   1      -2.656   1.013  -0.021  0.00  0.00    -0.300 N 
ATOM     17  C   UNL d   1      -3.831   0.660   0.655  0.00  0.00     0.015 A 
ATOM     18  C   UNL d   1      -4.799   1.615   0.408  0.00  0.00     0.027 A 
ATOM     19  C   UNL d   1      -3.976  -0.515   1.565  0.00  0.00     0.068 C 
ATOM     20  C   UNL d   1      -4.244   2.573  -0.449  0.00  0.00     0.027 A 
ATOM     21  C   UNL d   1      -2.949   2.186  -0.741  0.00  0.00     0.015 A 
ATOM     22  C   UNL d   1      -2.054   2.848  -1.735  0.00  0.00     0.068 C 
ENDBRANCH   1  16
TORSDOF 2
