REMARK  2 active torsions:
REMARK  status: ('A' for Active; 'I' for Inactive)
REMARK    1  A    between atoms: C_5  and  C_1 
REMARK    2  A    between atoms: C_9  and  N_2 
ROOT
ATOM      1  C   UNL d   1       0.055   4.901  -0.418  0.00  0.00     0.081 C 
ATOM      2  C   UNL d   1      -0.505   4.732   1.004  0.00  0.00     0.025 C 
ATOM      3  C   UNL d   1      -1.072   4.836  -1.491  0.00  0.00     0.025 C 
ATOM      4  C   UNL d   1       0.497   4.553   2.149  0.00  0.00     0.002 C 
ATOM      5  C   UNL d   1      -2.079   3.671  -1.415  0.00  0.00     0.002 C 
ATOM      6  C   UNL d   1       0.783   3.083   2.489  0.00  0.00     0.000 C 
ATOM      7  C   UNL d   1      -1.507   2.287  -1.748  0.00  0.00     0.000 C 
ATOM      8  C   UNL d   1      -0.451   2.299   2.981  0.00  0.00     0.000 C 
ATOM      9  C   UNL d   1      -2.242   1.123  -1.064  0.00  0.00     0.000 C 
ATOM     10  C   UNL d   1      -0.501   0.855   2.463  0.00  0.00     0.000 C 
ATOM     11  C   UNL d   1      -2.106   1.064   0.467  0.00  0.00     0.000 C 
ATOM     12  C   UNL d   1      -0.691   0.716   0.943  0.00  0.00     0.000 C 
ENDROOT
BRANCH   1  13
ATOM     13  N   UNL d   1       1.114   3.921  -0.752  0.00  0.00    -0.392 N 
ATOM     14  C   UNL d   1       1.902   4.387  -1.669  0.00  0.00     0.120 C 
ATOM     15  HN  UNL d   1       1.211   3.003  -0.318  1.00  0.00     0.159 HD
BRANCH  14  16
ATOM     16  C   UNL d   1       2.956   3.639  -2.299  0.00  0.00     0.089 A 
ATOM     17  O   UNL d   1       3.650   4.287  -3.287  0.00  0.00    -0.321 OA
ATOM     18  C   UNL d   1       4.555   3.411  -3.789  0.00  0.00     0.142 A 
ATOM     19  C   UNL d   1       4.463   2.205  -3.139  0.00  0.00     0.027 A 
ATOM     20  C   UNL d   1       3.434   2.352  -2.172  0.00  0.00     0.040 A 
ENDBRANCH  14  16
ENDBRANCH   1  13
TORSDOF 2
