REMARK  5 active torsions:
REMARK  status: ('A' for Active; 'I' for Inactive)
REMARK    1  A    between atoms: C_8  and  C_2 
REMARK    2  A    between atoms: S_9  and  C_5 
REMARK    3  A    between atoms: C_14  and  S_9 
REMARK    4  A    between atoms: C_10  and  C_14 
REMARK    5  A    between atoms: O_16  and  C_10 
ROOT
ATOM      1  N   UNL d   1      -1.201  -0.080  -0.049  0.00  0.00    -0.320 N 
ATOM      2  C   UNL d   1      -0.411   1.040   0.021  0.00  0.00     0.132 A 
ATOM      3  N   UNL d   1       0.848   0.640   0.118  0.00  0.00    -0.283 N 
ATOM      4  HN  UNL d   1       1.661   1.251   0.198  1.00  0.00     0.188 HD
ATOM      5  C   UNL d   1      -0.361  -1.147   0.003  0.00  0.00     0.161 A 
ATOM      6  N   UNL d   1       0.877  -0.740   0.094  0.00  0.00    -0.278 N 
ATOM      7  HN  UNL d   1       1.708  -1.330   0.139  1.00  0.00     0.189 HD
ATOM      8  H   UNL d   1      -2.212  -0.128  -0.049  0.00  0.00     0.169 HD
ENDROOT
BRANCH   2   9
ATOM      9  C   UNL d   1      -0.902   2.417   0.025  0.00  0.00     0.009 A 
ATOM     10  C   UNL d   1      -0.078   3.440   0.517  0.00  0.00     0.017 A 
ATOM     11  C   UNL d   1      -0.515   4.768   0.537  0.00  0.00     0.025 A 
ATOM     12  C   UNL d   1      -1.782   5.084   0.055  0.00  0.00     0.034 A 
ATOM     13  C   UNL d   1      -2.611   4.085  -0.447  0.00  0.00     0.025 A 
ATOM     14 CL   UNL d   1      -2.322   6.716   0.073  0.00  0.00    -0.084 Cl
ATOM     15  C   UNL d   1      -2.175   2.754  -0.460  0.00  0.00     0.017 A 
ENDBRANCH   2   9
BRANCH   5  16
ATOM     16  S   UNL d   1      -0.940  -2.766  -0.085  0.00  0.00    -0.082 SA
BRANCH  16  17
ATOM     17  C   UNL d   1      -1.675  -2.976   1.560  0.00  0.00     0.192 C 
BRANCH  17  18
ATOM     18  C   UNL d   1      -2.955  -2.180   1.740  0.00  0.00     0.149 C 
ATOM     19  O   UNL d   1      -3.378  -1.315   0.983  0.00  0.00    -0.649 OA
BRANCH  18  20
ATOM     20  O   UNL d   1      -3.605  -2.484   2.889  0.00  0.00    -0.776 OA
ATOM     21  H   UNL d   1      -3.182  -3.172   3.439  0.00  0.00     0.167 HD
ENDBRANCH  18  20
ENDBRANCH  17  18
ENDBRANCH  16  17
ENDBRANCH   5  16
TORSDOF 5
