REMARK  6 active torsions:
REMARK  status: ('A' for Active; 'I' for Inactive)
REMARK    1  A    between atoms: N_4  and  C_1 
REMARK       I    between atoms: C_5  and  N_4 
REMARK       I    between atoms: N_11  and  C_5 
REMARK    2  A    between atoms: C_8  and  C_6 
REMARK    3  A    between atoms: C_10  and  C_8 
REMARK    4  A    between atoms: O_16  and  C_10 
REMARK    5  A    between atoms: C_14  and  N_11 
REMARK    6  A    between atoms: C_22  and  O_16 
ROOT
ATOM      1  N   UNL d   1       0.234  -1.852  -0.220  0.00  0.00    -0.288 N 
ATOM      2  C   UNL d   1      -0.565  -2.926   0.028  0.00  0.00     0.326 C 
ATOM      3  N   UNL d   1      -1.694  -2.731   0.770  0.00  0.00    -0.309 N 
ATOM      4  O   UNL d   1      -0.165  -4.021  -0.365  0.00  0.00    -0.247 OA
ATOM      5  H   UNL d   1       1.139  -2.117  -0.585  0.00  0.00     0.172 HD
ATOM      6  H   UNL d   1      -2.055  -1.788   0.789  0.00  0.00     0.170 HD
ENDROOT
BRANCH   1   7
ATOM      7  C   UNL d   1       0.152  -0.531   0.123  0.00  0.00     0.152 A 
ATOM      8  N   UNL d   1       1.210   0.244   0.097  0.00  0.00    -0.339 N 
ATOM      9  C   UNL d   1       0.883   1.540   0.491  0.00  0.00     0.027 A 
ATOM     10  HN  UNL d   1       2.145  -0.060  -0.176  1.00  0.00     0.168 HD
ATOM     11  C   UNL d   1      -0.471   1.725   0.705  0.00  0.00     0.078 A 
ATOM     12  S   UNL d   1      -1.311   0.240   0.519  0.00  0.00    -0.064 SA
BRANCH   9  13
ATOM     13  C   UNL d   1       2.009   2.526   0.568  0.00  0.00     0.168 C 
BRANCH  13  14
ATOM     14  C   UNL d   1       1.788   3.744   1.439  0.00  0.00     0.264 C 
ATOM     15  O   UNL d   1       0.743   4.080   1.979  0.00  0.00    -0.265 OA
BRANCH  14  16
ATOM     16  O   UNL d   1       2.960   4.443   1.520  0.00  0.00    -0.322 OA
BRANCH  16  17
ATOM     17  C   UNL d   1       2.955   5.613   2.355  0.00  0.00     0.174 C 
ATOM     18  C   UNL d   1       2.657   6.847   1.524  0.00  0.00     0.034 C 
ENDBRANCH  16  17
ENDBRANCH  14  16
ENDBRANCH  13  14
ENDBRANCH   9  13
ENDBRANCH   1   7
BRANCH   3  19
ATOM     19  C   UNL d   1      -2.374  -3.679   1.562  0.00  0.00     0.036 A 
ATOM     20  C   UNL d   1      -1.936  -4.995   1.739  0.00  0.00     0.031 A 
ATOM     21  C   UNL d   1      -2.571  -5.837   2.658  0.00  0.00     0.026 A 
ATOM     22  C   UNL d   1      -3.651  -5.367   3.399  0.00  0.00     0.034 A 
ATOM     23  C   UNL d   1      -4.122  -4.072   3.205  0.00  0.00     0.026 A 
ATOM     24 CL   UNL d   1      -4.389  -6.381   4.576  0.00  0.00    -0.084 Cl
ATOM     25  C   UNL d   1      -3.487  -3.232   2.284  0.00  0.00     0.031 A 
ENDBRANCH   3  19
TORSDOF 6
