REMARK  3 active torsions:
REMARK  status: ('A' for Active; 'I' for Inactive)
REMARK    1  A    between atoms: C_3  and  S_1 
REMARK    2  A    between atoms: C_5  and  S_1 
REMARK    3  A    between atoms: C_4  and  C_2 
ROOT
ATOM      1  C   UNL d   1       0.030   0.332  -2.416  0.00  0.00     0.069 A 
ATOM      2  C   UNL d   1       0.627  -0.580  -1.521  0.00  0.00     0.079 A 
ATOM      3  C   UNL d   1      -0.395  -0.158  -3.671  0.00  0.00     0.018 A 
ATOM      4  C   UNL d   1       0.789  -1.928  -1.880  0.00  0.00     0.024 A 
ATOM      5  C   UNL d   1      -0.229  -1.496  -4.025  0.00  0.00     0.001 A 
ATOM      6  C   UNL d   1       0.364  -2.379  -3.130  0.00  0.00     0.002 A 
ENDROOT
BRANCH   2   7
ATOM      7  S   UNL d   1       1.189  -0.034   0.079  0.00  0.00     0.207 S 
ATOM      8  O   UNL d   1      -0.002   0.395   0.789  0.00  0.00    -0.217 OA
ATOM      9  O   UNL d   1       2.300   0.863  -0.175  0.00  0.00    -0.217 OA
BRANCH   7  10
ATOM     10  C   UNL d   1       1.858  -1.398   1.017  0.00  0.00     0.064 A 
ATOM     11  C   UNL d   1       3.197  -1.768   0.843  0.00  0.00     0.025 A 
ATOM     12  C   UNL d   1       3.736  -2.791   1.628  0.00  0.00     0.025 A 
ATOM     13  C   UNL d   1       2.944  -3.422   2.589  0.00  0.00     0.034 A 
ATOM     14  C   UNL d   1       1.613  -3.044   2.771  0.00  0.00     0.025 A 
ATOM     15 CL   UNL d   1       3.617  -4.665   3.569  0.00  0.00    -0.084 Cl
ATOM     16  C   UNL d   1       1.066  -2.026   1.986  0.00  0.00     0.025 A 
ENDBRANCH   7  10
ENDBRANCH   2   7
BRANCH   1  17
ATOM     17  C   UNL d   1      -0.193   1.809  -2.163  0.00  0.00     0.418 C 
ATOM     18  F   UNL d   1       0.180   2.297  -0.960  0.00  0.00    -0.166 F 
ATOM     19  F   UNL d   1       0.465   2.571  -3.085  0.00  0.00    -0.166 F 
ATOM     20  F   UNL d   1      -1.510   2.142  -2.301  0.00  0.00    -0.166 F 
ENDBRANCH   1  17
TORSDOF 3
