REMARK  6 active torsions:
REMARK  status: ('A' for Active; 'I' for Inactive)
REMARK    1  A    between atoms: C_4  and  C_1 
REMARK    2  A    between atoms: C_14  and  N_2 
REMARK    3  A    between atoms: C_13  and  C_3 
REMARK    4  A    between atoms: C_15  and  N_9 
REMARK    5  A    between atoms: C_16  and  C_11 
REMARK    6  A    between atoms: C_17  and  C_12 
ROOT
ATOM      1  N   UNL d   1       0.129  -3.477   1.054  0.00  0.00    -0.281 N 
ATOM      2  C   UNL d   1      -0.575  -2.636   0.061  0.00  0.00     0.175 C 
ATOM      3  N   UNL d   1       0.028  -4.813   0.786  0.00  0.00    -0.300 N 
ATOM      4  HN  UNL d   1       0.283  -5.573   1.417  1.00  0.00     0.187 HD
ATOM      5  C   UNL d   1      -0.450  -4.943  -0.414  0.00  0.00     0.047 C 
ATOM      6  C   UNL d   1      -0.701  -3.628  -1.145  0.00  0.00     0.102 C 
ENDROOT
BRANCH   2   7
ATOM      7  C   UNL d   1      -0.022  -1.240  -0.262  0.00  0.00     0.068 C 
ATOM      8  C   UNL d   1      -0.719  -0.026  -0.553  0.00  0.00     0.060 C 
ATOM      9  C   UNL d   1       0.275   0.945  -0.639  0.00  0.00     0.046 C 
ATOM     10  C   UNL d   1       0.181   2.361  -1.094  0.00  0.00     0.071 C 
ATOM     11  N   UNL d   1       1.467   0.321  -0.300  0.00  0.00    -0.260 N 
ATOM     12  N   UNL d   1       1.302  -1.018  -0.213  0.00  0.00    -0.295 N 
ATOM     13  HN  UNL d   1       2.037  -1.720  -0.127  1.00  0.00     0.187 HD
BRANCH   8  14
ATOM     14  C   UNL d   1      -2.138   0.264  -0.740  0.00  0.00     0.159 C 
ATOM     15  O   UNL d   1      -2.618   1.337  -0.366  0.00  0.00    -0.293 OA
ATOM     16  C   UNL d   1      -3.025  -0.711  -1.461  0.00  0.00     0.097 C 
ENDBRANCH   8  14
BRANCH  11  17
ATOM     17  C   UNL d   1       2.756   0.895  -0.085  0.00  0.00     0.056 A 
ATOM     18  C   UNL d   1       3.901   0.133  -0.354  0.00  0.00     0.031 A 
ATOM     19  C   UNL d   1       5.171   0.693  -0.204  0.00  0.00     0.002 A 
ATOM     20  C   UNL d   1       5.312   2.001   0.256  0.00  0.00     0.000 A 
ATOM     21  C   UNL d   1       4.181   2.749   0.576  0.00  0.00     0.002 A 
ATOM     22  C   UNL d   1       2.907   2.200   0.406  0.00  0.00     0.031 A 
ENDBRANCH  11  17
ENDBRANCH   2   7
BRANCH   1  23
ATOM     23  C   UNL d   1       0.503  -3.102   2.340  0.00  0.00     0.051 A 
ATOM     24  C   UNL d   1      -0.059  -2.020   3.028  0.00  0.00     0.031 A 
ATOM     25  C   UNL d   1       0.380  -1.671   4.312  0.00  0.00     0.002 A 
ATOM     26  C   UNL d   1       1.403  -2.390   4.926  0.00  0.00     0.000 A 
ATOM     27  C   UNL d   1       1.970  -3.474   4.269  0.00  0.00     0.002 A 
ATOM     28  C   UNL d   1       1.512  -3.830   2.999  0.00  0.00     0.031 A 
ENDBRANCH   1  23
BRANCH   6  29
ATOM     29  C   UNL d   1       0.239  -3.453  -2.323  0.00  0.00    -0.046 A 
ATOM     30  C   UNL d   1      -0.276  -3.325  -3.624  0.00  0.00     0.008 A 
ATOM     31  C   UNL d   1       0.580  -3.246  -4.724  0.00  0.00     0.001 A 
ATOM     32  C   UNL d   1       1.960  -3.258  -4.536  0.00  0.00     0.000 A 
ATOM     33  C   UNL d   1       2.485  -3.357  -3.251  0.00  0.00     0.001 A 
ATOM     34  C   UNL d   1       1.632  -3.468  -2.154  0.00  0.00     0.008 A 
ENDBRANCH   6  29
BRANCH   5  35
ATOM     35  C   UNL d   1      -0.702  -6.292  -1.008  0.00  0.00    -0.011 A 
ATOM     36  C   UNL d   1      -1.199  -6.477  -2.299  0.00  0.00     0.013 A 
ATOM     37  C   UNL d   1      -1.363  -7.767  -2.823  0.00  0.00     0.001 A 
ATOM     38  C   UNL d   1      -1.057  -8.882  -2.044  0.00  0.00     0.000 A 
ATOM     39  C   UNL d   1      -0.591  -8.712  -0.747  0.00  0.00     0.001 A 
ATOM     40  C   UNL d   1      -0.411  -7.422  -0.231  0.00  0.00     0.013 A 
ENDBRANCH   5  35
TORSDOF 6
