REMARK  2 active torsions:
REMARK  status: ('A' for Active; 'I' for Inactive)
REMARK       I    between atoms: N_3  and  C_1 
REMARK    1  A    between atoms: C_8  and  C_1 
REMARK    2  A    between atoms: C_2  and  C_7 
REMARK       I    between atoms: N_4  and  C_2 
ROOT
ATOM      1  C   UNL d   1       4.186   3.460   2.043  0.00  0.00     0.032 C 
ATOM      2  C   UNL d   1       2.969   1.210   0.903  0.00  0.00     0.032 C 
ATOM      3  C   UNL d   1       4.472   3.105   0.720  0.00  0.00     0.018 C 
ATOM      4  C   UNL d   1       3.896   1.961   0.167  0.00  0.00     0.018 C 
ATOM      5  C   UNL d   1       3.203   2.760   2.750  0.00  0.00     0.018 C 
ATOM      6  C   UNL d   1       2.563   1.669   2.161  0.00  0.00     0.018 C 
ENDROOT
BRANCH   1   7
ATOM      7  C   UNL d   1       4.842   4.617   2.704  0.00  0.00     0.253 C 
ATOM      8  N   UNL d   1       6.190   4.885   2.454  0.00  0.00    -0.345 N 
ATOM      9  C   UNL d   1       6.743   6.070   3.116  0.00  0.00     0.156 C 
ATOM     10  C   UNL d   1       7.180   3.837   2.162  0.00  0.00     0.156 C 
ATOM     11  C   UNL d   1       8.047   6.569   2.463  0.00  0.00     0.291 C 
ATOM     12  N   UNL d   1       9.064   5.526   2.207  0.00  0.00     0.087 N 
ATOM     13  C   UNL d   1       8.433   4.410   1.476  0.00  0.00     0.291 C 
ATOM     14  C   UNL d   1       9.689   5.066   3.447  0.00  0.00     0.310 C 
ATOM     15  O   UNL d   1       4.154   5.307   3.456  0.00  0.00    -0.267 OA
ENDBRANCH   1   7
BRANCH   2  16
ATOM     16  C   UNL d   1       2.398  -0.012   0.282  0.00  0.00     0.253 C 
ATOM     17  N   UNL d   1       2.041  -1.114   1.067  0.00  0.00    -0.345 N 
ATOM     18  C   UNL d   1       1.520  -2.272   0.330  0.00  0.00     0.156 C 
ATOM     19  C   UNL d   1       2.696  -1.454   2.341  0.00  0.00     0.156 C 
ATOM     20  C   UNL d   1       0.772  -3.284   1.221  0.00  0.00     0.291 C 
ATOM     21  N   UNL d   1       1.464  -3.655   2.474  0.00  0.00     0.087 N 
ATOM     22  C   UNL d   1       1.845  -2.420   3.185  0.00  0.00     0.291 C 
ATOM     23  C   UNL d   1       2.628  -4.503   2.219  0.00  0.00     0.310 C 
ATOM     24  O   UNL d   1       2.265  -0.008  -0.947  0.00  0.00    -0.267 OA
ENDBRANCH   2  16
TORSDOF 2
