REMARK  8 active torsions:
REMARK  status: ('A' for Active; 'I' for Inactive)
REMARK    1  A    between atoms: C_14  and  N_2 
REMARK    2  A    between atoms: C_23  and  C_8 
REMARK    3  A    between atoms: C_22  and  C_9 
REMARK    4  A    between atoms: C_24  and  N_10 
REMARK    5  A    between atoms: C_11  and  C_20 
REMARK    6  A    between atoms: C_26  and  C_12 
REMARK    7  A    between atoms: C_16  and  C_14 
REMARK       I    between atoms: N_25  and  C_16 
REMARK    8  A    between atoms: N_18  and  N_25 
ROOT
ATOM      1  C   UNL d   1      -1.538  -2.459   3.693  0.00  0.00     0.127 C 
ATOM      2  N   UNL d   1      -1.431  -2.435   1.289  0.00  0.00    -0.247 N 
ATOM      3  N   UNL d   1      -0.267  -3.186   1.292  0.00  0.00    -0.294 N 
ATOM      4  HN  UNL d   1       0.201  -3.443   0.423  1.00  0.00     0.187 HD
ATOM      5  C   UNL d   1      -1.801  -1.742   2.433  0.00  0.00     0.284 C 
ATOM      6  C   UNL d   1      -0.518  -3.334   3.763  0.00  0.00     0.029 C 
ATOM      7  C   UNL d   1       0.206  -3.551   2.451  0.00  0.00     0.071 C 
ATOM      8  C   UNL d   1      -2.422  -2.163   4.769  0.00  0.00     0.106 C 
ATOM      9  N   UNL d   1      -3.123  -1.943   5.663  0.00  0.00    -0.191 NA
ATOM     10  O   UNL d   1      -2.366  -0.652   2.421  0.00  0.00    -0.265 OA
ENDROOT
BRANCH   6  11
ATOM     11  C   UNL d   1      -0.174  -4.049   5.022  0.00  0.00    -0.022 A 
ATOM     12  C   UNL d   1       0.029  -5.438   5.044  0.00  0.00     0.012 A 
ATOM     13  C   UNL d   1       0.438  -6.079   6.217  0.00  0.00     0.001 A 
ATOM     14  C   UNL d   1       0.609  -5.352   7.393  0.00  0.00     0.000 A 
ATOM     15  C   UNL d   1       0.387  -3.980   7.396  0.00  0.00     0.001 A 
ATOM     16  C   UNL d   1       0.020  -3.332   6.216  0.00  0.00     0.012 A 
ENDBRANCH   6  11
BRANCH   2  17
ATOM     17  C   UNL d   1      -1.891  -1.898   0.009  0.00  0.00     0.257 C 
BRANCH  17  18
ATOM     18  C   UNL d   1      -3.433  -1.822   0.026  0.00  0.00     0.256 C 
ATOM     19  N   UNL d   1      -3.917  -0.506  -0.021  0.00  0.00    -0.269 N 
ATOM     20  H   UNL d   1      -3.236   0.227   0.166  0.00  0.00     0.190 HD
ATOM     21  O   UNL d   1      -4.117  -2.835   0.159  0.00  0.00    -0.270 OA
BRANCH  19  22
ATOM     22  N   UNL d   1      -5.187  -0.094   0.350  0.00  0.00    -0.308 N 
ATOM     23  C   UNL d   1      -6.176  -0.923   0.277  0.00  0.00     0.122 C 
ATOM     24  HN  UNL d   1      -5.341   0.859   0.680  1.00  0.00     0.186 HD
BRANCH  23  25
ATOM     25  C   UNL d   1      -7.471  -0.546   0.807  0.00  0.00     0.027 C 
ATOM     26  C   UNL d   1      -8.632  -1.362   0.943  0.00  0.00     0.072 C 
ATOM     27  N   UNL d   1      -9.604  -0.719   1.605  0.00  0.00    -0.292 N 
ATOM     28  N   UNL d   1      -9.045   0.450   2.008  0.00  0.00    -0.266 N 
ATOM     29  HN  UNL d   1     -10.558  -1.040   1.771  1.00  0.00     0.187 HD
ATOM     30  C   UNL d   1      -7.823   0.649   1.405  0.00  0.00     0.132 C 
BRANCH  26  31
ATOM     31  C   UNL d   1      -8.769  -2.768   0.566  0.00  0.00    -0.007 A 
ATOM     32  C   UNL d   1      -8.323  -3.230  -0.679  0.00  0.00     0.014 A 
ATOM     33  C   UNL d   1      -8.255  -4.599  -0.940  0.00  0.00     0.001 A 
ATOM     34  C   UNL d   1      -8.672  -5.514   0.025  0.00  0.00     0.000 A 
ATOM     35  C   UNL d   1      -9.184  -5.061   1.240  0.00  0.00     0.001 A 
ATOM     36  C   UNL d   1      -9.236  -3.693   1.510  0.00  0.00     0.014 A 
ENDBRANCH  26  31
BRANCH  28  37
ATOM     37  C   UNL d   1      -9.660   1.239   3.026  0.00  0.00     0.056 A 
ATOM     38  C   UNL d   1      -9.033   2.386   3.534  0.00  0.00     0.031 A 
ATOM     39  C   UNL d   1      -9.588   3.064   4.624  0.00  0.00     0.002 A 
ATOM     40  C   UNL d   1     -10.771   2.612   5.206  0.00  0.00     0.000 A 
ATOM     41  C   UNL d   1     -11.416   1.492   4.688  0.00  0.00     0.002 A 
ATOM     42  C   UNL d   1     -10.868   0.809   3.599  0.00  0.00     0.031 A 
ENDBRANCH  28  37
ENDBRANCH  23  25
ENDBRANCH  19  22
ENDBRANCH  17  18
ENDBRANCH   2  17
BRANCH   7  43
ATOM     43  C   UNL d   1       1.531  -4.251   2.491  0.00  0.00    -0.007 A 
ATOM     44  C   UNL d   1       2.489  -3.934   3.466  0.00  0.00     0.014 A 
ATOM     45  C   UNL d   1       3.656  -4.692   3.579  0.00  0.00     0.001 A 
ATOM     46  C   UNL d   1       3.898  -5.734   2.688  0.00  0.00     0.000 A 
ATOM     47  C   UNL d   1       2.984  -6.006   1.669  0.00  0.00     0.001 A 
ATOM     48  C   UNL d   1       1.803  -5.265   1.566  0.00  0.00     0.014 A 
ENDBRANCH   7  43
TORSDOF 8
