REMARK  1 active torsions:
REMARK  status: ('A' for Active; 'I' for Inactive)
REMARK    1  A    between atoms: C_13  and  C_12 
ROOT
ATOM      1  N   UNL d   1      -0.808   1.032  -0.034  0.00  0.00    -0.196 N 
ATOM      2  C   UNL d   1       0.058  -0.033  -0.057  0.00  0.00     0.177 A 
ATOM      3  N   UNL d   1       1.344   0.022  -0.042  0.00  0.00    -0.300 N 
ATOM      4  HN  UNL d   1       1.934  -0.809  -0.070  1.00  0.00     0.171 HD
ATOM      5  N   UNL d   1      -0.378   2.341  -0.004  0.00  0.00    -0.288 N 
ATOM      6  HN  UNL d   1      -1.028   3.128   0.001  1.00  0.00     0.187 HD
ATOM      7  C   UNL d   1      -2.166   0.746  -0.051  0.00  0.00     0.285 A 
ATOM      8  C   UNL d   1      -2.347  -0.738  -0.063  0.00  0.00     0.079 A 
ATOM      9  S   UNL d   1      -0.818  -1.538  -0.114  0.00  0.00    -0.046 SA
ATOM     10  C   UNL d   1       1.854   1.301   0.014  0.00  0.00     0.271 A 
ATOM     11  C   UNL d   1       0.913   2.506   0.018  0.00  0.00     0.090 A 
ATOM     12  C   UNL d   1      -3.564  -1.298  -0.016  0.00  0.00     0.038 C 
ATOM     13  O   UNL d   1      -3.101   1.537  -0.059  0.00  0.00    -0.265 OA
ATOM     14  O   UNL d   1       3.055   1.527   0.065  0.00  0.00    -0.266 OA
ATOM     15  C   UNL d   1       1.497   3.888   0.050  0.00  0.00     0.076 C 
ENDROOT
BRANCH  12  16
ATOM     16  C   UNL d   1      -3.828  -2.744   0.019  0.00  0.00    -0.013 A 
ATOM     17  C   UNL d   1      -3.915  -3.468   1.221  0.00  0.00     0.045 A 
ATOM     18  C   UNL d   1      -4.109  -4.852   1.206  0.00  0.00     0.048 A 
ATOM     19 CL   UNL d   1      -3.800  -2.686   2.760  0.00  0.00    -0.083 Cl
ATOM     20  C   UNL d   1      -4.236  -5.514  -0.012  0.00  0.00     0.035 A 
ATOM     21  C   UNL d   1      -4.187  -4.807  -1.212  0.00  0.00     0.024 A 
ATOM     22 CL   UNL d   1      -4.454  -7.221  -0.037  0.00  0.00    -0.084 Cl
ATOM     23  C   UNL d   1      -3.981  -3.425  -1.197  0.00  0.00     0.015 A 
ENDBRANCH  12  16
TORSDOF 1
