REMARK  4 active torsions:
REMARK  status: ('A' for Active; 'I' for Inactive)
REMARK    1  A    between atoms: C_12  and  C_3 
REMARK    2  A    between atoms: C_16  and  N_4 
REMARK    3  A    between atoms: C_18  and  C_10 
REMARK    4  A    between atoms: C_14  and  C_12 
ROOT
ATOM      1  C   UNL d   1      -1.211  -0.033  -0.193  0.00  0.00     0.118 C 
ATOM      2  C   UNL d   1      -2.501   0.083  -0.575  0.00  0.00     0.106 C 
ATOM      3  C   UNL d   1       0.742   0.453   1.101  0.00  0.00     0.142 C 
ATOM      4  N   UNL d   1      -0.546  -1.146   0.365  0.00  0.00    -0.247 N 
ATOM      5  S   UNL d   1      -0.107   1.354  -0.114  0.00  0.00    -0.046 SA
ATOM      6  N   UNL d   1       0.497  -0.810   1.245  0.00  0.00    -0.282 N 
ATOM      7  HN  UNL d   1       0.975  -1.447   1.882  1.00  0.00     0.188 HD
ATOM      8  N   UNL d   1      -4.454   0.792  -1.550  0.00  0.00    -0.256 N 
ATOM      9  HN  UNL d   1      -5.170   1.379  -1.977  1.00  0.00     0.195 HD
ATOM     10  C   UNL d   1      -3.365   1.210  -0.967  0.00  0.00     0.084 C 
ATOM     11  C   UNL d   1      -3.401  -1.080  -0.735  0.00  0.00     0.320 C 
ATOM     12  O   UNL d   1      -4.464  -0.630  -1.483  0.00  0.00    -0.194 OA
ATOM     13  O   UNL d   1      -3.280  -2.217  -0.324  0.00  0.00    -0.257 OA
ENDROOT
BRANCH   4  14
ATOM     14  C   UNL d   1      -0.408  -2.432  -0.237  0.00  0.00     0.057 A 
ATOM     15  C   UNL d   1      -0.510  -2.634  -1.624  0.00  0.00     0.031 A 
ATOM     16  C   UNL d   1      -0.395  -3.916  -2.173  0.00  0.00     0.002 A 
ATOM     17  C   UNL d   1      -0.170  -5.014  -1.346  0.00  0.00     0.000 A 
ATOM     18  C   UNL d   1      -0.044  -4.832   0.028  0.00  0.00     0.002 A 
ATOM     19  C   UNL d   1      -0.151  -3.551   0.575  0.00  0.00     0.031 A 
ENDBRANCH   4  14
BRANCH  10  20
ATOM     20  C   UNL d   1      -3.191   2.645  -0.669  0.00  0.00    -0.006 A 
ATOM     21  C   UNL d   1      -2.619   3.100   0.523  0.00  0.00     0.014 A 
ATOM     22  C   UNL d   1      -2.462   4.468   0.756  0.00  0.00     0.001 A 
ATOM     23  C   UNL d   1      -2.974   5.393  -0.150  0.00  0.00     0.000 A 
ATOM     24  C   UNL d   1      -3.648   4.950  -1.286  0.00  0.00     0.001 A 
ATOM     25  C   UNL d   1      -3.751   3.582  -1.549  0.00  0.00     0.014 A 
ENDBRANCH  10  20
BRANCH   3  26
ATOM     26  C   UNL d   1       1.609   1.368   1.909  0.00  0.00     0.217 C 
ATOM     27  O   UNL d   1       1.134   2.436   2.290  0.00  0.00    -0.284 OA
BRANCH  26  28
ATOM     28  C   UNL d   1       2.984   0.985   2.325  0.00  0.00     0.018 A 
ATOM     29  C   UNL d   1       3.757   1.944   3.006  0.00  0.00     0.028 A 
ATOM     30  C   UNL d   1       5.047   1.645   3.477  0.00  0.00    -0.025 A 
ATOM     31  C   UNL d   1       5.826   2.596   4.160  0.00  0.00     0.012 A 
ATOM     32  C   UNL d   1       5.571   0.351   3.266  0.00  0.00    -0.026 A 
ATOM     33  C   UNL d   1       7.099   2.272   4.633  0.00  0.00     0.001 A 
ATOM     34  C   UNL d   1       7.610   0.993   4.433  0.00  0.00     0.001 A 
ATOM     35  C   UNL d   1       6.851   0.039   3.753  0.00  0.00     0.012 A 
ATOM     36  C   UNL d   1       4.798  -0.597   2.577  0.00  0.00     0.013 A 
ATOM     37  C   UNL d   1       3.518  -0.284   2.104  0.00  0.00     0.016 A 
ENDBRANCH  26  28
ENDBRANCH   3  26
TORSDOF 4
