REMARK  6 active torsions:
REMARK  status: ('A' for Active; 'I' for Inactive)
REMARK    1  A    between atoms: C_14  and  C_3 
REMARK    2  A    between atoms: C_6  and  C_9 
REMARK    3  A    between atoms: C_17  and  C_7 
REMARK    4  A    between atoms: C_8  and  C_15 
REMARK    5  A    between atoms: C_11  and  C_12 
REMARK       I    between atoms: C_12  and  N_13 
REMARK    6  A    between atoms: N_13  and  C_17 
ROOT
ATOM      1  N   UNL d   1       0.319  -0.217  -0.676  0.00  0.00    -0.321 N 
ATOM      2  HN  UNL d   1       0.300  -0.554  -1.638  1.00  0.00     0.169 HD
ATOM      3  C   UNL d   1      -0.057   1.018  -0.181  0.00  0.00     0.137 A 
ATOM      4  N   UNL d   1       0.087   1.137   1.147  0.00  0.00    -0.242 N 
ATOM      5  HN  UNL d   1      -0.126   1.945   1.732  1.00  0.00     0.196 HD
ATOM      6  C   UNL d   1       0.706  -0.847   0.415  0.00  0.00     0.166 A 
ATOM      7  O   UNL d   1       0.595  -0.100   1.544  0.00  0.00    -0.221 OA
ENDROOT
BRANCH   6   8
ATOM      8  C   UNL d   1       1.227  -2.226   0.579  0.00  0.00     0.209 C 
BRANCH   8   9
ATOM      9  N   UNL d   1       2.617  -2.275   0.172  0.00  0.00    -0.349 N 
ATOM     10  C   UNL d   1       3.641  -2.394   1.084  0.00  0.00     0.252 C 
ATOM     11  O   UNL d   1       3.489  -2.491   2.292  0.00  0.00    -0.268 OA
ATOM     12  H   UNL d   1       2.825  -2.079  -0.798  0.00  0.00     0.163 HD
BRANCH  10  13
ATOM     13  C   UNL d   1       5.001  -2.457   0.496  0.00  0.00     0.047 A 
ATOM     14  C   UNL d   1       6.082  -1.717   1.002  0.00  0.00     0.063 A 
ATOM     15  C   UNL d   1       7.351  -1.910   0.414  0.00  0.00     0.017 A 
ATOM     16  C   UNL d   1       7.535  -2.798  -0.646  0.00  0.00     0.001 A 
ATOM     17  C   UNL d   1       6.456  -3.521  -1.140  0.00  0.00     0.001 A 
ATOM     18  C   UNL d   1       5.195  -3.357  -0.568  0.00  0.00     0.018 A 
BRANCH  14  19
ATOM     19  C   UNL d   1       5.980  -0.731   2.140  0.00  0.00     0.418 C 
ATOM     20  F   UNL d   1       4.739  -0.261   2.415  0.00  0.00    -0.166 F 
ATOM     21  F   UNL d   1       6.490  -1.225   3.301  0.00  0.00    -0.166 F 
ATOM     22  F   UNL d   1       6.719   0.393   1.878  0.00  0.00    -0.166 F 
ENDBRANCH  14  19
ENDBRANCH  10  13
ENDBRANCH   8   9
ENDBRANCH   6   8
BRANCH   3  23
ATOM     23  C   UNL d   1      -0.554   2.093  -1.038  0.00  0.00     0.010 A 
ATOM     24  C   UNL d   1      -0.776   1.877  -2.405  0.00  0.00     0.016 A 
ATOM     25  C   UNL d   1      -1.233   2.915  -3.227  0.00  0.00     0.017 A 
ATOM     26  C   UNL d   1      -1.473   4.192  -2.699  0.00  0.00     0.048 A 
ATOM     27  C   UNL d   1      -1.262   4.405  -1.329  0.00  0.00     0.017 A 
ATOM     28  C   UNL d   1      -0.808   3.368  -0.509  0.00  0.00     0.016 A 
BRANCH  26  29
ATOM     29  C   UNL d   1      -1.942   5.331  -3.572  0.00  0.00     0.417 C 
ATOM     30  F   UNL d   1      -2.092   4.988  -4.882  0.00  0.00    -0.166 F 
ATOM     31  F   UNL d   1      -3.147   5.829  -3.177  0.00  0.00    -0.166 F 
ATOM     32  F   UNL d   1      -1.079   6.385  -3.559  0.00  0.00    -0.166 F 
ENDBRANCH  26  29
ENDBRANCH   3  23
TORSDOF 6
