REMARK  0 active torsions:
REMARK  status: ('A' for Active; 'I' for Inactive)
ROOT
ATOM      1  C   UNL d   1       0.912  -0.687  -0.004  0.00  0.00     0.047 A 
ATOM      2  C   UNL d   1       2.087  -1.533   0.012  0.00  0.00     0.047 A 
ATOM      3  C   UNL d   1       0.781   0.637   0.387  0.00  0.00     0.054 A 
ATOM      4  C   UNL d   1       2.611  -2.323  -1.003  0.00  0.00     0.054 A 
ATOM      5  C   UNL d   1      -0.545   1.137   0.217  0.00  0.00     0.056 A 
ATOM      6  C   UNL d   1       3.793  -3.018  -0.607  0.00  0.00     0.056 A 
ATOM      7  S   UNL d   1       3.035  -1.684   1.445  0.00  0.00    -0.075 SA
ATOM      8  S   UNL d   1      -0.605  -1.310  -0.540  0.00  0.00    -0.075 SA
ATOM      9  C   UNL d   1       4.124  -2.728   0.688  0.00  0.00     0.077 A 
ATOM     10  C   UNL d   1      -1.369   0.174  -0.297  0.00  0.00     0.077 A 
ATOM     11 CL   UNL d   1       2.022   1.665   0.983  0.00  0.00    -0.083 Cl
ATOM     12 CL   UNL d   1       2.007  -2.487  -2.601  0.00  0.00    -0.083 Cl
ATOM     13 CL   UNL d   1      -3.030   0.354  -0.691  0.00  0.00    -0.076 Cl
ATOM     14 CL   UNL d   1       5.487  -3.314   1.552  0.00  0.00    -0.076 Cl
ENDROOT
TORSDOF 0
