REMARK  4 active torsions:
REMARK  status: ('A' for Active; 'I' for Inactive)
REMARK    1  A    between atoms: C_4  and  N_1 
REMARK    2  A    between atoms: C_10  and  C_2 
REMARK    3  A    between atoms: N_5  and  C_3 
REMARK    4  A    between atoms: N_6  and  C_10 
ROOT
ATOM      1  C   UNL d   1       0.300   3.670   0.626  0.00  0.00    -0.011 A 
ATOM      2  C   UNL d   1      -0.814   3.704   1.502  0.00  0.00     0.038 A 
ATOM      3  C   UNL d   1       0.306   1.223   0.693  0.00  0.00     0.103 A 
ATOM      4  C   UNL d   1       0.859   2.427   0.246  0.00  0.00     0.047 A 
ATOM      5  C   UNL d   1      -1.339   2.464   1.933  0.00  0.00     0.032 A 
ATOM      6  C   UNL d   1      -0.795   1.236   1.541  0.00  0.00     0.038 A 
ENDROOT
BRANCH   1   7
ATOM      7  C   UNL d   1       0.928   4.905   0.010  0.00  0.00     0.170 C 
BRANCH   7   8
ATOM      8  N   UNL d   1       0.009   5.766  -0.723  0.00  0.00    -0.347 N 
ATOM      9  C   UNL d   1      -0.988   5.375  -1.571  0.00  0.00     0.182 A 
ATOM     10  N   UNL d   1      -1.588   6.410  -2.119  0.00  0.00    -0.361 N 
ATOM     11  C   UNL d   1      -0.947   7.509  -1.612  0.00  0.00     0.106 A 
ATOM     12  HN  UNL d   1      -2.364   6.396  -2.781  1.00  0.00     0.166 HD
ATOM     13  C   UNL d   1       0.063   7.136  -0.758  0.00  0.00     0.109 A 
ENDBRANCH   7   8
ENDBRANCH   1   7
BRANCH   2  14
ATOM     14  N   UNL d   1      -1.438   4.881   1.854  0.00  0.00    -0.380 N 
ATOM     15  C   UNL d   1      -2.875   4.951   2.107  0.00  0.00     0.123 C 
ATOM     16  C   UNL d   1      -3.109   6.453   2.129  0.00  0.00     0.021 C 
ATOM     17  C   UNL d   1      -1.880   6.987   2.855  0.00  0.00     0.021 C 
ATOM     18  C   UNL d   1      -0.774   5.952   2.599  0.00  0.00     0.123 C 
ENDBRANCH   2  14
BRANCH   3  19
ATOM     19  N   UNL d   1       0.878  -0.054   0.248  0.00  0.00    -0.116 N 
ATOM     20  O   UNL d   1       1.855  -0.014  -0.511  0.00  0.00    -0.532 OA
ATOM     21  O   UNL d   1       0.351  -1.098   0.661  0.00  0.00    -0.532 OA
ENDBRANCH   3  19
TORSDOF 4
