REMARK  1 active torsions:
REMARK  status: ('A' for Active; 'I' for Inactive)
REMARK    1  A    between atoms: N_9  and  C_2 
ROOT
ATOM      1  C   UNL d   1       0.008  -0.697  -0.047  0.00  0.00     0.067 A 
ATOM      2  C   UNL d   1       1.241  -1.379  -0.051  0.00  0.00     0.056 A 
ATOM      3  C   UNL d   1      -0.005   0.716   0.011  0.00  0.00     0.014 A 
ATOM      4  C   UNL d   1       2.445  -0.653  -0.059  0.00  0.00     0.059 A 
ATOM      5  C   UNL d   1       1.227   1.412   0.056  0.00  0.00     0.048 A 
ATOM      6  C   UNL d   1       2.443   0.733   0.017  0.00  0.00     0.050 A 
ATOM      7  N   UNL d   1      -1.134  -1.422  -0.087  0.00  0.00    -0.364 N 
ATOM      8  HN  UNL d   1      -1.102  -2.441  -0.103  1.00  0.00     0.165 HD
ATOM      9 CL   UNL d   1       3.971  -1.464  -0.144  0.00  0.00    -0.082 Cl
ATOM     10 CL   UNL d   1       1.302   3.142   0.141  0.00  0.00    -0.083 Cl
ATOM     11  C   UNL d   1      -1.270   1.347   0.004  0.00  0.00     0.017 A 
ATOM     12  C   UNL d   1      -2.318  -0.773  -0.105  0.00  0.00     0.088 A 
ATOM     13  C   UNL d   1      -2.437   0.597  -0.065  0.00  0.00     0.018 A 
ENDROOT
BRANCH   2  14
ATOM     14  N   UNL d   1       1.248  -2.788  -0.268  0.00  0.00    -0.299 NA
ATOM     15  H   UNL d   1       0.357  -3.194   0.024  0.00  0.00     0.124 HD
ATOM     16  H   UNL d   1       2.069  -3.252   0.107  0.00  0.00     0.124 HD
ENDBRANCH   2  14
TORSDOF 1
