REMARK  5 active torsions:
REMARK  status: ('A' for Active; 'I' for Inactive)
REMARK    1  A    between atoms: S_4  and  C_1 
REMARK       I    between atoms: C_2  and  N_3 
REMARK    2  A    between atoms: C_9  and  C_2 
REMARK    3  A    between atoms: N_3  and  C_5 
REMARK    4  A    between atoms: C_10  and  S_4 
REMARK    5  A    between atoms: C_14  and  C_9 
ROOT
ATOM      1  C   UNL d   1      -0.629   1.281   0.107  0.00  0.00     0.101 A 
ATOM      2  C   UNL d   1       0.776   1.218   0.189  0.00  0.00     0.069 A 
ATOM      3  N   UNL d   1      -1.397   0.166  -0.030  0.00  0.00    -0.358 N 
ATOM      4  HN  UNL d   1      -2.414   0.231  -0.085  1.00  0.00     0.166 HD
ATOM      5  C   UNL d   1       1.384  -0.034   0.055  0.00  0.00     0.034 A 
ATOM      6  C   UNL d   1      -0.772  -1.027  -0.092  0.00  0.00     0.089 A 
ATOM      7  C   UNL d   1       0.602  -1.177  -0.066  0.00  0.00     0.019 A 
ENDROOT
BRANCH   2   8
ATOM      8  N   UNL d   1       1.646   2.321   0.389  0.00  0.00    -0.325 N 
ATOM      9  C   UNL d   1       1.517   3.166   1.486  0.00  0.00     0.226 C 
ATOM     10  O   UNL d   1       0.693   3.033   2.386  0.00  0.00    -0.273 OA
ATOM     11  H   UNL d   1       2.609   2.187   0.101  0.00  0.00     0.169 HD
BRANCH   9  12
ATOM     12  C   UNL d   1       2.564   4.265   1.515  0.00  0.00     0.141 C 
BRANCH  12  13
ATOM     13  C   UNL d   1       3.834   3.892   2.247  0.00  0.00    -0.050 A 
ATOM     14  C   UNL d   1       5.077   3.966   1.602  0.00  0.00     0.007 A 
ATOM     15  C   UNL d   1       6.258   3.691   2.296  0.00  0.00     0.001 A 
ATOM     16  C   UNL d   1       6.210   3.343   3.644  0.00  0.00     0.000 A 
ATOM     17  C   UNL d   1       4.982   3.262   4.296  0.00  0.00     0.001 A 
ATOM     18  C   UNL d   1       3.801   3.536   3.604  0.00  0.00     0.007 A 
ENDBRANCH  12  13
ENDBRANCH   9  12
ENDBRANCH   2   8
BRANCH   1  19
ATOM     19  S   UNL d   1      -1.548   2.814   0.109  0.00  0.00    -0.070 SA
BRANCH  19  20
ATOM     20  C   UNL d   1      -1.909   3.112  -1.614  0.00  0.00     0.007 A 
ATOM     21  C   UNL d   1      -2.537   2.175  -2.437  0.00  0.00     0.019 A 
ATOM     22  C   UNL d   1      -2.918   2.514  -3.743  0.00  0.00     0.008 A 
ATOM     23  C   UNL d   1      -2.693   3.804  -4.242  0.00  0.00    -0.062 A 
ATOM     24  C   UNL d   1      -2.046   4.736  -3.426  0.00  0.00     0.008 A 
ATOM     25  C   UNL d   1      -3.156   4.175  -5.619  0.00  0.00     0.048 C 
ATOM     26  C   UNL d   1      -1.665   4.394  -2.124  0.00  0.00     0.019 A 
ENDBRANCH  19  20
ENDBRANCH   1  19
TORSDOF 5
