REMARK  2 active torsions:
REMARK  status: ('A' for Active; 'I' for Inactive)
REMARK    1  A    between atoms: C_8  and  C_2 
REMARK    2  A    between atoms: C_6  and  C_9 
REMARK       I    between atoms: N_15  and  C_6 
ROOT
ATOM      1  C   UNL d   1       2.442  -1.665   0.009  0.00  0.00    -0.008 A 
ATOM      2  C   UNL d   1       4.723  -3.332  -0.125  0.00  0.00     0.031 A 
ATOM      3  C   UNL d   1       2.593  -2.596  -1.029  0.00  0.00     0.015 A 
ATOM      4  C   UNL d   1       3.441  -1.583   0.986  0.00  0.00     0.015 A 
ATOM      5  C   UNL d   1       4.570  -2.408   0.918  0.00  0.00     0.018 A 
ATOM      6  C   UNL d   1       3.725  -3.421  -1.100  0.00  0.00     0.018 A 
ENDROOT
BRANCH   1   7
ATOM      7  C   UNL d   1       1.254  -0.821   0.056  0.00  0.00     0.063 A 
ATOM      8  N   UNL d   1       0.048  -1.244  -0.494  0.00  0.00    -0.292 N 
ATOM      9  N   UNL d   1      -0.907  -0.340  -0.347  0.00  0.00    -0.061 NA
ATOM     10  HN  UNL d   1      -0.085  -2.144  -0.955  1.00  0.00     0.183 HD
ATOM     11  S   UNL d   1      -0.381   1.042   0.432  0.00  0.00    -0.010 SA
ATOM     12  C   UNL d   1       1.219   0.448   0.611  0.00  0.00     0.096 A 
ENDBRANCH   1   7
BRANCH   2  13
ATOM     13  C   UNL d   1       5.957  -4.171  -0.125  0.00  0.00     0.249 C 
ATOM     14  O   UNL d   1       6.815  -4.044   0.740  0.00  0.00    -0.268 OA
ATOM     15  N   UNL d   1       6.123  -5.099  -1.115  0.00  0.00    -0.366 N 
ATOM     16  H   UNL d   1       5.465  -5.295  -1.852  0.00  0.00     0.159 HD
ATOM     17  H   UNL d   1       6.966  -5.657  -1.074  0.00  0.00     0.159 HD
ENDBRANCH   2  13
TORSDOF 2
