REMARK  4 active torsions:
REMARK  status: ('A' for Active; 'I' for Inactive)
REMARK    1  A    between atoms: C_4  and  N_1 
REMARK    2  A    between atoms: C_2  and  C_8 
REMARK    3  A    between atoms: O_5  and  C_2 
REMARK    4  A    between atoms: C_15  and  O_5 
ROOT
ATOM      1  N   UNL d   1      -7.218   6.983   7.249  0.00  0.00    -0.191 NA
ATOM      2  C   UNL d   1      -6.561   6.488   6.431  0.00  0.00     0.099 C 
ATOM      3  C   UNL d   1      -4.114   4.586   3.552  0.00  0.00     0.079 A 
ATOM      4  C   UNL d   1      -5.744   5.862   5.430  0.00  0.00     0.044 A 
ATOM      5  C   UNL d   1      -5.390   4.085   3.819  0.00  0.00     0.039 A 
ATOM      6  C   UNL d   1      -6.206   4.725   4.756  0.00  0.00     0.025 A 
ATOM      7  C   UNL d   1      -4.469   6.365   5.144  0.00  0.00     0.025 A 
ATOM      8  C   UNL d   1      -3.648   5.725   4.207  0.00  0.00     0.039 A 
ENDROOT
BRANCH   3   9
ATOM      9  O   UNL d   1      -3.306   3.792   2.706  0.00  0.00    -0.275 OA
BRANCH   9  10
ATOM     10  C   UNL d   1      -2.288   4.319   1.926  0.00  0.00     0.298 C 
ATOM     11  O   UNL d   1      -2.064   5.499   1.710  0.00  0.00    -0.259 OA
BRANCH  10  12
ATOM     12  C   UNL d   1      -1.444   3.212   1.381  0.00  0.00     0.040 A 
ATOM     13  C   UNL d   1      -1.676   1.860   1.684  0.00  0.00     0.020 A 
ATOM     14  C   UNL d   1      -0.816   0.866   1.200  0.00  0.00     0.037 A 
ATOM     15  C   UNL d   1       0.283   1.222   0.406  0.00  0.00     0.102 A 
ATOM     16  C   UNL d   1       0.513   2.564   0.079  0.00  0.00     0.037 A 
ATOM     17  C   UNL d   1      -0.350   3.553   0.567  0.00  0.00     0.020 A 
BRANCH  15  18
ATOM     18  N   UNL d   1       1.207   0.184  -0.071  0.00  0.00    -0.116 N 
ATOM     19  O   UNL d   1       2.139   0.536  -0.806  0.00  0.00    -0.532 OA
ATOM     20  O   UNL d   1       1.002  -0.981   0.297  0.00  0.00    -0.532 OA
ENDBRANCH  15  18
ENDBRANCH  10  12
ENDBRANCH   9  10
ENDBRANCH   3   9
TORSDOF 4
