REMARK  11 active torsions:
REMARK  status: ('A' for Active; 'I' for Inactive)
REMARK    1  A    between atoms: C1*_5  and  N_1 
REMARK    2  A    between atoms: N_18  and  C_4 
REMARK    3  A    between atoms: C2*_12  and  O2*_21 
REMARK    4  A    between atoms: N_20  and  C_13 
REMARK    5  A    between atoms: C3*_15  and  O3*_23 
REMARK    6  A    between atoms: C4*_16  and  C5*_24 
REMARK    7  A    between atoms: N_17  and  C_25 
REMARK    8  A    between atoms: C_30  and  N_18 
REMARK    9  A    between atoms: O5*_27  and  C5*_24 
REMARK   10  A    between atoms: C_25  and  C_26 
REMARK   11  A    between atoms: C_26  and  C_30 
ROOT
ATOM      1  N   UNL d   1       1.492  -1.194   0.071  0.00  0.00    -0.276 N 
ATOM      2  C   UNL d   1       0.199  -0.745   0.045  0.00  0.00     0.160 A 
ATOM      3  C   UNL d   1       0.299   0.628   0.056  0.00  0.00     0.149 A 
ATOM      4  C   UNL d   1       2.307  -0.074   0.159  0.00  0.00     0.164 A 
ATOM      5  N   UNL d   1       1.597   1.034   0.126  0.00  0.00    -0.325 N 
ATOM      6  HN  UNL d   1       1.946   1.992   0.148  1.00  0.00     0.169 HD
ATOM      7  N   UNL d   1      -0.926  -1.498   0.051  0.00  0.00    -0.174 N 
ATOM      8  HN  UNL d   1      -0.919  -2.518   0.038  1.00  0.00     0.186 HD
ATOM      9  C   UNL d   1      -0.921   1.401   0.046  0.00  0.00     0.290 A 
ATOM     10  N   UNL d   1      -2.047   0.595   0.050  0.00  0.00    -0.154 N 
ATOM     11  C   UNL d   1      -2.024  -0.787   0.076  0.00  0.00     0.680 A 
ATOM     12  O   UNL d   1      -0.995   2.627   0.042  0.00  0.00    -0.265 OA
ATOM     13  H   UNL d   1      -2.922   1.088   0.102  0.00  0.00     0.187 HD
ENDROOT
BRANCH   1  14
ATOM     14  C1* UNL d   1       1.916  -2.579   0.073  0.00  0.00     0.264 C 
ATOM     15  C2* UNL d   1       1.507  -3.395  -1.170  0.00  0.00     0.198 C 
ATOM     16  C3* UNL d   1       0.596  -4.490  -0.620  0.00  0.00     0.182 C 
ATOM     17  C4* UNL d   1       1.007  -4.578   0.842  0.00  0.00     0.179 C 
ATOM     18  O4* UNL d   1       1.377  -3.246   1.238  0.00  0.00    -0.353 OA
BRANCH  15  19
ATOM     19  O2* UNL d   1       2.638  -4.008  -1.828  0.00  0.00    -0.388 OA
ATOM     20  H2* UNL d   1       3.260  -4.330  -1.150  0.00  0.00     0.210 HD
ENDBRANCH  15  19
BRANCH  16  21
ATOM     21  O3* UNL d   1       0.781  -5.743  -1.279  0.00  0.00    -0.390 OA
ATOM     22  H3* UNL d   1       1.510  -5.616  -1.921  0.00  0.00     0.210 HD
ENDBRANCH  16  21
BRANCH  17  23
ATOM     23  C5* UNL d   1      -0.097  -5.108   1.756  0.00  0.00     0.198 C 
BRANCH  23  24
ATOM     24  O5* UNL d   1      -1.276  -4.311   1.671  0.00  0.00    -0.398 OA
ATOM     25  H5* UNL d   1      -0.983  -3.374   1.717  0.00  0.00     0.209 HD
ENDBRANCH  23  24
ENDBRANCH  17  23
ENDBRANCH   1  14
BRANCH   4  26
ATOM     26  N   UNL d   1       3.656  -0.167   0.289  0.00  0.00    -0.264 NA
ATOM     27  H   UNL d   1       4.126  -0.354  -0.595  0.00  0.00     0.130 HD
BRANCH  26  28
ATOM     28  C   UNL d   1       4.314   0.986   0.944  0.00  0.00     0.097 C 
BRANCH  28  29
ATOM     29  C   UNL d   1       4.423   0.718   2.445  0.00  0.00     0.045 C 
BRANCH  29  30
ATOM     30  C   UNL d   1       5.101   1.848   3.233  0.00  0.00     0.273 C 
BRANCH  30  31
ATOM     31  N   UNL d   1       4.444   3.163   3.176  0.00  0.00     0.092 N 
ATOM     32  C   UNL d   1       3.057   3.168   3.699  0.00  0.00     0.298 C 
ATOM     33  C   UNL d   1       2.965   3.030   5.229  0.00  0.00     0.198 C 
ATOM     34  O   UNL d   1       3.722   4.049   5.896  0.00  0.00    -0.388 OA
ATOM     35  C   UNL d   1       5.090   4.030   5.472  0.00  0.00     0.198 C 
ATOM     36  C   UNL d   1       5.210   4.178   3.943  0.00  0.00     0.298 C 
ENDBRANCH  30  31
ENDBRANCH  29  30
ENDBRANCH  28  29
ENDBRANCH  26  28
ENDBRANCH   4  26
BRANCH  11  37
ATOM     37  N   UNL d   1      -3.227  -1.404   0.137  0.00  0.00    -0.234 N 
ATOM     38  H   UNL d   1      -4.022  -0.957  -0.299  0.00  0.00     0.174 HD
ATOM     39  H   UNL d   1      -3.181  -2.407  -0.020  0.00  0.00     0.174 HD
ENDBRANCH  11  37
TORSDOF 11
