REMARK  5 active torsions:
REMARK  status: ('A' for Active; 'I' for Inactive)
REMARK    1  A    between atoms: C_3  and  C_1 
REMARK    2  A    between atoms: C_7  and  C_1 
REMARK    3  A    between atoms: C_10  and  C_2 
REMARK    4  A    between atoms: N_4  and  C_3 
REMARK    5  A    between atoms: O_16  and  C_11 
ROOT
ATOM      1  C   UNL d   1       0.961  -0.087  -0.030  0.00  0.00     0.054 C 
ATOM      2  C   UNL d   1       0.296  -1.262  -0.003  0.00  0.00     0.035 C 
ENDROOT
BRANCH   1   3
ATOM      3  C   UNL d   1       2.481  -0.087  -0.030  0.00  0.00    -0.035 C 
BRANCH   3   4
ATOM      4  N   UNL d   1       3.742  -0.087  -0.030  0.00  0.00    -0.365 N 
ATOM      5  HN2 UNL d   1       2.722  -0.087  -0.030  1.00  0.00     0.165 HD
ATOM      6  HN1 UNL d   1       4.762  -0.087  -0.030  1.00  0.00     0.165 HD
ENDBRANCH   3   4
ENDBRANCH   1   3
BRANCH   1   7
ATOM      7  C   UNL d   1       0.248   1.216  -0.040  0.00  0.00     0.051 A 
ATOM      8  N   UNL d   1      -1.110   1.164  -0.018  0.00  0.00    -0.365 N 
ATOM      9  C   UNL d   1      -1.793   2.331  -0.009  0.00  0.00     0.088 A 
ATOM     10  HN  UNL d   1      -1.600   0.270  -0.007  1.00  0.00     0.165 HD
ATOM     11  C   UNL d   1      -1.191   3.574  -0.025  0.00  0.00     0.017 A 
ATOM     12  C   UNL d   1       0.195   3.625  -0.051  0.00  0.00     0.004 A 
ATOM     13  C   UNL d   1       0.925   2.437  -0.060  0.00  0.00     0.031 A 
ENDBRANCH   1   7
BRANCH   2  14
ATOM     14  C   UNL d   1       0.927  -2.585   0.043  0.00  0.00    -0.035 A 
ATOM     15  C   UNL d   1       1.248  -3.167   1.275  0.00  0.00     0.014 A 
ATOM     16  C   UNL d   1       1.831  -4.435   1.321  0.00  0.00     0.037 A 
ATOM     17  C   UNL d   1       2.093  -5.117   0.139  0.00  0.00     0.065 A 
ATOM     18  C   UNL d   1       1.793  -4.547  -1.095  0.00  0.00     0.037 A 
ATOM     19  C   UNL d   1       1.209  -3.277  -1.141  0.00  0.00     0.014 A 
BRANCH  17  20
ATOM     20  O   UNL d   1       2.647  -6.359   0.233  0.00  0.00    -0.361 OA
ATOM     21  H   UNL d   1       2.745  -6.724  -0.662  0.00  0.00     0.217 HD
ENDBRANCH  17  20
ENDBRANCH   2  14
TORSDOF 5
