REMARK  5 active torsions:
REMARK  status: ('A' for Active; 'I' for Inactive)
REMARK    1  A    between atoms: C_2  and  C_1 
REMARK       I    between atoms: N_7  and  C_2 
REMARK    2  A    between atoms: O_15  and  C_3 
REMARK       I    between atoms: C_4  and  N_10 
REMARK    3  A    between atoms: C_5  and  C_4 
REMARK    4  A    between atoms: N_10  and  N_7 
REMARK    5  A    between atoms: C_16  and  O_15 
ROOT
ATOM      1  C   UNL d   1      -0.368   2.966   0.028  0.00  0.00     0.279 C 
ATOM      2  N   UNL d   1      -1.697   3.199   0.346  0.00  0.00    -0.263 N 
ATOM      3  O   UNL d   1       0.356   3.929  -0.243  0.00  0.00    -0.265 OA
ATOM      4  H   UNL d   1      -2.319   2.470   0.688  0.00  0.00     0.190 HD
ENDROOT
BRANCH   1   5
ATOM      5  C   UNL d   1       0.059   1.569   0.006  0.00  0.00     0.107 A 
ATOM      6  C   UNL d   1       1.163   0.955  -0.581  0.00  0.00     0.091 A 
ATOM      7  C   UNL d   1       1.238  -0.438  -0.269  0.00  0.00     0.045 A 
ATOM      8  C   UNL d   1       0.187  -0.871   0.501  0.00  0.00     0.053 A 
ATOM      9  S   UNL d   1      -0.890   0.397   0.860  0.00  0.00    -0.094 SA
BRANCH   6  10
ATOM     10  O   UNL d   1       2.161   1.509  -1.320  0.00  0.00    -0.350 OA
BRANCH  10  11
ATOM     11  C   UNL d   1       1.786   2.532  -2.238  0.00  0.00     0.171 C 
ATOM     12  C   UNL d   1       2.643   2.414  -3.486  0.00  0.00     0.034 C 
ENDBRANCH  10  11
ENDBRANCH   6  10
ENDBRANCH   1   5
BRANCH   2  13
ATOM     13  N   UNL d   1      -2.180   4.515   0.346  0.00  0.00    -0.267 N 
ATOM     14  C   UNL d   1      -3.368   4.777   0.988  0.00  0.00     0.240 C 
ATOM     15  O   UNL d   1      -4.022   3.910   1.558  0.00  0.00    -0.271 OA
ATOM     16  H   UNL d   1      -1.602   5.218  -0.105  0.00  0.00     0.190 HD
BRANCH  14  17
ATOM     17  C   UNL d   1      -3.869   6.178   0.959  0.00  0.00     0.080 A 
ATOM     18  C   UNL d   1      -4.289   6.782  -0.363  0.00  0.00     0.015 A 
ATOM     19  C   UNL d   1      -3.140   7.375   0.399  0.00  0.00     0.015 A 
ENDBRANCH  14  17
ENDBRANCH   2  13
TORSDOF 5
