REMARK  4 active torsions:
REMARK  status: ('A' for Active; 'I' for Inactive)
REMARK    1  A    between atoms: C_2  and  C_1 
REMARK    2  A    between atoms: C_17  and  N_3 
REMARK    3  A    between atoms: C_13  and  N_4 
REMARK    4  A    between atoms: C_16  and  C_5 
ROOT
ATOM      1  C   UNL d   1      -0.244   1.218  -0.013  0.00  0.00     0.057 C 
ATOM      2  N   UNL d   1       1.044  -0.574  -0.057  0.00  0.00    -0.255 N 
ATOM      3  C   UNL d   1       1.090   0.831  -0.058  0.00  0.00     0.082 C 
ATOM      4  N   UNL d   1      -0.223  -1.040  -0.214  0.00  0.00    -0.303 N 
ATOM      5  HN  UNL d   1      -0.516  -2.003  -0.379  1.00  0.00     0.186 HD
ATOM      6  C   UNL d   1      -0.993   0.036  -0.105  0.00  0.00     0.125 C 
ENDROOT
BRANCH   1   7
ATOM      7  C   UNL d   1      -0.804   2.596   0.024  0.00  0.00     0.152 C 
ATOM      8  N   UNL d   1      -1.997   3.004   0.601  0.00  0.00    -0.224 N 
ATOM      9  N   UNL d   1      -2.313   4.215   0.087  0.00  0.00     0.001 NA
ATOM     10  N   UNL d   1      -1.237   4.614  -0.575  0.00  0.00    -0.007 NA
ATOM     11  N   UNL d   1      -0.282   3.630  -0.599  0.00  0.00    -0.269 N 
ATOM     12  HN  UNL d   1       0.647   3.689  -1.016  1.00  0.00     0.185 HD
BRANCH   8  13
ATOM     13  C   UNL d   1      -2.742   2.430   1.659  0.00  0.00     0.056 A 
ATOM     14  C   UNL d   1      -2.123   1.583   2.592  0.00  0.00     0.031 A 
ATOM     15  C   UNL d   1      -2.863   1.048   3.649  0.00  0.00     0.002 A 
ATOM     16  C   UNL d   1      -4.216   1.353   3.779  0.00  0.00     0.000 A 
ATOM     17  C   UNL d   1      -4.829   2.207   2.865  0.00  0.00     0.002 A 
ATOM     18  C   UNL d   1      -4.094   2.765   1.815  0.00  0.00     0.031 A 
ENDBRANCH   8  13
ENDBRANCH   1   7
BRANCH   3  19
ATOM     19  C   UNL d   1       2.316   1.647  -0.081  0.00  0.00    -0.006 A 
ATOM     20  C   UNL d   1       3.391   1.325  -0.925  0.00  0.00     0.015 A 
ATOM     21  C   UNL d   1       4.581   2.060  -0.884  0.00  0.00     0.024 A 
ATOM     22  C   UNL d   1       4.686   3.160  -0.037  0.00  0.00     0.034 A 
ATOM     23  C   UNL d   1       3.616   3.527   0.770  0.00  0.00     0.024 A 
ATOM     24 CL   UNL d   1       6.147   4.066   0.013  0.00  0.00    -0.084 Cl
ATOM     25  C   UNL d   1       2.443   2.766   0.758  0.00  0.00     0.015 A 
ENDBRANCH   3  19
BRANCH   2  26
ATOM     26  C   UNL d   1       2.084  -1.532   0.129  0.00  0.00     0.058 A 
ATOM     27  C   UNL d   1       3.210  -1.247   0.908  0.00  0.00     0.057 A 
ATOM     28  C   UNL d   1       4.232  -2.196   1.040  0.00  0.00     0.058 A 
ATOM     29 CL   UNL d   1       5.598  -1.767   2.007  0.00  0.00    -0.082 Cl
ATOM     30  C   UNL d   1       4.125  -3.436   0.401  0.00  0.00     0.055 A 
ATOM     31  C   UNL d   1       2.982  -3.737  -0.343  0.00  0.00     0.028 A 
ATOM     32 CL   UNL d   1       5.364  -4.636   0.493  0.00  0.00    -0.083 Cl
ATOM     33  C   UNL d   1       1.956  -2.796  -0.467  0.00  0.00     0.033 A 
ENDBRANCH   2  26
TORSDOF 4
