REMARK  3 active torsions:
REMARK  status: ('A' for Active; 'I' for Inactive)
REMARK    1  A    between atoms: N_7  and  C_2 
REMARK    2  A    between atoms: N_5  and  N_7 
REMARK    3  A    between atoms: C_13  and  C_11 
ROOT
ATOM      1  N   UNL d   1       3.407   1.229   1.098  0.00  0.00    -0.191 NA
ATOM      2  C   UNL d   1      -1.196  -1.503   0.211  0.00  0.00     0.069 A 
ATOM      3  C   UNL d   1      -1.157  -0.098   0.141  0.00  0.00     0.063 A 
ATOM      4  C   UNL d   1       2.421   0.643   0.911  0.00  0.00     0.099 C 
ATOM      5  C   UNL d   1       0.027   0.612   0.372  0.00  0.00     0.048 A 
ATOM      6  C   UNL d   1      -0.001  -2.172   0.521  0.00  0.00     0.034 A 
ATOM      7  C   UNL d   1       1.204  -0.076   0.678  0.00  0.00     0.046 A 
ATOM      8 CL   UNL d   1      -2.585   0.807  -0.237  0.00  0.00    -0.082 Cl
ATOM      9  C   UNL d   1       1.188  -1.470   0.753  0.00  0.00     0.025 A 
ENDROOT
BRANCH   2  10
ATOM     10  N   UNL d   1      -2.392  -2.210  -0.023  0.00  0.00    -0.299 N 
ATOM     11  H   UNL d   1      -3.216  -1.653  -0.242  0.00  0.00     0.187 HD
BRANCH  10  12
ATOM     12  N   UNL d   1      -2.402  -3.556   0.051  0.00  0.00    -0.311 N 
ATOM     13  C   UNL d   1      -3.537  -4.131  -0.186  0.00  0.00     0.118 C 
ATOM     14  HN  UNL d   1      -1.564  -4.090   0.280  1.00  0.00     0.186 HD
BRANCH  13  15
ATOM     15  C   UNL d   1      -3.652  -5.603  -0.148  0.00  0.00    -0.019 A 
ATOM     16  C   UNL d   1      -2.522  -6.381   0.123  0.00  0.00     0.014 A 
ATOM     17  C   UNL d   1      -2.638  -7.768   0.206  0.00  0.00     0.024 A 
ATOM     18  C   UNL d   1      -3.878  -8.373   0.003  0.00  0.00     0.034 A 
ATOM     19  C   UNL d   1      -5.004  -7.602  -0.290  0.00  0.00     0.024 A 
ATOM     20 CL   UNL d   1      -4.021 -10.083   0.129  0.00  0.00    -0.084 Cl
ATOM     21  C   UNL d   1      -4.894  -6.210  -0.363  0.00  0.00     0.014 A 
ENDBRANCH  13  15
ENDBRANCH  10  12
ENDBRANCH   2  10
TORSDOF 3
