REMARK  1 active torsions:
REMARK  status: ('A' for Active; 'I' for Inactive)
REMARK    1  A    between atoms: N_20  and  C_17 
ROOT
ATOM      1  C   UNL d   1      -0.560  -0.736  -0.301  0.00  0.00     0.021 C 
ATOM      2  C   UNL d   1      -0.242   0.297  -1.419  0.00  0.00     0.006 C 
ATOM      3  C   UNL d   1      -0.814  -0.102  -2.820  0.00  0.00    -0.000 C 
ATOM      4  C   UNL d   1      -0.210  -1.475  -3.270  0.00  0.00     0.024 C 
ATOM      5  C   UNL d   1      -1.069  -2.307  -4.212  0.00  0.00    -0.047 C 
ATOM      6  C   UNL d   1      -2.410  -1.993  -4.453  0.00  0.00    -0.050 C 
ATOM      7  C   UNL d   1      -1.809  -0.137   0.326  0.00  0.00     0.135 C 
ATOM      8  C   UNL d   1      -0.768  -2.143  -0.867  0.00  0.00     0.018 C 
ATOM      9  C   UNL d   1       0.173  -2.359  -2.050  0.00  0.00     0.011 C 
ATOM     10  C   UNL d   1      -0.748   1.634  -0.860  0.00  0.00     0.013 C 
ATOM     11  C   UNL d   1      -2.354  -0.045  -2.893  0.00  0.00     0.010 C 
ATOM     12  C   UNL d   1      -0.555  -3.511  -4.718  0.00  0.00     0.010 C 
ATOM     13  C   UNL d   1      -2.926  -0.617  -4.177  0.00  0.00     0.039 C 
ATOM     14  C   UNL d   1      -3.255  -2.977  -4.994  0.00  0.00     0.030 C 
ATOM     15  C   UNL d   1      -1.976   1.325  -0.008  0.00  0.00     0.079 C 
ATOM     16  O   UNL d   1      -2.587  -0.753   1.046  0.00  0.00    -0.297 OA
ATOM     17  C   UNL d   1      -2.765  -4.224  -5.383  0.00  0.00     0.006 C 
ATOM     18  C   UNL d   1      -1.401  -4.474  -5.270  0.00  0.00     0.024 C 
ATOM     19  C   UNL d   1       0.517  -0.762   0.793  0.00  0.00     0.024 C 
ENDROOT
BRANCH  17  20
ATOM     20  N   UNL d   1      -3.643  -5.281  -5.640  0.00  0.00    -0.303 NA
ATOM     21  H   UNL d   1      -3.245  -6.048  -6.170  0.00  0.00     0.124 HD
ATOM     22  H   UNL d   1      -4.568  -5.008  -5.952  0.00  0.00     0.124 HD
ENDBRANCH  17  20
TORSDOF 1
