REMARK  6 active torsions:
REMARK  status: ('A' for Active; 'I' for Inactive)
REMARK    1  A    between atoms: C_4  and  N_1 
REMARK    2  A    between atoms: C_13  and  C_4 
REMARK    3  A    between atoms: C_6  and  N_9 
REMARK       I    between atoms: C_7  and  N_8 
REMARK    4  A    between atoms: N_8  and  C_10 
REMARK    5  A    between atoms: N_9  and  C_13 
REMARK    6  A    between atoms: C_19  and  N_9 
ROOT
ATOM      1  N   UNL d   1      -1.371   4.381   0.007  0.00  0.00    -0.380 N 
ENDROOT
BRANCH   1   2
ATOM      2  C   UNL d   1      -0.188   5.082  -0.246  0.00  0.00     0.032 A 
ATOM      3  C   UNL d   1       0.792   4.608  -1.135  0.00  0.00     0.058 A 
ATOM      4  C   UNL d   1       2.020   5.253  -1.311  0.00  0.00     0.036 A 
ATOM      5  C   UNL d   1       2.266   6.434  -0.609  0.00  0.00     0.029 A 
ATOM      6  C   UNL d   1       1.297   6.952   0.251  0.00  0.00     0.004 A 
ATOM      7  C   UNL d   1       0.086   6.279   0.428  0.00  0.00     0.029 A 
BRANCH   4   8
ATOM      8  N   UNL d   1       3.047   4.756  -2.145  0.00  0.00    -0.327 N 
ATOM      9  C   UNL d   1       3.015   3.610  -2.921  0.00  0.00     0.218 C 
ATOM     10  O   UNL d   1       2.066   2.847  -3.075  0.00  0.00    -0.274 OA
ATOM     11  C   UNL d   1       4.314   3.341  -3.638  0.00  0.00     0.117 C 
ATOM     12  H   UNL d   1       3.906   5.292  -2.148  0.00  0.00     0.169 HD
ENDBRANCH   4   8
ENDBRANCH   1   2
BRANCH   1  13
ATOM     13  C   UNL d   1      -1.418   2.916  -0.201  0.00  0.00     0.143 C 
BRANCH  13  14
ATOM     14  C   UNL d   1      -0.446   2.169   0.738  0.00  0.00     0.154 C 
BRANCH  14  15
ATOM     15  N   UNL d   1      -0.529   0.716   0.636  0.00  0.00    -0.287 N 
ATOM     16  C   UNL d   1      -1.644   0.005   0.967  0.00  0.00     0.226 C 
ATOM     17  C   UNL d   1      -1.337  -1.461   0.898  0.00  0.00     0.112 C 
ATOM     18  O   UNL d   1      -2.729   0.456   1.305  0.00  0.00    -0.273 OA
ATOM     19  C   UNL d   1       0.121  -1.522   0.490  0.00  0.00     0.112 C 
ATOM     20  C   UNL d   1       0.561  -0.088   0.463  0.00  0.00     0.226 C 
ATOM     21  O   UNL d   1       1.725   0.259   0.331  0.00  0.00    -0.273 OA
ENDBRANCH  14  15
ENDBRANCH  13  14
ENDBRANCH   1  13
BRANCH   1  22
ATOM     22  C   UNL d   1      -2.635   5.112  -0.190  0.00  0.00     0.118 C 
ATOM     23  C   UNL d   1      -2.870   5.491  -1.647  0.00  0.00     0.026 C 
ENDBRANCH   1  22
TORSDOF 6
