REMARK  5 active torsions:
REMARK  status: ('A' for Active; 'I' for Inactive)
REMARK       I    between atoms: C_2  and  N_1 
REMARK    1  A    between atoms: C_7  and  N_1 
REMARK    2  A    between atoms: C_8  and  N_1 
REMARK    3  A    between atoms: C_3  and  C_2 
REMARK    4  A    between atoms: C_5  and  C_7 
REMARK    5  A    between atoms: C_16  and  C_8 
ROOT
ATOM      1  N   UNL d   1       0.962  -0.026   0.146  0.00  0.00    -0.339 N 
ATOM      2  C   UNL d   1       0.141  -0.780   1.004  0.00  0.00     0.261 C 
ATOM      3  O   UNL d   1      -1.068  -0.541   1.064  0.00  0.00    -0.267 OA
ENDROOT
BRANCH   1   4
ATOM      4  C   UNL d   1       0.326   1.028  -0.645  0.00  0.00     0.172 C 
BRANCH   4   5
ATOM      5  C   UNL d   1       0.126   2.276   0.168  0.00  0.00     0.000 A 
ATOM      6  S   UNL d   1       1.384   3.427   0.356  0.00  0.00    -0.105 SA
ATOM      7  C   UNL d   1       0.435   4.394   1.396  0.00  0.00     0.050 A 
ATOM      8  C   UNL d   1      -0.842   3.901   1.537  0.00  0.00     0.008 A 
ATOM      9  C   UNL d   1      -1.024   2.686   0.816  0.00  0.00     0.017 A 
ENDBRANCH   4   5
ENDBRANCH   1   4
BRANCH   1  10
ATOM     10  C   UNL d   1       2.421  -0.071   0.136  0.00  0.00     0.165 C 
BRANCH  10  11
ATOM     11  C   UNL d   1       3.038  -0.613  -1.141  0.00  0.00    -0.040 A 
ATOM     12  C   UNL d   1       2.298  -1.230  -2.162  0.00  0.00     0.009 A 
ATOM     13  C   UNL d   1       2.916  -1.627  -3.351  0.00  0.00     0.001 A 
ATOM     14  C   UNL d   1       4.285  -1.440  -3.525  0.00  0.00     0.000 A 
ATOM     15  C   UNL d   1       5.043  -0.877  -2.503  0.00  0.00     0.001 A 
ATOM     16  C   UNL d   1       4.425  -0.470  -1.319  0.00  0.00     0.009 A 
ENDBRANCH  10  11
ENDBRANCH   1  10
BRANCH   2  17
ATOM     17  C   UNL d   1       0.737  -1.847   1.802  0.00  0.00     0.072 A 
ATOM     18  S   UNL d   1       0.229  -2.035   3.433  0.00  0.00    -0.097 SA
ATOM     19  C   UNL d   1       1.269  -3.369   3.678  0.00  0.00     0.050 A 
ATOM     20  C   UNL d   1       1.976  -3.687   2.542  0.00  0.00     0.009 A 
ATOM     21  C   UNL d   1       1.647  -2.829   1.452  0.00  0.00     0.025 A 
ENDBRANCH   2  17
TORSDOF 5
