REMARK  4 active torsions:
REMARK  status: ('A' for Active; 'I' for Inactive)
REMARK       I    between atoms: C_4  and  N_1 
REMARK    1  A    between atoms: C_13  and  C_3 
REMARK    2  A    between atoms: C_10  and  C_4 
REMARK    3  A    between atoms: C_5  and  C_12 
REMARK    4  A    between atoms: C_16  and  C_17 
ROOT
ATOM      1  N   UNL d   1      -2.524   0.248  -0.368  0.00  0.00    -0.335 N 
ATOM      2  C   UNL d   1      -0.160   0.742   0.088  0.00  0.00    -0.017 A 
ATOM      3  C   UNL d   1      -1.577   1.283   0.132  0.00  0.00     0.155 C 
ATOM      4  C   UNL d   1      -3.590   0.473  -1.257  0.00  0.00     0.254 C 
ATOM      5  C   UNL d   1       0.128  -0.601  -0.034  0.00  0.00    -0.007 A 
ATOM      6  C   UNL d   1      -2.293  -1.139   0.098  0.00  0.00     0.132 C 
ATOM      7  S   UNL d   1       1.796  -0.935  -0.047  0.00  0.00    -0.106 SA
ATOM      8  C   UNL d   1      -0.892  -1.678  -0.217  0.00  0.00     0.067 C 
ATOM      9  C   UNL d   1       1.047   1.519   0.023  0.00  0.00     0.018 A 
ATOM     10  C   UNL d   1       2.176   0.730  -0.001  0.00  0.00     0.051 A 
ATOM     11  O   UNL d   1      -4.276  -0.456  -1.701  0.00  0.00    -0.267 OA
ENDROOT
BRANCH   3  12
ATOM     12  C   UNL d   1      -1.848   1.743   1.579  0.00  0.00    -0.031 A 
ATOM     13  C   UNL d   1      -1.097   2.784   2.161  0.00  0.00     0.010 A 
ATOM     14  C   UNL d   1      -1.347   3.237   3.462  0.00  0.00     0.017 A 
ATOM     15  C   UNL d   1      -2.385   2.690   4.222  0.00  0.00     0.047 A 
ATOM     16  C   UNL d   1      -3.167   1.684   3.650  0.00  0.00     0.017 A 
ATOM     17  C   UNL d   1      -2.910   1.232   2.349  0.00  0.00     0.010 A 
BRANCH  15  18
ATOM     18  C   UNL d   1      -2.663   3.207   5.612  0.00  0.00     0.417 C 
ATOM     19  F   UNL d   1      -3.723   2.602   6.218  0.00  0.00    -0.166 F 
ATOM     20  F   UNL d   1      -1.606   3.042   6.454  0.00  0.00    -0.166 F 
ATOM     21  F   UNL d   1      -2.942   4.540   5.620  0.00  0.00    -0.166 F 
ENDBRANCH  15  18
ENDBRANCH   3  12
BRANCH   4  22
ATOM     22  C   UNL d   1      -3.932   1.845  -1.742  0.00  0.00     0.032 C 
ATOM     23  C   UNL d   1      -4.383   2.014  -3.058  0.00  0.00     0.017 C 
ATOM     24  C   UNL d   1      -4.653   3.299  -3.562  0.00  0.00     0.009 C 
ATOM     25  C   UNL d   1      -4.456   4.449  -2.770  0.00  0.00    -0.051 C 
ATOM     26  C   UNL d   1      -4.079   4.245  -1.439  0.00  0.00     0.009 C 
ATOM     27  C   UNL d   1      -3.877   2.964  -0.922  0.00  0.00     0.017 C 
BRANCH  25  28
ATOM     28  C   UNL d   1      -4.654   5.863  -3.342  0.00  0.00    -0.024 C 
ATOM     29  C   UNL d   1      -4.292   6.979  -2.331  0.00  0.00     0.019 C 
ATOM     30  C   UNL d   1      -3.753   6.065  -4.579  0.00  0.00     0.019 C 
ATOM     31  C   UNL d   1      -6.126   6.072  -3.745  0.00  0.00     0.019 C 
ENDBRANCH  25  28
ENDBRANCH   4  22
TORSDOF 4
