REMARK  4 active torsions:
REMARK  status: ('A' for Active; 'I' for Inactive)
REMARK    1  A    between atoms: N_6  and  S_1 
REMARK    2  A    between atoms: C_8  and  S_1 
REMARK    3  A    between atoms: C_3  and  C_12 
REMARK    4  A    between atoms: C_17  and  N_6 
ROOT
ATOM      1  C   UNL d   1       0.396  -1.493   0.357  0.00  0.00     0.079 A 
ATOM      2  C   UNL d   1      -0.321  -4.125   1.028  0.00  0.00    -0.008 A 
ATOM      3  C   UNL d   1       0.933  -2.568  -0.360  0.00  0.00     0.026 A 
ATOM      4  C   UNL d   1      -0.501  -1.720   1.402  0.00  0.00     0.026 A 
ATOM      5  C   UNL d   1       0.570  -3.877  -0.027  0.00  0.00     0.015 A 
ATOM      6  C   UNL d   1      -0.864  -3.033   1.726  0.00  0.00     0.015 A 
ENDROOT
BRANCH   1   7
ATOM      7  S   UNL d   1       0.968   0.159   0.010  0.00  0.00     0.263 S 
ATOM      8  O   UNL d   1       0.712   0.978   1.175  0.00  0.00    -0.200 OA
ATOM      9  O   UNL d   1       2.304   0.033  -0.536  0.00  0.00    -0.200 OA
BRANCH   7  10
ATOM     10  N   UNL d   1      -0.009   0.663  -1.260  0.00  0.00    -0.281 N 
ATOM     11  H   UNL d   1       0.332   0.393  -2.180  0.00  0.00     0.179 HD
BRANCH  10  12
ATOM     12  C   UNL d   1      -1.406   0.799  -1.069  0.00  0.00     0.042 A 
ATOM     13  C   UNL d   1      -1.910   1.957  -0.477  0.00  0.00     0.030 A 
ATOM     14  C   UNL d   1      -3.286   2.108  -0.308  0.00  0.00     0.002 A 
ATOM     15  C   UNL d   1      -4.153   1.092  -0.709  0.00  0.00     0.000 A 
ATOM     16  C   UNL d   1      -3.644  -0.075  -1.281  0.00  0.00     0.002 A 
ATOM     17  C   UNL d   1      -2.268  -0.221  -1.467  0.00  0.00     0.030 A 
ENDBRANCH  10  12
ENDBRANCH   7  10
ENDBRANCH   1   7
BRANCH   2  18
ATOM     18  C   UNL d   1      -0.678  -5.483   1.424  0.00  0.00     0.063 A 
ATOM     19  N   UNL d   1      -1.915  -5.766   1.995  0.00  0.00    -0.292 N 
ATOM     20  N   UNL d   1      -2.040  -7.046   2.300  0.00  0.00    -0.061 NA
ATOM     21  HN  UNL d   1      -2.640  -5.068   2.159  1.00  0.00     0.183 HD
ATOM     22  S   UNL d   1      -0.673  -7.938   1.932  0.00  0.00    -0.010 SA
ATOM     23  C   UNL d   1       0.166  -6.576   1.310  0.00  0.00     0.096 A 
ENDBRANCH   2  18
TORSDOF 4
