REMARK  8 active torsions:
REMARK  status: ('A' for Active; 'I' for Inactive)
REMARK    1  A    between atoms: C_7  and  C_1 
REMARK       I    between atoms: N_13  and  C_7 
REMARK    2  A    between atoms: S_17  and  C_10 
REMARK    3  A    between atoms: N_20  and  C_10 
REMARK    4  A    between atoms: N_11  and  N_13 
REMARK    5  A    between atoms: C_16  and  C_21 
REMARK    6  A    between atoms: O_23  and  C_16 
REMARK    7  A    between atoms: C_21  and  S_17 
REMARK    8  A    between atoms: C_26  and  O_23 
ROOT
ATOM      1  C   UNL d   1       2.459   0.313   0.034  0.00  0.00     0.289 C 
ATOM      2  N   UNL d   1       3.828   0.538   0.067  0.00  0.00    -0.263 N 
ATOM      3  O   UNL d   1       1.644   1.235  -0.042  0.00  0.00    -0.264 OA
ATOM      4  H   UNL d   1       4.494  -0.223   0.049  0.00  0.00     0.190 HD
ENDROOT
BRANCH   2   5
ATOM      5  N   UNL d   1       4.350   1.802  -0.100  0.00  0.00    -0.282 N 
ATOM      6  C   UNL d   1       5.598   1.837  -0.447  0.00  0.00     0.133 C 
ATOM      7  HN  UNL d   1       3.795   2.647   0.040  1.00  0.00     0.188 HD
BRANCH   6   8
ATOM      8  S   UNL d   1       6.423   3.382  -0.581  0.00  0.00    -0.089 SA
BRANCH   8   9
ATOM      9  C   UNL d   1       5.694   4.289   0.808  0.00  0.00     0.193 C 
BRANCH   9  10
ATOM     10  C   UNL d   1       6.016   3.679   2.155  0.00  0.00     0.268 C 
ATOM     11  O   UNL d   1       6.608   2.630   2.366  0.00  0.00    -0.264 OA
BRANCH  10  12
ATOM     12  O   UNL d   1       5.502   4.494   3.127  0.00  0.00    -0.321 OA
BRANCH  12  13
ATOM     13  C   UNL d   1       5.428   3.930   4.444  0.00  0.00     0.174 C 
ATOM     14  C   UNL d   1       4.087   3.234   4.580  0.00  0.00     0.034 C 
ENDBRANCH  12  13
ENDBRANCH  10  12
ENDBRANCH   9  10
ENDBRANCH   8   9
ENDBRANCH   6   8
BRANCH   6  15
ATOM     15  N   UNL d   1       6.424   0.791  -0.790  0.00  0.00    -0.276 NA
ATOM     16  C   UNL d   1       6.120  -0.059  -1.928  0.00  0.00     0.115 C 
ATOM     17  H   UNL d   1       7.374   1.150  -0.879  0.00  0.00     0.129 HD
ENDBRANCH   6  15
ENDBRANCH   2   5
BRANCH   1  18
ATOM     18  C   UNL d   1       2.055  -1.081   0.023  0.00  0.00     0.132 A 
ATOM     19  N   UNL d   1       0.857  -1.546  -0.520  0.00  0.00    -0.302 N 
ATOM     20  C   UNL d   1       0.821  -2.922  -0.313  0.00  0.00     0.113 A 
ATOM     21  C   UNL d   1      -0.175  -0.874  -1.187  0.00  0.00     0.099 A 
ATOM     22  C   UNL d   1      -0.325  -3.637  -0.764  0.00  0.00     0.056 A 
ATOM     23  N   UNL d   1       1.903  -3.348   0.293  0.00  0.00    -0.344 N 
ATOM     24  C   UNL d   1      -1.332  -2.995  -1.390  0.00  0.00    -0.057 A 
ATOM     25  C   UNL d   1      -1.250  -1.554  -1.623  0.00  0.00     0.024 A 
ATOM     26  C   UNL d   1      -2.556  -3.726  -1.860  0.00  0.00     0.048 C 
ATOM     27  C   UNL d   1       2.663  -2.229   0.531  0.00  0.00     0.040 A 
ATOM     28  HN  UNL d   1       2.132  -4.311   0.538  1.00  0.00     0.167 HD
ATOM     29  C   UNL d   1       3.924  -2.404   1.293  0.00  0.00     0.071 C 
ENDBRANCH   1  18
TORSDOF 8
