REMARK  4 active torsions:
REMARK  status: ('A' for Active; 'I' for Inactive)
REMARK    1  A    between atoms: C_3  and  C_1 
REMARK       I    between atoms: N_9  and  C_3 
REMARK    2  A    between atoms: N_4  and  C_13 
REMARK    3  A    between atoms: C_12  and  N_9 
REMARK    4  A    between atoms: C_13  and  C_12 
ROOT
ATOM      1  C   UNL d   1       1.547  -2.844   0.437  0.00  0.00     0.254 C 
ATOM      2  O   UNL d   1       2.643  -3.397   0.359  0.00  0.00    -0.268 OA
ATOM      3  N   UNL d   1       0.403  -3.539   0.742  0.00  0.00    -0.355 N 
ATOM      4  H   UNL d   1      -0.496  -3.064   0.688  0.00  0.00     0.162 HD
ENDROOT
BRANCH   1   5
ATOM      5  C   UNL d   1       1.433  -1.368   0.208  0.00  0.00     0.068 A 
ATOM      6  C   UNL d   1       0.222  -0.646   0.216  0.00  0.00     0.117 A 
ATOM      7  C   UNL d   1       0.250   0.752   0.042  0.00  0.00     0.103 A 
ATOM      8  O   UNL d   1      -0.944  -1.351   0.411  0.00  0.00    -0.347 OA
ATOM      9  O   UNL d   1      -0.840   1.591   0.093  0.00  0.00    -0.348 OA
ATOM     10  C   UNL d   1       1.455   1.406  -0.233  0.00  0.00     0.040 A 
ATOM     11  C   UNL d   1      -1.860   1.180   1.002  0.00  0.00     0.178 C 
ATOM     12  C   UNL d   1      -2.803   0.188   0.343  0.00  0.00     0.053 C 
ATOM     13  C   UNL d   1      -2.035  -0.896  -0.390  0.00  0.00     0.178 C 
ATOM     14  C   UNL d   1       2.647   0.690  -0.280  0.00  0.00     0.004 A 
ATOM     15  C   UNL d   1       2.636  -0.683  -0.049  0.00  0.00     0.020 A 
ENDBRANCH   1   5
BRANCH   3  16
ATOM     16  C   UNL d   1       0.393  -4.972   0.918  0.00  0.00     0.153 C 
BRANCH  16  17
ATOM     17  C   UNL d   1      -0.789  -5.443   1.781  0.00  0.00     0.292 C 
BRANCH  17  18
ATOM     18  N   UNL d   1      -2.135  -5.112   1.254  0.00  0.00     0.094 N 
ATOM     19  C   UNL d   1      -2.428  -5.769  -0.041  0.00  0.00     0.298 C 
ATOM     20  C   UNL d   1      -2.609  -7.294   0.058  0.00  0.00     0.198 C 
ATOM     21  O   UNL d   1      -3.625  -7.643   1.007  0.00  0.00    -0.388 OA
ATOM     22  C   UNL d   1      -3.349  -7.077   2.295  0.00  0.00     0.198 C 
ATOM     23  C   UNL d   1      -3.186  -5.548   2.210  0.00  0.00     0.298 C 
ENDBRANCH  17  18
ENDBRANCH  16  17
ENDBRANCH   3  16
TORSDOF 4
