REMARK  2 active torsions:
REMARK  status: ('A' for Active; 'I' for Inactive)
REMARK       I    between atoms: C_4  and  N_1 
REMARK       I    between atoms: N_2  and  C_3 
REMARK    1  A    between atoms: C_3  and  C_7 
REMARK    2  A    between atoms: C_8  and  C_4 
ROOT
ATOM      1  C   UNL d   1       2.136   4.654  -2.400  0.00  0.00     0.032 A 
ATOM      2  C   UNL d   1      -0.093   3.339  -1.305  0.00  0.00     0.032 A 
ATOM      3  C   UNL d   1       0.209   4.657  -0.929  0.00  0.00     0.018 A 
ATOM      4  C   UNL d   1       1.905   3.307  -2.684  0.00  0.00     0.018 A 
ATOM      5  C   UNL d   1       0.807   2.649  -2.126  0.00  0.00     0.018 A 
ATOM      6  C   UNL d   1       1.321   5.312  -1.468  0.00  0.00     0.018 A 
ENDROOT
BRANCH   1   7
ATOM      7  C   UNL d   1       3.280   5.386  -3.004  0.00  0.00     0.258 C 
ATOM      8  N   UNL d   1       3.563   5.224  -4.375  0.00  0.00    -0.313 N 
ATOM      9  C   UNL d   1       4.792   5.708  -4.955  0.00  0.00     0.043 A 
ATOM     10  C   UNL d   1       2.610   4.629  -5.326  0.00  0.00     0.133 C 
ATOM     11  C   UNL d   1       4.890   5.905  -6.351  0.00  0.00    -0.031 A 
ATOM     12  C   UNL d   1       5.929   5.963  -4.173  0.00  0.00     0.030 A 
ATOM     13  C   UNL d   1       6.096   6.357  -6.916  0.00  0.00     0.009 A 
ATOM     14  C   UNL d   1       3.744   5.631  -7.288  0.00  0.00     0.042 C 
ATOM     15  C   UNL d   1       7.204   6.621  -6.116  0.00  0.00     0.001 A 
ATOM     16  C   UNL d   1       7.121   6.419  -4.744  0.00  0.00     0.002 A 
ATOM     17  C   UNL d   1       2.423   5.483  -6.561  0.00  0.00     0.025 C 
ATOM     18  O   UNL d   1       3.888   6.132  -2.231  0.00  0.00    -0.267 OA
ENDBRANCH   1   7
BRANCH   2  19
ATOM     19  C   UNL d   1      -1.297   2.689  -0.716  0.00  0.00     0.258 C 
ATOM     20  N   UNL d   1      -2.116   1.832  -1.486  0.00  0.00    -0.313 N 
ATOM     21  C   UNL d   1      -3.193   1.080  -0.892  0.00  0.00     0.043 A 
ATOM     22  C   UNL d   1      -1.955   1.571  -2.926  0.00  0.00     0.133 C 
ATOM     23  C   UNL d   1      -3.590  -0.144  -1.481  0.00  0.00    -0.031 A 
ATOM     24  C   UNL d   1      -3.884   1.525   0.242  0.00  0.00     0.030 A 
ATOM     25  C   UNL d   1      -4.619  -0.905  -0.897  0.00  0.00     0.009 A 
ATOM     26  C   UNL d   1      -2.963  -0.671  -2.750  0.00  0.00     0.042 C 
ATOM     27  C   UNL d   1      -5.274  -0.453   0.243  0.00  0.00     0.001 A 
ATOM     28  C   UNL d   1      -4.918   0.768   0.802  0.00  0.00     0.002 A 
ATOM     29  C   UNL d   1      -1.702   0.087  -3.139  0.00  0.00     0.025 C 
ATOM     30  O   UNL d   1      -1.481   2.957   0.477  0.00  0.00    -0.267 OA
ENDBRANCH   2  19
TORSDOF 2
