REMARK  5 active torsions:
REMARK  status: ('A' for Active; 'I' for Inactive)
REMARK    1  A    between atoms: C_2  and  C_1 
REMARK    2  A    between atoms: O_6  and  C_2 
REMARK    3  A    between atoms: C_10  and  C_3 
REMARK    4  A    between atoms: C_11  and  O_6 
REMARK    5  A    between atoms: C_12  and  C_11 
ROOT
ATOM      1  C   UNL d   1       1.020  -0.121   0.039  0.00  0.00     0.120 C 
ATOM      2  C   UNL d   1       0.259   0.804  -0.589  0.00  0.00     0.041 C 
ATOM      3  C   UNL d   1       0.449  -1.204   0.760  0.00  0.00     0.105 C 
ATOM      4  N   UNL d   1      -0.072  -2.079   1.321  0.00  0.00    -0.191 NA
ENDROOT
BRANCH   1   5
ATOM      5  C   UNL d   1       2.498   0.020  -0.077  0.00  0.00     0.304 C 
ATOM      6  O   UNL d   1       3.032   0.848  -0.804  0.00  0.00    -0.258 OA
BRANCH   5   7
ATOM      7  O   UNL d   1       3.155  -0.882   0.696  0.00  0.00    -0.312 OA
BRANCH   7   8
ATOM      8  C   UNL d   1       4.591  -0.917   0.556  0.00  0.00     0.217 C 
BRANCH   8   9
ATOM      9  C   UNL d   1       5.308  -0.961   1.890  0.00  0.00    -0.034 A 
ATOM     10  C   UNL d   1       4.723  -1.518   3.033  0.00  0.00     0.009 A 
ATOM     11  C   UNL d   1       5.436  -1.600   4.233  0.00  0.00     0.001 A 
ATOM     12  C   UNL d   1       6.748  -1.136   4.304  0.00  0.00     0.000 A 
ATOM     13  C   UNL d   1       7.352  -0.593   3.173  0.00  0.00     0.001 A 
ATOM     14  C   UNL d   1       6.638  -0.510   1.974  0.00  0.00     0.009 A 
ENDBRANCH   8   9
ENDBRANCH   7   8
ENDBRANCH   5   7
ENDBRANCH   1   5
BRANCH   2  15
ATOM     15  C   UNL d   1      -1.207   0.806  -0.562  0.00  0.00    -0.019 A 
ATOM     16  C   UNL d   1      -1.904   1.488   0.432  0.00  0.00     0.099 A 
ATOM     17  N   UNL d   1      -3.252   1.482   0.556  0.00  0.00    -0.374 N 
ATOM     18  C   UNL d   1      -3.940   0.752  -0.348  0.00  0.00     0.087 A 
ATOM     19  HN  UNL d   1      -3.724   2.002   1.296  1.00  0.00     0.164 HD
ATOM     20  C   UNL d   1      -3.343   0.046  -1.380  0.00  0.00     0.018 A 
ATOM     21  C   UNL d   1      -1.954   0.078  -1.490  0.00  0.00     0.014 A 
ENDBRANCH   2  15
TORSDOF 5
