REMARK  2 active torsions:
REMARK  status: ('A' for Active; 'I' for Inactive)
REMARK    1  A    between atoms: N_8  and  N_4 
REMARK       I    between atoms: C_9  and  N_8 
REMARK    2  A    between atoms: C_12  and  C_9 
ROOT
ATOM      1  C   UNL d   1      -1.124   0.892   0.016  0.00  0.00     0.129 A 
ATOM      2  C   UNL d   1      -1.841  -0.460   0.018  0.00  0.00     0.275 A 
ATOM      3  N   UNL d   1      -0.840  -1.409   0.018  0.00  0.00    -0.321 N 
ATOM      4  N   UNL d   1      -1.635   2.079   0.052  0.00  0.00    -0.292 N 
ATOM      5  HN  UNL d   1      -1.042   2.909   0.047  1.00  0.00     0.187 HD
ATOM      6  C   UNL d   1       0.302   0.589  -0.002  0.00  0.00     0.024 A 
ATOM      7  C   UNL d   1       0.414  -0.800   0.015  0.00  0.00     0.047 A 
ATOM      8  O   UNL d   1      -3.045  -0.605   0.024  0.00  0.00    -0.266 OA
ATOM      9  C   UNL d   1       1.401   1.423  -0.009  0.00  0.00     0.016 A 
ATOM     10  C   UNL d   1       1.647  -1.417   0.037  0.00  0.00     0.030 A 
ATOM     11  C   UNL d   1       2.658   0.814   0.011  0.00  0.00     0.001 A 
ATOM     12  C   UNL d   1       2.779  -0.592   0.038  0.00  0.00     0.002 A 
ATOM     13  H   UNL d   1      -1.014  -2.402   0.026  0.00  0.00     0.169 HD
ENDROOT
BRANCH   4  14
ATOM     14  N   UNL d   1      -2.999   2.183   0.098  0.00  0.00    -0.265 N 
ATOM     15  C   UNL d   1      -3.572   3.446   0.147  0.00  0.00     0.270 C 
ATOM     16  O   UNL d   1      -2.937   4.499   0.112  0.00  0.00    -0.266 OA
ATOM     17  H   UNL d   1      -3.561   1.334   0.045  0.00  0.00     0.190 HD
BRANCH  15  18
ATOM     18  C   UNL d   1      -5.059   3.510   0.232  0.00  0.00     0.033 A 
ATOM     19  C   UNL d   1      -5.836   2.496   0.807  0.00  0.00     0.017 A 
ATOM     20  C   UNL d   1      -7.224   2.652   0.905  0.00  0.00     0.001 A 
ATOM     21  C   UNL d   1      -7.839   3.813   0.435  0.00  0.00     0.000 A 
ATOM     22  C   UNL d   1      -7.071   4.825  -0.138  0.00  0.00     0.001 A 
ATOM     23  C   UNL d   1      -5.688   4.675  -0.235  0.00  0.00     0.017 A 
ENDBRANCH  15  18
ENDBRANCH   4  14
TORSDOF 2
