REMARK  4 active torsions:
REMARK  status: ('A' for Active; 'I' for Inactive)
REMARK    1  A    between atoms: C_5  and  C_1 
REMARK    2  A    between atoms: C_18  and  N_4 
REMARK    3  A    between atoms: C_17  and  C_14 
REMARK    4  A    between atoms: C_15  and  C_16 
ROOT
ATOM      1  C   UNL d   1      -0.366  -2.825   0.103  0.00  0.00     0.195 A 
ATOM      2  O   UNL d   1       0.638  -3.753   0.246  0.00  0.00    -0.271 OA
ATOM      3  N   UNL d   1      -1.557  -3.396   0.063  0.00  0.00    -0.276 N 
ATOM      4  HN  UNL d   1      -2.454  -2.924  -0.051  1.00  0.00     0.189 HD
ATOM      5  N   UNL d   1      -1.353  -4.757   0.205  0.00  0.00    -0.277 N 
ATOM      6  HN  UNL d   1      -2.068  -5.484   0.208  1.00  0.00     0.189 HD
ATOM      7  C   UNL d   1      -0.053  -4.928   0.336  0.00  0.00     0.174 A 
ENDROOT
BRANCH   1   8
ATOM      8  C   UNL d   1      -0.106  -1.359   0.052  0.00  0.00     0.126 A 
ATOM      9  N   UNL d   1       1.137  -0.861   0.046  0.00  0.00    -0.273 N 
ATOM     10  N   UNL d   1       0.920   0.477   0.030  0.00  0.00    -0.196 N 
ATOM     11  HN  UNL d   1       2.025  -1.363   0.052  1.00  0.00     0.189 HD
ATOM     12  N   UNL d   1      -0.383   0.867   0.043  0.00  0.00    -0.281 N 
ATOM     13  C   UNL d   1      -1.039  -0.302   0.032  0.00  0.00     0.056 A 
ATOM     14  HN  UNL d   1      -0.765   1.813   0.058  1.00  0.00     0.189 HD
ATOM     15  C   UNL d   1      -2.518  -0.341   0.023  0.00  0.00     0.072 C 
BRANCH  10  16
ATOM     16  C   UNL d   1       1.993   1.404  -0.013  0.00  0.00     0.074 A 
ATOM     17  C   UNL d   1       3.311   0.940  -0.143  0.00  0.00     0.033 A 
ATOM     18  C   UNL d   1       4.366   1.851  -0.209  0.00  0.00     0.002 A 
ATOM     19  C   UNL d   1       4.113   3.219  -0.133  0.00  0.00     0.000 A 
ATOM     20  C   UNL d   1       2.804   3.684   0.008  0.00  0.00     0.002 A 
ATOM     21  C   UNL d   1       1.741   2.780   0.064  0.00  0.00     0.033 A 
ENDBRANCH  10  16
ENDBRANCH   1   8
BRANCH   7  22
ATOM     22  C   UNL d   1       0.723  -6.125   0.642  0.00  0.00     0.017 A 
ATOM     23  C   UNL d   1       2.108  -6.065   0.867  0.00  0.00     0.017 A 
ATOM     24  C   UNL d   1       2.825  -7.202   1.256  0.00  0.00     0.017 A 
ATOM     25  C   UNL d   1       2.172  -8.430   1.425  0.00  0.00     0.048 A 
ATOM     26  C   UNL d   1       0.795  -8.502   1.164  0.00  0.00     0.017 A 
ATOM     27  C   UNL d   1       0.081  -7.362   0.778  0.00  0.00     0.017 A 
BRANCH  25  28
ATOM     28  C   UNL d   1       2.918  -9.655   1.897  0.00  0.00     0.417 C 
ATOM     29  F   UNL d   1       4.241  -9.430   2.132  0.00  0.00    -0.166 F 
ATOM     30  F   UNL d   1       2.414 -10.152   3.061  0.00  0.00    -0.166 F 
ATOM     31  F   UNL d   1       2.866 -10.677   1.000  0.00  0.00    -0.166 F 
ENDBRANCH  25  28
ENDBRANCH   7  22
TORSDOF 4
