REMARK  5 active torsions:
REMARK  status: ('A' for Active; 'I' for Inactive)
REMARK    1  A    between atoms: C_2  and  S_1 
REMARK    2  A    between atoms: N_3  and  S_1 
REMARK    3  A    between atoms: C_5  and  N_3 
REMARK    4  A    between atoms: C_10  and  C_5 
REMARK    5  A    between atoms: C_11  and  C_5 
ROOT
ATOM      1  N   UNL d   1       0.558   0.497   1.350  0.00  0.00    -0.202 NA
ATOM      2  H   UNL d   1      -0.444   0.706   1.387  0.00  0.00     0.141 HD
ENDROOT
BRANCH   1   3
ATOM      3  S   UNL d   1       0.956   0.029  -0.228  0.00  0.00     0.244 S 
ATOM      4  O   UNL d   1       0.777   1.180  -1.086  0.00  0.00    -0.206 OA
ATOM      5  O   UNL d   1       2.214  -0.679  -0.225  0.00  0.00    -0.206 OA
BRANCH   3   6
ATOM      6  C   UNL d   1      -0.285  -1.158  -0.677  0.00  0.00     0.102 A 
ATOM      7  C   UNL d   1      -1.617  -0.751  -0.729  0.00  0.00     0.065 A 
ATOM      8  N   UNL d   1      -2.020   0.465  -0.297  0.00  0.00    -0.364 N 
ATOM      9  C   UNL d   1      -2.546  -1.677  -1.260  0.00  0.00    -0.008 A 
ATOM     10  C   UNL d   1      -3.312   0.825  -0.471  0.00  0.00     0.088 A 
ATOM     11  HN  UNL d   1      -1.361   1.101   0.153  1.00  0.00     0.165 HD
ATOM     12  C   UNL d   1      -4.272  -0.005  -1.011  0.00  0.00     0.018 A 
ATOM     13  C   UNL d   1      -3.884  -1.281  -1.393  0.00  0.00     0.015 A 
ATOM     14  C   UNL d   1      -2.140  -2.961  -1.665  0.00  0.00     0.014 A 
ATOM     15  C   UNL d   1      -0.807  -3.344  -1.572  0.00  0.00     0.003 A 
ATOM     16  C   UNL d   1       0.128  -2.438  -1.089  0.00  0.00     0.027 A 
ENDBRANCH   3   6
ENDBRANCH   1   3
BRANCH   1  17
ATOM     17  C   UNL d   1       1.025  -0.339   2.479  0.00  0.00     0.137 C 
BRANCH  17  18
ATOM     18  C   UNL d   1       2.549  -0.351   2.613  0.00  0.00    -0.035 A 
ATOM     19  C   UNL d   1       3.267   0.851   2.743  0.00  0.00     0.009 A 
ATOM     20  C   UNL d   1       4.654   0.846   2.876  0.00  0.00     0.001 A 
ATOM     21  C   UNL d   1       5.346  -0.360   2.858  0.00  0.00     0.000 A 
ATOM     22  C   UNL d   1       4.653  -1.563   2.719  0.00  0.00     0.001 A 
ATOM     23  C   UNL d   1       3.260  -1.561   2.608  0.00  0.00     0.009 A 
ENDBRANCH  17  18
BRANCH  17  24
ATOM     24  C   UNL d   1       0.437   0.115   3.830  0.00  0.00    -0.035 A 
ATOM     25  C   UNL d   1       0.261  -0.821   4.866  0.00  0.00     0.009 A 
ATOM     26  C   UNL d   1      -0.037  -0.403   6.166  0.00  0.00     0.001 A 
ATOM     27  C   UNL d   1      -0.163   0.955   6.452  0.00  0.00     0.000 A 
ATOM     28  C   UNL d   1      -0.028   1.894   5.433  0.00  0.00     0.001 A 
ATOM     29  C   UNL d   1       0.257   1.478   4.130  0.00  0.00     0.009 A 
ENDBRANCH  17  24
ENDBRANCH   1  17
TORSDOF 5
