REMARK  6 active torsions:
REMARK  status: ('A' for Active; 'I' for Inactive)
REMARK    1  A    between atoms: N_7  and  S_1 
REMARK    2  A    between atoms: C_13  and  S_1 
REMARK    3  A    between atoms: C_2  and  N_16 
REMARK       I    between atoms: C_14  and  N_7 
REMARK    4  A    between atoms: C_19  and  C_8 
REMARK    5  A    between atoms: C_15  and  C_11 
REMARK    6  A    between atoms: S_23  and  C_12 
REMARK       I    between atoms: N_16  and  C_14 
ROOT
ATOM      1  N   UNL d   1       0.545   0.022  -1.599  0.00  0.00    -0.231 N 
ATOM      2  C   UNL d   1       0.870   1.079  -2.448  0.00  0.00     0.348 C 
ATOM      3  N   UNL d   1       1.611   2.114  -1.985  0.00  0.00    -0.140 N 
ATOM      4  O   UNL d   1       0.503   1.108  -3.617  0.00  0.00    -0.245 OA
ATOM      5  H   UNL d   1       0.804   0.077  -0.618  0.00  0.00     0.183 HD
ATOM      6  H   UNL d   1       1.678   2.893  -2.624  0.00  0.00     0.189 HD
ENDROOT
BRANCH   3   7
ATOM      7  C   UNL d   1       2.412   2.254  -0.871  0.00  0.00     0.690 A 
ATOM      8  N   UNL d   1       3.033   3.425  -0.822  0.00  0.00    -0.174 N 
ATOM      9  C   UNL d   1       3.918   3.587   0.163  0.00  0.00     0.149 A 
ATOM     10  HN  UNL d   1       2.845   4.162  -1.502  1.00  0.00     0.186 HD
ATOM     11  N   UNL d   1       4.188   2.645   1.063  0.00  0.00    -0.320 N 
ATOM     12  C   UNL d   1       3.508   1.509   0.924  0.00  0.00     0.160 A 
ATOM     13  HN  UNL d   1       4.871   2.783   1.808  1.00  0.00     0.169 HD
ATOM     14  N   UNL d   1       2.594   1.258  -0.015  0.00  0.00    -0.170 N 
ATOM     15  HN  UNL d   1       2.081   0.378  -0.069  1.00  0.00     0.186 HD
BRANCH   9  16
ATOM     16  C   UNL d   1       4.699   4.852   0.220  0.00  0.00     0.077 A 
ATOM     17  N   UNL d   1       4.434   5.790  -0.740  0.00  0.00    -0.363 N 
ATOM     18  C   UNL d   1       5.162   6.931  -0.734  0.00  0.00     0.088 A 
ATOM     19  HN  UNL d   1       3.708   5.634  -1.439  1.00  0.00     0.165 HD
ATOM     20  C   UNL d   1       6.161   7.204   0.177  0.00  0.00     0.017 A 
ATOM     21  C   UNL d   1       6.427   6.256   1.159  0.00  0.00     0.004 A 
ATOM     22  C   UNL d   1       5.686   5.074   1.184  0.00  0.00     0.033 A 
ENDBRANCH   9  16
BRANCH  12  23
ATOM     23  S   UNL d   1       3.953   0.238   2.086  0.00  0.00    -0.098 SA
ATOM     24  C   UNL d   1       2.998  -1.158   1.455  0.00  0.00     0.099 C 
ENDBRANCH  12  23
ENDBRANCH   3   7
BRANCH   1  25
ATOM     25  S   UNL d   1      -0.721  -1.030  -1.911  0.00  0.00     0.267 S 
ATOM     26  O   UNL d   1      -1.709  -0.339  -2.704  0.00  0.00    -0.200 OA
ATOM     27  O   UNL d   1      -1.042  -1.626  -0.630  0.00  0.00    -0.200 OA
BRANCH  25  28
ATOM     28  C   UNL d   1      -0.038  -2.360  -2.889  0.00  0.00     0.095 A 
ATOM     29  C   UNL d   1      -0.865  -3.348  -3.463  0.00  0.00     0.071 A 
ATOM     30  C   UNL d   1      -0.240  -4.435  -4.121  0.00  0.00     0.018 A 
ATOM     31  C   UNL d   1       1.147  -4.544  -4.197  0.00  0.00     0.001 A 
ATOM     32  C   UNL d   1       1.945  -3.553  -3.641  0.00  0.00     0.002 A 
ATOM     33  C   UNL d   1       1.360  -2.464  -2.994  0.00  0.00     0.026 A 
BRANCH  29  34
ATOM     34  C   UNL d   1      -2.377  -3.381  -3.437  0.00  0.00     0.419 C 
ATOM     35  F   UNL d   1      -3.006  -2.441  -2.698  0.00  0.00    -0.166 F 
ATOM     36  F   UNL d   1      -2.902  -3.293  -4.694  0.00  0.00    -0.166 F 
ATOM     37  F   UNL d   1      -2.833  -4.574  -2.949  0.00  0.00    -0.166 F 
ENDBRANCH  29  34
ENDBRANCH  25  28
ENDBRANCH   1  25
TORSDOF 6
