REMARK  8 active torsions:
REMARK  status: ('A' for Active; 'I' for Inactive)
REMARK    1  A    between atoms: C_7  and  C_1 
REMARK    2  A    between atoms: C_9  and  C_2 
REMARK    3  A    between atoms: S_3  and  N_10 
REMARK    4  A    between atoms: C_11  and  S_3 
REMARK    5  A    between atoms: C_12  and  N_4 
REMARK    6  A    between atoms: O_24  and  C_9 
REMARK    7  A    between atoms: N_10  and  C_21 
REMARK    8  A    between atoms: C_30  and  O_24 
ROOT
ATOM      1  C   UNL d   1       1.975   1.581  -0.066  0.00  0.00     0.057 A 
ATOM      2  C   UNL d   1       4.151   3.339  -0.118  0.00  0.00     0.042 A 
ATOM      3  C   UNL d   1       2.772   1.681  -1.214  0.00  0.00     0.034 A 
ATOM      4  C   UNL d   1       2.212   2.448   1.012  0.00  0.00     0.034 A 
ATOM      5  C   UNL d   1       3.864   2.558  -1.236  0.00  0.00     0.032 A 
ATOM      6  C   UNL d   1       3.314   3.303   0.994  0.00  0.00     0.032 A 
ENDROOT
BRANCH   1   7
ATOM      7  N   UNL d   1       0.942   0.609   0.059  0.00  0.00    -0.251 N 
ATOM      8  C   UNL d   1       0.846  -0.668  -0.460  0.00  0.00     0.158 C 
ATOM      9  C   UNL d   1      -0.455  -1.096  -0.215  0.00  0.00     0.089 C 
ATOM     10  C   UNL d   1      -0.996  -0.090   0.601  0.00  0.00     0.127 C 
ATOM     11  N   UNL d   1      -0.136   0.898   0.837  0.00  0.00    -0.303 N 
ATOM     12  HN  UNL d   1      -0.259   1.694   1.462  1.00  0.00     0.186 HD
BRANCH   8  13
ATOM     13  C   UNL d   1       1.994  -1.375  -1.051  0.00  0.00     0.435 C 
ATOM     14  F   UNL d   1       1.893  -2.722  -0.959  0.00  0.00    -0.165 F 
ATOM     15  F   UNL d   1       2.154  -1.077  -2.363  0.00  0.00    -0.165 F 
ATOM     16  F   UNL d   1       3.159  -1.064  -0.425  0.00  0.00    -0.165 F 
ENDBRANCH   8  13
BRANCH   9  17
ATOM     17  C   UNL d   1      -1.097  -2.306  -0.691  0.00  0.00     0.297 C 
ATOM     18  O   UNL d   1      -0.569  -3.083  -1.471  0.00  0.00    -0.259 OA
BRANCH  17  19
ATOM     19  O   UNL d   1      -2.384  -2.405  -0.251  0.00  0.00    -0.318 OA
BRANCH  19  20
ATOM     20  C   UNL d   1      -3.191  -3.362  -0.952  0.00  0.00     0.174 C 
ATOM     21  C   UNL d   1      -3.713  -2.721  -2.226  0.00  0.00     0.034 C 
ENDBRANCH  19  20
ENDBRANCH  17  19
ENDBRANCH   9  17
ENDBRANCH   1   7
BRANCH   2  22
ATOM     22  N   UNL d   1       5.373   4.040  -0.012  0.00  0.00    -0.281 N 
ATOM     23  H   UNL d   1       6.212   3.532   0.260  0.00  0.00     0.179 HD
BRANCH  22  24
ATOM     24  S   UNL d   1       5.644   5.474  -0.825  0.00  0.00     0.263 S 
ATOM     25  O   UNL d   1       7.039   5.796  -0.612  0.00  0.00    -0.200 OA
ATOM     26  O   UNL d   1       5.098   5.383  -2.165  0.00  0.00    -0.200 OA
BRANCH  24  27
ATOM     27  C   UNL d   1       4.683   6.635   0.112  0.00  0.00     0.079 A 
ATOM     28  C   UNL d   1       5.195   7.157   1.304  0.00  0.00     0.026 A 
ATOM     29  C   UNL d   1       4.463   8.118   2.005  0.00  0.00     0.008 A 
ATOM     30  C   UNL d   1       3.228   8.568   1.515  0.00  0.00    -0.062 A 
ATOM     31  C   UNL d   1       2.726   8.030   0.322  0.00  0.00     0.008 A 
ATOM     32  C   UNL d   1       2.473   9.635   2.253  0.00  0.00     0.048 C 
ATOM     33  C   UNL d   1       3.450   7.067  -0.382  0.00  0.00     0.026 A 
ENDBRANCH  24  27
ENDBRANCH  22  24
ENDBRANCH   2  22
TORSDOF 8
