REMARK  4 active torsions:
REMARK  status: ('A' for Active; 'I' for Inactive)
REMARK    1  A    between atoms: C_8  and  N_1 
REMARK    2  A    between atoms: C_9  and  C_2 
REMARK    3  A    between atoms: S_14  and  C_3 
REMARK    4  A    between atoms: C_10  and  C_9 
ROOT
ATOM      1  N   UNL d   1      -0.381  -1.262  -0.015  0.00  0.00    -0.279 N 
ATOM      2  C   UNL d   1       0.886  -0.664  -0.018  0.00  0.00     0.109 A 
ATOM      3  C   UNL d   1      -1.243  -0.178  -0.174  0.00  0.00     0.164 A 
ATOM      4  N   UNL d   1       0.757   0.639  -0.190  0.00  0.00    -0.286 N 
ATOM      5  HN  UNL d   1       1.523   1.311  -0.236  1.00  0.00     0.188 HD
ATOM      6  N   UNL d   1      -0.565   0.938  -0.294  0.00  0.00    -0.278 N 
ATOM      7  HN  UNL d   1      -0.960   1.867  -0.441  1.00  0.00     0.189 HD
ENDROOT
BRANCH   1   8
ATOM      8  C   UNL d   1      -0.717  -2.646   0.126  0.00  0.00     0.043 A 
ATOM      9  C   UNL d   1       0.023  -3.487   0.970  0.00  0.00     0.033 A 
ATOM     10  C   UNL d   1      -0.344  -4.828   1.137  0.00  0.00     0.044 A 
ATOM     11  C   UNL d   1      -1.462  -5.325   0.481  0.00  0.00     0.116 A 
ATOM     12  C   UNL d   1      -2.204  -4.515  -0.363  0.00  0.00     0.044 A 
ATOM     13  F   UNL d   1      -1.830  -6.598   0.673  0.00  0.00    -0.206 F 
ATOM     14  C   UNL d   1      -1.821  -3.183  -0.558  0.00  0.00     0.033 A 
ENDBRANCH   1   8
BRANCH   2  15
ATOM     15  C   UNL d   1       2.228  -1.320   0.044  0.00  0.00     0.117 C 
BRANCH  15  16
ATOM     16  C   UNL d   1       2.566  -2.150  -1.158  0.00  0.00    -0.044 A 
ATOM     17  C   UNL d   1       2.945  -3.483  -1.117  0.00  0.00     0.057 A 
ATOM     18  S   UNL d   1       3.325  -4.114  -2.660  0.00  0.00    -0.113 SA
ATOM     19  C   UNL d   1       3.006  -2.615  -3.412  0.00  0.00     0.050 A 
ATOM     20  C   UNL d   1       2.607  -1.657  -2.506  0.00  0.00     0.015 A 
ENDBRANCH  15  16
ENDBRANCH   2  15
BRANCH   3  21
ATOM     21  S   UNL d   1      -2.975  -0.173  -0.022  0.00  0.00    -0.105 SA
ATOM     22  H   UNL d   1      -3.147  -1.314   0.657  0.00  0.00     0.110 HD
ENDBRANCH   3  21
TORSDOF 4
