REMARK  6 active torsions:
REMARK  status: ('A' for Active; 'I' for Inactive)
REMARK       I    between atoms: N_3  and  C_1 
REMARK       I    between atoms: N_8  and  C_1 
REMARK       I    between atoms: C_2  and  N_9 
REMARK    1  A    between atoms: O_4  and  C_2 
REMARK    2  A    between atoms: C_10  and  N_3 
REMARK    3  A    between atoms: C_7  and  O_4 
REMARK    4  A    between atoms: C_11  and  N_8 
REMARK    5  A    between atoms: N_9  and  C_12 
REMARK    6  A    between atoms: C_12  and  C_11 
ROOT
ATOM      1  C   UNL d   1       3.029   1.300  -0.421  0.00  0.00     0.144 C 
ENDROOT
BRANCH   1   2
ATOM      2  N   UNL d   1       2.193   0.252   0.152  0.00  0.00    -0.342 N 
ATOM      3  C   UNL d   1       1.530  -0.656  -0.634  0.00  0.00     0.316 C 
ATOM      4  N   UNL d   1       0.713  -1.457   0.124  0.00  0.00    -0.339 N 
ATOM      5  O   UNL d   1       1.646  -0.724  -1.848  0.00  0.00    -0.247 OA
ATOM      6  H   UNL d   1       0.961  -1.533   1.099  0.00  0.00     0.164 HD
ATOM      7  H   UNL d   1       1.802   0.433   1.064  0.00  0.00     0.164 HD
BRANCH   4   8
ATOM      8  C   UNL d   1      -0.164  -2.492  -0.406  0.00  0.00     0.078 C 
ATOM      9  C   UNL d   1      -1.239  -1.934  -1.336  0.00  0.00     0.032 C 
ATOM     10  C   UNL d   1       0.600  -3.638  -1.070  0.00  0.00     0.032 C 
ENDBRANCH   4   8
ENDBRANCH   1   2
BRANCH   1  11
ATOM     11  C   UNL d   1       4.501   0.880  -0.526  0.00  0.00     0.144 C 
BRANCH  11  12
ATOM     12  N   UNL d   1       5.359   1.902  -1.097  0.00  0.00    -0.335 N 
ATOM     13  C   UNL d   1       5.648   3.076  -0.458  0.00  0.00     0.361 C 
ATOM     14  O   UNL d   1       5.204   3.404   0.628  0.00  0.00    -0.238 OA
ATOM     15  H   UNL d   1       5.911   1.700  -1.915  0.00  0.00     0.164 HD
BRANCH  13  16
ATOM     16  O   UNL d   1       6.511   3.790  -1.219  0.00  0.00    -0.294 OA
BRANCH  16  17
ATOM     17  C   UNL d   1       7.058   5.056  -0.740  0.00  0.00     0.061 C 
ATOM     18  C   UNL d   1       7.885   4.840   0.535  0.00  0.00     0.046 C 
ATOM     19  C   UNL d   1       7.981   5.551  -1.870  0.00  0.00     0.046 C 
ATOM     20  C   UNL d   1       5.959   6.104  -0.522  0.00  0.00     0.046 C 
ENDBRANCH  16  17
ENDBRANCH  13  16
ENDBRANCH  11  12
ENDBRANCH   1  11
TORSDOF 6
