REMARK  4 active torsions:
REMARK  status: ('A' for Active; 'I' for Inactive)
REMARK    1  A    between atoms: O_4  and  C_1 
REMARK    2  A    between atoms: C_3  and  C_2 
REMARK    3  A    between atoms: O_9  and  C_3 
REMARK    4  A    between atoms: C_8  and  O_4 
ROOT
ATOM      1  C   UNL d   1      -0.543   1.131   0.024  0.00  0.00     0.165 A 
ATOM      2  C   UNL d   1       0.833   1.166   0.229  0.00  0.00     0.089 A 
ATOM      3  N   UNL d   1      -1.230  -0.001  -0.288  0.00  0.00    -0.346 N 
ATOM      4  HN  UNL d   1      -2.231   0.024  -0.480  1.00  0.00     0.167 HD
ATOM      5  C   UNL d   1       1.512  -0.060   0.167  0.00  0.00     0.024 A 
ATOM      6  C   UNL d   1      -0.540  -1.157  -0.333  0.00  0.00     0.090 A 
ATOM      7  C   UNL d   1       0.820  -1.239  -0.104  0.00  0.00     0.018 A 
ENDROOT
BRANCH   1   8
ATOM      8  O   UNL d   1      -1.273   2.309   0.126  0.00  0.00    -0.293 OA
BRANCH   8   9
ATOM      9  C   UNL d   1      -2.553   2.222   0.634  0.00  0.00     0.078 A 
ATOM     10  C   UNL d   1      -2.898   1.379   1.700  0.00  0.00     0.040 A 
ATOM     11  C   UNL d   1      -4.212   1.348   2.169  0.00  0.00     0.045 A 
ATOM     12  C   UNL d   1      -5.162   2.184   1.597  0.00  0.00     0.116 A 
ATOM     13  C   UNL d   1      -4.821   3.055   0.567  0.00  0.00     0.045 A 
ATOM     14  F   UNL d   1      -6.423   2.152   2.047  0.00  0.00    -0.206 F 
ATOM     15  C   UNL d   1      -3.511   3.079   0.086  0.00  0.00     0.040 A 
ENDBRANCH   8   9
ENDBRANCH   1   8
BRANCH   2  16
ATOM     16  C   UNL d   1       1.637   2.381   0.525  0.00  0.00     0.180 C 
ATOM     17  O   UNL d   1       2.851   2.322   0.655  0.00  0.00    -0.646 OA
BRANCH  16  18
ATOM     18  O   UNL d   1       0.973   3.546   0.651  0.00  0.00    -0.773 OA
ATOM     19  H   UNL d   1       0.003   3.510   0.534  0.00  0.00     0.167 HD
ENDBRANCH  16  18
ENDBRANCH   2  16
TORSDOF 4
