REMARK  0 active torsions:
REMARK  status: ('A' for Active; 'I' for Inactive)
ROOT
ATOM      1  C   UNL d   1       2.283  -0.676  -0.015  0.00  0.00    -0.007 A 
ATOM      2  N   UNL d   1       4.137   0.563   0.029  0.00  0.00    -0.365 N 
ATOM      3  C   UNL d   1       2.761   0.635   0.001  0.00  0.00     0.042 A 
ATOM      4  C   UNL d   1       4.543  -0.746   0.025  0.00  0.00     0.089 A 
ATOM      5  C   UNL d   1       3.416  -1.536  -0.005  0.00  0.00     0.030 A 
ATOM      6  C   UNL d   1       0.891  -0.893  -0.035  0.00  0.00     0.032 A 
ATOM      7  C   UNL d   1       1.915   1.749  -0.008  0.00  0.00     0.031 A 
ATOM      8  C   UNL d   1       0.035   0.214  -0.032  0.00  0.00     0.007 A 
ATOM      9  C   UNL d   1       0.536   1.515  -0.022  0.00  0.00     0.020 A 
ATOM     10  I   UNL d   1      -2.026  -0.092  -0.031  0.00  0.00    -0.045 I 
ATOM     11  H   UNL d   1       4.752   1.364   0.053  0.00  0.00     0.165 HD
ENDROOT
TORSDOF 0
