REMARK  4 active torsions:
REMARK  status: ('A' for Active; 'I' for Inactive)
REMARK    1  A    between atoms: S_11  and  C_3 
REMARK    2  A    between atoms: C_9  and  C_8 
REMARK    3  A    between atoms: C_12  and  C_9 
REMARK    4  A    between atoms: C_10  and  S_11 
ROOT
ATOM      1  S   UNL d   1       4.359  -2.086  -0.009  0.00  0.00    -0.077 SA
ENDROOT
BRANCH   1   2
ATOM      2  C   UNL d   1       3.845  -3.739   0.081  0.00  0.00     0.056 C 
ATOM      3  C   UNL d   1       4.744  -4.717  -0.109  0.00  0.00     0.063 C 
BRANCH   3   4
ATOM      4  C   UNL d   1       4.343  -6.146  -0.036  0.00  0.00     0.182 C 
ATOM      5  O   UNL d   1       3.316  -6.504   0.528  0.00  0.00    -0.288 OA
BRANCH   4   6
ATOM      6  C   UNL d   1       5.260  -7.149  -0.645  0.00  0.00     0.014 A 
ATOM      7  C   UNL d   1       5.297  -8.440  -0.100  0.00  0.00     0.017 A 
ATOM      8  C   UNL d   1       6.112  -9.424  -0.668  0.00  0.00     0.019 A 
ATOM      9  C   UNL d   1       6.882  -9.122  -1.791  0.00  0.00     0.006 A 
ATOM     10  C   UNL d   1       6.851  -7.841  -2.344  0.00  0.00     0.019 A 
ATOM     11  I   UNL d   1       8.063 -10.593  -2.664  0.00  0.00    -0.045 I 
ATOM     12  C   UNL d   1       6.039  -6.855  -1.773  0.00  0.00     0.017 A 
ENDBRANCH   4   6
ENDBRANCH   3   4
ENDBRANCH   1   2
BRANCH   1  13
ATOM     13  C   UNL d   1       2.848  -1.216   0.203  0.00  0.00     0.117 A 
ATOM     14  N   UNL d   1       1.677  -1.790   0.372  0.00  0.00    -0.344 N 
ATOM     15  C   UNL d   1       0.692  -0.820   0.509  0.00  0.00     0.052 A 
ATOM     16  HN  UNL d   1       1.517  -2.797   0.400  1.00  0.00     0.167 HD
ATOM     17  C   UNL d   1       1.140   0.501   0.433  0.00  0.00     0.034 A 
ATOM     18  C   UNL d   1      -0.682  -1.058   0.712  0.00  0.00     0.054 A 
ATOM     19  C   UNL d   1       0.267   1.595   0.550  0.00  0.00     0.023 A 
ATOM     20  S   UNL d   1       2.841   0.501   0.188  0.00  0.00    -0.063 SA
ATOM     21  C   UNL d   1      -1.091   1.337   0.750  0.00  0.00     0.025 A 
ATOM     22  C   UNL d   1      -1.556   0.028   0.830  0.00  0.00     0.036 A 
ATOM     23 CL   UNL d   1      -3.235  -0.258   1.081  0.00  0.00    -0.084 Cl
ENDBRANCH   1  13
TORSDOF 4
