REMARK  3 active torsions:
REMARK  status: ('A' for Active; 'I' for Inactive)
REMARK    1  A    between atoms: C_7  and  C_1 
REMARK    2  A    between atoms: O_11  and  C_7 
REMARK    3  A    between atoms: C_13  and  O_11 
ROOT
ATOM      1  C   UNL d   1      -1.241   1.015   0.035  0.00  0.00    -0.021 A 
ATOM      2  C   UNL d   1       0.004   1.707   0.082  0.00  0.00    -0.047 A 
ATOM      3  C   UNL d   1      -1.244  -0.414   0.002  0.00  0.00    -0.047 A 
ATOM      4  C   UNL d   1       1.224   0.975   0.023  0.00  0.00    -0.049 A 
ATOM      5  C   UNL d   1      -0.019  -1.140   0.017  0.00  0.00    -0.049 A 
ATOM      6  C   UNL d   1       1.212  -0.445   0.010  0.00  0.00    -0.049 A 
ATOM      7  C   UNL d   1       2.568   1.679  -0.035  0.00  0.00     0.049 C 
ATOM      8  C   UNL d   1      -0.008  -2.655   0.038  0.00  0.00     0.049 C 
ATOM      9  C   UNL d   1       0.093   3.215   0.183  0.00  0.00     0.049 C 
ATOM     10  C   UNL d   1       2.535  -1.187  -0.010  0.00  0.00     0.049 C 
ATOM     11  C   UNL d   1      -2.542  -1.197  -0.055  0.00  0.00     0.049 C 
ENDROOT
BRANCH   1  12
ATOM     12  C   UNL d   1      -2.578   1.758   0.012  0.00  0.00     0.215 C 
BRANCH  12  13
ATOM     13  O   UNL d   1      -3.197   1.565  -1.263  0.00  0.00    -0.347 OA
BRANCH  13  14
ATOM     14  C   UNL d   1      -4.487   1.991  -1.422  0.00  0.00     0.069 A 
ATOM     15  C   UNL d   1      -5.213   2.798  -0.540  0.00  0.00     0.045 A 
ATOM     16  C   UNL d   1      -6.537   3.184  -0.839  0.00  0.00    -0.038 A 
ATOM     17  C   UNL d   1      -7.292   4.064   0.119  0.00  0.00     0.050 C 
ATOM     18  C   UNL d   1      -7.122   2.733  -2.033  0.00  0.00     0.040 A 
ATOM     19  C   UNL d   1      -6.399   1.927  -2.912  0.00  0.00     0.027 A 
ATOM     20 CL   UNL d   1      -8.740   3.152  -2.461  0.00  0.00    -0.084 Cl
ATOM     21  C   UNL d   1      -5.087   1.564  -2.607  0.00  0.00     0.038 A 
ENDBRANCH  13  14
ENDBRANCH  12  13
ENDBRANCH   1  12
TORSDOF 3
