REMARK  4 active torsions:
REMARK  status: ('A' for Active; 'I' for Inactive)
REMARK    1  A    between atoms: N_2  and  C_1 
REMARK    2  A    between atoms: N_3  and  C_1 
REMARK    3  A    between atoms: C_4  and  N_2 
REMARK    4  A    between atoms: C_6  and  N_3 
ROOT
ATOM      1  C   UNL d   1       1.026   0.236  -0.071  0.00  0.00     0.176 C 
ATOM      2  S   UNL d   1       2.593   0.183   0.513  0.00  0.00    -0.041 SA
ENDROOT
BRANCH   1   3
ATOM      3  N   UNL d   1       0.578  -0.286  -1.262  0.00  0.00    -0.333 N 
ATOM      4  H   UNL d   1      -0.103   0.303  -1.726  0.00  0.00     0.168 HD
BRANCH   3   5
ATOM      5  C   UNL d   1       1.018  -1.431  -1.961  0.00  0.00     0.042 A 
ATOM      6  C   UNL d   1       0.890  -1.503  -3.365  0.00  0.00    -0.013 A 
ATOM      7  C   UNL d   1       1.161  -2.739  -3.994  0.00  0.00     0.042 A 
ATOM      8  C   UNL d   1       0.530  -0.308  -4.209  0.00  0.00     0.052 C 
ATOM      9 CL   UNL d   1       0.992  -2.945  -5.705  0.00  0.00    -0.084 Cl
ATOM     10  C   UNL d   1       1.567  -3.855  -3.258  0.00  0.00     0.024 A 
ATOM     11  C   UNL d   1       1.718  -3.760  -1.881  0.00  0.00     0.004 A 
ATOM     12  C   UNL d   1       1.443  -2.556  -1.238  0.00  0.00     0.030 A 
ENDBRANCH   3   5
ENDBRANCH   1   3
BRANCH   1  13
ATOM     13  N   UNL d   1       0.106   1.006   0.601  0.00  0.00    -0.333 N 
ATOM     14  H   UNL d   1       0.510   1.650   1.273  0.00  0.00     0.168 HD
BRANCH  13  15
ATOM     15  C   UNL d   1      -1.285   0.780   0.732  0.00  0.00     0.040 A 
ATOM     16  C   UNL d   1      -2.120   1.817   1.185  0.00  0.00    -0.035 A 
ATOM     17  C   UNL d   1      -3.479   1.542   1.422  0.00  0.00     0.009 A 
ATOM     18  C   UNL d   1      -1.650   3.227   1.413  0.00  0.00     0.050 C 
ATOM     19  C   UNL d   1      -4.006   0.268   1.209  0.00  0.00     0.007 A 
ATOM     20  C   UNL d   1      -3.184  -0.764   0.755  0.00  0.00    -0.060 A 
ATOM     21  C   UNL d   1      -1.829  -0.497   0.518  0.00  0.00     0.037 A 
ATOM     22  C   UNL d   1      -3.747  -2.140   0.556  0.00  0.00     0.048 C 
ENDBRANCH  13  15
ENDBRANCH   1  13
TORSDOF 4
