REMARK  5 active torsions:
REMARK  status: ('A' for Active; 'I' for Inactive)
REMARK    1  A    between atoms: C_10  and  C_2 
REMARK    2  A    between atoms: C_8  and  C_11 
REMARK    3  A    between atoms: C_9  and  C_12 
REMARK       I    between atoms: N_15  and  C_10 
REMARK    4  A    between atoms: N_17  and  N_15 
REMARK    5  A    between atoms: C_18  and  N_17 
ROOT
ATOM      1  N   UNL d   1       3.122  -3.248  -0.510  0.00  0.00    -0.203 NA
ATOM      2  H   UNL d   1       2.151  -2.902  -0.521  0.00  0.00     0.153 HD
ENDROOT
BRANCH   1   3
ATOM      3  N   UNL d   1       3.904  -2.390   0.297  0.00  0.00    -0.282 N 
ATOM      4  C   UNL d   1       3.329  -1.165   0.591  0.00  0.00     0.273 C 
ATOM      5  O   UNL d   1       2.145  -0.933   0.336  0.00  0.00    -0.266 OA
ATOM      6  H   UNL d   1       4.918  -2.503   0.277  0.00  0.00     0.184 HD
BRANCH   4   7
ATOM      7  C   UNL d   1       4.203  -0.146   1.232  0.00  0.00     0.116 A 
ATOM      8  C   UNL d   1       5.588  -0.386   1.703  0.00  0.00     0.266 A 
ATOM      9  N   UNL d   1       6.153   0.644   2.417  0.00  0.00    -0.293 N 
ATOM     10  O   UNL d   1       6.164  -1.445   1.461  0.00  0.00    -0.267 OA
ATOM     11  C   UNL d   1       5.496   1.830   2.584  0.00  0.00     0.149 A 
ATOM     12  C   UNL d   1       7.432   0.524   3.080  0.00  0.00     0.145 C 
ATOM     13  N   UNL d   1       4.326   2.100   2.122  0.00  0.00    -0.345 N 
ATOM     14  S   UNL d   1       6.421   2.959   3.519  0.00  0.00    -0.092 SA
ATOM     15  C   UNL d   1       3.692   1.076   1.461  0.00  0.00     0.113 A 
ATOM     16  HN  UNL d   1       3.896   3.018   2.239  1.00  0.00     0.167 HD
ATOM     17  C   UNL d   1       7.854   1.865   3.659  0.00  0.00     0.103 C 
ENDBRANCH   4   7
ENDBRANCH   1   3
BRANCH   1  18
ATOM     18  C   UNL d   1       3.162  -4.625  -0.172  0.00  0.00     0.029 A 
ATOM     19  C   UNL d   1       2.014  -5.404  -0.410  0.00  0.00     0.041 A 
ATOM     20  C   UNL d   1       2.013  -6.800  -0.243  0.00  0.00     0.050 A 
ATOM     21  C   UNL d   1       3.199  -7.432   0.146  0.00  0.00     0.032 A 
ATOM     22  C   UNL d   1       4.370  -6.689   0.364  0.00  0.00     0.050 A 
ATOM     23  C   UNL d   1       4.339  -5.289   0.199  0.00  0.00     0.041 A 
BRANCH  20  24
ATOM     24  C   UNL d   1       0.752  -7.591  -0.502  0.00  0.00     0.417 C 
ATOM     25  F   UNL d   1       0.912  -8.933  -0.342  0.00  0.00    -0.166 F 
ATOM     26  F   UNL d   1      -0.265  -7.235   0.330  0.00  0.00    -0.166 F 
ATOM     27  F   UNL d   1       0.281  -7.420  -1.768  0.00  0.00    -0.166 F 
ENDBRANCH  20  24
BRANCH  22  28
ATOM     28  C   UNL d   1       5.659  -7.385   0.738  0.00  0.00     0.417 C 
ATOM     29  F   UNL d   1       5.532  -8.734   0.854  0.00  0.00    -0.166 F 
ATOM     30  F   UNL d   1       6.647  -7.181  -0.177  0.00  0.00    -0.166 F 
ATOM     31  F   UNL d   1       6.156  -6.954   1.931  0.00  0.00    -0.166 F 
ENDBRANCH  22  28
ENDBRANCH   1  18
TORSDOF 5
