REMARK  3 active torsions:
REMARK  status: ('A' for Active; 'I' for Inactive)
REMARK    1  A    between atoms: C_9  and  C_3 
REMARK    2  A    between atoms: C_10  and  C_4 
REMARK    3  A    between atoms: C_8  and  C_6 
ROOT
ATOM      1  N   UNL d   1      -1.081  -1.084   0.125  0.00  0.00    -0.354 N 
ATOM      2  HN  UNL d   1      -1.632  -1.940   0.178  1.00  0.00     0.166 HD
ATOM      3  C   UNL d   1       0.280  -1.146   0.082  0.00  0.00     0.049 A 
ATOM      4  C   UNL d   1       0.444   1.277  -0.003  0.00  0.00    -0.016 A 
ATOM      5  C   UNL d   1       1.079   0.009  -0.061  0.00  0.00    -0.023 A 
ATOM      6  C   UNL d   1      -1.694   0.118   0.097  0.00  0.00     0.043 A 
ATOM      7  C   UNL d   1      -0.960   1.296   0.076  0.00  0.00     0.043 A 
ATOM      8  C   UNL d   1       2.561  -0.104  -0.315  0.00  0.00     0.051 C 
ENDROOT
BRANCH   6   9
ATOM      9  C   UNL d   1      -3.173   0.093   0.037  0.00  0.00    -0.009 A 
ATOM     10  C   UNL d   1      -3.962   1.119   0.586  0.00  0.00     0.015 A 
ATOM     11  C   UNL d   1      -5.360   1.110   0.473  0.00  0.00     0.020 A 
ATOM     12  C   UNL d   1      -5.992   0.061  -0.188  0.00  0.00     0.011 A 
ATOM     13  C   UNL d   1      -5.245  -0.976  -0.730  0.00  0.00     0.020 A 
ATOM     14 BR   UNL d   1      -7.875   0.055  -0.351  0.00  0.00    -0.051 Br
ATOM     15  C   UNL d   1      -3.848  -0.960  -0.614  0.00  0.00     0.015 A 
ENDBRANCH   6   9
BRANCH   3  16
ATOM     16  C   UNL d   1       0.794  -2.539   0.187  0.00  0.00    -0.009 A 
ATOM     17  C   UNL d   1       0.134  -3.595  -0.469  0.00  0.00     0.014 A 
ATOM     18  C   UNL d   1       0.593  -4.914  -0.383  0.00  0.00     0.001 A 
ATOM     19  C   UNL d   1       1.730  -5.208   0.362  0.00  0.00     0.000 A 
ATOM     20  C   UNL d   1       2.389  -4.190   1.043  0.00  0.00     0.001 A 
ATOM     21  C   UNL d   1       1.913  -2.876   0.971  0.00  0.00     0.014 A 
ENDBRANCH   3  16
BRANCH   4  22
ATOM     22  C   UNL d   1       1.164   2.581  -0.044  0.00  0.00    -0.025 A 
ATOM     23  C   UNL d   1       2.310   2.827   0.733  0.00  0.00     0.012 A 
ATOM     24  C   UNL d   1       2.983   4.053   0.678  0.00  0.00     0.001 A 
ATOM     25  C   UNL d   1       2.496   5.083  -0.119  0.00  0.00     0.000 A 
ATOM     26  C   UNL d   1       1.342   4.884  -0.868  0.00  0.00     0.001 A 
ATOM     27  C   UNL d   1       0.694   3.644  -0.840  0.00  0.00     0.012 A 
ENDBRANCH   4  22
TORSDOF 3
