REMARK  3 active torsions:
REMARK  status: ('A' for Active; 'I' for Inactive)
REMARK    1  A    between atoms: C_3  and  C_1 
REMARK    2  A    between atoms: O_9  and  C_2 
REMARK    3  A    between atoms: O_8  and  C_3 
ROOT
ATOM      1  C   UNL d   1       0.165   1.350   0.051  0.00  0.00     0.113 A 
ATOM      2  C   UNL d   1       1.438   0.782   0.007  0.00  0.00     0.091 A 
ATOM      3  S   UNL d   1      -1.045   0.097  -0.005  0.00  0.00    -0.093 SA
ATOM      4  C   UNL d   1       1.382  -0.649  -0.041  0.00  0.00     0.045 A 
ATOM      5  C   UNL d   1       0.106  -1.148  -0.048  0.00  0.00     0.053 A 
ENDROOT
BRANCH   1   6
ATOM      6  C   UNL d   1      -0.318   2.725   0.086  0.00  0.00     0.302 C 
ATOM      7  O   UNL d   1       0.247   3.713  -0.367  0.00  0.00    -0.259 OA
BRANCH   6   8
ATOM      8  O   UNL d   1      -1.536   2.795   0.710  0.00  0.00    -0.322 OA
ATOM      9  C   UNL d   1      -2.132   4.092   0.735  0.00  0.00     0.213 C 
ENDBRANCH   6   8
ENDBRANCH   1   6
BRANCH   2  10
ATOM     10  O   UNL d   1       2.680   1.334   0.041  0.00  0.00    -0.354 OA
ATOM     11  C   UNL d   1       2.811   2.739   0.045  0.00  0.00     0.210 C 
ENDBRANCH   2  10
TORSDOF 3
