REMARK  3 active torsions:
REMARK  status: ('A' for Active; 'I' for Inactive)
REMARK    1  A    between atoms: C_2  and  C_1 
REMARK    2  A    between atoms: C_15  and  N_3 
REMARK    3  A    between atoms: C_18  and  C_10 
ROOT
ATOM      1  C   UNL d   1      -0.326  -2.808  -0.060  0.00  0.00     0.039 A 
ATOM      2  C   UNL d   1       0.055  -3.571   1.083  0.00  0.00     0.002 A 
ATOM      3  C   UNL d   1      -0.286  -4.986   1.085  0.00  0.00     0.004 A 
ATOM      4  C   UNL d   1      -0.943  -3.490  -1.113  0.00  0.00     0.104 A 
ATOM      5  N   UNL d   1      -1.233  -4.801  -1.132  0.00  0.00    -0.364 N 
ATOM      6  HN  UNL d   1      -1.694  -5.224  -1.938  1.00  0.00     0.165 HD
ATOM      7  C   UNL d   1      -0.904  -5.527  -0.076  0.00  0.00     0.043 A 
ATOM      8  C   UNL d   1      -0.064  -5.915   2.146  0.00  0.00     0.038 A 
ATOM      9  C   UNL d   1      -1.187  -6.883  -0.164  0.00  0.00     0.032 A 
ATOM     10  C   UNL d   1      -0.301  -7.280   2.014  0.00  0.00     0.035 A 
ATOM     11  C   UNL d   1      -0.866  -7.779   0.855  0.00  0.00     0.026 A 
ATOM     12 CL   UNL d   1       0.146  -8.359   3.277  0.00  0.00    -0.084 Cl
ENDROOT
BRANCH   1  13
ATOM     13  C   UNL d   1      -0.068  -1.374  -0.265  0.00  0.00     0.157 A 
ATOM     14  N   UNL d   1      -0.931  -0.427  -0.832  0.00  0.00    -0.222 N 
ATOM     15  N   UNL d   1      -0.223   0.706  -1.052  0.00  0.00    -0.219 N 
ATOM     16  N   UNL d   1       0.968   0.507  -0.520  0.00  0.00    -0.226 N 
ATOM     17  HN  UNL d   1      -0.547   1.546  -1.533  1.00  0.00     0.210 HD
ATOM     18  N   UNL d   1       1.090  -0.772  -0.060  0.00  0.00    -0.268 N 
ATOM     19  HN  UNL d   1       1.699   1.216  -0.460  1.00  0.00     0.210 HD
ATOM     20  HN  UNL d   1       1.921  -1.186   0.362  1.00  0.00     0.190 HD
BRANCH  14  21
ATOM     21  C   UNL d   1      -2.311  -0.478  -1.164  0.00  0.00     0.060 A 
ATOM     22  C   UNL d   1      -3.202  -1.303  -0.464  0.00  0.00     0.033 A 
ATOM     23  C   UNL d   1      -4.558  -1.318  -0.811  0.00  0.00     0.026 A 
ATOM     24  C   UNL d   1      -5.023  -0.516  -1.852  0.00  0.00     0.034 A 
ATOM     25  C   UNL d   1      -4.144   0.301  -2.557  0.00  0.00     0.026 A 
ATOM     26 CL   UNL d   1      -6.696  -0.523  -2.253  0.00  0.00    -0.084 Cl
ATOM     27  C   UNL d   1      -2.791   0.334  -2.205  0.00  0.00     0.033 A 
ENDBRANCH  14  21
ENDBRANCH   1  13
BRANCH   2  28
ATOM     28  C   UNL d   1       0.798  -2.951   2.253  0.00  0.00    -0.024 A 
ATOM     29  C   UNL d   1       0.505  -1.668   2.752  0.00  0.00     0.012 A 
ATOM     30  C   UNL d   1       1.190  -1.114   3.843  0.00  0.00     0.001 A 
ATOM     31  C   UNL d   1       2.126  -1.867   4.537  0.00  0.00     0.000 A 
ATOM     32  C   UNL d   1       2.442  -3.139   4.083  0.00  0.00     0.001 A 
ATOM     33  C   UNL d   1       1.839  -3.636   2.920  0.00  0.00     0.012 A 
ENDBRANCH   2  28
TORSDOF 3
