REMARK  8 active torsions:
REMARK  status: ('A' for Active; 'I' for Inactive)
REMARK    1  A    between atoms: C_16  and  C_2 
REMARK    2  A    between atoms: S_14  and  C_7 
REMARK       I    between atoms: N_10  and  C_12 
REMARK    3  A    between atoms: C_11  and  N_10 
REMARK    4  A    between atoms: C_12  and  C_20 
REMARK    5  A    between atoms: C_20  and  S_14 
REMARK    6  A    between atoms: C_26  and  C_21 
REMARK    7  A    between atoms: C_27  and  C_26 
REMARK    8  A    between atoms: C_28  and  C_27 
ROOT
ATOM      1  C   UNL d   1      -6.076   0.188   5.023  0.00  0.00     0.135 A 
ATOM      2  C   UNL d   1      -5.959  -1.037   4.469  0.00  0.00     0.042 A 
ATOM      3  N   UNL d   1      -4.692   0.995   3.243  0.00  0.00    -0.302 N 
ATOM      4  C   UNL d   1      -5.344   1.303   4.395  0.00  0.00     0.270 A 
ATOM      5  N   UNL d   1      -5.250  -1.277   3.297  0.00  0.00    -0.338 N 
ATOM      6  HN  UNL d   1      -5.166  -2.216   2.907  1.00  0.00     0.168 HD
ATOM      7  C   UNL d   1      -4.706  -0.259   2.727  0.00  0.00     0.147 A 
ATOM      8  C   UNL d   1      -6.860   0.469   6.176  0.00  0.00     0.107 C 
ATOM      9  N   UNL d   1      -7.528   0.642   7.110  0.00  0.00    -0.191 NA
ATOM     10  O   UNL d   1      -5.320   2.436   4.860  0.00  0.00    -0.266 OA
ATOM     11  H   UNL d   1      -4.194   1.732   2.768  0.00  0.00     0.171 HD
ENDROOT
BRANCH   2  12
ATOM     12  C   UNL d   1      -6.682  -2.234   5.091  0.00  0.00     0.037 C 
ATOM     13  C   UNL d   1      -7.017  -3.442   4.202  0.00  0.00     0.011 C 
ATOM     14  C   UNL d   1      -7.966  -4.380   4.962  0.00  0.00     0.001 C 
ATOM     15  C   UNL d   1      -7.428  -4.800   6.333  0.00  0.00     0.000 C 
ATOM     16  C   UNL d   1      -6.870  -3.639   7.153  0.00  0.00     0.001 C 
ATOM     17  C   UNL d   1      -5.931  -2.760   6.331  0.00  0.00     0.011 C 
ENDBRANCH   2  12
BRANCH   7  18
ATOM     18  S   UNL d   1      -3.900  -0.315   1.191  0.00  0.00    -0.085 SA
BRANCH  18  19
ATOM     19  C   UNL d   1      -4.867  -1.599   0.355  0.00  0.00     0.185 C 
BRANCH  19  20
ATOM     20  C   UNL d   1      -6.354  -1.280   0.336  0.00  0.00     0.231 C 
ATOM     21  N   UNL d   1      -6.717  -0.294  -0.569  0.00  0.00    -0.326 N 
ATOM     22  H   UNL d   1      -6.064  -0.082  -1.312  0.00  0.00     0.169 HD
ATOM     23  O   UNL d   1      -7.152  -1.911   1.023  0.00  0.00    -0.272 OA
BRANCH  21  24
ATOM     24  C   UNL d   1      -8.046   0.161  -0.731  0.00  0.00     0.040 A 
ATOM     25  C   UNL d   1      -8.551   0.432  -2.013  0.00  0.00    -0.035 A 
ATOM     26  C   UNL d   1      -9.841   0.985  -2.135  0.00  0.00     0.016 A 
ATOM     27  C   UNL d   1      -7.832   0.081  -3.285  0.00  0.00     0.050 C 
ATOM     28  C   UNL d   1     -10.628   1.271  -1.011  0.00  0.00    -0.058 A 
ATOM     29  C   UNL d   1     -10.130   0.948   0.253  0.00  0.00     0.009 A 
ATOM     30  C   UNL d   1      -8.853   0.395   0.391  0.00  0.00     0.030 A 
BRANCH  28  31
ATOM     31  C   UNL d   1     -11.980   1.924  -1.176  0.00  0.00     0.038 C 
BRANCH  31  32
ATOM     32  C   UNL d   1     -12.078   3.320  -0.546  0.00  0.00     0.004 C 
BRANCH  32  33
ATOM     33  C   UNL d   1     -11.080   4.323  -1.133  0.00  0.00    -0.004 C 
ATOM     34  C   UNL d   1     -11.223   5.692  -0.486  0.00  0.00     0.005 C 
ENDBRANCH  32  33
ENDBRANCH  31  32
ENDBRANCH  28  31
ENDBRANCH  21  24
ENDBRANCH  19  20
ENDBRANCH  18  19
ENDBRANCH   7  18
TORSDOF 8
