REMARK  2 active torsions:
REMARK  status: ('A' for Active; 'I' for Inactive)
REMARK    1  A    between atoms: N_7  and  C_1 
REMARK       I    between atoms: C_8  and  N_7 
REMARK    2  A    between atoms: C_10  and  C_8 
ROOT
ATOM      1  C   UNL d   1       2.313   0.626   0.080  0.00  0.00     0.688 A 
ATOM      2  N   UNL d   1       2.347  -0.711   0.288  0.00  0.00    -0.155 N 
ATOM      3  C   UNL d   1       1.218  -1.484   0.375  0.00  0.00     0.272 A 
ATOM      4  C   UNL d   1      -0.057  -0.760   0.211  0.00  0.00     0.060 A 
ATOM      5  N   UNL d   1       1.230   1.316  -0.041  0.00  0.00    -0.191 N 
ATOM      6  HN  UNL d   1       1.259   2.326  -0.178  1.00  0.00     0.184 HD
ATOM      7  C   UNL d   1       0.011   0.623   0.023  0.00  0.00     0.065 A 
ATOM      8  C   UNL d   1      -1.285  -1.431   0.230  0.00  0.00     0.026 A 
ATOM      9  O   UNL d   1       1.253  -2.693   0.571  0.00  0.00    -0.267 OA
ATOM     10  C   UNL d   1      -1.177   1.338  -0.130  0.00  0.00     0.031 A 
ATOM     11  C   UNL d   1      -2.473  -0.710   0.061  0.00  0.00    -0.061 A 
ATOM     12  C   UNL d   1      -2.410   0.680  -0.112  0.00  0.00     0.009 A 
ATOM     13  C   UNL d   1      -3.803  -1.403   0.045  0.00  0.00     0.048 C 
ATOM     14  H   UNL d   1       3.247  -1.171   0.392  0.00  0.00     0.187 HD
ENDROOT
BRANCH   1  15
ATOM     15  N   UNL d   1       3.481   1.309  -0.024  0.00  0.00    -0.155 N 
ATOM     16  C   UNL d   1       4.770   0.807  -0.027  0.00  0.00     0.271 C 
ATOM     17  O   UNL d   1       5.051  -0.356   0.245  0.00  0.00    -0.267 OA
ATOM     18  H   UNL d   1       3.334   2.288  -0.235  0.00  0.00     0.187 HD
BRANCH  16  19
ATOM     19  C   UNL d   1       5.848   1.804  -0.278  0.00  0.00     0.054 A 
ATOM     20  C   UNL d   1       5.756   2.844  -1.214  0.00  0.00     0.049 A 
ATOM     21 CL   UNL d   1       4.424   3.029  -2.300  0.00  0.00    -0.083 Cl
ATOM     22  C   UNL d   1       6.790   3.780  -1.322  0.00  0.00     0.025 A 
ATOM     23  C   UNL d   1       7.923   3.675  -0.515  0.00  0.00     0.002 A 
ATOM     24  C   UNL d   1       8.038   2.622   0.388  0.00  0.00     0.001 A 
ATOM     25  C   UNL d   1       7.008   1.686   0.504  0.00  0.00     0.019 A 
ENDBRANCH  16  19
ENDBRANCH   1  15
TORSDOF 2
