REMARK  3 active torsions:
REMARK  status: ('A' for Active; 'I' for Inactive)
REMARK    1  A    between atoms: C_11  and  N_1 
REMARK    2  A    between atoms: C_2  and  C_11 
REMARK    3  A    between atoms: S_14  and  C_4 
ROOT
ATOM      1  N   UNL d   1       0.093  -1.631  -0.206  0.00  0.00    -0.338 N 
ATOM      2  C   UNL d   1      -1.074  -0.885  -0.131  0.00  0.00     0.046 A 
ATOM      3  C   UNL d   1       1.197  -0.795  -0.255  0.00  0.00     0.046 A 
ATOM      4  C   UNL d   1      -0.696   0.457  -0.057  0.00  0.00     0.003 A 
ATOM      5  C   UNL d   1       0.729   0.512  -0.107  0.00  0.00     0.003 A 
ATOM      6  C   UNL d   1      -2.426  -1.269  -0.100  0.00  0.00     0.030 A 
ATOM      7  C   UNL d   1       2.568  -1.078  -0.392  0.00  0.00     0.030 A 
ATOM      8  C   UNL d   1       1.665   1.569  -0.042  0.00  0.00     0.014 A 
ATOM      9  C   UNL d   1      -1.699   1.445   0.054  0.00  0.00     0.014 A 
ATOM     10  C   UNL d   1       3.473  -0.012  -0.334  0.00  0.00     0.002 A 
ATOM     11  C   UNL d   1      -3.401  -0.271   0.004  0.00  0.00     0.002 A 
ATOM     12  C   UNL d   1       3.031   1.293  -0.148  0.00  0.00     0.001 A 
ATOM     13  C   UNL d   1      -3.044   1.070   0.081  0.00  0.00     0.001 A 
ENDROOT
BRANCH   1  14
ATOM     14  C   UNL d   1       0.167  -3.078  -0.016  0.00  0.00     0.207 C 
BRANCH  14  15
ATOM     15  C   UNL d   1       0.001  -3.844  -1.281  0.00  0.00     0.118 A 
ATOM     16  N   UNL d   1      -0.982  -4.776  -1.548  0.00  0.00    -0.318 N 
ATOM     17  C   UNL d   1      -0.651  -5.323  -2.761  0.00  0.00     0.159 A 
ATOM     18  C   UNL d   1      -2.112  -5.136  -0.732  0.00  0.00     0.160 C 
ATOM     19  N   UNL d   1       0.434  -4.753  -3.221  0.00  0.00    -0.278 N 
ATOM     20  N   UNL d   1       0.850  -3.834  -2.291  0.00  0.00    -0.285 N 
ATOM     21  HN  UNL d   1       0.889  -4.955  -4.111  1.00  0.00     0.189 HD
ATOM     22  HN  UNL d   1       1.677  -3.242  -2.368  1.00  0.00     0.188 HD
BRANCH  17  23
ATOM     23  S   UNL d   1      -1.516  -6.591  -3.560  0.00  0.00    -0.105 SA
ATOM     24  H   UNL d   1      -2.271  -7.041  -2.552  0.00  0.00     0.110 HD
ENDBRANCH  17  23
ENDBRANCH  14  15
ENDBRANCH   1  14
TORSDOF 3
