REMARK  3 active torsions:
REMARK  status: ('A' for Active; 'I' for Inactive)
REMARK    1  A    between atoms: N_2  and  C_1 
REMARK    2  A    between atoms: C_15  and  C_5 
REMARK    3  A    between atoms: C_14  and  C_8 
ROOT
ATOM      1  C   UNL d   1       0.325   1.239   0.118  0.00  0.00     0.700 A 
ATOM      2  N   UNL d   1       1.296   0.338  -0.102  0.00  0.00    -0.187 N 
ATOM      3  HN  UNL d   1       2.251   0.638  -0.298  1.00  0.00     0.184 HD
ATOM      4  C   UNL d   1       0.977  -0.989  -0.058  0.00  0.00     0.088 A 
ATOM      5  N   UNL d   1      -1.282  -0.489   0.374  0.00  0.00    -0.283 N 
ATOM      6  HN  UNL d   1      -2.247  -0.771   0.547  1.00  0.00     0.187 HD
ATOM      7  C   UNL d   1      -0.334  -1.422   0.150  0.00  0.00     0.087 A 
ATOM      8  N   UNL d   1      -0.943   0.840   0.370  0.00  0.00    -0.131 N 
ATOM      9  HN  UNL d   1      -1.659   1.540   0.560  1.00  0.00     0.205 HD
ENDROOT
BRANCH   1  10
ATOM     10  N   UNL d   1       0.600   2.600   0.088  0.00  0.00    -0.181 N 
ATOM     11  C   UNL d   1       1.763   3.345  -0.167  0.00  0.00     0.058 A 
ATOM     12  C   UNL d   1       1.560   4.714   0.043  0.00  0.00    -0.029 A 
ATOM     13  C   UNL d   1       2.999   2.902  -0.604  0.00  0.00     0.031 A 
ATOM     14  C   UNL d   1       2.557   5.653  -0.172  0.00  0.00     0.009 A 
ATOM     15  C   UNL d   1       0.147   4.961   0.454  0.00  0.00     0.061 C 
ATOM     16  C   UNL d   1       3.801   5.200  -0.609  0.00  0.00     0.001 A 
ATOM     17  C   UNL d   1       4.020   3.833  -0.825  0.00  0.00     0.002 A 
ATOM     18  C   UNL d   1      -0.382   3.529   0.658  0.00  0.00     0.152 C 
ENDBRANCH   1  10
BRANCH   4  19
ATOM     19  C   UNL d   1       2.148  -1.881  -0.237  0.00  0.00    -0.006 A 
ATOM     20  C   UNL d   1       2.362  -3.017   0.567  0.00  0.00     0.014 A 
ATOM     21  C   UNL d   1       3.418  -3.899   0.315  0.00  0.00     0.001 A 
ATOM     22  C   UNL d   1       4.314  -3.636  -0.717  0.00  0.00     0.000 A 
ATOM     23  C   UNL d   1       4.164  -2.486  -1.485  0.00  0.00     0.001 A 
ATOM     24  C   UNL d   1       3.094  -1.618  -1.246  0.00  0.00     0.014 A 
ENDBRANCH   4  19
BRANCH   7  25
ATOM     25  C   UNL d   1      -0.828  -2.813   0.174  0.00  0.00    -0.006 A 
ATOM     26  C   UNL d   1      -0.417  -3.783  -0.759  0.00  0.00     0.014 A 
ATOM     27  C   UNL d   1      -0.835  -5.114  -0.655  0.00  0.00     0.001 A 
ATOM     28  C   UNL d   1      -1.710  -5.495   0.358  0.00  0.00     0.000 A 
ATOM     29  C   UNL d   1      -2.179  -4.544   1.258  0.00  0.00     0.001 A 
ATOM     30  C   UNL d   1      -1.744  -3.219   1.165  0.00  0.00     0.014 A 
ENDBRANCH   7  25
TORSDOF 3
