REMARK  5 active torsions:
REMARK  status: ('A' for Active; 'I' for Inactive)
REMARK    1  A    between atoms: S_14  and  C_4 
REMARK       I    between atoms: C_7  and  N_11 
REMARK    2  A    between atoms: C_17  and  C_7 
REMARK    3  A    between atoms: C_10  and  C_20 
REMARK       I    between atoms: N_15  and  C_10 
REMARK    4  A    between atoms: N_11  and  N_15 
REMARK    5  A    between atoms: C_20  and  S_14 
ROOT
ATOM      1  C   UNL d   1       0.511  -5.458  -0.061  0.00  0.00     0.245 C 
ATOM      2  N   UNL d   1       1.780  -5.998  -0.029  0.00  0.00    -0.267 N 
ATOM      3  O   UNL d   1      -0.487  -6.186   0.028  0.00  0.00    -0.271 OA
ATOM      4  H   UNL d   1       2.605  -5.481  -0.335  0.00  0.00     0.190 HD
ENDROOT
BRANCH   1   5
ATOM      5  C   UNL d   1       0.373  -3.944  -0.049  0.00  0.00     0.185 C 
BRANCH   5   6
ATOM      6  S   UNL d   1       1.681  -3.042  -0.936  0.00  0.00    -0.102 SA
BRANCH   6   7
ATOM      7  C   UNL d   1       1.104  -1.363  -0.725  0.00  0.00     0.090 A 
ATOM      8  C   UNL d   1       1.796  -0.263  -1.248  0.00  0.00     0.065 A 
ATOM      9  S   UNL d   1       3.243  -0.168  -2.175  0.00  0.00    -0.096 SA
ATOM     10  C   UNL d   1       1.286   1.018  -1.016  0.00  0.00     0.059 A 
ATOM     11  C   UNL d   1       3.186   1.535  -2.245  0.00  0.00     0.059 A 
ATOM     12  C   UNL d   1       2.098   2.063  -1.580  0.00  0.00    -0.027 A 
ATOM     13  C   UNL d   1       1.818   3.526  -1.466  0.00  0.00     0.051 C 
ATOM     14  N   UNL d   1       0.142   1.229  -0.318  0.00  0.00    -0.351 N 
ATOM     15  C   UNL d   1      -0.450   0.120   0.126  0.00  0.00     0.181 A 
ATOM     16  HN  UNL d   1      -0.235   2.162  -0.147  1.00  0.00     0.166 HD
ATOM     17  N   UNL d   1      -0.035  -1.143  -0.031  0.00  0.00    -0.346 N 
ATOM     18  HN  UNL d   1      -0.566  -1.920   0.363  1.00  0.00     0.167 HD
ENDBRANCH   6   7
ENDBRANCH   5   6
ENDBRANCH   1   5
BRANCH   2  19
ATOM     19  N   UNL d   1       1.881  -7.407   0.000  0.00  0.00    -0.263 N 
ATOM     20  C   UNL d   1       3.010  -8.015  -0.515  0.00  0.00     0.270 C 
ATOM     21  O   UNL d   1       3.959  -7.359  -0.946  0.00  0.00    -0.266 OA
ATOM     22  H   UNL d   1       1.012  -7.897   0.194  0.00  0.00     0.190 HD
BRANCH  20  23
ATOM     23  C   UNL d   1       3.044  -9.517  -0.548  0.00  0.00     0.033 A 
ATOM     24  C   UNL d   1       2.078 -10.325   0.066  0.00  0.00     0.017 A 
ATOM     25  C   UNL d   1       2.179 -11.723   0.005  0.00  0.00     0.007 A 
ATOM     26  C   UNL d   1       3.244 -12.338  -0.663  0.00  0.00    -0.062 A 
ATOM     27  C   UNL d   1       4.216 -11.534  -1.266  0.00  0.00     0.007 A 
ATOM     28  C   UNL d   1       3.335 -13.837  -0.718  0.00  0.00     0.048 C 
ATOM     29  C   UNL d   1       4.115 -10.137  -1.208  0.00  0.00     0.017 A 
ENDBRANCH  20  23
ENDBRANCH   2  19
TORSDOF 5
