REMARK  3 active torsions:
REMARK  status: ('A' for Active; 'I' for Inactive)
REMARK    1  A    between atoms: C_2  and  C_1 
REMARK       I    between atoms: N_3  and  C_1 
REMARK    2  A    between atoms: C_4  and  N_3 
REMARK    3  A    between atoms: N_10  and  C_6 
ROOT
ATOM      1  C   UNL d   1       0.937   0.044   0.202  0.00  0.00     0.258 C 
ATOM      2  N   UNL d   1       0.241   1.229   0.033  0.00  0.00    -0.322 N 
ATOM      3  O   UNL d   1       2.098  -0.170  -0.133  0.00  0.00    -0.267 OA
ATOM      4  H   UNL d   1      -0.452   1.417   0.750  0.00  0.00     0.169 HD
ENDROOT
BRANCH   1   5
ATOM      5  C   UNL d   1       0.180  -1.020   0.922  0.00  0.00     0.053 A 
ATOM      6  C   UNL d   1       0.817  -1.834   1.880  0.00  0.00     0.021 A 
ATOM      7  C   UNL d   1       0.052  -2.814   2.528  0.00  0.00     0.024 A 
ATOM      8  C   UNL d   1      -1.277  -3.049   2.167  0.00  0.00     0.002 A 
ATOM      9  C   UNL d   1      -1.880  -2.273   1.180  0.00  0.00     0.001 A 
ATOM     10  C   UNL d   1      -1.158  -1.256   0.561  0.00  0.00     0.019 A 
BRANCH   6  11
ATOM     11  N   UNL d   1       2.103  -1.543   2.377  0.00  0.00    -0.302 NA
ATOM     12  H   UNL d   1       2.670  -1.054   1.674  0.00  0.00     0.124 HD
ATOM     13  H   UNL d   1       2.590  -2.355   2.741  0.00  0.00     0.124 HD
ENDBRANCH   6  11
ENDBRANCH   1   5
BRANCH   2  14
ATOM     14  C   UNL d   1       0.716   2.345  -0.688  0.00  0.00     0.041 A 
ATOM     15  C   UNL d   1       1.300   2.272  -1.967  0.00  0.00    -0.035 A 
ATOM     16  C   UNL d   1       1.740   3.463  -2.578  0.00  0.00     0.015 A 
ATOM     17  C   UNL d   1       1.442   1.001  -2.755  0.00  0.00     0.050 C 
ATOM     18  C   UNL d   1       1.571   4.712  -1.967  0.00  0.00    -0.061 A 
ATOM     19  C   UNL d   1       0.951   4.769  -0.720  0.00  0.00     0.009 A 
ATOM     20  C   UNL d   1       2.030   5.957  -2.664  0.00  0.00     0.048 C 
ATOM     21  C   UNL d   1       0.515   3.599  -0.095  0.00  0.00     0.030 A 
ENDBRANCH   2  14
TORSDOF 3
