REMARK  1 active torsions:
REMARK  status: ('A' for Active; 'I' for Inactive)
REMARK       I    between atoms: C_8  and  N_1 
REMARK    1  A    between atoms: C_12  and  C_8 
ROOT
ATOM      1  N   UNL d   1      -3.021  -1.069  -0.021  0.00  0.00    -0.230 N 
ATOM      2  N   UNL d   1      -1.730  -1.490  -0.042  0.00  0.00    -0.290 N 
ATOM      3  HN  UNL d   1      -1.392  -2.452  -0.073  1.00  0.00     0.187 HD
ATOM      4  C   UNL d   1      -0.992  -0.369  -0.014  0.00  0.00     0.069 A 
ATOM      5  C   UNL d   1      -1.805   0.787   0.017  0.00  0.00    -0.002 A 
ATOM      6  C   UNL d   1      -3.094   0.306   0.015  0.00  0.00     0.130 A 
ATOM      7  C   UNL d   1       0.465  -0.362  -0.011  0.00  0.00     0.011 A 
ATOM      8  C   UNL d   1      -4.111  -1.966  -0.071  0.00  0.00     0.276 C 
ATOM      9  S   UNL d   1       0.417   2.486  -0.130  0.00  0.00    -0.124 SA
ATOM     10  C   UNL d   1       1.163   0.859  -0.037  0.00  0.00     0.013 A 
ATOM     11  C   UNL d   1      -1.366   2.195   0.062  0.00  0.00     0.121 C 
ATOM     12  C   UNL d   1       1.181  -1.571   0.017  0.00  0.00     0.039 A 
ATOM     13  O   UNL d   1      -5.235  -1.461  -0.107  0.00  0.00    -0.265 OA
ATOM     14  C   UNL d   1       2.569   0.842  -0.027  0.00  0.00     0.021 A 
ATOM     15  C   UNL d   1       2.575  -1.565   0.022  0.00  0.00     0.035 A 
ATOM     16  C   UNL d   1       3.273  -0.363   0.004  0.00  0.00     0.025 A 
ATOM     17 CL   UNL d   1       3.440  -3.051   0.050  0.00  0.00    -0.084 Cl
ENDROOT
BRANCH   8  18
ATOM     18  C   UNL d   1      -4.021  -3.453  -0.116  0.00  0.00     0.034 A 
ATOM     19  C   UNL d   1      -2.984  -4.173   0.490  0.00  0.00     0.019 A 
ATOM     20  C   UNL d   1      -2.956  -5.569   0.405  0.00  0.00     0.025 A 
ATOM     21  C   UNL d   1      -3.968  -6.249  -0.272  0.00  0.00     0.034 A 
ATOM     22  C   UNL d   1      -5.020  -5.546  -0.854  0.00  0.00     0.025 A 
ATOM     23 CL   UNL d   1      -3.919  -7.964  -0.387  0.00  0.00    -0.084 Cl
ATOM     24  C   UNL d   1      -5.050  -4.152  -0.770  0.00  0.00     0.019 A 
ENDBRANCH   8  18
TORSDOF 1
