REMARK  7 active torsions:
REMARK  status: ('A' for Active; 'I' for Inactive)
REMARK    1  A    between atoms: C_2  and  C_1 
REMARK    2  A    between atoms: O_11  and  C_2 
REMARK    3  A    between atoms: C_3  and  C_4 
REMARK    4  A    between atoms: O_12  and  C_3 
REMARK    5  A    between atoms: S_5  and  C_6 
REMARK    6  A    between atoms: C_9  and  S_5 
REMARK    7  A    between atoms: C_7  and  C_9 
ROOT
ATOM      1  S   UNL d   1       1.419  -2.537  -1.270  0.00  0.00    -0.124 SA
ENDROOT
BRANCH   1   2
ATOM      2  C   UNL d   1       1.188  -0.781  -0.991  0.00  0.00     0.017 A 
ATOM      3  C   UNL d   1       1.838   0.255  -1.691  0.00  0.00     0.054 A 
ATOM      4  C   UNL d   1       1.408   1.585  -1.500  0.00  0.00     0.020 A 
ATOM      5  C   UNL d   1       0.357   1.889  -0.634  0.00  0.00     0.001 A 
ATOM      6  C   UNL d   1      -0.264   0.870   0.076  0.00  0.00     0.001 A 
ATOM      7  C   UNL d   1       0.146  -0.452  -0.103  0.00  0.00     0.019 A 
BRANCH   3   8
ATOM      8  C   UNL d   1       2.974   0.095  -2.648  0.00  0.00     0.177 C 
ATOM      9  O   UNL d   1       3.726   1.015  -2.925  0.00  0.00    -0.646 OA
BRANCH   8  10
ATOM     10  O   UNL d   1       3.095  -1.118  -3.225  0.00  0.00    -0.773 OA
ATOM     11  H   UNL d   1       2.411  -1.757  -2.944  0.00  0.00     0.167 HD
ENDBRANCH   8  10
ENDBRANCH   3   8
ENDBRANCH   1   2
BRANCH   1  12
ATOM     12  C   UNL d   1       2.912  -2.904  -0.250  0.00  0.00     0.119 C 
BRANCH  12  13
ATOM     13  C   UNL d   1       3.380  -4.350  -0.389  0.00  0.00    -0.032 A 
ATOM     14  C   UNL d   1       3.958  -5.066   0.688  0.00  0.00     0.046 A 
ATOM     15  C   UNL d   1       4.359  -6.407   0.508  0.00  0.00     0.018 A 
ATOM     16  C   UNL d   1       4.211  -7.045  -0.721  0.00  0.00     0.001 A 
ATOM     17  C   UNL d   1       3.690  -6.343  -1.796  0.00  0.00     0.001 A 
ATOM     18  C   UNL d   1       3.299  -5.010  -1.637  0.00  0.00     0.009 A 
BRANCH  14  19
ATOM     19  C   UNL d   1       4.222  -4.424   2.008  0.00  0.00     0.293 C 
ATOM     20  O   UNL d   1       4.403  -3.228   2.167  0.00  0.00    -0.259 OA
BRANCH  19  21
ATOM     21  O   UNL d   1       4.228  -5.365   2.988  0.00  0.00    -0.323 OA
ATOM     22  C   UNL d   1       4.528  -4.876   4.295  0.00  0.00     0.213 C 
ENDBRANCH  19  21
ENDBRANCH  14  19
ENDBRANCH  12  13
ENDBRANCH   1  12
TORSDOF 7
