REMARK  4 active torsions:
REMARK  status: ('A' for Active; 'I' for Inactive)
REMARK    1  A    between atoms: C_8  and  C_1 
REMARK    2  A    between atoms: O_9  and  N_5 
REMARK    3  A    between atoms: C_7  and  O_9 
REMARK    4  A    between atoms: C_11  and  C_7 
ROOT
ATOM      1  N   UNL d   1       2.212  -3.867   0.015  0.00  0.00    -0.261 N 
ATOM      2  HN  UNL d   1       2.206  -4.887   0.042  1.00  0.00     0.194 HD
ATOM      3  C   UNL d   1       1.133  -3.144   0.030  0.00  0.00     0.040 C 
ATOM      4  C   UNL d   1       1.140  -1.625   0.002  0.00  0.00     0.071 C 
ENDROOT
BRANCH   1   5
ATOM      5  O   UNL d   1       3.394  -3.097  -0.044  0.00  0.00    -0.195 OA
BRANCH   5   6
ATOM      6  C   UNL d   1       4.488  -3.917  -0.028  0.00  0.00     0.315 C 
ATOM      7  O   UNL d   1       4.493  -5.139   0.060  0.00  0.00    -0.257 OA
BRANCH   6   8
ATOM      8  C   UNL d   1       5.749  -3.129  -0.148  0.00  0.00     0.041 A 
ATOM      9  C   UNL d   1       6.961  -3.841  -0.197  0.00  0.00     0.019 A 
ATOM     10  C   UNL d   1       8.181  -3.172  -0.323  0.00  0.00     0.025 A 
ATOM     11  C   UNL d   1       8.201  -1.782  -0.398  0.00  0.00     0.034 A 
ATOM     12  C   UNL d   1       7.010  -1.058  -0.346  0.00  0.00     0.025 A 
ATOM     13 CL   UNL d   1       9.701  -0.956  -0.560  0.00  0.00    -0.084 Cl
ATOM     14  C   UNL d   1       5.784  -1.728  -0.220  0.00  0.00     0.019 A 
ENDBRANCH   6   8
ENDBRANCH   5   6
ENDBRANCH   1   5
BRANCH   3  15
ATOM     15  C   UNL d   1      -0.168  -3.850   0.072  0.00  0.00     0.006 A 
ATOM     16  C   UNL d   1      -1.368  -3.159   0.068  0.00  0.00     0.064 A 
ATOM     17  S   UNL d   1      -2.742  -4.155   0.116  0.00  0.00    -0.100 SA
ATOM     18  C   UNL d   1      -1.789  -5.581   0.145  0.00  0.00     0.016 A 
ATOM     19  C   UNL d   1      -0.417  -5.292   0.119  0.00  0.00    -0.006 A 
ATOM     20  C   UNL d   1      -2.283  -6.902   0.189  0.00  0.00     0.019 A 
ATOM     21  C   UNL d   1       0.465  -6.407   0.141  0.00  0.00     0.014 A 
ATOM     22  C   UNL d   1      -0.021  -7.721   0.185  0.00  0.00     0.001 A 
ATOM     23  C   UNL d   1      -1.383  -7.965   0.208  0.00  0.00     0.001 A 
ENDBRANCH   3  15
TORSDOF 4
