REMARK  6 active torsions:
REMARK  status: ('A' for Active; 'I' for Inactive)
REMARK    1  A    between atoms: N_3  and  S_1 
REMARK    2  A    between atoms: C_6  and  S_1 
REMARK    3  A    between atoms: S_2  and  N_5 
REMARK    4  A    between atoms: C_7  and  S_2 
REMARK    5  A    between atoms: C_4  and  N_3 
REMARK    6  A    between atoms: N_5  and  C_18 
ROOT
ATOM      1  C   UNL d   1       0.468  -1.499   0.739  0.00  0.00     0.080 A 
ATOM      2  C   UNL d   1       0.979  -2.623   0.082  0.00  0.00     0.027 A 
ATOM      3  C   UNL d   1      -0.263  -1.638   1.923  0.00  0.00     0.027 A 
ATOM      4  C   UNL d   1      -0.082  -4.039   1.732  0.00  0.00     0.042 A 
ATOM      5  C   UNL d   1      -0.527  -2.912   2.423  0.00  0.00     0.031 A 
ATOM      6  C   UNL d   1       0.679  -3.898   0.570  0.00  0.00     0.031 A 
ENDROOT
BRANCH   1   7
ATOM      7  S   UNL d   1       0.762   0.133   0.093  0.00  0.00     0.263 S 
ATOM      8  O   UNL d   1       0.554   1.077   1.167  0.00  0.00    -0.200 OA
ATOM      9  O   UNL d   1       2.024   0.090  -0.621  0.00  0.00    -0.200 OA
BRANCH   7  10
ATOM     10  N   UNL d   1      -0.428   0.359  -1.090  0.00  0.00    -0.280 N 
ATOM     11  H   UNL d   1      -0.043   0.241  -2.025  0.00  0.00     0.179 HD
BRANCH  10  12
ATOM     12  C   UNL d   1      -1.746  -0.143  -0.860  0.00  0.00     0.054 A 
ATOM     13  C   UNL d   1      -2.635   0.554  -0.020  0.00  0.00    -0.034 A 
ATOM     14  C   UNL d   1      -3.869  -0.030   0.304  0.00  0.00     0.009 A 
ATOM     15  C   UNL d   1      -2.344   1.914   0.551  0.00  0.00     0.050 C 
ATOM     16  C   UNL d   1      -4.233  -1.258  -0.233  0.00  0.00     0.001 A 
ATOM     17  C   UNL d   1      -3.368  -1.930  -1.088  0.00  0.00     0.009 A 
ATOM     18  C   UNL d   1      -2.120  -1.384  -1.420  0.00  0.00    -0.034 A 
ATOM     19  C   UNL d   1      -1.271  -2.177  -2.378  0.00  0.00     0.050 C 
ENDBRANCH  10  12
ENDBRANCH   7  10
ENDBRANCH   1   7
BRANCH   4  20
ATOM     20  N   UNL d   1      -0.368  -5.327   2.239  0.00  0.00    -0.281 N 
ATOM     21  H   UNL d   1       0.012  -5.620   3.136  0.00  0.00     0.179 HD
BRANCH  20  22
ATOM     22  S   UNL d   1      -1.648  -6.236   1.649  0.00  0.00     0.263 S 
ATOM     23  O   UNL d   1      -1.516  -6.324   0.209  0.00  0.00    -0.200 OA
ATOM     24  O   UNL d   1      -1.716  -7.423   2.474  0.00  0.00    -0.200 OA
BRANCH  22  25
ATOM     25  C   UNL d   1      -3.100  -5.276   2.016  0.00  0.00     0.079 A 
ATOM     26  C   UNL d   1      -4.018  -4.996   1.002  0.00  0.00     0.026 A 
ATOM     27  C   UNL d   1      -5.145  -4.223   1.287  0.00  0.00     0.008 A 
ATOM     28  C   UNL d   1      -5.344  -3.693   2.569  0.00  0.00    -0.062 A 
ATOM     29  C   UNL d   1      -4.436  -4.012   3.587  0.00  0.00     0.008 A 
ATOM     30  C   UNL d   1      -6.501  -2.770   2.825  0.00  0.00     0.048 C 
ATOM     31  C   UNL d   1      -3.326  -4.819   3.318  0.00  0.00     0.026 A 
ENDBRANCH  22  25
ENDBRANCH  20  22
ENDBRANCH   4  20
TORSDOF 6
