REMARK  2 active torsions:
REMARK  status: ('A' for Active; 'I' for Inactive)
REMARK       I    between atoms: C_9  and  N_12 
REMARK       I    between atoms: N_13  and  C_9 
REMARK    1  A    between atoms: N_12  and  C_10 
REMARK    2  A    between atoms: C_14  and  N_13 
ROOT
ATOM      1  C   UNL d   1      -1.010   0.677   1.657  0.00  0.00     0.069 A 
ATOM      2  S   UNL d   1       0.825   1.508   2.985  0.00  0.00     0.068 SA
ATOM      3  C   UNL d   1       0.005  -0.422   1.794  0.00  0.00     0.067 A 
ATOM      4  C   UNL d   1      -2.224   0.465   0.956  0.00  0.00     0.062 A 
ATOM      5  N   UNL d   1      -0.640   1.814   2.268  0.00  0.00    -0.310 N 
ATOM      6  HN  UNL d   1      -1.158   2.693   2.288  1.00  0.00     0.176 HD
ATOM      7  N   UNL d   1       1.081  -0.066   2.513  0.00  0.00    -0.310 N 
ATOM      8  HN  UNL d   1       1.893  -0.645   2.727  1.00  0.00     0.176 HD
ATOM      9  C   UNL d   1      -2.450  -0.834   0.461  0.00  0.00     0.038 A 
ATOM     10  C   UNL d   1      -0.218  -1.687   1.207  0.00  0.00     0.035 A 
ATOM     11  C   UNL d   1      -1.459  -1.852   0.558  0.00  0.00     0.032 A 
ENDROOT
BRANCH   9  12
ATOM     12  N   UNL d   1      -3.688  -1.233  -0.102  0.00  0.00    -0.309 N 
ATOM     13  C   UNL d   1      -4.833  -0.493  -0.207  0.00  0.00     0.325 C 
ATOM     14  N   UNL d   1      -5.968  -1.121  -0.623  0.00  0.00    -0.308 N 
ATOM     15  O   UNL d   1      -4.946   0.691   0.107  0.00  0.00    -0.247 OA
ATOM     16  H   UNL d   1      -6.771  -0.518  -0.479  0.00  0.00     0.170 HD
ATOM     17  H   UNL d   1      -3.805  -2.221  -0.238  0.00  0.00     0.170 HD
BRANCH  14  18
ATOM     18  C   UNL d   1      -6.236  -2.355  -1.195  0.00  0.00     0.043 A 
ATOM     19  C   UNL d   1      -5.354  -3.328  -1.755  0.00  0.00     0.037 A 
ATOM     20  C   UNL d   1      -6.019  -4.438  -2.234  0.00  0.00     0.052 A 
ATOM     21  S   UNL d   1      -7.710  -4.307  -2.045  0.00  0.00    -0.111 SA
ATOM     22  C   UNL d   1      -7.551  -2.765  -1.325  0.00  0.00     0.079 A 
ENDBRANCH  14  18
ENDBRANCH   9  12
TORSDOF 2
