REMARK  4 active torsions:
REMARK  status: ('A' for Active; 'I' for Inactive)
REMARK    1  A    between atoms: C_15  and  N_1 
REMARK    2  A    between atoms: C_5  and  S_11 
REMARK    3  A    between atoms: S_11  and  C_8 
REMARK    4  A    between atoms: C_19  and  C_15 
ROOT
ATOM      1  N   UNL d   1       1.442   1.055  -0.073  0.00  0.00    -0.254 N 
ATOM      2  C   UNL d   1       0.288  -0.773  -0.213  0.00  0.00     0.125 A 
ATOM      3  C   UNL d   1       0.154   0.602  -0.117  0.00  0.00     0.153 A 
ATOM      4  N   UNL d   1       2.322   0.026  -0.088  0.00  0.00    -0.018 NA
ATOM      5  N   UNL d   1       1.621  -1.101  -0.187  0.00  0.00    -0.278 N 
ATOM      6  HN  UNL d   1       2.007  -2.044  -0.235  1.00  0.00     0.184 HD
ATOM      7  C   UNL d   1      -0.900  -1.497  -0.284  0.00  0.00     0.109 A 
ATOM      8  N   UNL d   1      -0.988   1.306  -0.068  0.00  0.00    -0.336 N 
ATOM      9  HN  UNL d   1      -1.034   2.321   0.017  1.00  0.00     0.168 HD
ATOM     10  N   UNL d   1      -2.092  -0.841  -0.232  0.00  0.00    -0.345 N 
ATOM     11  HN  UNL d   1      -2.975  -1.350  -0.259  1.00  0.00     0.167 HD
ATOM     12  C   UNL d   1      -2.065   0.504  -0.144  0.00  0.00     0.183 A 
ENDROOT
BRANCH   7  13
ATOM     13  S   UNL d   1      -0.883  -3.256  -0.303  0.00  0.00    -0.045 SA
BRANCH  13  14
ATOM     14  C   UNL d   1      -0.805  -3.514  -2.034  0.00  0.00     0.119 A 
ATOM     15  N   UNL d   1      -0.347  -2.615  -2.874  0.00  0.00    -0.344 N 
ATOM     16  C   UNL d   1      -0.344  -3.133  -4.160  0.00  0.00     0.050 A 
ATOM     17  HN  UNL d   1      -0.038  -1.676  -2.619  1.00  0.00     0.167 HD
ATOM     18  C   UNL d   1       0.101  -2.467  -5.320  0.00  0.00     0.031 A 
ATOM     19  C   UNL d   1      -0.824  -4.439  -4.280  0.00  0.00     0.034 A 
ATOM     20  C   UNL d   1       0.062  -3.121  -6.556  0.00  0.00     0.002 A 
ATOM     21  C   UNL d   1      -0.419  -4.423  -6.651  0.00  0.00     0.002 A 
ATOM     22  C   UNL d   1      -0.874  -5.103  -5.517  0.00  0.00     0.021 A 
ATOM     23  S   UNL d   1      -1.286  -5.008  -2.724  0.00  0.00    -0.063 SA
ENDBRANCH  13  14
ENDBRANCH   7  13
BRANCH   1  24
ATOM     24  C   UNL d   1       1.903   2.423   0.050  0.00  0.00     0.189 C 
BRANCH  24  25
ATOM     25  C   UNL d   1       2.167   3.040  -1.304  0.00  0.00    -0.017 A 
ATOM     26  C   UNL d   1       1.223   3.826  -1.985  0.00  0.00     0.042 A 
ATOM     27 CL   UNL d   1      -0.291   4.269  -1.285  0.00  0.00    -0.084 Cl
ATOM     28  C   UNL d   1       1.493   4.308  -3.270  0.00  0.00     0.024 A 
ATOM     29  C   UNL d   1       2.712   4.032  -3.885  0.00  0.00     0.002 A 
ATOM     30  C   UNL d   1       3.669   3.278  -3.213  0.00  0.00     0.001 A 
ATOM     31  C   UNL d   1       3.398   2.782  -1.937  0.00  0.00     0.010 A 
ENDBRANCH  24  25
ENDBRANCH   1  24
TORSDOF 4
