REMARK  4 active torsions:
REMARK  status: ('A' for Active; 'I' for Inactive)
REMARK    1  A    between atoms: C_2  and  C_1 
REMARK    2  A    between atoms: C_17  and  N_3 
REMARK    3  A    between atoms: C_13  and  C_4 
REMARK    4  A    between atoms: C_14  and  N_5 
ROOT
ATOM      1  C   UNL d   1      -0.243   1.216  -0.015  0.00  0.00     0.057 C 
ATOM      2  C   UNL d   1       1.093   0.836  -0.065  0.00  0.00     0.082 C 
ATOM      3  N   UNL d   1       1.056  -0.569  -0.057  0.00  0.00    -0.255 N 
ATOM      4  N   UNL d   1      -0.211  -1.042  -0.203  0.00  0.00    -0.303 N 
ATOM      5  HN  UNL d   1      -0.501  -2.008  -0.361  1.00  0.00     0.186 HD
ATOM      6  C   UNL d   1      -0.986   0.030  -0.096  0.00  0.00     0.125 C 
ENDROOT
BRANCH   1   7
ATOM      7  C   UNL d   1      -0.811   2.590   0.018  0.00  0.00     0.152 C 
ATOM      8  N   UNL d   1      -2.003   2.994   0.602  0.00  0.00    -0.224 N 
ATOM      9  N   UNL d   1      -2.332   4.200   0.081  0.00  0.00     0.001 NA
ATOM     10  N   UNL d   1      -1.265   4.598  -0.597  0.00  0.00    -0.007 NA
ATOM     11  N   UNL d   1      -0.302   3.623  -0.621  0.00  0.00    -0.269 N 
ATOM     12  HN  UNL d   1       0.623   3.685  -1.047  1.00  0.00     0.185 HD
BRANCH   8  13
ATOM     13  C   UNL d   1      -2.734   2.427   1.673  0.00  0.00     0.056 A 
ATOM     14  C   UNL d   1      -2.109   1.577   2.599  0.00  0.00     0.031 A 
ATOM     15  C   UNL d   1      -2.833   1.051   3.667  0.00  0.00     0.002 A 
ATOM     16  C   UNL d   1      -4.180   1.365   3.818  0.00  0.00     0.000 A 
ATOM     17  C   UNL d   1      -4.805   2.223   2.910  0.00  0.00     0.002 A 
ATOM     18  C   UNL d   1      -4.082   2.766   1.848  0.00  0.00     0.031 A 
ENDBRANCH   8  13
ENDBRANCH   1   7
BRANCH   2  19
ATOM     19  C   UNL d   1       2.313   1.662  -0.101  0.00  0.00    -0.005 A 
ATOM     20  C   UNL d   1       3.379   1.349  -0.958  0.00  0.00     0.037 A 
ATOM     21  C   UNL d   1       4.555   2.101  -0.928  0.00  0.00     0.035 A 
ATOM     22 CL   UNL d   1       5.887   1.636  -1.914  0.00  0.00    -0.084 Cl
ATOM     23  C   UNL d   1       4.670   3.207  -0.092  0.00  0.00     0.024 A 
ATOM     24  C   UNL d   1       3.602   3.559   0.730  0.00  0.00     0.003 A 
ATOM     25  C   UNL d   1       2.440   2.782   0.736  0.00  0.00     0.014 A 
ENDBRANCH   2  19
BRANCH   3  26
ATOM     26  C   UNL d   1       2.100  -1.523   0.126  0.00  0.00     0.058 A 
ATOM     27  C   UNL d   1       3.237  -1.232   0.888  0.00  0.00     0.057 A 
ATOM     28  C   UNL d   1       4.252  -2.187   1.030  0.00  0.00     0.058 A 
ATOM     29 CL   UNL d   1       5.625  -1.754   1.985  0.00  0.00    -0.082 Cl
ATOM     30  C   UNL d   1       4.130  -3.440   0.419  0.00  0.00     0.055 A 
ATOM     31  C   UNL d   1       2.980  -3.745  -0.313  0.00  0.00     0.028 A 
ATOM     32 CL   UNL d   1       5.353  -4.653   0.536  0.00  0.00    -0.083 Cl
ATOM     33  C   UNL d   1       1.961  -2.798  -0.447  0.00  0.00     0.033 A 
ENDBRANCH   3  26
TORSDOF 4
