REMARK  6 active torsions:
REMARK  status: ('A' for Active; 'I' for Inactive)
REMARK    1  A    between atoms: S_9  and  C_1 
REMARK    2  A    between atoms: C_7  and  N_2 
REMARK    3  A    between atoms: C_8  and  C_3 
REMARK    4  A    between atoms: O_17  and  C_8 
REMARK    5  A    between atoms: C_16  and  S_9 
REMARK    6  A    between atoms: C_25  and  O_17 
ROOT
ATOM      1  C   UNL d   1      -0.288  -1.355   0.069  0.00  0.00     0.130 C 
ATOM      2  N   UNL d   1       0.957  -0.742   0.164  0.00  0.00    -0.231 N 
ATOM      3  C   UNL d   1      -1.195  -0.309   0.142  0.00  0.00     0.157 C 
ATOM      4  N   UNL d   1       0.776   0.568   0.483  0.00  0.00    -0.013 NA
ATOM      5  N   UNL d   1      -0.511   0.850   0.403  0.00  0.00    -0.276 N 
ATOM      6  HN  UNL d   1      -0.927   1.775   0.516  1.00  0.00     0.184 HD
ENDROOT
BRANCH   1   7
ATOM      7  S   UNL d   1      -0.538  -3.061  -0.112  0.00  0.00    -0.069 SA
BRANCH   7   8
ATOM      8  C   UNL d   1      -0.778  -3.616   1.574  0.00  0.00     0.007 A 
ATOM      9  C   UNL d   1      -1.595  -4.740   1.763  0.00  0.00     0.019 A 
ATOM     10  C   UNL d   1      -1.730  -5.332   3.024  0.00  0.00     0.008 A 
ATOM     11  C   UNL d   1      -1.044  -4.814   4.126  0.00  0.00    -0.062 A 
ATOM     12  C   UNL d   1      -0.259  -3.670   3.951  0.00  0.00     0.008 A 
ATOM     13  C   UNL d   1      -1.144  -5.496   5.458  0.00  0.00     0.048 C 
ATOM     14  C   UNL d   1      -0.122  -3.079   2.687  0.00  0.00     0.019 A 
ENDBRANCH   7   8
ENDBRANCH   1   7
BRANCH   2  15
ATOM     15  C   UNL d   1       2.286  -1.226   0.011  0.00  0.00     0.059 A 
ATOM     16  C   UNL d   1       2.600  -2.326  -0.793  0.00  0.00     0.055 A 
ATOM     17  C   UNL d   1       3.925  -2.762  -0.884  0.00  0.00     0.037 A 
ATOM     18 CL   UNL d   1       4.310  -4.105  -1.891  0.00  0.00    -0.084 Cl
ATOM     19  C   UNL d   1       4.942  -2.122  -0.181  0.00  0.00     0.048 A 
ATOM     20  C   UNL d   1       4.633  -1.011   0.595  0.00  0.00     0.037 A 
ATOM     21  C   UNL d   1       3.321  -0.547   0.679  0.00  0.00     0.055 A 
ATOM     22 CL   UNL d   1       5.874  -0.210   1.476  0.00  0.00    -0.084 Cl
ENDBRANCH   2  15
BRANCH   3  23
ATOM     23  C   UNL d   1      -2.631  -0.327  -0.059  0.00  0.00     0.314 C 
ATOM     24  O   UNL d   1      -3.285  -1.335  -0.310  0.00  0.00    -0.257 OA
BRANCH  23  25
ATOM     25  O   UNL d   1      -3.152   0.937  -0.045  0.00  0.00    -0.317 OA
BRANCH  25  26
ATOM     26  C   UNL d   1      -4.437   1.093  -0.656  0.00  0.00     0.175 C 
ATOM     27  C   UNL d   1      -4.236   1.303  -2.147  0.00  0.00     0.034 C 
ENDBRANCH  25  26
ENDBRANCH  23  25
ENDBRANCH   3  23
TORSDOF 6
