REMARK  2 active torsions:
REMARK  status: ('A' for Active; 'I' for Inactive)
REMARK    1  A    between atoms: C_6  and  N_1 
REMARK    2  A    between atoms: C_8  and  C_6 
ROOT
ATOM      1  N   UNL d   1      -1.565  -1.117  -0.112  0.00  0.00    -0.293 N 
ATOM      2  C   UNL d   1      -2.450  -0.029   0.031  0.00  0.00     0.328 A 
ATOM      3  N   UNL d   1      -1.657   1.130   0.059  0.00  0.00    -0.306 N 
ATOM      4  C   UNL d   1      -0.252  -0.625  -0.146  0.00  0.00     0.066 A 
ATOM      5  C   UNL d   1      -0.320   0.764  -0.032  0.00  0.00     0.063 A 
ATOM      6  O   UNL d   1      -3.665  -0.057   0.127  0.00  0.00    -0.246 OA
ATOM      7  C   UNL d   1       0.961  -1.275  -0.256  0.00  0.00     0.032 A 
ATOM      8  C   UNL d   1       0.801   1.563  -0.001  0.00  0.00     0.032 A 
ATOM      9  C   UNL d   1       2.116  -0.485  -0.228  0.00  0.00     0.002 A 
ATOM     10  C   UNL d   1       2.037   0.919  -0.097  0.00  0.00     0.002 A 
ATOM     11  H   UNL d   1      -2.030   2.057   0.177  0.00  0.00     0.171 HD
ENDROOT
BRANCH   1  12
ATOM     12  C   UNL d   1      -1.961  -2.498  -0.017  0.00  0.00     0.172 C 
BRANCH  12  13
ATOM     13  C   UNL d   1      -1.954  -2.987   1.415  0.00  0.00    -0.040 A 
ATOM     14  C   UNL d   1      -3.073  -2.784   2.237  0.00  0.00     0.009 A 
ATOM     15  C   UNL d   1      -3.042  -3.155   3.583  0.00  0.00     0.001 A 
ATOM     16  C   UNL d   1      -1.892  -3.727   4.122  0.00  0.00     0.000 A 
ATOM     17  C   UNL d   1      -0.779  -3.944   3.314  0.00  0.00     0.001 A 
ATOM     18  C   UNL d   1      -0.811  -3.581   1.967  0.00  0.00     0.009 A 
ENDBRANCH  12  13
ENDBRANCH   1  12
TORSDOF 2
