REMARK  4 active torsions:
REMARK  status: ('A' for Active; 'I' for Inactive)
REMARK    1  A    between atoms: C_10  and  C_3 
REMARK    2  A    between atoms: C_16  and  N_4 
REMARK    3  A    between atoms: C_5  and  C_11 
REMARK       I    between atoms: N_14  and  C_10 
REMARK       I    between atoms: C_11  and  N_15 
REMARK    4  A    between atoms: N_15  and  N_14 
ROOT
ATOM      1  C   UNL d   1      -0.734  -2.567   0.040  0.00  0.00     0.288 C 
ATOM      2  N   UNL d   1       0.289  -3.499   0.030  0.00  0.00    -0.262 N 
ATOM      3  O   UNL d   1      -1.918  -2.909   0.080  0.00  0.00    -0.264 OA
ATOM      4  H   UNL d   1       1.266  -3.214   0.002  0.00  0.00     0.190 HD
ENDROOT
BRANCH   1   5
ATOM      5  C   UNL d   1      -0.325  -1.147   0.016  0.00  0.00     0.119 A 
ATOM      6  N   UNL d   1       0.945  -0.710   0.020  0.00  0.00    -0.292 N 
ATOM      7  N   UNL d   1       0.860   0.658   0.017  0.00  0.00    -0.287 N 
ATOM      8  HN  UNL d   1       1.794  -1.277   0.025  1.00  0.00     0.187 HD
ATOM      9  C   UNL d   1      -0.454   1.090   0.013  0.00  0.00     0.028 A 
ATOM     10  C   UNL d   1      -0.955   2.490   0.017  0.00  0.00     0.070 C 
ATOM     11  C   UNL d   1      -1.221  -0.054   0.005  0.00  0.00     0.063 A 
BRANCH   7  12
ATOM     12  C   UNL d   1       2.105   1.465   0.020  0.00  0.00     0.043 C 
ATOM     13  C   UNL d   1       3.365   0.562  -0.001  0.00  0.00     0.039 C 
ATOM     14  C   UNL d   1       2.187   2.365  -1.233  0.00  0.00     0.039 C 
ATOM     15  C   UNL d   1       2.207   2.325   1.297  0.00  0.00     0.039 C 
ENDBRANCH   7  12
ENDBRANCH   1   5
BRANCH   2  16
ATOM     16  N   UNL d   1      -0.036  -4.873   0.140  0.00  0.00    -0.262 N 
ATOM     17  C   UNL d   1       0.814  -5.842  -0.361  0.00  0.00     0.288 C 
ATOM     18  O   UNL d   1       1.917  -5.579  -0.838  0.00  0.00    -0.264 OA
ATOM     19  H   UNL d   1      -0.999  -5.109   0.391  0.00  0.00     0.190 HD
BRANCH  17  20
ATOM     20  C   UNL d   1       0.310  -7.223  -0.273  0.00  0.00     0.126 A 
ATOM     21  N   UNL d   1      -0.873  -7.528   0.289  0.00  0.00    -0.256 N 
ATOM     22  O   UNL d   1      -0.998  -8.906   0.197  0.00  0.00    -0.242 OA
ATOM     23  HN  UNL d   1      -1.544  -6.877   0.699  1.00  0.00     0.195 HD
ATOM     24  C   UNL d   1       0.095  -9.426  -0.421  0.00  0.00     0.075 A 
ATOM     25  C   UNL d   1       0.957  -8.401  -0.735  0.00  0.00     0.071 A 
ATOM     26  C   UNL d   1       0.120 -10.888  -0.615  0.00  0.00     0.079 C 
ENDBRANCH  17  20
ENDBRANCH   2  16
TORSDOF 4
