REMARK  5 active torsions:
REMARK  status: ('A' for Active; 'I' for Inactive)
REMARK    1  A    between atoms: N_7  and  C_1 
REMARK    2  A    between atoms: N_10  and  C_1 
REMARK    3  A    between atoms: C_2  and  N_8 
REMARK    4  A    between atoms: C_3  and  C_4 
REMARK    5  A    between atoms: C_21  and  N_10 
ROOT
ATOM      1  N   UNL d   1       0.274   0.881   0.921  0.00  0.00    -0.355 N 
ATOM      2  N   UNL d   1      -0.262   2.254   3.333  0.00  0.00    -0.363 N 
ATOM      3  C   UNL d   1       0.621   2.312   1.058  0.00  0.00     0.145 C 
ATOM      4  C   UNL d   1      -0.747   0.375   1.860  0.00  0.00     0.145 C 
ATOM      5  C   UNL d   1       0.894   2.669   2.534  0.00  0.00     0.144 C 
ATOM      6  C   UNL d   1      -0.500   0.805   3.318  0.00  0.00     0.144 C 
ENDROOT
BRANCH   2   7
ATOM      7  C   UNL d   1      -0.930   3.053   4.229  0.00  0.00     0.125 A 
ATOM      8  N   UNL d   1      -1.344   2.449   5.374  0.00  0.00    -0.350 N 
ATOM      9  C   UNL d   1      -2.053   3.152   6.289  0.00  0.00     0.106 A 
ATOM     10  HN  UNL d   1      -1.122   1.468   5.544  1.00  0.00     0.166 HD
ATOM     11  C   UNL d   1      -2.404   4.479   6.140  0.00  0.00     0.065 A 
ATOM     12  C   UNL d   1      -1.992   5.111   4.970  0.00  0.00     0.045 A 
ATOM     13  C   UNL d   1      -1.263   4.404   4.006  0.00  0.00     0.078 A 
ATOM     14 CL   UNL d   1      -0.965   5.253   2.526  0.00  0.00    -0.080 Cl
BRANCH  11  15
ATOM     15  C   UNL d   1      -3.220   5.165   7.187  0.00  0.00     0.418 C 
ATOM     16  F   UNL d   1      -3.490   6.468   6.895  0.00  0.00    -0.166 F 
ATOM     17  F   UNL d   1      -4.428   4.569   7.378  0.00  0.00    -0.166 F 
ATOM     18  F   UNL d   1      -2.608   5.174   8.402  0.00  0.00    -0.166 F 
ENDBRANCH  11  15
ENDBRANCH   2   7
BRANCH   1  19
ATOM     19  C   UNL d   1       0.875   0.099  -0.040  0.00  0.00     0.174 C 
ATOM     20  S   UNL d   1       1.568  -1.389   0.276  0.00  0.00    -0.041 SA
BRANCH  19  21
ATOM     21  N   UNL d   1       1.019   0.655  -1.285  0.00  0.00    -0.333 N 
ATOM     22  H   UNL d   1       1.780   0.268  -1.837  0.00  0.00     0.168 HD
BRANCH  21  23
ATOM     23  C   UNL d   1      -0.001   1.289  -2.036  0.00  0.00     0.034 A 
ATOM     24  C   UNL d   1       0.365   1.955  -3.210  0.00  0.00     0.032 A 
ATOM     25  C   UNL d   1      -0.611   2.545  -4.019  0.00  0.00     0.044 A 
ATOM     26  C   UNL d   1      -1.952   2.442  -3.667  0.00  0.00     0.116 A 
ATOM     27  C   UNL d   1      -2.334   1.766  -2.517  0.00  0.00     0.044 A 
ATOM     28  F   UNL d   1      -2.887   2.987  -4.454  0.00  0.00    -0.206 F 
ATOM     29  C   UNL d   1      -1.358   1.194  -1.699  0.00  0.00     0.032 A 
ENDBRANCH  21  23
ENDBRANCH  19  21
ENDBRANCH   1  19
TORSDOF 5
