REMARK  4 active torsions:
REMARK  status: ('A' for Active; 'I' for Inactive)
REMARK    1  A    between atoms: C_13  and  N_2 
REMARK       I    between atoms: C_11  and  N_10 
REMARK    2  A    between atoms: O_19  and  C_11 
REMARK    3  A    between atoms: C_20  and  C_13 
REMARK    4  A    between atoms: C_21  and  O_19 
ROOT
ATOM      1  C   UNL d   1       0.639   0.366  -0.047  0.00  0.00     0.073 A 
ATOM      2  N   UNL d   1       2.956   1.046   0.127  0.00  0.00    -0.286 N 
ATOM      3  C   UNL d   1       1.095  -0.911  -0.034  0.00  0.00     0.093 A 
ATOM      4  C   UNL d   1       1.604   1.450  -0.008  0.00  0.00     0.263 C 
ATOM      5  C   UNL d   1       3.361  -0.297   0.246  0.00  0.00     0.182 C 
ATOM      6  N   UNL d   1       2.403  -1.267   0.070  0.00  0.00    -0.326 N 
ATOM      7  C   UNL d   1      -0.795   0.372  -0.040  0.00  0.00    -0.023 A 
ATOM      8  C   UNL d   1      -1.310  -0.922  -0.047  0.00  0.00     0.010 A 
ATOM      9  S   UNL d   1      -0.078  -2.109  -0.094  0.00  0.00    -0.074 SA
ATOM     10  N   UNL d   1      -3.545  -0.093   0.326  0.00  0.00    -0.323 N 
ATOM     11  C   UNL d   1      -4.421  -0.044   1.391  0.00  0.00     0.363 C 
ATOM     12  C   UNL d   1      -2.767  -1.291  -0.009  0.00  0.00     0.174 C 
ATOM     13  C   UNL d   1      -1.713   1.559   0.044  0.00  0.00     0.061 C 
ATOM     14  S   UNL d   1       4.899  -0.868   0.615  0.00  0.00    -0.040 SA
ATOM     15  O   UNL d   1       1.237   2.623  -0.057  0.00  0.00    -0.267 OA
ATOM     16  C   UNL d   1      -3.150   1.156  -0.336  0.00  0.00     0.133 C 
ATOM     17  O   UNL d   1      -4.934   0.984   1.808  0.00  0.00    -0.238 OA
ATOM     18  H   UNL d   1       2.657  -2.244   0.139  0.00  0.00     0.169 HD
ENDROOT
BRANCH   2  19
ATOM     19  C   UNL d   1       3.929   2.151   0.166  0.00  0.00     0.173 C 
BRANCH  19  20
ATOM     20  C   UNL d   1       4.405   2.563  -1.216  0.00  0.00    -0.040 A 
ATOM     21  C   UNL d   1       3.712   3.540  -1.948  0.00  0.00     0.009 A 
ATOM     22  C   UNL d   1       4.104   3.873  -3.246  0.00  0.00     0.001 A 
ATOM     23  C   UNL d   1       5.197   3.240  -3.830  0.00  0.00     0.000 A 
ATOM     24  C   UNL d   1       5.917   2.294  -3.105  0.00  0.00     0.001 A 
ATOM     25  C   UNL d   1       5.528   1.962  -1.805  0.00  0.00     0.009 A 
ENDBRANCH  19  20
ENDBRANCH   2  19
BRANCH  11  26
ATOM     26  O   UNL d   1      -4.603  -1.266   1.962  0.00  0.00    -0.304 OA
BRANCH  26  27
ATOM     27  C   UNL d   1      -5.104  -1.249   3.306  0.00  0.00     0.176 C 
ATOM     28  C   UNL d   1      -3.917  -1.098   4.241  0.00  0.00     0.034 C 
ENDBRANCH  26  27
ENDBRANCH  11  26
TORSDOF 4
