REMARK  6 active torsions:
REMARK  status: ('A' for Active; 'I' for Inactive)
REMARK    1  A    between atoms: C_10  and  N_1 
REMARK    2  A    between atoms: N_11  and  N_7 
REMARK    3  A    between atoms: C_16  and  N_11 
REMARK    4  A    between atoms: N_13  and  C_12 
REMARK    5  A    between atoms: C_20  and  N_13 
REMARK    6  A    between atoms: C_21  and  N_13 
ROOT
ATOM      1  N   UNL d   1      -2.088  -0.892  -1.879  0.00  0.00    -0.218 N 
ATOM      2  C   UNL d   1      -1.348   0.236  -1.552  0.00  0.00     0.297 A 
ATOM      3  C   UNL d   1      -2.289   0.978  -0.657  0.00  0.00     0.142 A 
ATOM      4  N   UNL d   1      -3.373  -0.936  -1.304  0.00  0.00    -0.293 N 
ATOM      5  HN  UNL d   1      -4.070  -1.670  -1.433  1.00  0.00     0.187 HD
ATOM      6  C   UNL d   1      -3.507   0.135  -0.577  0.00  0.00     0.056 A 
ATOM      7  N   UNL d   1      -2.160   2.124  -0.071  0.00  0.00    -0.293 N 
ATOM      8  HN  UNL d   1      -2.896   2.521   0.514  1.00  0.00     0.187 HD
ATOM      9  O   UNL d   1      -0.245   0.647  -1.855  0.00  0.00    -0.264 OA
ATOM     10  C   UNL d   1      -4.680   0.526   0.239  0.00  0.00     0.072 C 
ENDROOT
BRANCH   7  11
ATOM     11  N   UNL d   1      -0.977   2.769  -0.285  0.00  0.00    -0.300 N 
ATOM     12  H   UNL d   1      -0.315   2.397  -0.977  0.00  0.00     0.187 HD
BRANCH  11  13
ATOM     13  C   UNL d   1      -0.987   4.176  -0.224  0.00  0.00     0.048 A 
ATOM     14  C   UNL d   1      -1.877   4.881   0.586  0.00  0.00     0.033 A 
ATOM     15  C   UNL d   1      -1.848   6.282   0.639  0.00  0.00     0.031 A 
ATOM     16  C   UNL d   1      -0.920   7.032  -0.097  0.00  0.00     0.030 A 
ATOM     17  C   UNL d   1      -0.033   6.306  -0.905  0.00  0.00     0.031 A 
ATOM     18  C   UNL d   1      -0.057   4.907  -0.964  0.00  0.00     0.033 A 
BRANCH  16  19
ATOM     19  N   UNL d   1      -0.865   8.416  -0.000  0.00  0.00    -0.382 N 
BRANCH  19  20
ATOM     20  C   UNL d   1      -2.098   9.200   0.092  0.00  0.00     0.118 C 
ATOM     21  C   UNL d   1      -2.319   9.725   1.502  0.00  0.00     0.026 C 
ENDBRANCH  19  20
BRANCH  19  22
ATOM     22  C   UNL d   1       0.400   9.138  -0.158  0.00  0.00     0.118 C 
ATOM     23  C   UNL d   1       1.354   8.827   0.989  0.00  0.00     0.026 C 
ENDBRANCH  19  22
ENDBRANCH  16  19
ENDBRANCH  11  13
ENDBRANCH   7  11
BRANCH   1  24
ATOM     24  C   UNL d   1      -1.666  -1.993  -2.664  0.00  0.00     0.060 A 
ATOM     25  C   UNL d   1      -0.337  -2.121  -3.090  0.00  0.00     0.031 A 
ATOM     26  C   UNL d   1       0.079  -3.238  -3.822  0.00  0.00     0.002 A 
ATOM     27  C   UNL d   1      -0.834  -4.235  -4.154  0.00  0.00     0.000 A 
ATOM     28  C   UNL d   1      -2.162  -4.114  -3.758  0.00  0.00     0.002 A 
ATOM     29  C   UNL d   1      -2.574  -3.004  -3.015  0.00  0.00     0.031 A 
ENDBRANCH   1  24
TORSDOF 6
