REMARK  15 active torsions:
REMARK  status: ('A' for Active; 'I' for Inactive)
REMARK    1  A    between atoms: N_3  and  C_1 
REMARK    2  A    between atoms: N_5  and  C_2 
REMARK    3  A    between atoms: N_4  and  C_8 
REMARK    4  A    between atoms: C_10  and  N_13 
REMARK    5  A    between atoms: N_19  and  C_11 
REMARK    6  A    between atoms: N_25  and  C_12 
REMARK    7  A    between atoms: O_32  and  C_17 
REMARK       I    between atoms: C_21  and  N_19 
REMARK    8  A    between atoms: C_37  and  N_25 
REMARK    9  A    between atoms: C_38  and  N_25 
REMARK   10  A    between atoms: C_26  and  O_33 
REMARK   11  A    between atoms: C_27  and  O_34 
REMARK   12  A    between atoms: O_33  and  C_35 
REMARK   13  A    between atoms: O_34  and  C_36 
REMARK   14  A    between atoms: C_35  and  C_37 
REMARK   15  A    between atoms: C_36  and  C_38 
ROOT
ATOM      1  C   UNL d   1      -2.338  -5.842   1.061  0.00  0.00     0.064 C 
ATOM      2  C   UNL d   1      -1.717  -3.626   0.260  0.00  0.00     0.077 C 
ATOM      3  C   UNL d   1      -1.534  -4.692   1.169  0.00  0.00     0.065 C 
ATOM      4  C   UNL d   1      -3.266  -6.036   0.020  0.00  0.00     0.066 C 
ATOM      5  C   UNL d   1      -3.423  -4.964  -0.890  0.00  0.00     0.097 C 
ATOM      6  C   UNL d   1      -2.726  -3.760  -0.700  0.00  0.00     0.072 C 
ENDROOT
BRANCH   2   7
ATOM      7  N   UNL d   1      -0.956  -2.433   0.422  0.00  0.00    -0.298 N 
ATOM      8  N   UNL d   1      -0.516  -1.707  -0.511  0.00  0.00    -0.297 N 
ATOM      9  HN  UNL d   1      -0.114  -0.800  -0.272  1.00  0.00     0.187 HD
ATOM     10  HN  UNL d   1      -0.747  -2.141   1.377  1.00  0.00     0.187 HD
BRANCH   8  11
ATOM     11  C   UNL d   1      -0.554  -2.088  -1.870  0.00  0.00     0.098 C 
ATOM     12  C   UNL d   1       0.182  -3.155  -2.389  0.00  0.00     0.134 C 
ATOM     13  C   UNL d   1       0.039  -3.625  -3.705  0.00  0.00     0.074 C 
ATOM     14  C   UNL d   1      -0.849  -2.956  -4.553  0.00  0.00     0.106 C 
ATOM     15  C   UNL d   1      -1.500  -1.797  -4.121  0.00  0.00     0.057 C 
ATOM     16  C   UNL d   1      -1.329  -1.360  -2.798  0.00  0.00     0.043 C 
ATOM     17 BR   UNL d   1      -2.189   0.264  -2.306  0.00  0.00    -0.049 Br
BRANCH  12  18
ATOM     18  N   UNL d   1       1.189  -3.776  -1.556  0.00  0.00    -0.113 N 
ATOM     19  O   UNL d   1       2.076  -3.036  -1.105  0.00  0.00    -0.532 OA
ATOM     20  O   UNL d   1       1.128  -5.000  -1.414  0.00  0.00    -0.532 OA
ENDBRANCH  12  18
BRANCH  14  21
ATOM     21  N   UNL d   1      -1.084  -3.458  -5.911  0.00  0.00    -0.116 N 
ATOM     22  O   UNL d   1      -0.283  -4.287  -6.362  0.00  0.00    -0.532 OA
ATOM     23  O   UNL d   1      -2.062  -3.008  -6.520  0.00  0.00    -0.532 OA
ENDBRANCH  14  21
ENDBRANCH   8  11
ENDBRANCH   2   7
BRANCH   3  24
ATOM     24  N   UNL d   1      -0.521  -4.570   2.164  0.00  0.00    -0.325 N 
ATOM     25  C   UNL d   1      -0.129  -5.520   3.094  0.00  0.00     0.218 C 
ATOM     26  O   UNL d   1      -0.625  -6.629   3.273  0.00  0.00    -0.274 OA
ATOM     27  C   UNL d   1       1.046  -5.095   3.939  0.00  0.00     0.117 C 
ATOM     28  H   UNL d   1      -0.006  -3.695   2.142  0.00  0.00     0.169 HD
ENDBRANCH   3  24
BRANCH   5  29
ATOM     29  O   UNL d   1      -4.301  -5.155  -1.927  0.00  0.00    -0.354 OA
ATOM     30  C   UNL d   1      -4.472  -4.135  -2.897  0.00  0.00     0.210 C 
ENDBRANCH   5  29
BRANCH   4  31
ATOM     31  N   UNL d   1      -3.961  -7.248  -0.116  0.00  0.00    -0.374 N 
BRANCH  31  32
ATOM     32  C   UNL d   1      -4.365  -8.058   1.050  0.00  0.00     0.150 C 
BRANCH  32  33
ATOM     33  C   UNL d   1      -5.804  -7.733   1.476  0.00  0.00     0.198 C 
BRANCH  33  34
ATOM     34  O   UNL d   1      -6.239  -8.566   2.572  0.00  0.00    -0.320 OA
BRANCH  34  35
ATOM     35  C   UNL d   1      -5.858  -8.144   3.808  0.00  0.00     0.254 C 
ATOM     36  O   UNL d   1      -5.146  -7.175   4.031  0.00  0.00    -0.266 OA
ATOM     37  C   UNL d   1      -6.465  -8.991   4.885  0.00  0.00     0.126 C 
ENDBRANCH  34  35
ENDBRANCH  33  34
ENDBRANCH  32  33
ENDBRANCH  31  32
BRANCH  31  38
ATOM     38  C   UNL d   1      -3.848  -7.957  -1.405  0.00  0.00     0.150 C 
BRANCH  38  39
ATOM     39  C   UNL d   1      -2.405  -8.355  -1.739  0.00  0.00     0.198 C 
BRANCH  39  40
ATOM     40  O   UNL d   1      -2.350  -9.013  -3.018  0.00  0.00    -0.320 OA
BRANCH  40  41
ATOM     41  C   UNL d   1      -2.209  -8.189  -4.098  0.00  0.00     0.254 C 
ATOM     42  O   UNL d   1      -2.143  -6.970  -4.061  0.00  0.00    -0.266 OA
ATOM     43  C   UNL d   1      -2.177  -8.993  -5.362  0.00  0.00     0.126 C 
ENDBRANCH  40  41
ENDBRANCH  39  40
ENDBRANCH  38  39
ENDBRANCH  31  38
ENDBRANCH   4  31
TORSDOF 15
