REMARK  4 active torsions:
REMARK  status: ('A' for Active; 'I' for Inactive)
REMARK    1  A    between atoms: C_6  and  C_1 
REMARK    2  A    between atoms: C_9  and  N_2 
REMARK    3  A    between atoms: C_10  and  C_4 
REMARK       I    between atoms: N_7  and  C_6 
REMARK    4  A    between atoms: C_8  and  N_7 
ROOT
ATOM      1  C   UNL d   1      -0.239   1.083   0.013  0.00  0.00     0.057 C 
ATOM      2  N   UNL d   1       0.939  -0.849   0.256  0.00  0.00    -0.314 N 
ATOM      3  C   UNL d   1       0.992   0.543   0.410  0.00  0.00     0.029 C 
ATOM      4  C   UNL d   1      -0.420  -1.207   0.099  0.00  0.00     0.051 C 
ATOM      5  C   UNL d   1      -1.119  -0.024  -0.112  0.00  0.00     0.050 C 
ATOM      6  C   UNL d   1       2.224   1.297   0.805  0.00  0.00     0.070 C 
ENDROOT
BRANCH   1   7
ATOM      7  C   UNL d   1      -0.510   2.526  -0.185  0.00  0.00     0.258 C 
ATOM      8  N   UNL d   1      -1.835   2.866  -0.420  0.00  0.00    -0.323 N 
ATOM      9  H   UNL d   1      -2.485   2.111  -0.566  0.00  0.00     0.169 HD
ATOM     10  O   UNL d   1       0.405   3.347  -0.168  0.00  0.00    -0.267 OA
BRANCH   8  11
ATOM     11  C   UNL d   1      -2.381   4.173  -0.439  0.00  0.00     0.036 A 
ATOM     12  C   UNL d   1      -1.654   5.325  -0.121  0.00  0.00     0.036 A 
ATOM     13  C   UNL d   1      -2.271   6.584  -0.052  0.00  0.00    -0.059 A 
ATOM     14  C   UNL d   1      -1.494   7.795   0.378  0.00  0.00     0.048 C 
ATOM     15  C   UNL d   1      -3.634   6.692  -0.334  0.00  0.00     0.013 A 
ATOM     16  C   UNL d   1      -4.380   5.559  -0.681  0.00  0.00    -0.059 A 
ATOM     17  C   UNL d   1      -3.747   4.306  -0.728  0.00  0.00     0.036 A 
ATOM     18  C   UNL d   1      -5.854   5.698  -0.931  0.00  0.00     0.048 C 
ENDBRANCH   8  11
ENDBRANCH   1   7
BRANCH   2  19
ATOM     19  C   UNL d   1       2.049  -1.772   0.209  0.00  0.00     0.039 A 
ATOM     20  C   UNL d   1       3.149  -1.658   1.066  0.00  0.00     0.030 A 
ATOM     21  C   UNL d   1       4.152  -2.637   1.077  0.00  0.00     0.002 A 
ATOM     22  C   UNL d   1       4.057  -3.752   0.251  0.00  0.00     0.000 A 
ATOM     23  C   UNL d   1       2.986  -3.866  -0.626  0.00  0.00     0.002 A 
ATOM     24  C   UNL d   1       2.007  -2.869  -0.670  0.00  0.00     0.030 A 
ENDBRANCH   2  19
BRANCH   4  25
ATOM     25  C   UNL d   1      -0.965  -2.583   0.113  0.00  0.00    -0.009 A 
ATOM     26  C   UNL d   1      -1.969  -2.952  -0.795  0.00  0.00     0.014 A 
ATOM     27  C   UNL d   1      -2.380  -4.286  -0.907  0.00  0.00     0.001 A 
ATOM     28  C   UNL d   1      -1.789  -5.270  -0.118  0.00  0.00     0.000 A 
ATOM     29  C   UNL d   1      -0.837  -4.912   0.832  0.00  0.00     0.001 A 
ATOM     30  C   UNL d   1      -0.460  -3.571   0.971  0.00  0.00     0.014 A 
ENDBRANCH   4  25
TORSDOF 4
