REMARK  2 active torsions:
REMARK  status: ('A' for Active; 'I' for Inactive)
REMARK    1  A    between atoms: C_6  and  C_1 
REMARK    2  A    between atoms: N_7  and  C_2 
REMARK       I    between atoms: N_9  and  C_6 
ROOT
ATOM      1  C   UNL d   1       1.357  -1.165  -0.035  0.00  0.00     0.072 A 
ATOM      2  C   UNL d   1       2.243  -0.080  -0.073  0.00  0.00     0.084 A 
ATOM      3  S   UNL d   1       1.446   1.449  -0.026  0.00  0.00    -0.076 SA
ATOM      4  C   UNL d   1       0.015  -0.668   0.037  0.00  0.00    -0.026 A 
ATOM      5  C   UNL d   1      -0.038   0.700   0.048  0.00  0.00    -0.008 A 
ATOM      6  C   UNL d   1      -1.363  -1.226   0.113  0.00  0.00     0.041 C 
ATOM      7  C   UNL d   1      -1.403   1.268   0.124  0.00  0.00     0.047 C 
ATOM      8  C   UNL d   1      -2.257   0.012  -0.202  0.00  0.00     0.010 C 
ENDROOT
BRANCH   1   9
ATOM      9  C   UNL d   1       1.834  -2.552  -0.069  0.00  0.00     0.252 C 
ATOM     10  O   UNL d   1       3.019  -2.872  -0.134  0.00  0.00    -0.268 OA
ATOM     11  N   UNL d   1       0.892  -3.539  -0.025  0.00  0.00    -0.366 N 
ATOM     12  H   UNL d   1      -0.095  -3.375   0.064  0.00  0.00     0.159 HD
ATOM     13  H   UNL d   1       1.228  -4.492  -0.042  0.00  0.00     0.159 HD
ENDBRANCH   1   9
BRANCH   2  14
ATOM     14  N   UNL d   1       3.588  -0.116  -0.138  0.00  0.00    -0.393 N 
ATOM     15  H   UNL d   1       4.084  -1.007  -0.192  0.00  0.00     0.156 HD
ATOM     16  H   UNL d   1       4.150   0.725  -0.190  0.00  0.00     0.156 HD
ENDBRANCH   2  14
TORSDOF 2
