REMARK  7 active torsions:
REMARK  status: ('A' for Active; 'I' for Inactive)
REMARK    1  A    between atoms: C_6  and  N_1 
REMARK    2  A    between atoms: C_5  and  N_2 
REMARK    3  A    between atoms: C_4  and  C_3 
REMARK    4  A    between atoms: C_12  and  C_5 
REMARK    5  A    between atoms: C_11  and  C_6 
REMARK    6  A    between atoms: O_26  and  C_15 
REMARK    7  A    between atoms: O_25  and  C_16 
ROOT
ATOM      1  N   UNL d   1      -1.247   0.674  -0.261  0.00  0.00     0.131 N 
ATOM      2  N   UNL d   1       1.221   0.721  -0.287  0.00  0.00     0.131 N 
ATOM      3  C   UNL d   1      -0.024   1.427   0.122  0.00  0.00     0.491 C 
ATOM      4  C   UNL d   1      -1.218  -0.694   0.304  0.00  0.00     0.278 C 
ATOM      5  C   UNL d   1       1.265  -0.599   0.357  0.00  0.00     0.278 C 
ATOM      6  C   UNL d   1       0.064  -1.450  -0.013  0.00  0.00     0.061 C 
ENDROOT
BRANCH   1   7
ATOM      7  C   UNL d   1      -2.461   1.376   0.249  0.00  0.00     0.314 C 
BRANCH   7   8
ATOM      8  C   UNL d   1      -3.762   0.673  -0.073  0.00  0.00    -0.030 A 
ATOM      9  C   UNL d   1      -4.580   0.188   0.955  0.00  0.00     0.011 A 
ATOM     10  C   UNL d   1      -5.762  -0.506   0.660  0.00  0.00     0.037 A 
ATOM     11  C   UNL d   1      -6.135  -0.717  -0.667  0.00  0.00     0.068 A 
ATOM     12  C   UNL d   1      -5.335  -0.208  -1.693  0.00  0.00     0.037 A 
ATOM     13  C   UNL d   1      -4.160   0.484  -1.399  0.00  0.00     0.011 A 
BRANCH  11  14
ATOM     14  O   UNL d   1      -7.244  -1.397  -1.089  0.00  0.00    -0.356 OA
ATOM     15  C   UNL d   1      -8.031  -2.018  -0.080  0.00  0.00     0.210 C 
ENDBRANCH  11  14
ENDBRANCH   7   8
ENDBRANCH   1   7
BRANCH   3  16
ATOM     16  C   UNL d   1      -0.050   2.904  -0.288  0.00  0.00     0.020 A 
ATOM     17  C   UNL d   1      -0.207   3.324  -1.608  0.00  0.00     0.098 A 
ATOM     18  N   UNL d   1      -0.219   4.616  -2.019  0.00  0.00    -0.375 N 
ATOM     19  C   UNL d   1      -0.123   5.554  -1.058  0.00  0.00     0.087 A 
ATOM     20  HN  UNL d   1      -0.296   4.864  -3.005  1.00  0.00     0.164 HD
ATOM     21  C   UNL d   1      -0.040   5.260   0.291  0.00  0.00     0.018 A 
ATOM     22  C   UNL d   1       0.007   3.921   0.677  0.00  0.00     0.014 A 
ENDBRANCH   3  16
BRANCH   2  23
ATOM     23  C   UNL d   1       1.397   0.642  -1.749  0.00  0.00     0.314 C 
BRANCH  23  24
ATOM     24  C   UNL d   1       2.624  -0.093  -2.249  0.00  0.00    -0.030 A 
ATOM     25  C   UNL d   1       2.487  -1.242  -3.040  0.00  0.00     0.011 A 
ATOM     26  C   UNL d   1       3.609  -1.861  -3.596  0.00  0.00     0.037 A 
ATOM     27  C   UNL d   1       4.881  -1.339  -3.363  0.00  0.00     0.068 A 
ATOM     28  C   UNL d   1       5.024  -0.186  -2.591  0.00  0.00     0.037 A 
ATOM     29  C   UNL d   1       3.905   0.427  -2.024  0.00  0.00     0.011 A 
BRANCH  27  30
ATOM     30  O   UNL d   1       6.040  -1.850  -3.882  0.00  0.00    -0.356 OA
ATOM     31  C   UNL d   1       6.044  -3.263  -4.055  0.00  0.00     0.210 C 
ENDBRANCH  27  30
ENDBRANCH  23  24
ENDBRANCH   2  23
TORSDOF 7
