REMARK  6 active torsions:
REMARK  status: ('A' for Active; 'I' for Inactive)
REMARK    1  A    between atoms: C_11  and  C_1 
REMARK    2  A    between atoms: C_9  and  C_13 
REMARK    3  A    between atoms: O_15  and  C_10 
REMARK    4  A    between atoms: O_22  and  C_11 
REMARK    5  A    between atoms: C_18  and  O_15 
REMARK    6  A    between atoms: C_26  and  O_22 
ROOT
ATOM      1  C   UNL d   1      -2.330  -0.190   0.085  0.00  0.00     0.127 A 
ATOM      2  N   UNL d   1      -0.194  -0.675   0.120  0.00  0.00    -0.247 N 
ATOM      3  N   UNL d   1      -1.643   1.020   0.107  0.00  0.00    -0.335 N 
ATOM      4  HN  UNL d   1      -2.044   1.958   0.118  1.00  0.00     0.168 HD
ATOM      5  C   UNL d   1      -0.367   0.699   0.109  0.00  0.00     0.127 A 
ATOM      6  C   UNL d   1      -1.434  -1.240   0.131  0.00  0.00     0.154 A 
ATOM      7  N   UNL d   1       0.971  -1.362   0.039  0.00  0.00    -0.272 N 
ATOM      8  HN  UNL d   1       1.033  -2.380   0.054  1.00  0.00     0.189 HD
ATOM      9  C   UNL d   1       1.994  -0.577  -0.059  0.00  0.00     0.163 A 
ATOM     10  C   UNL d   1       0.800   1.497   0.060  0.00  0.00     0.054 A 
ATOM     11  C   UNL d   1       1.998   0.902  -0.017  0.00  0.00     0.061 A 
ENDROOT
BRANCH   9  12
ATOM     12  O   UNL d   1       3.295  -1.018  -0.259  0.00  0.00    -0.293 OA
BRANCH  12  13
ATOM     13  C   UNL d   1       3.470  -2.353  -0.677  0.00  0.00     0.078 A 
ATOM     14  C   UNL d   1       2.716  -2.890  -1.721  0.00  0.00     0.053 A 
ATOM     15  C   UNL d   1       2.894  -4.226  -2.103  0.00  0.00     0.050 A 
ATOM     16  C   UNL d   1       3.888  -4.984  -1.462  0.00  0.00     0.016 A 
ATOM     17  C   UNL d   1       4.676  -4.420  -0.454  0.00  0.00     0.004 A 
ATOM     18  C   UNL d   1       4.466  -3.099  -0.055  0.00  0.00     0.037 A 
BRANCH  15  19
ATOM     19  C   UNL d   1       2.019  -4.846  -3.163  0.00  0.00     0.417 C 
ATOM     20  F   UNL d   1       1.070  -3.999  -3.650  0.00  0.00    -0.166 F 
ATOM     21  F   UNL d   1       2.732  -5.267  -4.244  0.00  0.00    -0.166 F 
ATOM     22  F   UNL d   1       1.345  -5.939  -2.709  0.00  0.00    -0.166 F 
ENDBRANCH  15  19
ENDBRANCH  12  13
ENDBRANCH   9  12
BRANCH   1  23
ATOM     23  C   UNL d   1      -3.778  -0.322  -0.065  0.00  0.00     0.311 C 
ATOM     24  O   UNL d   1      -4.345  -1.403  -0.161  0.00  0.00    -0.258 OA
BRANCH  23  25
ATOM     25  O   UNL d   1      -4.394   0.891  -0.179  0.00  0.00    -0.317 OA
BRANCH  25  26
ATOM     26  C   UNL d   1      -5.720   0.859  -0.718  0.00  0.00     0.175 C 
ATOM     27  C   UNL d   1      -5.623   0.940  -2.231  0.00  0.00     0.034 C 
ENDBRANCH  25  26
ENDBRANCH  23  25
ENDBRANCH   1  23
TORSDOF 6
