REMARK  2 active torsions:
REMARK  status: ('A' for Active; 'I' for Inactive)
REMARK    1  A    between atoms: C_2  and  C_1 
REMARK    2  A    between atoms: O_10  and  C_9 
ROOT
ATOM      1  C   UNL d   1      -0.663  -2.489  -0.020  0.00  0.00     0.050 A 
ATOM      2  C   UNL d   1      -1.492  -2.938  -1.062  0.00  0.00     0.080 A 
ATOM      3  C   UNL d   1      -0.311  -3.408   0.985  0.00  0.00     0.018 A 
ATOM      4  C   UNL d   1      -1.945  -4.258  -1.105  0.00  0.00     0.037 A 
ATOM      5  C   UNL d   1      -0.766  -4.729   0.945  0.00  0.00     0.001 A 
ATOM      6  C   UNL d   1      -1.581  -5.154  -0.102  0.00  0.00     0.003 A 
ENDROOT
BRANCH   1   7
ATOM      7  C   UNL d   1      -0.178  -1.117   0.016  0.00  0.00     0.176 A 
ATOM      8  N   UNL d   1      -0.423  -0.122  -0.816  0.00  0.00    -0.278 N 
ATOM      9  N   UNL d   1       0.290   0.963  -0.349  0.00  0.00    -0.288 N 
ATOM     10  HN  UNL d   1      -1.021  -0.149  -1.642  1.00  0.00     0.189 HD
ATOM     11  C   UNL d   1       0.915   0.549   0.727  0.00  0.00     0.251 A 
ATOM     12  HN  UNL d   1       0.324   1.897  -0.758  1.00  0.00     0.188 HD
ATOM     13  O   UNL d   1       0.672  -0.755   1.031  0.00  0.00    -0.285 OA
ENDBRANCH   1   7
BRANCH   2  14
ATOM     14  O   UNL d   1      -1.909  -2.138  -2.094  0.00  0.00    -0.360 OA
ATOM     15  H   UNL d   1      -1.556  -1.234  -1.975  0.00  0.00     0.217 HD
ENDBRANCH   2  14
TORSDOF 2
