REMARK  6 active torsions:
REMARK  status: ('A' for Active; 'I' for Inactive)
REMARK    1  A    between atoms: C_2  and  S_1 
REMARK    2  A    between atoms: N_9  and  S_1 
REMARK    3  A    between atoms: C_10  and  C_4 
REMARK    4  A    between atoms: C_16  and  N_9 
REMARK    5  A    between atoms: C_15  and  C_17 
REMARK    6  A    between atoms: C_17  and  C_16 
ROOT
ATOM      1  S   UNL d   1       0.976   0.041   0.125  0.00  0.00     0.248 S 
ATOM      2  O   UNL d   1       0.437   1.206   0.787  0.00  0.00    -0.205 OA
ATOM      3  O   UNL d   1       0.616  -0.294  -1.235  0.00  0.00    -0.205 OA
ENDROOT
BRANCH   1   4
ATOM      4  C   UNL d   1       0.459  -1.337   1.115  0.00  0.00     0.115 A 
ATOM      5  S   UNL d   1       1.000  -2.875   0.608  0.00  0.00    -0.075 SA
ATOM      6  C   UNL d   1       0.046  -3.690   1.782  0.00  0.00     0.033 A 
ATOM      7  C   UNL d   1      -0.559  -2.780   2.633  0.00  0.00     0.023 A 
ATOM      8  C   UNL d   1      -0.337  -1.428   2.240  0.00  0.00     0.034 A 
BRANCH   6   9
ATOM      9  C   UNL d   1      -0.057  -5.155   1.797  0.00  0.00     0.049 A 
ATOM     10  N   UNL d   1      -0.262  -5.696   3.024  0.00  0.00    -0.365 N 
ATOM     11  C   UNL d   1      -0.441  -7.035   3.086  0.00  0.00     0.088 A 
ATOM     12  HN  UNL d   1      -0.280  -5.117   3.863  1.00  0.00     0.165 HD
ATOM     13  C   UNL d   1      -0.442  -7.868   1.980  0.00  0.00     0.017 A 
ATOM     14  C   UNL d   1      -0.236  -7.298   0.731  0.00  0.00     0.004 A 
ATOM     15  C   UNL d   1      -0.037  -5.924   0.634  0.00  0.00     0.031 A 
ENDBRANCH   6   9
ENDBRANCH   1   4
BRANCH   1  16
ATOM     16  N   UNL d   1       2.665   0.137   0.164  0.00  0.00    -0.215 NA
ATOM     17  H   UNL d   1       2.987   0.466  -0.748  0.00  0.00     0.140 HD
BRANCH  16  18
ATOM     18  C   UNL d   1       3.236   0.885   1.308  0.00  0.00     0.110 C 
BRANCH  18  19
ATOM     19  C   UNL d   1       4.760   0.836   1.252  0.00  0.00     0.072 C 
BRANCH  19  20
ATOM     20  C   UNL d   1       5.361   1.623   2.386  0.00  0.00     0.010 A 
ATOM     21  N   UNL d   1       5.537   2.951   2.183  0.00  0.00    -0.369 N 
ATOM     22  C   UNL d   1       6.073   3.669   3.196  0.00  0.00     0.088 A 
ATOM     23  HN  UNL d   1       5.276   3.392   1.301  1.00  0.00     0.165 HD
ATOM     24  C   UNL d   1       6.439   3.125   4.414  0.00  0.00     0.017 A 
ATOM     25  C   UNL d   1       6.236   1.765   4.612  0.00  0.00     0.003 A 
ATOM     26  C   UNL d   1       5.685   1.000   3.588  0.00  0.00     0.025 A 
ENDBRANCH  19  20
ENDBRANCH  18  19
ENDBRANCH  16  18
ENDBRANCH   1  16
TORSDOF 6
