REMARK  6 active torsions:
REMARK  status: ('A' for Active; 'I' for Inactive)
REMARK    1  A    between atoms: C_2  and  C_1 
REMARK    2  A    between atoms: C_10  and  C_2 
REMARK    3  A    between atoms: C_3  and  C_4 
REMARK    4  A    between atoms: N_6  and  C_3 
REMARK       I    between atoms: C_4  and  N_7 
REMARK    5  A    between atoms: N_7  and  C_5 
REMARK       I    between atoms: C_8  and  N_6 
REMARK    6  A    between atoms: O_13  and  N_6 
ROOT
ATOM      1  C   UNL d   1       1.195   0.745   0.040  0.00  0.00     0.042 C 
ATOM      2  C   UNL d   1       0.284  -0.088  -0.663  0.00  0.00     0.049 C 
ATOM      3  C   UNL d   1       0.813   2.054   0.378  0.00  0.00     0.018 C 
ATOM      4  C   UNL d   1      -1.031   0.368  -0.838  0.00  0.00     0.030 C 
ATOM      5  C   UNL d   1      -0.493   2.494   0.165  0.00  0.00     0.001 C 
ATOM      6  C   UNL d   1      -1.421   1.640  -0.412  0.00  0.00     0.002 C 
ENDROOT
BRANCH   2   7
ATOM      7  N   UNL d   1       0.726  -1.323  -1.206  0.00  0.00    -0.325 N 
ATOM      8  C   UNL d   1       0.050  -2.158  -2.079  0.00  0.00     0.242 C 
ATOM      9  O   UNL d   1      -1.129  -2.052  -2.413  0.00  0.00    -0.271 OA
ATOM     10  H   UNL d   1       1.720  -1.533  -1.055  0.00  0.00     0.169 HD
BRANCH   8  11
ATOM     11  C   UNL d   1       0.851  -3.377  -2.533  0.00  0.00     0.262 C 
BRANCH  11  12
ATOM     12  N   UNL d   1       2.260  -3.074  -2.755  0.00  0.00    -0.220 N 
ATOM     13  C   UNL d   1       2.823  -2.760  -3.978  0.00  0.00     0.239 C 
ATOM     14  O   UNL d   1       3.985  -3.071  -4.244  0.00  0.00    -0.272 OA
ATOM     15  C   UNL d   1       1.953  -2.026  -4.964  0.00  0.00     0.119 C 
BRANCH  12  16
ATOM     16  O   UNL d   1       3.096  -3.902  -1.954  0.00  0.00    -0.284 OA
ATOM     17  H   UNL d   1       3.921  -3.940  -2.488  0.00  0.00     0.245 HD
ENDBRANCH  12  16
ENDBRANCH  11  12
ENDBRANCH   8  11
ENDBRANCH   2   7
BRANCH   1  18
ATOM     18  C   UNL d   1       2.568   0.259   0.387  0.00  0.00     0.194 C 
ATOM     19  O   UNL d   1       3.083  -0.590  -0.346  0.00  0.00    -0.287 OA
BRANCH  18  20
ATOM     20  C   UNL d   1       3.342   0.726   1.581  0.00  0.00     0.015 A 
ATOM     21  C   UNL d   1       4.728   0.501   1.587  0.00  0.00     0.015 A 
ATOM     22  C   UNL d   1       5.518   0.933   2.655  0.00  0.00     0.001 A 
ATOM     23  C   UNL d   1       4.933   1.600   3.729  0.00  0.00     0.000 A 
ATOM     24  C   UNL d   1       3.555   1.799   3.753  0.00  0.00     0.001 A 
ATOM     25  C   UNL d   1       2.758   1.339   2.699  0.00  0.00     0.015 A 
ENDBRANCH  18  20
ENDBRANCH   1  18
TORSDOF 6
