REMARK  4 active torsions:
REMARK  status: ('A' for Active; 'I' for Inactive)
REMARK    1  A    between atoms: C_11  and  C_1 
REMARK       I    between atoms: N_6  and  C_9 
REMARK    2  A    between atoms: C_18  and  C_7 
REMARK    3  A    between atoms: C_9  and  C_17 
REMARK    4  A    between atoms: C_17  and  C_18 
ROOT
ATOM      1  C   UNL d   1       0.089  -3.954  -2.965  0.00  0.00     0.154 A 
ATOM      2  N   UNL d   1       1.123  -3.386  -2.242  0.00  0.00    -0.322 N 
ATOM      3  HN  UNL d   1       2.109  -3.312  -2.490  1.00  0.00     0.169 HD
ATOM      4  N   UNL d   1      -1.113  -3.828  -2.375  0.00  0.00    -0.241 N 
ATOM      5  HN  UNL d   1      -2.022  -4.133  -2.725  1.00  0.00     0.196 HD
ATOM      6  C   UNL d   1       0.516  -2.968  -1.157  0.00  0.00     0.148 A 
ATOM      7  O   UNL d   1      -0.828  -3.183  -1.171  0.00  0.00    -0.223 OA
ENDROOT
BRANCH   6   8
ATOM      8  C   UNL d   1       1.090  -2.312   0.042  0.00  0.00     0.096 C 
BRANCH   8   9
ATOM      9  C   UNL d   1       2.619  -2.314  -0.000  0.00  0.00     0.111 C 
BRANCH   9  10
ATOM     10  C   UNL d   1       3.193  -3.711   0.181  0.00  0.00     0.220 C 
ATOM     11  N   UNL d   1       4.566  -3.869   0.008  0.00  0.00    -0.349 N 
ATOM     12  C   UNL d   1       5.497  -2.741  -0.099  0.00  0.00     0.156 C 
ATOM     13  C   UNL d   1       5.135  -5.132   0.488  0.00  0.00     0.156 C 
ATOM     14  C   UNL d   1       6.878  -3.140  -0.654  0.00  0.00     0.291 C 
ATOM     15  N   UNL d   1       7.490  -4.321  -0.018  0.00  0.00     0.087 N 
ATOM     16  C   UNL d   1       6.532  -5.442  -0.075  0.00  0.00     0.291 C 
ATOM     17  C   UNL d   1       7.921  -4.042   1.351  0.00  0.00     0.310 C 
ATOM     18  O   UNL d   1       2.471  -4.651   0.512  0.00  0.00    -0.273 OA
ENDBRANCH   9  10
ENDBRANCH   8   9
ENDBRANCH   6   8
BRANCH   1  19
ATOM     19  C   UNL d   1       0.335  -4.610  -4.250  0.00  0.00     0.078 A 
ATOM     20  N   UNL d   1      -0.740  -4.993  -4.989  0.00  0.00    -0.363 N 
ATOM     21  C   UNL d   1      -0.493  -5.578  -6.180  0.00  0.00     0.088 A 
ATOM     22  HN  UNL d   1      -1.693  -4.845  -4.658  1.00  0.00     0.165 HD
ATOM     23  C   UNL d   1       0.778  -5.801  -6.687  0.00  0.00     0.017 A 
ATOM     24  C   UNL d   1       1.867  -5.407  -5.921  0.00  0.00     0.004 A 
ATOM     25  C   UNL d   1       1.646  -4.807  -4.687  0.00  0.00     0.033 A 
ENDBRANCH   1  19
TORSDOF 4
