REMARK  4 active torsions:
REMARK  status: ('A' for Active; 'I' for Inactive)
REMARK    1  A    between atoms: N_2  and  C_1 
REMARK    2  A    between atoms: C_3  and  C_1 
REMARK    3  A    between atoms: C_4  and  N_2 
REMARK    4  A    between atoms: O_12  and  N_5 
ROOT
ATOM      1  C   UNL d   1       1.169  -0.090   0.004  0.00  0.00     0.137 C 
ATOM      2  N   UNL d   1       2.479  -0.144  -0.029  0.00  0.00    -0.252 N 
ATOM      3  HN  UNL d   1       3.037   0.473  -0.619  1.00  0.00     0.196 HD
ENDROOT
BRANCH   1   4
ATOM      4  N   UNL d   1       0.509   0.780  -0.851  0.00  0.00    -0.338 N 
ATOM      5  H   UNL d   1      -0.353   1.213  -0.549  0.00  0.00     0.167 HD
BRANCH   4   6
ATOM      6  C   UNL d   1       0.912   1.114  -2.161  0.00  0.00     0.072 A 
ATOM      7  C   UNL d   1       0.525   2.337  -2.723  0.00  0.00     0.143 A 
ATOM      8  F   UNL d   1      -0.261   3.168  -2.018  0.00  0.00    -0.204 F 
ATOM      9  C   UNL d   1       0.936   2.725  -3.998  0.00  0.00     0.044 A 
ATOM     10  C   UNL d   1       1.754   1.879  -4.745  0.00  0.00     0.003 A 
ATOM     11  C   UNL d   1       2.159   0.660  -4.207  0.00  0.00     0.002 A 
ATOM     12  C   UNL d   1       1.752   0.288  -2.923  0.00  0.00     0.033 A 
ENDBRANCH   4   6
ENDBRANCH   1   4
BRANCH   1  13
ATOM     13  C   UNL d   1       0.309  -0.918   0.911  0.00  0.00     0.025 A 
ATOM     14  C   UNL d   1       0.677  -1.233   2.213  0.00  0.00     0.102 A 
ATOM     15  N   UNL d   1      -0.064  -2.006   3.051  0.00  0.00    -0.374 N 
ATOM     16  C   UNL d   1      -1.230  -2.482   2.566  0.00  0.00     0.087 A 
ATOM     17  HN  UNL d   1       0.247  -2.216   4.000  1.00  0.00     0.164 HD
ATOM     18  C   UNL d   1      -1.702  -2.203   1.294  0.00  0.00     0.018 A 
ATOM     19  C   UNL d   1      -0.922  -1.405   0.457  0.00  0.00     0.018 A 
ENDBRANCH   1  13
BRANCH   2  20
ATOM     20  O   UNL d   1       3.052  -1.104   0.800  0.00  0.00    -0.288 OA
ATOM     21  H   UNL d   1       4.006  -0.932   0.682  0.00  0.00     0.244 HD
ENDBRANCH   2  20
TORSDOF 4
