REMARK  5 active torsions:
REMARK  status: ('A' for Active; 'I' for Inactive)
REMARK       I    between atoms: N_2  and  C_1 
REMARK    1  A    between atoms: C_4  and  C_1 
REMARK    2  A    between atoms: C_5  and  N_2 
REMARK    3  A    between atoms: O_6  and  C_3 
REMARK    4  A    between atoms: C_18  and  O_6 
REMARK    5  A    between atoms: C_10  and  C_11 
ROOT
ATOM      1  C   UNL d   1      -1.264  -0.200  -4.889  0.00  0.00     0.175 A 
ATOM      2  C   UNL d   1      -0.770  -1.128  -5.814  0.00  0.00     0.087 A 
ATOM      3  N   UNL d   1      -2.320   0.621  -5.139  0.00  0.00    -0.345 N 
ATOM      4  HN  UNL d   1      -2.615   1.326  -4.463  1.00  0.00     0.167 HD
ATOM      5  C   UNL d   1      -1.491  -1.272  -7.003  0.00  0.00     0.035 A 
ATOM      6  C   UNL d   1      -2.962   0.467  -6.313  0.00  0.00     0.090 A 
ATOM      7  C   UNL d   1      -2.602  -0.472  -7.258  0.00  0.00     0.019 A 
ENDROOT
BRANCH   1   8
ATOM      8  O   UNL d   1      -0.598  -0.068  -3.670  0.00  0.00    -0.292 OA
BRANCH   8   9
ATOM      9  C   UNL d   1      -1.311   0.462  -2.612  0.00  0.00     0.077 A 
ATOM     10  C   UNL d   1      -2.609   0.066  -2.298  0.00  0.00     0.038 A 
ATOM     11  C   UNL d   1      -3.272   0.624  -1.200  0.00  0.00     0.011 A 
ATOM     12  C   UNL d   1      -2.644   1.560  -0.356  0.00  0.00    -0.050 A 
ATOM     13  C   UNL d   1      -1.325   1.928  -0.677  0.00  0.00     0.011 A 
ATOM     14  C   UNL d   1      -0.664   1.381  -1.789  0.00  0.00     0.038 A 
BRANCH  12  15
ATOM     15  C   UNL d   1      -3.404   2.119   0.862  0.00  0.00    -0.024 C 
ATOM     16  C   UNL d   1      -2.558   3.053   1.755  0.00  0.00     0.019 C 
ATOM     17  C   UNL d   1      -4.632   2.925   0.387  0.00  0.00     0.019 C 
ATOM     18  C   UNL d   1      -3.882   0.951   1.754  0.00  0.00     0.019 C 
ENDBRANCH  12  15
ENDBRANCH   8   9
ENDBRANCH   1   8
BRANCH   2  19
ATOM     19  N   UNL d   1       0.388  -1.905  -5.543  0.00  0.00    -0.318 N 
ATOM     20  C   UNL d   1       1.190  -2.490  -6.516  0.00  0.00     0.280 C 
ATOM     21  O   UNL d   1       1.044  -2.312  -7.725  0.00  0.00    -0.265 OA
ATOM     22  H   UNL d   1       0.746  -1.901  -4.595  0.00  0.00     0.169 HD
BRANCH  20  23
ATOM     23  C   UNL d   1       2.272  -3.310  -6.015  0.00  0.00     0.142 A 
ATOM     24  O   UNL d   1       2.277  -3.748  -4.718  0.00  0.00    -0.317 OA
ATOM     25  C   UNL d   1       3.355  -4.567  -4.583  0.00  0.00     0.143 A 
ATOM     26  C   UNL d   1       4.069  -4.634  -5.758  0.00  0.00     0.027 A 
ATOM     27  C   UNL d   1       3.372  -3.824  -6.681  0.00  0.00     0.045 A 
ENDBRANCH  20  23
ENDBRANCH   2  19
TORSDOF 5
