REMARK  8 active torsions:
REMARK  status: ('A' for Active; 'I' for Inactive)
REMARK    1  A    between atoms: N_14  and  C_1 
REMARK    2  A    between atoms: C_16  and  C_2 
REMARK    3  A    between atoms: C_19  and  N_3 
REMARK    4  A    between atoms: C_10  and  S_20 
REMARK       I    between atoms: C_17  and  N_14 
REMARK    5  A    between atoms: O_27  and  C_16 
REMARK    6  A    between atoms: C_26  and  C_17 
REMARK    7  A    between atoms: S_20  and  C_26 
REMARK    8  A    between atoms: C_30  and  O_27 
ROOT
ATOM      1  N   UNL d   1       2.131  -1.594   0.044  0.00  0.00    -0.310 N 
ATOM      2  C   UNL d   1       2.346  -2.643  -0.923  0.00  0.00     0.233 C 
ATOM      3  O   UNL d   1       1.558  -2.758  -1.852  0.00  0.00    -0.272 OA
ATOM      4  H   UNL d   1       2.909  -1.304   0.630  0.00  0.00     0.170 HD
ENDROOT
BRANCH   1   5
ATOM      5  C   UNL d   1       0.981  -0.807   0.037  0.00  0.00     0.147 A 
ATOM      6  C   UNL d   1      -0.336  -1.226   0.112  0.00  0.00     0.102 A 
ATOM      7  C   UNL d   1      -1.073  -0.025   0.199  0.00  0.00     0.129 A 
ATOM      8  N   UNL d   1      -0.300   1.057   0.269  0.00  0.00    -0.302 N 
ATOM      9  N   UNL d   1       0.957   0.583   0.098  0.00  0.00    -0.239 N 
ATOM     10  HN  UNL d   1      -0.589   2.024   0.418  1.00  0.00     0.186 HD
BRANCH   6  11
ATOM     11  C   UNL d   1      -0.847  -2.574   0.179  0.00  0.00     0.298 C 
ATOM     12  O   UNL d   1      -0.128  -3.560   0.256  0.00  0.00    -0.259 OA
BRANCH  11  13
ATOM     13  O   UNL d   1      -2.209  -2.608   0.151  0.00  0.00    -0.318 OA
BRANCH  13  14
ATOM     14  C   UNL d   1      -2.788  -3.906  -0.048  0.00  0.00     0.174 C 
ATOM     15  C   UNL d   1      -2.922  -4.134  -1.542  0.00  0.00     0.034 C 
ENDBRANCH  13  14
ENDBRANCH  11  13
ENDBRANCH   6  11
BRANCH   9  16
ATOM     16  C   UNL d   1       2.059   1.468  -0.010  0.00  0.00     0.058 A 
ATOM     17  C   UNL d   1       3.224   1.101  -0.699  0.00  0.00     0.031 A 
ATOM     18  C   UNL d   1       4.305   1.982  -0.765  0.00  0.00     0.002 A 
ATOM     19  C   UNL d   1       4.227   3.228  -0.146  0.00  0.00     0.000 A 
ATOM     20  C   UNL d   1       3.061   3.608   0.519  0.00  0.00     0.002 A 
ATOM     21  C   UNL d   1       1.972   2.740   0.577  0.00  0.00     0.031 A 
ENDBRANCH   9  16
ENDBRANCH   1   5
BRANCH   2  22
ATOM     22  C   UNL d   1       3.697  -3.327  -0.875  0.00  0.00     0.186 C 
BRANCH  22  23
ATOM     23  S   UNL d   1       4.470  -3.267   0.771  0.00  0.00    -0.075 SA
BRANCH  23  24
ATOM     24  C   UNL d   1       3.396  -4.314   1.646  0.00  0.00     0.204 A 
ATOM     25  O   UNL d   1       3.476  -4.508   2.993  0.00  0.00    -0.267 OA
ATOM     26  C   UNL d   1       2.411  -5.348   3.233  0.00  0.00     0.182 A 
ATOM     27  C   UNL d   1       2.055  -5.861   4.522  0.00  0.00     0.057 A 
ATOM     28  N   UNL d   1       1.749  -5.618   2.122  0.00  0.00    -0.276 N 
ATOM     29  S   UNL d   1       3.020  -5.557   5.903  0.00  0.00    -0.098 SA
ATOM     30  C   UNL d   1       0.954  -6.636   4.837  0.00  0.00     0.024 A 
ATOM     31  C   UNL d   1       1.981  -6.465   6.912  0.00  0.00     0.050 A 
ATOM     32  C   UNL d   1       0.912  -6.985   6.218  0.00  0.00     0.009 A 
ATOM     33  N   UNL d   1       2.391  -4.957   1.100  0.00  0.00    -0.272 N 
ATOM     34  HN  UNL d   1       0.920  -6.205   2.037  1.00  0.00     0.189 HD
ATOM     35  HN  UNL d   1       2.136  -4.965   0.112  1.00  0.00     0.189 HD
ENDBRANCH  23  24
ENDBRANCH  22  23
ENDBRANCH   2  22
TORSDOF 8
