REMARK  3 active torsions:
REMARK  status: ('A' for Active; 'I' for Inactive)
REMARK    1  A    between atoms: C_7  and  C_1 
REMARK    2  A    between atoms: N_8  and  C_3 
REMARK    3  A    between atoms: N_4  and  N_8 
ROOT
ATOM      1  C   UNL d   1      -2.356  -3.319  -6.023  0.00  0.00     0.024 A 
ATOM      2  N   UNL d   1      -1.672  -1.816  -4.121  0.00  0.00    -0.303 N 
ATOM      3  HN  UNL d   1      -1.528  -0.867  -3.775  1.00  0.00     0.186 HD
ATOM      4  C   UNL d   1      -2.192  -2.032  -5.295  0.00  0.00     0.041 C 
ATOM      5  C   UNL d   1      -3.342  -3.380  -7.018  0.00  0.00     0.081 A 
ATOM      6  C   UNL d   1      -1.536  -4.430  -5.801  0.00  0.00     0.058 A 
ATOM      7  O   UNL d   1      -4.127  -2.323  -7.399  0.00  0.00    -0.350 OA
ATOM      8  C   UNL d   1      -3.541  -4.563  -7.737  0.00  0.00     0.040 A 
ATOM      9  C   UNL d   1      -1.759  -5.605  -6.509  0.00  0.00     0.117 A 
ATOM     10  C   UNL d   1      -2.724  -0.841  -6.050  0.00  0.00     0.086 C 
ATOM     11  C   UNL d   1      -4.124  -1.214  -6.495  0.00  0.00     0.181 C 
ATOM     12  C   UNL d   1      -2.760  -5.686  -7.465  0.00  0.00     0.045 A 
ATOM     13  F   UNL d   1      -0.988  -6.673  -6.270  0.00  0.00    -0.206 F 
ENDROOT
BRANCH   2  14
ATOM     14  N   UNL d   1      -1.331  -2.887  -3.379  0.00  0.00    -0.299 N 
ATOM     15  H   UNL d   1      -2.023  -3.615  -3.192  0.00  0.00     0.187 HD
BRANCH  14  16
ATOM     16  C   UNL d   1      -0.320  -2.798  -2.400  0.00  0.00     0.070 A 
ATOM     17  C   UNL d   1       0.410  -1.617  -2.200  0.00  0.00     0.048 A 
ATOM     18  C   UNL d   1       1.498  -1.567  -1.312  0.00  0.00     0.050 A 
ATOM     19  C   UNL d   1       1.874  -2.734  -0.630  0.00  0.00     0.018 A 
ATOM     20  C   UNL d   1       1.177  -3.924  -0.831  0.00  0.00     0.027 A 
ATOM     21  C   UNL d   1       0.093  -3.955  -1.710  0.00  0.00     0.062 A 
ATOM     22 CL   UNL d   1      -0.716  -5.467  -1.953  0.00  0.00    -0.082 Cl
BRANCH  18  23
ATOM     23  C   UNL d   1       2.269  -0.288  -1.098  0.00  0.00     0.417 C 
ATOM     24  F   UNL d   1       1.812   0.764  -1.831  0.00  0.00    -0.166 F 
ATOM     25  F   UNL d   1       3.587  -0.420  -1.416  0.00  0.00    -0.166 F 
ATOM     26  F   UNL d   1       2.240   0.122   0.201  0.00  0.00    -0.166 F 
ENDBRANCH  18  23
ENDBRANCH  14  16
ENDBRANCH   2  14
TORSDOF 3
