REMARK  5 active torsions:
REMARK  status: ('A' for Active; 'I' for Inactive)
REMARK    1  A    between atoms: C_5  and  C_1 
REMARK       I    between atoms: C_2  and  N_13 
REMARK    2  A    between atoms: C_10  and  C_2 
REMARK    3  A    between atoms: N_3  and  C_6 
REMARK    4  A    between atoms: C_7  and  N_4 
REMARK    5  A    between atoms: N_13  and  C_30 
ROOT
ATOM      1  N   UNL d   1      -0.969   5.254  -0.152  0.00  0.00    -0.266 NA
ATOM      2  N   UNL d   1      -1.591   8.035  -0.139  0.00  0.00    -0.365 N 
ATOM      3  C   UNL d   1      -0.948   7.432  -1.311  0.00  0.00     0.139 C 
ATOM      4  C   UNL d   1      -2.338   7.112   0.737  0.00  0.00     0.139 C 
ATOM      5  C   UNL d   1      -1.483   5.867   1.094  0.00  0.00     0.116 C 
ATOM      6  C   UNL d   1      -0.112   6.207  -0.890  0.00  0.00     0.116 C 
ENDROOT
BRANCH   2   7
ATOM      7  C   UNL d   1      -1.712   9.392   0.035  0.00  0.00     0.103 A 
ATOM      8  N   UNL d   1      -1.953   9.860   1.278  0.00  0.00    -0.350 N 
ATOM      9  C   UNL d   1      -1.971  11.204   1.477  0.00  0.00     0.119 A 
ATOM     10  HN  UNL d   1      -2.119   9.217   2.053  1.00  0.00     0.166 HD
ATOM     11  C   UNL d   1      -1.783  12.155   0.483  0.00  0.00     0.050 A 
ATOM     12  C   UNL d   1      -1.569  11.667  -0.794  0.00  0.00     0.035 A 
ATOM     13  C   UNL d   1      -1.534  10.289  -1.016  0.00  0.00     0.051 A 
BRANCH  11  14
ATOM     14  N   UNL d   1      -1.815  13.525   0.812  0.00  0.00    -0.320 N 
ATOM     15  C   UNL d   1      -1.670  14.600  -0.053  0.00  0.00     0.280 C 
ATOM     16  O   UNL d   1      -1.496  14.509  -1.264  0.00  0.00    -0.265 OA
ATOM     17  H   UNL d   1      -1.961  13.774   1.786  0.00  0.00     0.169 HD
BRANCH  15  18
ATOM     18  C   UNL d   1      -1.744  15.887   0.604  0.00  0.00     0.142 A 
ATOM     19  O   UNL d   1      -1.947  15.960   1.959  0.00  0.00    -0.317 OA
ATOM     20  C   UNL d   1      -1.968  17.280   2.284  0.00  0.00     0.143 A 
ATOM     21  C   UNL d   1      -1.784  18.059   1.168  0.00  0.00     0.027 A 
ATOM     22  C   UNL d   1      -1.643  17.164   0.083  0.00  0.00     0.045 A 
ENDBRANCH  15  18
ENDBRANCH  11  14
ENDBRANCH   2   7
BRANCH   1  23
ATOM     23  C   UNL d   1      -0.341   4.012   0.002  0.00  0.00     0.082 A 
ATOM     24  C   UNL d   1      -0.240   3.194  -1.125  0.00  0.00     0.043 A 
ATOM     25  C   UNL d   1       0.390   1.958  -1.036  0.00  0.00     0.021 A 
ATOM     26  C   UNL d   1       0.918   1.549   0.186  0.00  0.00     0.063 A 
ATOM     27  C   UNL d   1       0.764   2.411   1.262  0.00  0.00     0.105 A 
ATOM     28  N   UNL d   1       0.145   3.617   1.194  0.00  0.00    -0.356 N 
ATOM     29  HN  UNL d   1       0.050   4.206   2.022  1.00  0.00     0.166 HD
BRANCH  26  30
ATOM     30  C   UNL d   1       1.614   0.234   0.326  0.00  0.00     0.418 C 
ATOM     31  F   UNL d   1       2.110   0.006   1.573  0.00  0.00    -0.166 F 
ATOM     32  F   UNL d   1       2.672   0.115  -0.524  0.00  0.00    -0.166 F 
ATOM     33  F   UNL d   1       0.797  -0.820   0.051  0.00  0.00    -0.166 F 
ENDBRANCH  26  30
ENDBRANCH   1  23
TORSDOF 5
