REMARK  4 active torsions:
REMARK  status: ('A' for Active; 'I' for Inactive)
REMARK    1  A    between atoms: C_3  and  C_2 
REMARK    2  A    between atoms: C_7  and  C_3 
REMARK    3  A    between atoms: C_5  and  N_8 
REMARK    4  A    between atoms: N_8  and  C_6 
ROOT
ATOM      1  C   UNL d   1      -4.938  -2.170  -0.074  0.00  0.00     0.072 C 
ATOM      2  C   UNL d   1      -3.795  -1.492   0.102  0.00  0.00     0.092 C 
ENDROOT
BRANCH   2   3
ATOM      3  N   UNL d   1      -2.507  -1.966   0.046  0.00  0.00    -0.364 N 
ATOM      4  H   UNL d   1      -2.362  -2.884  -0.365  0.00  0.00     0.165 HD
BRANCH   3   5
ATOM      5  C   UNL d   1      -1.326  -1.249   0.345  0.00  0.00     0.054 A 
ATOM      6  C   UNL d   1      -0.094  -1.598  -0.248  0.00  0.00     0.062 A 
ATOM      7  C   UNL d   1       1.068  -0.853  -0.010  0.00  0.00     0.050 A 
ATOM      8 CL   UNL d   1       0.020  -2.960  -1.311  0.00  0.00    -0.082 Cl
ATOM      9  C   UNL d   1       1.012   0.252   0.832  0.00  0.00     0.035 A 
ATOM     10 CL   UNL d   1       2.429   1.180   1.129  0.00  0.00    -0.084 Cl
ATOM     11  C   UNL d   1      -0.187   0.616   1.437  0.00  0.00     0.026 A 
ATOM     12  C   UNL d   1      -1.345  -0.127   1.189  0.00  0.00     0.033 A 
ENDBRANCH   3   5
ENDBRANCH   2   3
BRANCH   1  13
ATOM     13  C   UNL d   1      -6.220  -1.414  -0.006  0.00  0.00     0.183 C 
ATOM     14  O   UNL d   1      -6.262  -0.199  -0.171  0.00  0.00    -0.288 OA
BRANCH  13  15
ATOM     15  C   UNL d   1      -7.479  -2.164   0.246  0.00  0.00     0.014 A 
ATOM     16  C   UNL d   1      -7.507  -3.348   0.996  0.00  0.00     0.018 A 
ATOM     17  C   UNL d   1      -8.729  -3.979   1.256  0.00  0.00     0.043 A 
ATOM     18  C   UNL d   1      -9.910  -3.426   0.772  0.00  0.00     0.116 A 
ATOM     19  C   UNL d   1      -9.899  -2.250   0.033  0.00  0.00     0.043 A 
ATOM     20  F   UNL d   1     -11.076  -4.030   1.033  0.00  0.00    -0.206 F 
ATOM     21  C   UNL d   1      -8.682  -1.614  -0.226  0.00  0.00     0.018 A 
ENDBRANCH  13  15
ENDBRANCH   1  13
TORSDOF 4
