REMARK  9 active torsions:
REMARK  status: ('A' for Active; 'I' for Inactive)
REMARK    1  A    between atoms: O_13  and  C_1 
REMARK       I    between atoms: N_5  and  C_7 
REMARK    2  A    between atoms: C_9  and  N_5 
REMARK    3  A    between atoms: C_15  and  N_5 
REMARK    4  A    between atoms: C_19  and  C_6 
REMARK    5  A    between atoms: C_7  and  C_17 
REMARK    6  A    between atoms: C_17  and  O_13 
REMARK    7  A    between atoms: C_16  and  C_15 
REMARK    8  A    between atoms: O_22  and  C_16 
REMARK    9  A    between atoms: C_30  and  O_22 
ROOT
ATOM      1  C   UNL d   1      -0.298   1.369  -0.526  0.00  0.00     0.165 A 
ATOM      2  C   UNL d   1      -1.367   0.652   0.011  0.00  0.00     0.101 A 
ATOM      3  N   UNL d   1       0.346   1.004  -1.657  0.00  0.00    -0.335 N 
ATOM      4  HN  UNL d   1       1.115   1.567  -2.019  1.00  0.00     0.168 HD
ATOM      5  C   UNL d   1      -0.047  -0.118  -2.300  0.00  0.00     0.044 A 
ATOM      6  C   UNL d   1      -1.755  -0.536  -0.634  0.00  0.00    -0.035 A 
ATOM      7  C   UNL d   1      -2.031   1.116   1.190  0.00  0.00     0.104 C 
ATOM      8  N   UNL d   1      -2.594   1.443   2.156  0.00  0.00    -0.191 NA
ATOM      9  C   UNL d   1      -1.082  -0.908  -1.806  0.00  0.00     0.038 A 
ATOM     10  C   UNL d   1      -2.856  -1.445  -0.158  0.00  0.00     0.050 C 
ENDROOT
BRANCH   1  11
ATOM     11  O   UNL d   1       0.095   2.552   0.069  0.00  0.00    -0.325 OA
BRANCH  11  12
ATOM     12  C   UNL d   1       1.474   2.883  -0.130  0.00  0.00     0.280 C 
BRANCH  12  13
ATOM     13  C   UNL d   1       1.743   4.398  -0.206  0.00  0.00     0.249 C 
ATOM     14  N   UNL d   1       3.072   4.791  -0.465  0.00  0.00    -0.307 N 
ATOM     15  O   UNL d   1       0.819   5.207  -0.088  0.00  0.00    -0.271 OA
BRANCH  14  16
ATOM     16  C   UNL d   1       3.405   6.178  -0.558  0.00  0.00     0.039 A 
ATOM     17  C   UNL d   1       3.026   7.074   0.448  0.00  0.00     0.053 A 
ATOM     18  C   UNL d   1       3.459   8.400   0.396  0.00  0.00     0.036 A 
ATOM     19 CL   UNL d   1       3.063   9.481   1.676  0.00  0.00    -0.084 Cl
ATOM     20  C   UNL d   1       4.238   8.853  -0.668  0.00  0.00     0.024 A 
ATOM     21  C   UNL d   1       4.594   7.971  -1.687  0.00  0.00     0.004 A 
ATOM     22  C   UNL d   1       4.193   6.635  -1.623  0.00  0.00     0.030 A 
ENDBRANCH  14  16
BRANCH  14  23
ATOM     23  C   UNL d   1       4.235   3.881  -0.408  0.00  0.00     0.243 C 
BRANCH  23  24
ATOM     24  C   UNL d   1       4.676   3.235  -1.718  0.00  0.00     0.277 C 
ATOM     25  O   UNL d   1       3.963   3.042  -2.690  0.00  0.00    -0.263 OA
BRANCH  24  26
ATOM     26  O   UNL d   1       5.963   2.794  -1.576  0.00  0.00    -0.321 OA
BRANCH  26  27
ATOM     27  C   UNL d   1       6.421   1.801  -2.508  0.00  0.00     0.174 C 
ATOM     28  C   UNL d   1       7.404   2.382  -3.505  0.00  0.00     0.034 C 
ENDBRANCH  26  27
ENDBRANCH  24  26
ENDBRANCH  23  24
ENDBRANCH  14  23
ENDBRANCH  12  13
ENDBRANCH  11  12
ENDBRANCH   1  11
BRANCH   5  29
ATOM     29  C   UNL d   1       0.650  -0.422  -3.563  0.00  0.00    -0.009 A 
ATOM     30  C   UNL d   1       0.859  -1.741  -3.999  0.00  0.00     0.013 A 
ATOM     31  C   UNL d   1       1.455  -2.013  -5.234  0.00  0.00     0.001 A 
ATOM     32  C   UNL d   1       1.867  -0.967  -6.053  0.00  0.00     0.000 A 
ATOM     33  C   UNL d   1       1.703   0.349  -5.630  0.00  0.00     0.001 A 
ATOM     34  C   UNL d   1       1.105   0.617  -4.396  0.00  0.00     0.013 A 
ENDBRANCH   5  29
TORSDOF 9
