REMARK  4 active torsions:
REMARK  status: ('A' for Active; 'I' for Inactive)
REMARK    1  A    between atoms: C_7  and  C_1 
REMARK    2  A    between atoms: O_11  and  C_2 
REMARK    3  A    between atoms: C_13  and  N_8 
REMARK    4  A    between atoms: C_15  and  C_13 
ROOT
ATOM      1  C   UNL d   1      -1.806  -0.894   0.009  0.00  0.00     0.081 A 
ATOM      2  C   UNL d   1      -0.556  -1.401   0.005  0.00  0.00     0.095 A 
ATOM      3  C   UNL d   1      -2.011   0.582   0.014  0.00  0.00     0.260 A 
ATOM      4  N   UNL d   1      -0.895   1.376   0.018  0.00  0.00    -0.322 N 
ATOM      5  C   UNL d   1       0.616  -0.511   0.003  0.00  0.00     0.025 A 
ATOM      6  C   UNL d   1       0.412   0.875   0.011  0.00  0.00     0.048 A 
ATOM      7  O   UNL d   1      -3.137   1.071   0.013  0.00  0.00    -0.267 OA
ATOM      8  C   UNL d   1       1.929  -0.997  -0.007  0.00  0.00     0.016 A 
ATOM      9  C   UNL d   1       1.491   1.761   0.012  0.00  0.00     0.030 A 
ATOM     10  C   UNL d   1       3.012  -0.116  -0.008  0.00  0.00     0.001 A 
ATOM     11  C   UNL d   1       2.793   1.261   0.003  0.00  0.00     0.002 A 
ATOM     12  H   UNL d   1      -1.058   2.374   0.023  0.00  0.00     0.169 HD
ENDROOT
BRANCH   1  13
ATOM     13  C   UNL d   1      -2.983  -1.804   0.009  0.00  0.00     0.103 C 
ATOM     14  N   UNL d   1      -2.866  -3.091  -0.021  0.00  0.00    -0.394 N 
ATOM     15  HN  UNL d   1      -1.958  -3.555  -0.049  1.00  0.00     0.159 HD
BRANCH  14  16
ATOM     16  C   UNL d   1      -4.131  -3.839  -0.012  0.00  0.00     0.157 C 
BRANCH  16  17
ATOM     17  C   UNL d   1      -4.245  -4.731   1.201  0.00  0.00    -0.041 A 
ATOM     18  C   UNL d   1      -5.344  -4.630   2.065  0.00  0.00     0.009 A 
ATOM     19  C   UNL d   1      -5.459  -5.476   3.170  0.00  0.00     0.001 A 
ATOM     20  C   UNL d   1      -4.477  -6.433   3.423  0.00  0.00     0.000 A 
ATOM     21  C   UNL d   1      -3.379  -6.543   2.573  0.00  0.00     0.001 A 
ATOM     22  C   UNL d   1      -3.264  -5.698   1.467  0.00  0.00     0.009 A 
ENDBRANCH  16  17
ENDBRANCH  14  16
ENDBRANCH   1  13
BRANCH   2  23
ATOM     23  O   UNL d   1      -0.268  -2.756   0.003  0.00  0.00    -0.359 OA
ATOM     24  H   UNL d   1      -1.128  -3.238   0.019  0.00  0.00     0.217 HD
ENDBRANCH   2  23
TORSDOF 4
