REMARK  5 active torsions:
REMARK  status: ('A' for Active; 'I' for Inactive)
REMARK    1  A    between atoms: C_5  and  N_1 
REMARK    2  A    between atoms: C_4  and  C_8 
REMARK       I    between atoms: N_16  and  C_4 
REMARK    3  A    between atoms: N_6  and  C_19 
REMARK    4  A    between atoms: C_18  and  N_16 
REMARK    5  A    between atoms: C_19  and  C_18 
ROOT
ATOM      1  C   UNL d   1      -0.278  -2.591  -0.187  0.00  0.00     0.056 A 
ATOM      2  C   UNL d   1      -1.171  -5.266  -0.098  0.00  0.00     0.032 A 
ATOM      3  C   UNL d   1      -1.102  -3.101  -1.198  0.00  0.00     0.032 A 
ATOM      4  C   UNL d   1       0.101  -3.421   0.870  0.00  0.00     0.032 A 
ATOM      5  C   UNL d   1      -0.348  -4.750   0.914  0.00  0.00     0.019 A 
ATOM      6  C   UNL d   1      -1.548  -4.428  -1.155  0.00  0.00     0.019 A 
ENDROOT
BRANCH   2   7
ATOM      7  C   UNL d   1      -1.634  -6.682   0.036  0.00  0.00     0.251 C 
ATOM      8  O   UNL d   1      -1.369  -7.322   1.050  0.00  0.00    -0.268 OA
ATOM      9  N   UNL d   1      -2.382  -7.210  -0.994  0.00  0.00    -0.355 N 
ATOM     10  H   UNL d   1      -2.576  -6.685  -1.831  0.00  0.00     0.162 HD
BRANCH   9  11
ATOM     11  C   UNL d   1      -3.007  -8.513  -0.890  0.00  0.00     0.153 C 
BRANCH  11  12
ATOM     12  C   UNL d   1      -4.183  -8.574   0.109  0.00  0.00     0.292 C 
BRANCH  12  13
ATOM     13  N   UNL d   1      -5.459  -7.945  -0.301  0.00  0.00     0.094 N 
ATOM     14  C   UNL d   1      -6.500  -8.215   0.727  0.00  0.00     0.298 C 
ATOM     15  C   UNL d   1      -6.325  -7.386   2.013  0.00  0.00     0.198 C 
ATOM     16  O   UNL d   1      -6.357  -5.984   1.721  0.00  0.00    -0.388 OA
ATOM     17  C   UNL d   1      -5.321  -5.644   0.791  0.00  0.00     0.198 C 
ATOM     18  C   UNL d   1      -5.415  -6.479  -0.498  0.00  0.00     0.298 C 
ENDBRANCH  12  13
ENDBRANCH  11  12
ENDBRANCH   9  11
ENDBRANCH   2   7
BRANCH   1  19
ATOM     19  N   UNL d   1       0.154  -1.236  -0.256  0.00  0.00    -0.268 N 
ATOM     20  N   UNL d   1      -0.252  -0.429  -1.272  0.00  0.00    -0.305 N 
ATOM     21  C   UNL d   1       0.320   0.749  -1.019  0.00  0.00     0.109 A 
ATOM     22  HN  UNL d   1      -0.859  -0.671  -2.055  1.00  0.00     0.186 HD
ATOM     23  C   UNL d   1       1.103   0.727   0.142  0.00  0.00     0.038 A 
ATOM     24  C   UNL d   1       0.981  -0.558   0.615  0.00  0.00     0.118 A 
ENDBRANCH   1  19
TORSDOF 5
