REMARK  3 active torsions:
REMARK  status: ('A' for Active; 'I' for Inactive)
REMARK    1  A    between atoms: C_9  and  C_3 
REMARK    2  A    between atoms: C_8  and  C_4 
REMARK    3  A    between atoms: C_10  and  C_5 
ROOT
ATOM      1  N   UNL d   1      -1.334  -0.041   0.009  0.00  0.00    -0.355 N 
ATOM      2  HN  UNL d   1      -2.353  -0.076   0.018  1.00  0.00     0.166 HD
ATOM      3  C   UNL d   1      -0.682   1.148  -0.039  0.00  0.00     0.043 A 
ATOM      4  C   UNL d   1      -0.602  -1.182   0.046  0.00  0.00     0.043 A 
ATOM      5  C   UNL d   1       1.488   0.056  -0.012  0.00  0.00    -0.022 A 
ATOM      6  C   UNL d   1       0.712   1.217  -0.079  0.00  0.00     0.042 A 
ATOM      7  C   UNL d   1       0.794  -1.156   0.066  0.00  0.00     0.042 A 
ENDROOT
BRANCH   3   8
ATOM      8  C   UNL d   1      -1.522   2.367  -0.063  0.00  0.00    -0.009 A 
ATOM      9  C   UNL d   1      -1.094   3.573   0.525  0.00  0.00     0.014 A 
ATOM     10  C   UNL d   1      -1.864   4.739   0.452  0.00  0.00     0.007 A 
ATOM     11  C   UNL d   1      -3.096   4.733  -0.203  0.00  0.00    -0.062 A 
ATOM     12  C   UNL d   1      -3.554   3.538  -0.766  0.00  0.00     0.007 A 
ATOM     13  C   UNL d   1      -3.897   5.997  -0.301  0.00  0.00     0.048 C 
ATOM     14  C   UNL d   1      -2.779   2.373  -0.691  0.00  0.00     0.014 A 
ENDBRANCH   3   8
BRANCH   4  15
ATOM     15  C   UNL d   1      -1.353  -2.455   0.085  0.00  0.00    -0.009 A 
ATOM     16  C   UNL d   1      -0.854  -3.628  -0.515  0.00  0.00     0.014 A 
ATOM     17  C   UNL d   1      -1.532  -4.848  -0.419  0.00  0.00     0.007 A 
ATOM     18  C   UNL d   1      -2.743  -4.931   0.272  0.00  0.00    -0.062 A 
ATOM     19  C   UNL d   1      -3.273  -3.770   0.843  0.00  0.00     0.007 A 
ATOM     20  C   UNL d   1      -3.440  -6.252   0.400  0.00  0.00     0.048 C 
ATOM     21  C   UNL d   1      -2.590  -2.552   0.744  0.00  0.00     0.014 A 
ENDBRANCH   4  15
BRANCH   5  22
ATOM     22  C   UNL d   1       2.969   0.106  -0.027  0.00  0.00    -0.026 A 
ATOM     23  C   UNL d   1       3.733  -0.909  -0.634  0.00  0.00     0.012 A 
ATOM     24  C   UNL d   1       5.131  -0.864  -0.649  0.00  0.00     0.001 A 
ATOM     25  C   UNL d   1       5.800   0.208  -0.068  0.00  0.00     0.000 A 
ATOM     26  C   UNL d   1       5.072   1.228   0.535  0.00  0.00     0.001 A 
ATOM     27  C   UNL d   1       3.675   1.172   0.562  0.00  0.00     0.012 A 
ENDBRANCH   5  22
TORSDOF 3
