REMARK  4 active torsions:
REMARK  status: ('A' for Active; 'I' for Inactive)
REMARK    1  A    between atoms: C_2  and  C_1 
REMARK    2  A    between atoms: C_3  and  C_8 
REMARK    3  A    between atoms: N_4  and  C_10 
REMARK    4  A    between atoms: O_17  and  C_7 
ROOT
ATOM      1  N   UNL d   1       2.636  -2.152  -0.774  0.00  0.00    -0.364 N 
ATOM      2  HN  UNL d   1       3.322  -2.903  -0.705  1.00  0.00     0.165 HD
ATOM      3  C   UNL d   1       2.960  -0.975  -1.214  0.00  0.00     0.102 C 
ENDROOT
BRANCH   1   4
ATOM      4  C   UNL d   1       1.298  -2.343  -0.396  0.00  0.00     0.047 A 
ATOM      5  C   UNL d   1       0.950  -2.682   0.919  0.00  0.00     0.074 A 
ATOM      6  C   UNL d   1      -0.409  -2.901   1.233  0.00  0.00     0.018 A 
ATOM      7  C   UNL d   1      -1.403  -2.785   0.261  0.00  0.00     0.001 A 
ATOM      8  C   UNL d   1      -1.053  -2.463  -1.044  0.00  0.00     0.002 A 
ATOM      9  C   UNL d   1       0.287  -2.255  -1.368  0.00  0.00     0.030 A 
BRANCH   5  10
ATOM     10  C   UNL d   1       1.963  -2.856   2.019  0.00  0.00     0.419 C 
ATOM     11  F   UNL d   1       3.229  -2.426   1.766  0.00  0.00    -0.166 F 
ATOM     12  F   UNL d   1       2.084  -4.162   2.403  0.00  0.00    -0.166 F 
ATOM     13  F   UNL d   1       1.588  -2.190   3.155  0.00  0.00    -0.166 F 
ENDBRANCH   5  10
ENDBRANCH   1   4
BRANCH   3  14
ATOM     14  C   UNL d   1       4.340  -0.653  -1.634  0.00  0.00     0.016 A 
ATOM     15  C   UNL d   1       4.642   0.614  -2.141  0.00  0.00     0.099 A 
ATOM     16  C   UNL d   1       5.956   0.913  -2.522  0.00  0.00     0.069 A 
ATOM     17 CL   UNL d   1       6.347   2.474  -3.144  0.00  0.00    -0.081 Cl
ATOM     18  C   UNL d   1       6.964  -0.041  -2.402  0.00  0.00     0.050 A 
ATOM     19  C   UNL d   1       6.652  -1.304  -1.900  0.00  0.00     0.036 A 
ATOM     20  C   UNL d   1       5.349  -1.617  -1.515  0.00  0.00     0.039 A 
ATOM     21 CL   UNL d   1       7.893  -2.487  -1.754  0.00  0.00    -0.084 Cl
BRANCH  15  22
ATOM     22  O   UNL d   1       3.651   1.552  -2.267  0.00  0.00    -0.358 OA
ATOM     23  H   UNL d   1       4.053   2.365  -2.632  0.00  0.00     0.217 HD
ENDBRANCH  15  22
ENDBRANCH   3  14
TORSDOF 4
