REMARK  3 active torsions:
REMARK  status: ('A' for Active; 'I' for Inactive)
REMARK       I    between atoms: N_5  and  C_1 
REMARK       I    between atoms: N_9  and  C_1 
REMARK    1  A    between atoms: C_6  and  N_5 
REMARK    2  A    between atoms: C_18  and  N_9 
REMARK    3  A    between atoms: C_12  and  C_13 
ROOT
ATOM      1  C   UNL d   1       1.154   0.059   0.172  0.00  0.00     0.325 C 
ATOM      2  N   UNL d   1       2.486   0.446   0.257  0.00  0.00    -0.308 N 
ATOM      3  N   UNL d   1       0.365   1.162  -0.125  0.00  0.00    -0.309 N 
ATOM      4  O   UNL d   1       0.754  -1.076   0.370  0.00  0.00    -0.247 OA
ATOM      5  H   UNL d   1       2.589   1.399   0.566  0.00  0.00     0.170 HD
ATOM      6  H   UNL d   1       0.826   1.887  -0.655  0.00  0.00     0.170 HD
ENDROOT
BRANCH   2   7
ATOM      7  C   UNL d   1       3.494  -0.460   0.670  0.00  0.00     0.049 A 
ATOM      8  C   UNL d   1       4.323  -0.144   1.776  0.00  0.00     0.021 A 
ATOM      9  C   UNL d   1       5.390  -0.997   2.104  0.00  0.00     0.060 A 
ATOM     10  C   UNL d   1       4.088   0.945   2.638  0.00  0.00     0.042 A 
ATOM     11  N   UNL d   1       6.186  -0.738   3.153  0.00  0.00    -0.300 N 
ATOM     12  C   UNL d   1       5.597  -2.144   1.346  0.00  0.00     0.032 A 
ATOM     13  N   UNL d   1       5.942   0.327   3.984  0.00  0.00    -0.305 N 
ATOM     14  HN  UNL d   1       6.987  -1.343   3.336  1.00  0.00     0.187 HD
ATOM     15  C   UNL d   1       4.897   1.135   3.746  0.00  0.00     0.023 A 
ATOM     16  HN  UNL d   1       6.554   0.504   4.781  1.00  0.00     0.186 HD
ATOM     17  C   UNL d   1       4.587   2.209   4.739  0.00  0.00     0.070 C 
ATOM     18  C   UNL d   1       4.753  -2.486   0.290  0.00  0.00     0.005 A 
ATOM     19  C   UNL d   1       3.694  -1.645  -0.045  0.00  0.00     0.030 A 
ENDBRANCH   2   7
BRANCH   3  20
ATOM     20  C   UNL d   1      -1.044   1.186  -0.127  0.00  0.00     0.036 A 
ATOM     21  C   UNL d   1      -1.828   0.267   0.565  0.00  0.00     0.030 A 
ATOM     22  C   UNL d   1      -3.221   0.279   0.428  0.00  0.00     0.010 A 
ATOM     23  C   UNL d   1      -3.870   1.202  -0.411  0.00  0.00    -0.051 A 
ATOM     24  C   UNL d   1      -3.070   2.184  -1.016  0.00  0.00     0.010 A 
ATOM     25  C   UNL d   1      -1.677   2.183  -0.867  0.00  0.00     0.030 A 
BRANCH  23  26
ATOM     26  C   UNL d   1      -5.378   1.069  -0.692  0.00  0.00    -0.024 C 
ATOM     27  C   UNL d   1      -5.909   2.112  -1.701  0.00  0.00     0.019 C 
ATOM     28  C   UNL d   1      -5.658  -0.328  -1.297  0.00  0.00     0.019 C 
ATOM     29  C   UNL d   1      -6.195   1.222   0.607  0.00  0.00     0.019 C 
ENDBRANCH  23  26
ENDBRANCH   3  20
TORSDOF 3
