REMARK  7 active torsions:
REMARK  status: ('A' for Active; 'I' for Inactive)
REMARK       I    between atoms: C_5  and  N_8 
REMARK    1  A    between atoms: C_15  and  C_5 
REMARK    2  A    between atoms: C_6  and  C_16 
REMARK    3  A    between atoms: O_14  and  C_6 
REMARK    4  A    between atoms: C_13  and  C_7 
REMARK    5  A    between atoms: N_8  and  C_13 
REMARK    6  A    between atoms: S_12  and  C_15 
REMARK    7  A    between atoms: C_16  and  S_12 
ROOT
ATOM      1  C   UNL d   1       3.511  -1.669  -2.450  0.00  0.00     0.227 C 
ATOM      2  N   UNL d   1       3.530  -0.300  -2.346  0.00  0.00    -0.358 N 
ATOM      3  O   UNL d   1       2.540  -2.365  -2.140  0.00  0.00    -0.273 OA
ATOM      4  H   UNL d   1       4.424   0.180  -2.371  0.00  0.00     0.162 HD
ENDROOT
BRANCH   2   5
ATOM      5  C   UNL d   1       2.378   0.469  -1.893  0.00  0.00     0.157 C 
BRANCH   5   6
ATOM      6  C   UNL d   1       2.308   0.611  -0.359  0.00  0.00     0.171 C 
ATOM      7  O   UNL d   1       3.442   1.355   0.129  0.00  0.00    -0.339 OA
ATOM      8  C   UNL d   1       3.266   2.713   0.039  0.00  0.00     0.102 A 
ATOM      9  C   UNL d   1       2.038   3.311  -0.263  0.00  0.00     0.102 A 
ATOM     10  C   UNL d   1       4.396   3.504   0.236  0.00  0.00     0.039 A 
ATOM     11  C   UNL d   1       1.955   4.691  -0.434  0.00  0.00     0.039 A 
ATOM     12  O   UNL d   1       0.881   2.595  -0.440  0.00  0.00    -0.346 OA
ATOM     13  C   UNL d   1       3.093   5.481  -0.263  0.00  0.00     0.003 A 
ATOM     14  C   UNL d   1       4.309   4.889   0.083  0.00  0.00     0.003 A 
ATOM     15  C   UNL d   1       1.009   1.273   0.098  0.00  0.00     0.209 C 
ENDBRANCH   5   6
ENDBRANCH   2   5
BRANCH   1  16
ATOM     16  C   UNL d   1       4.803  -2.302  -2.931  0.00  0.00     0.177 C 
BRANCH  16  17
ATOM     17  S   UNL d   1       5.840  -2.782  -1.514  0.00  0.00    -0.149 SA
BRANCH  17  18
ATOM     18  C   UNL d   1       4.718  -3.908  -0.616  0.00  0.00     0.184 C 
BRANCH  18  19
ATOM     19  C   UNL d   1       4.313  -5.110  -1.440  0.00  0.00     0.149 C 
ATOM     20  O   UNL d   1       4.971  -6.138  -1.517  0.00  0.00    -0.649 OA
BRANCH  19  21
ATOM     21  O   UNL d   1       3.150  -4.954  -2.117  0.00  0.00    -0.776 OA
ATOM     22  H   UNL d   1       2.714  -4.073  -2.009  0.00  0.00     0.167 HD
ENDBRANCH  19  21
ENDBRANCH  18  19
ENDBRANCH  17  18
ENDBRANCH  16  17
ENDBRANCH   1  16
TORSDOF 7
