REMARK  1 active torsions:
REMARK  status: ('A' for Active; 'I' for Inactive)
REMARK       I    between atoms: C_2  and  N_1 
REMARK    1  A    between atoms: C_8  and  C_2 
ROOT
ATOM      1  N   UNL d   1       0.763   1.494   0.598  0.00  0.00    -0.306 N 
ATOM      2  C   UNL d   1       0.912   2.045   1.903  0.00  0.00     0.265 C 
ATOM      3  C   UNL d   1       1.818   1.467  -0.423  0.00  0.00     0.098 C 
ATOM      4  N   UNL d   1       0.977  -1.399  -0.320  0.00  0.00    -0.325 N 
ATOM      5  C   UNL d   1      -0.353   0.626   0.381  0.00  0.00     0.064 A 
ATOM      6  C   UNL d   1       2.276  -1.049  -0.420  0.00  0.00     0.224 C 
ATOM      7  C   UNL d   1       2.795   0.339  -0.191  0.00  0.00     0.128 C 
ATOM      8  C   UNL d   1      -0.218  -0.708  -0.045  0.00  0.00     0.061 A 
ATOM      9  O   UNL d   1       0.002   2.006   2.732  0.00  0.00    -0.266 OA
ATOM     10  O   UNL d   1       3.084  -1.950  -0.690  0.00  0.00    -0.273 OA
ATOM     11  C   UNL d   1       1.298   1.553  -1.871  0.00  0.00     0.033 C 
ATOM     12  C   UNL d   1      -1.642   1.146   0.606  0.00  0.00     0.032 A 
ATOM     13  C   UNL d   1      -1.383  -1.486  -0.199  0.00  0.00     0.032 A 
ATOM     14  C   UNL d   1      -2.783   0.367   0.422  0.00  0.00     0.002 A 
ATOM     15  C   UNL d   1      -2.653  -0.955   0.025  0.00  0.00     0.002 A 
ATOM     16  H   UNL d   1       0.877  -2.389  -0.523  0.00  0.00     0.169 HD
ENDROOT
BRANCH   2  17
ATOM     17  C   UNL d   1       2.210   2.590   2.286  0.00  0.00     0.073 A 
ATOM     18  S   UNL d   1       2.989   1.895   3.653  0.00  0.00    -0.097 SA
ATOM     19  C   UNL d   1       4.334   2.936   3.503  0.00  0.00     0.050 A 
ATOM     20  C   UNL d   1       4.186   3.821   2.460  0.00  0.00     0.009 A 
ATOM     21  C   UNL d   1       2.945   3.643   1.776  0.00  0.00     0.025 A 
ENDBRANCH   2  17
TORSDOF 1
