REMARK  4 active torsions:
REMARK  status: ('A' for Active; 'I' for Inactive)
REMARK    1  A    between atoms: C_9  and  C_6 
REMARK    2  A    between atoms: O_13  and  C_7 
REMARK    3  A    between atoms: C_22  and  O_13 
REMARK    4  A    between atoms: C_21  and  C_22 
ROOT
ATOM      1  C   UNL d   1       0.836  -0.272   0.037  0.00  0.00     0.052 A 
ATOM      2  N   UNL d   1       1.520  -1.443   0.069  0.00  0.00    -0.335 N 
ATOM      3  HN  UNL d   1       1.030  -2.338   0.056  1.00  0.00     0.168 HD
ATOM      4  C   UNL d   1       1.486   0.971   0.015  0.00  0.00    -0.015 A 
ATOM      5  C   UNL d   1       3.607  -0.215   0.082  0.00  0.00     0.109 A 
ATOM      6  C   UNL d   1       2.913   1.007   0.012  0.00  0.00     0.031 A 
ATOM      7  C   UNL d   1       2.868  -1.391   0.119  0.00  0.00     0.165 A 
ATOM      8  C   UNL d   1      -0.639  -0.383   0.028  0.00  0.00    -0.003 A 
ATOM      9  C   UNL d   1       5.035  -0.295   0.149  0.00  0.00     0.105 C 
ATOM     10  N   UNL d   1       6.199  -0.340   0.177  0.00  0.00    -0.191 NA
ATOM     11  C   UNL d   1       0.667   2.239   0.048  0.00  0.00     0.046 C 
ATOM     12  C   UNL d   1      -1.446   0.768  -0.002  0.00  0.00    -0.045 A 
ATOM     13  C   UNL d   1      -0.850   2.140  -0.085  0.00  0.00     0.044 C 
ATOM     14  C   UNL d   1      -1.295  -1.631   0.041  0.00  0.00     0.014 A 
ATOM     15  C   UNL d   1      -2.850   0.664  -0.002  0.00  0.00     0.008 A 
ATOM     16  C   UNL d   1      -2.692  -1.729   0.033  0.00  0.00     0.001 A 
ATOM     17  C   UNL d   1      -3.470  -0.580   0.017  0.00  0.00     0.001 A 
ENDROOT
BRANCH   6  18
ATOM     18  C   UNL d   1       3.651   2.281  -0.092  0.00  0.00     0.087 A 
ATOM     19  O   UNL d   1       3.108   3.356   0.556  0.00  0.00    -0.322 OA
ATOM     20  C   UNL d   1       3.890   4.434   0.310  0.00  0.00     0.142 A 
ATOM     21  C   UNL d   1       4.974   4.071  -0.449  0.00  0.00     0.027 A 
ATOM     22  C   UNL d   1       4.819   2.687  -0.715  0.00  0.00     0.040 A 
ENDBRANCH   6  18
BRANCH   7  23
ATOM     23  O   UNL d   1       3.564  -2.584   0.146  0.00  0.00    -0.327 OA
BRANCH  23  24
ATOM     24  C   UNL d   1       2.814  -3.686   0.634  0.00  0.00     0.255 C 
BRANCH  24  25
ATOM     25  C   UNL d   1       2.492  -3.645   2.129  0.00  0.00     0.147 C 
ATOM     26  O   UNL d   1       2.856  -2.733   2.872  0.00  0.00    -0.296 OA
ATOM     27  C   UNL d   1       1.730  -4.828   2.668  0.00  0.00     0.093 C 
ENDBRANCH  24  25
ENDBRANCH  23  24
ENDBRANCH   7  23
TORSDOF 4
