REMARK  4 active torsions:
REMARK  status: ('A' for Active; 'I' for Inactive)
REMARK       I    between atoms: N_2  and  C_1 
REMARK    1  A    between atoms: C_5  and  C_1 
REMARK    2  A    between atoms: C_4  and  N_3 
REMARK    3  A    between atoms: C_6  and  C_7 
REMARK    4  A    between atoms: O_18  and  C_13 
ROOT
ATOM      1  C   UNL d   1       0.999   0.074  -0.099  0.00  0.00     0.253 C 
ATOM      2  N   UNL d   1       0.543   1.393   0.108  0.00  0.00    -0.345 N 
ATOM      3  N   UNL d   1      -0.887   3.873   0.139  0.00  0.00    -0.376 N 
ATOM      4  C   UNL d   1       0.977   2.550  -0.701  0.00  0.00     0.146 C 
ATOM      5  C   UNL d   1      -0.780   1.507   0.743  0.00  0.00     0.146 C 
ATOM      6  C   UNL d   1       0.538   3.943  -0.203  0.00  0.00     0.143 C 
ATOM      7  C   UNL d   1      -1.128   2.923   1.230  0.00  0.00     0.143 C 
ATOM      8  O   UNL d   1       0.560  -0.883   0.533  0.00  0.00    -0.267 OA
ENDROOT
BRANCH   1   9
ATOM      9  C   UNL d   1       2.061  -0.180  -1.108  0.00  0.00     0.032 C 
ATOM     10  C   UNL d   1       3.155  -0.976  -0.764  0.00  0.00     0.017 C 
ATOM     11  C   UNL d   1       4.216  -1.130  -1.667  0.00  0.00     0.009 C 
ATOM     12  C   UNL d   1       4.220  -0.477  -2.917  0.00  0.00    -0.051 C 
ATOM     13  C   UNL d   1       3.063   0.226  -3.276  0.00  0.00     0.009 C 
ATOM     14  C   UNL d   1       1.980   0.324  -2.404  0.00  0.00     0.017 C 
BRANCH  12  15
ATOM     15  C   UNL d   1       5.436  -0.566  -3.856  0.00  0.00    -0.024 C 
ATOM     16  C   UNL d   1       5.352   0.405  -5.061  0.00  0.00     0.019 C 
ATOM     17  C   UNL d   1       6.732  -0.209  -3.096  0.00  0.00     0.019 C 
ATOM     18  C   UNL d   1       5.537  -1.997  -4.408  0.00  0.00     0.019 C 
ENDBRANCH  12  15
ENDBRANCH   1   9
BRANCH   3  19
ATOM     19  C   UNL d   1      -1.670   5.023   0.020  0.00  0.00     0.064 A 
ATOM     20  C   UNL d   1      -1.903   5.691  -1.207  0.00  0.00     0.094 A 
ATOM     21  C   UNL d   1      -2.806   6.766  -1.284  0.00  0.00     0.039 A 
ATOM     22  C   UNL d   1      -3.482   7.215  -0.154  0.00  0.00     0.003 A 
ATOM     23  C   UNL d   1      -3.228   6.617   1.069  0.00  0.00     0.002 A 
ATOM     24  C   UNL d   1      -2.335   5.544   1.151  0.00  0.00     0.032 A 
BRANCH  20  25
ATOM     25  O   UNL d   1      -1.251   5.453  -2.392  0.00  0.00    -0.354 OA
ATOM     26  C   UNL d   1      -1.364   4.135  -2.909  0.00  0.00     0.210 C 
ENDBRANCH  20  25
ENDBRANCH   3  19
TORSDOF 4
