REMARK  0 active torsions:
REMARK  status: ('A' for Active; 'I' for Inactive)
ROOT
ATOM      1  N   UNL d   1      -0.680  -1.400   0.990  0.00  0.00    -0.345 N 
ATOM      2  C   UNL d   1       1.231  -0.837  -0.458  0.00  0.00     0.245 C 
ATOM      3  C   UNL d   1       0.292  -2.042   0.077  0.00  0.00     0.389 C 
ATOM      4  C   UNL d   1       0.274   0.313  -0.281  0.00  0.00     0.034 A 
ATOM      5  C   UNL d   1      -0.751  -0.061   0.599  0.00  0.00     0.043 A 
ATOM      6  N   UNL d   1      -0.259  -2.883  -1.013  0.00  0.00     0.113 N 
ATOM      7  C   UNL d   1      -1.857  -2.155   1.361  0.00  0.00     0.136 C 
ATOM      8  O   UNL d   1       1.661  -0.983  -1.815  0.00  0.00    -0.346 OA
ATOM      9  O   UNL d   1       2.358  -0.611   0.402  0.00  0.00    -0.346 OA
ATOM     10  C   UNL d   1      -2.510  -2.873   0.154  0.00  0.00     0.002 C 
ATOM     11  C   UNL d   1      -1.388  -3.686  -0.543  0.00  0.00     0.283 C 
ATOM     12  C   UNL d   1       0.332   1.596  -0.822  0.00  0.00     0.015 A 
ATOM     13  C   UNL d   1      -1.672   0.889   1.014  0.00  0.00     0.030 A 
ATOM     14  C   UNL d   1      -3.194  -1.915  -0.856  0.00  0.00     0.013 C 
ATOM     15  C   UNL d   1      -3.606  -3.841   0.674  0.00  0.00     0.013 C 
ATOM     16  C   UNL d   1       2.962  -0.406  -1.858  0.00  0.00     0.198 C 
ATOM     17  C   UNL d   1       3.484  -0.443  -0.444  0.00  0.00     0.198 C 
ATOM     18  C   UNL d   1      -0.634   2.525  -0.445  0.00  0.00     0.001 A 
ATOM     19  C   UNL d   1      -1.624   2.178   0.480  0.00  0.00     0.002 A 
ATOM     20  C   UNL d   1      -4.388  -1.161  -0.274  0.00  0.00     0.001 C 
ATOM     21  C   UNL d   1      -4.782  -3.108   1.324  0.00  0.00     0.001 C 
ATOM     22  C   UNL d   1      -5.410  -2.079   0.389  0.00  0.00     0.000 C 
ATOM     23  H   UNL d   1      -0.560  -2.242  -1.746  0.00  0.00     0.318 HD
ENDROOT
TORSDOF 0
