REMARK  4 active torsions:
REMARK  status: ('A' for Active; 'I' for Inactive)
REMARK    1  A    between atoms: C_9  and  C_1 
REMARK       I    between atoms: N_14  and  C_9 
REMARK    2  A    between atoms: C_22  and  N_14 
REMARK    3  A    between atoms: C_16  and  C_23 
REMARK    4  A    between atoms: C_23  and  C_22 
ROOT
ATOM      1  C   UNL d   1      -1.419  -3.023   0.033  0.00  0.00     0.254 C 
ATOM      2  O   UNL d   1      -0.341  -3.607   0.081  0.00  0.00    -0.268 OA
ATOM      3  N   UNL d   1      -2.627  -3.683   0.010  0.00  0.00    -0.356 N 
ATOM      4  H   UNL d   1      -3.482  -3.132  -0.027  0.00  0.00     0.162 HD
ENDROOT
BRANCH   1   5
ATOM      5  C   UNL d   1      -1.449  -1.542  -0.005  0.00  0.00     0.061 A 
ATOM      6  C   UNL d   1      -2.640  -0.770  -0.061  0.00  0.00     0.082 A 
ATOM      7  N   UNL d   1      -3.913  -1.215  -0.086  0.00  0.00    -0.310 N 
ATOM      8  C   UNL d   1      -2.564   0.742  -0.103  0.00  0.00     0.068 A 
ATOM      9  S   UNL d   1      -4.894   0.122  -0.153  0.00  0.00     0.068 SA
ATOM     10  HN  UNL d   1      -4.215  -2.189  -0.067  1.00  0.00     0.176 HD
ATOM     11  N   UNL d   1      -3.766   1.334  -0.156  0.00  0.00    -0.310 N 
ATOM     12  HN  UNL d   1      -3.949   2.337  -0.191  1.00  0.00     0.176 HD
ATOM     13  C   UNL d   1      -1.320   1.416  -0.086  0.00  0.00     0.032 A 
ATOM     14  C   UNL d   1      -0.176   0.606  -0.027  0.00  0.00     0.003 A 
ATOM     15  C   UNL d   1      -0.237  -0.808   0.013  0.00  0.00     0.019 A 
ENDBRANCH   1   5
BRANCH   3  16
ATOM     16  C   UNL d   1      -2.711  -5.131   0.035  0.00  0.00     0.127 C 
BRANCH  16  17
ATOM     17  C   UNL d   1      -4.158  -5.621  -0.004  0.00  0.00     0.058 C 
BRANCH  17  18
ATOM     18  C   UNL d   1      -4.260  -7.126   0.031  0.00  0.00    -0.057 A 
ATOM     19  C   UNL d   1      -4.325  -7.805   1.256  0.00  0.00     0.009 A 
ATOM     20  C   UNL d   1      -4.420  -9.198   1.290  0.00  0.00     0.024 A 
ATOM     21  C   UNL d   1      -4.445  -9.919   0.099  0.00  0.00     0.034 A 
ATOM     22  C   UNL d   1      -4.369  -9.260  -1.125  0.00  0.00     0.024 A 
ATOM     23 CL   UNL d   1      -4.570 -11.635   0.140  0.00  0.00    -0.084 Cl
ATOM     24  C   UNL d   1      -4.274  -7.866  -1.160  0.00  0.00     0.009 A 
ENDBRANCH  17  18
ENDBRANCH  16  17
ENDBRANCH   3  16
TORSDOF 4
