REMARK  4 active torsions:
REMARK  status: ('A' for Active; 'I' for Inactive)
REMARK    1  A    between atoms: C_13  and  C_3 
REMARK    2  A    between atoms: C_14  and  N_5 
REMARK    3  A    between atoms: C_16  and  N_9 
REMARK    4  A    between atoms: C_18  and  C_13 
ROOT
ATOM      1  C   UNL d   1      -1.403  -0.052  -0.043  0.00  0.00     0.117 C 
ATOM      2  C   UNL d   1      -2.624  -0.007  -0.615  0.00  0.00     0.093 C 
ATOM      3  C   UNL d   1       0.525   0.448   1.327  0.00  0.00     0.142 C 
ATOM      4  C   UNL d   1      -3.448  -1.187  -1.010  0.00  0.00     0.282 C 
ATOM      5  N   UNL d   1      -0.601  -1.149   0.339  0.00  0.00    -0.248 N 
ATOM      6  S   UNL d   1      -0.576   1.447   0.440  0.00  0.00    -0.046 SA
ATOM      7  N   UNL d   1       0.463  -0.839   1.202  0.00  0.00    -0.282 N 
ATOM      8  HN  UNL d   1       1.081  -1.513   1.654  1.00  0.00     0.188 HD
ATOM      9  N   UNL d   1      -4.381  -0.631  -1.898  0.00  0.00    -0.220 N 
ATOM     10  N   UNL d   1      -4.402   0.753  -1.890  0.00  0.00    -0.294 N 
ATOM     11  HN  UNL d   1      -5.042   1.357  -2.406  1.00  0.00     0.187 HD
ATOM     12  C   UNL d   1      -3.442   1.133  -1.093  0.00  0.00     0.041 C 
ATOM     13  O   UNL d   1      -3.321  -2.329  -0.614  0.00  0.00    -0.265 OA
ATOM     14  C   UNL d   1      -3.277   2.574  -0.729  0.00  0.00     0.071 C 
ENDROOT
BRANCH   5  15
ATOM     15  C   UNL d   1      -0.429  -2.384  -0.355  0.00  0.00     0.057 A 
ATOM     16  C   UNL d   1      -0.622  -2.510  -1.742  0.00  0.00     0.033 A 
ATOM     17  C   UNL d   1      -0.491  -3.750  -2.379  0.00  0.00     0.026 A 
ATOM     18  C   UNL d   1      -0.131  -4.875  -1.642  0.00  0.00     0.034 A 
ATOM     19  C   UNL d   1       0.114  -4.769  -0.277  0.00  0.00     0.026 A 
ATOM     20 CL   UNL d   1       0.018  -6.400  -2.424  0.00  0.00    -0.084 Cl
ATOM     21  C   UNL d   1      -0.030  -3.530   0.358  0.00  0.00     0.033 A 
ENDBRANCH   5  15
BRANCH   3  22
ATOM     22  C   UNL d   1       1.414   1.285   2.184  0.00  0.00     0.217 C 
ATOM     23  O   UNL d   1       0.945   2.252   2.776  0.00  0.00    -0.284 OA
BRANCH  22  24
ATOM     24  C   UNL d   1       2.835   0.910   2.400  0.00  0.00     0.017 A 
ATOM     25  C   UNL d   1       3.536   0.058   1.541  0.00  0.00     0.015 A 
ATOM     26  C   UNL d   1       4.870  -0.263   1.820  0.00  0.00     0.001 A 
ATOM     27  C   UNL d   1       5.503   0.261   2.947  0.00  0.00     0.000 A 
ATOM     28  C   UNL d   1       4.811   1.119   3.798  0.00  0.00     0.001 A 
ATOM     29  C   UNL d   1       3.483   1.447   3.523  0.00  0.00     0.015 A 
ENDBRANCH  22  24
ENDBRANCH   3  22
BRANCH   9  30
ATOM     30  C   UNL d   1      -5.279  -1.311  -2.758  0.00  0.00     0.060 A 
ATOM     31  C   UNL d   1      -5.379  -2.708  -2.777  0.00  0.00     0.031 A 
ATOM     32  C   UNL d   1      -6.233  -3.355  -3.677  0.00  0.00     0.002 A 
ATOM     33  C   UNL d   1      -6.995  -2.616  -4.579  0.00  0.00     0.000 A 
ATOM     34  C   UNL d   1      -6.911  -1.228  -4.575  0.00  0.00     0.002 A 
ATOM     35  C   UNL d   1      -6.065  -0.583  -3.668  0.00  0.00     0.031 A 
ENDBRANCH   9  30
TORSDOF 4
