REMARK  5 active torsions:
REMARK  status: ('A' for Active; 'I' for Inactive)
REMARK    1  A    between atoms: C_4  and  C_2 
REMARK    2  A    between atoms: C_4  and  C_3 
REMARK    3  A    between atoms: C_4  and  O_19 
REMARK    4  A    between atoms: C_9  and  C_15 
REMARK    5  A    between atoms: O_24  and  C_20 
ROOT
ATOM      1  C   UNL d   1       0.488   0.681   1.191  0.00  0.00    -0.014 A 
ATOM      2  C   UNL d   1       0.425   0.046  -0.083  0.00  0.00     0.002 A 
ATOM      3  C   UNL d   1      -0.126  -1.254  -0.134  0.00  0.00     0.043 A 
ATOM      4  N   UNL d   1      -0.684  -1.869   0.923  0.00  0.00    -0.365 N 
ATOM      5  HN  UNL d   1      -1.089  -2.801   0.840  1.00  0.00     0.165 HD
ATOM      6  C   UNL d   1       0.893   0.615  -1.292  0.00  0.00     0.051 A 
ATOM      7  C   UNL d   1      -0.074  -1.962  -1.329  0.00  0.00     0.033 A 
ATOM      8  C   UNL d   1       0.953  -0.116  -2.480  0.00  0.00     0.069 A 
ATOM      9  C   UNL d   1      -0.686  -1.205   2.095  0.00  0.00     0.089 A 
ATOM     10  C   UNL d   1       0.486  -1.421  -2.490  0.00  0.00     0.039 A 
ATOM     11  C   UNL d   1      -0.114   0.036   2.281  0.00  0.00     0.027 A 
ENDROOT
BRANCH   1  12
ATOM     12  C   UNL d   1       1.265   1.964   1.474  0.00  0.00     0.185 C 
BRANCH  12  13
ATOM     13  O   UNL d   1       0.741   3.008   0.645  0.00  0.00    -0.389 OA
ATOM     14  H   UNL d   1       1.480   3.466   0.216  0.00  0.00     0.210 HD
ENDBRANCH  12  13
BRANCH  12  15
ATOM     15  C   UNL d   1       2.831   1.810   1.351  0.00  0.00     0.256 C 
ATOM     16  N   UNL d   1       3.438   0.689   2.128  0.00  0.00     0.096 N 
ATOM     17  C   UNL d   1       3.408   0.993   3.580  0.00  0.00     0.282 C 
ATOM     18  C   UNL d   1       4.849   0.536   1.698  0.00  0.00     0.273 C 
ATOM     19  C   UNL d   1       4.288   2.216   3.952  0.00  0.00     0.040 C 
ATOM     20  C   UNL d   1       4.769   2.865   2.630  0.00  0.00    -0.001 C 
ATOM     21  C   UNL d   1       5.665   1.815   1.945  0.00  0.00     0.035 C 
ATOM     22  C   UNL d   1       3.574   3.133   1.687  0.00  0.00     0.044 C 
BRANCH  19  23
ATOM     23  C   UNL d   1       3.619   3.097   4.984  0.00  0.00    -0.030 C 
ATOM     24  C   UNL d   1       3.329   4.402   4.902  0.00  0.00     0.007 C 
ENDBRANCH  19  23
ENDBRANCH  12  15
ENDBRANCH   1  12
BRANCH   8  25
ATOM     25  O   UNL d   1       1.498   0.555  -3.540  0.00  0.00    -0.356 OA
ATOM     26  C   UNL d   1       1.825  -0.225  -4.684  0.00  0.00     0.210 C 
ENDBRANCH   8  25
TORSDOF 5
