REMARK  2 active torsions:
REMARK  status: ('A' for Active; 'I' for Inactive)
REMARK       I    between atoms: N_2  and  C_1 
REMARK    1  A    between atoms: C_3  and  C_1 
REMARK    2  A    between atoms: C_6  and  C_3 
ROOT
ATOM      1  C   UNL d   1       1.008   0.035   0.079  0.00  0.00     0.224 C 
ATOM      2  N   UNL d   1       0.540  -0.890   1.001  0.00  0.00    -0.348 N 
ATOM      3  O   UNL d   1       2.132   0.539   0.188  0.00  0.00    -0.273 OA
ATOM      4  O   UNL d   1      -0.215  -2.841   2.955  0.00  0.00    -0.388 OA
ATOM      5  C   UNL d   1       1.334  -1.108   2.216  0.00  0.00     0.152 C 
ATOM      6  C   UNL d   1      -0.845  -1.362   1.097  0.00  0.00     0.152 C 
ATOM      7  C   UNL d   1       1.171  -2.534   2.744  0.00  0.00     0.187 C 
ATOM      8  C   UNL d   1      -0.932  -2.763   1.716  0.00  0.00     0.187 C 
ENDROOT
BRANCH   1   9
ATOM      9  C   UNL d   1       0.125   0.433  -1.096  0.00  0.00     0.141 C 
BRANCH   9  10
ATOM     10  C   UNL d   1       0.391  -0.342  -2.366  0.00  0.00    -0.050 A 
ATOM     11  C   UNL d   1      -0.653  -0.996  -3.038  0.00  0.00     0.007 A 
ATOM     12  C   UNL d   1      -0.420  -1.637  -4.258  0.00  0.00     0.001 A 
ATOM     13  C   UNL d   1       0.855  -1.632  -4.820  0.00  0.00     0.000 A 
ATOM     14  C   UNL d   1       1.902  -0.996  -4.160  0.00  0.00     0.001 A 
ATOM     15  C   UNL d   1       1.671  -0.353  -2.941  0.00  0.00     0.007 A 
ENDBRANCH   9  10
ENDBRANCH   1   9
TORSDOF 2
