REMARK  6 active torsions:
REMARK  status: ('A' for Active; 'I' for Inactive)
REMARK    1  A    between atoms: C_6  and  S_1 
REMARK    2  A    between atoms: C_13  and  S_1 
REMARK    3  A    between atoms: C_3  and  C_10 
REMARK    4  A    between atoms: C_7  and  C_6 
REMARK       I    between atoms: N_15  and  C_7 
REMARK    5  A    between atoms: C_18  and  C_13 
REMARK    6  A    between atoms: N_19  and  N_15 
ROOT
ATOM      1  C   UNL d   1       4.066   2.994   2.778  0.00  0.00    -0.008 A 
ATOM      2  C   UNL d   1       3.182   3.309   1.739  0.00  0.00     0.014 A 
ATOM      3  C   UNL d   1       4.549   1.683   2.872  0.00  0.00     0.014 A 
ATOM      4  C   UNL d   1       3.250   1.018   0.920  0.00  0.00    -0.044 A 
ATOM      5  C   UNL d   1       2.768   2.330   0.833  0.00  0.00     0.009 A 
ATOM      6  C   UNL d   1       4.139   0.704   1.958  0.00  0.00     0.009 A 
ENDROOT
BRANCH   4   7
ATOM      7  C   UNL d   1       2.787  -0.049  -0.039  0.00  0.00     0.179 C 
BRANCH   7   8
ATOM      8  S   UNL d   1       3.302   0.298  -1.727  0.00  0.00     0.157 S 
ATOM      9  O   UNL d   1       2.983  -0.863  -2.543  0.00  0.00    -0.227 OA
ATOM     10  O   UNL d   1       2.781   1.591  -2.138  0.00  0.00    -0.227 OA
BRANCH   8  11
ATOM     11  C   UNL d   1       5.062   0.431  -1.701  0.00  0.00     0.244 C 
BRANCH  11  12
ATOM     12  C   UNL d   1       5.655  -0.854  -1.222  0.00  0.00     0.245 C 
ATOM     13  O   UNL d   1       5.930  -1.053  -0.040  0.00  0.00    -0.271 OA
ATOM     14  N   UNL d   1       5.894  -1.794  -2.218  0.00  0.00    -0.293 N 
ATOM     15  H   UNL d   1       5.338  -1.749  -3.077  0.00  0.00     0.183 HD
BRANCH  14  16
ATOM     16  N   UNL d   1       6.398  -3.061  -1.840  0.00  0.00    -0.247 NA
ATOM     17  H   UNL d   1       6.531  -3.048  -0.818  0.00  0.00     0.143 HD
ATOM     18  H   UNL d   1       7.345  -3.153  -2.218  0.00  0.00     0.143 HD
ENDBRANCH  14  16
ENDBRANCH  11  12
ENDBRANCH   8  11
ENDBRANCH   7   8
ENDBRANCH   4   7
BRANCH   1  19
ATOM     19  C   UNL d   1       4.473   3.995   3.753  0.00  0.00     0.063 A 
ATOM     20  N   UNL d   1       5.713   3.941   4.380  0.00  0.00    -0.292 N 
ATOM     21  N   UNL d   1       5.883   4.942   5.228  0.00  0.00    -0.061 NA
ATOM     22  HN  UNL d   1       6.409   3.216   4.206  1.00  0.00     0.183 HD
ATOM     23  S   UNL d   1       4.555   5.955   5.312  0.00  0.00    -0.010 SA
ATOM     24  C   UNL d   1       3.670   5.049   4.157  0.00  0.00     0.096 A 
ENDBRANCH   1  19
TORSDOF 6
