REMARK  4 active torsions:
REMARK  status: ('A' for Active; 'I' for Inactive)
REMARK    1  A    between atoms: C_6  and  C_1 
REMARK    2  A    between atoms: C_15  and  C_5 
REMARK       I    between atoms: C_7  and  N_10 
REMARK    3  A    between atoms: C_16  and  C_7 
REMARK    4  A    between atoms: N_10  and  C_15 
ROOT
ATOM      1  C   UNL d   1      -0.289  -0.476   0.913  0.00  0.00     0.091 A 
ATOM      2  N   UNL d   1       0.763   0.285   1.165  0.00  0.00    -0.351 N 
ATOM      3  HN  UNL d   1       1.106   0.514   2.098  1.00  0.00     0.166 HD
ATOM      4  S   UNL d   1      -0.626  -0.705  -0.761  0.00  0.00    -0.081 SA
ATOM      5  C   UNL d   1       1.337   0.730  -0.024  0.00  0.00     0.034 A 
ATOM      6  C   UNL d   1       0.706   0.281  -1.168  0.00  0.00     0.078 A 
ENDROOT
BRANCH   5   7
ATOM      7  C   UNL d   1       2.528   1.633   0.019  0.00  0.00     0.180 C 
BRANCH   7   8
ATOM      8  N   UNL d   1       3.744   0.848  -0.051  0.00  0.00    -0.355 N 
ATOM      9  C   UNL d   1       4.306   0.506  -1.262  0.00  0.00     0.222 C 
ATOM     10  O   UNL d   1       3.791   0.868  -2.325  0.00  0.00    -0.273 OA
ATOM     11  H   UNL d   1       4.099   0.448   0.808  0.00  0.00     0.162 HD
BRANCH   9  12
ATOM     12  C   UNL d   1       5.602  -0.335  -1.203  0.00  0.00     0.078 C 
ATOM     13  C   UNL d   1       6.610  -0.171  -0.035  0.00  0.00     0.014 C 
ATOM     14  C   UNL d   1       7.750  -0.290  -1.064  0.00  0.00     0.002 C 
ATOM     15  C   UNL d   1       6.747   0.156  -2.136  0.00  0.00     0.014 C 
ENDBRANCH   9  12
ENDBRANCH   7   8
ENDBRANCH   5   7
BRANCH   1  16
ATOM     16  C   UNL d   1      -1.082  -1.052   1.979  0.00  0.00     0.038 A 
ATOM     17  S   UNL d   1      -2.420  -2.103   1.705  0.00  0.00    -0.099 SA
ATOM     18  C   UNL d   1      -2.731  -2.280   3.374  0.00  0.00     0.050 A 
ATOM     19  C   UNL d   1      -1.844  -1.557   4.140  0.00  0.00     0.008 A 
ATOM     20  C   UNL d   1      -0.898  -0.853   3.337  0.00  0.00     0.022 A 
ENDBRANCH   1  16
TORSDOF 4
