REMARK  4 active torsions:
REMARK  status: ('A' for Active; 'I' for Inactive)
REMARK    1  A    between atoms: C_6  and  C_1 
REMARK    2  A    between atoms: N_15  and  C_2 
REMARK       I    between atoms: N_14  and  C_6 
REMARK    3  A    between atoms: N_10  and  N_14 
REMARK    4  A    between atoms: C_20  and  C_19 
ROOT
ATOM      1  C   UNL d   1       2.499  -0.039   0.016  0.00  0.00     0.103 A 
ATOM      2  C   UNL d   1       1.657   1.067  -0.002  0.00  0.00     0.062 A 
ATOM      3  C   UNL d   1       0.247   0.734   0.009  0.00  0.00     0.032 A 
ATOM      4  S   UNL d   1       1.601  -1.489   0.039  0.00  0.00    -0.064 SA
ATOM      5  C   UNL d   1       0.117  -0.655   0.024  0.00  0.00     0.088 A 
ATOM      6  N   UNL d   1      -1.024  -1.376   0.027  0.00  0.00    -0.354 N 
ATOM      7  HN  UNL d   1      -1.027  -2.396   0.039  1.00  0.00     0.166 HD
ATOM      8  C   UNL d   1      -0.974   1.476   0.004  0.00  0.00    -0.045 A 
ATOM      9  C   UNL d   1      -2.174   0.736   0.004  0.00  0.00     0.032 A 
ATOM     10  C   UNL d   1      -2.153  -0.650   0.013  0.00  0.00     0.006 A 
ATOM     11  C   UNL d   1      -1.132   2.975  -0.002  0.00  0.00     0.049 C 
ATOM     12  C   UNL d   1      -3.449  -1.409   0.009  0.00  0.00     0.068 C 
ENDROOT
BRANCH   1  13
ATOM     13  C   UNL d   1       3.964  -0.033   0.012  0.00  0.00     0.279 C 
ATOM     14  N   UNL d   1       4.598  -1.280   0.019  0.00  0.00    -0.266 N 
ATOM     15  H   UNL d   1       4.048  -2.131   0.019  0.00  0.00     0.190 HD
ATOM     16  O   UNL d   1       4.608   1.019   0.002  0.00  0.00    -0.265 OA
BRANCH  14  17
ATOM     17  N   UNL d   1       5.960  -1.329  -0.055  0.00  0.00    -0.308 N 
ATOM     18  C   UNL d   1       6.523  -2.495  -0.051  0.00  0.00     0.120 C 
ATOM     19  HN  UNL d   1       6.516  -0.476  -0.113  1.00  0.00     0.186 HD
BRANCH  18  20
ATOM     20  C   UNL d   1       7.988  -2.615  -0.172  0.00  0.00    -0.004 A 
ATOM     21  C   UNL d   1       8.790  -1.485  -0.278  0.00  0.00     0.100 A 
ATOM     22  N   UNL d   1      10.138  -1.530  -0.425  0.00  0.00    -0.374 N 
ATOM     23  C   UNL d   1      10.704  -2.754  -0.470  0.00  0.00     0.087 A 
ATOM     24  HN  UNL d   1      10.697  -0.679  -0.499  1.00  0.00     0.164 HD
ATOM     25  C   UNL d   1       9.987  -3.937  -0.366  0.00  0.00     0.018 A 
ATOM     26  C   UNL d   1       8.601  -3.866  -0.211  0.00  0.00     0.015 A 
ENDBRANCH  18  20
ENDBRANCH  14  17
ENDBRANCH   1  13
BRANCH   2  27
ATOM     27  N   UNL d   1       2.165   2.319  -0.033  0.00  0.00    -0.397 N 
ATOM     28  H   UNL d   1       3.182   2.464  -0.017  0.00  0.00     0.156 HD
ATOM     29  H   UNL d   1       1.641   3.178   0.021  0.00  0.00     0.156 HD
ENDBRANCH   2  27
TORSDOF 4
