REMARK  5 active torsions:
REMARK  status: ('A' for Active; 'I' for Inactive)
REMARK    1  A    between atoms: C_8  and  N_1 
REMARK    2  A    between atoms: C_7  and  C_3 
REMARK    3  A    between atoms: C_5  and  O_10 
REMARK    4  A    between atoms: O_18  and  C_7 
REMARK    5  A    between atoms: O_10  and  C_17 
ROOT
ATOM      1  C   UNL d   1       0.382  -2.416   0.023  0.00  0.00     0.037 A 
ATOM      2  C   UNL d   1       1.719  -2.743   0.287  0.00  0.00     0.032 A 
ATOM      3  C   UNL d   1      -0.500  -3.481  -0.204  0.00  0.00     0.032 A 
ATOM      4  C   UNL d   1       1.252  -5.119   0.192  0.00  0.00     0.078 A 
ATOM      5  C   UNL d   1       2.154  -4.077   0.361  0.00  0.00     0.039 A 
ATOM      6  C   UNL d   1      -0.068  -4.811  -0.131  0.00  0.00     0.039 A 
ENDROOT
BRANCH   1   7
ATOM      7  N   UNL d   1      -0.074  -1.068  -0.013  0.00  0.00    -0.317 N 
ATOM      8  C   UNL d   1       0.713   0.079   0.132  0.00  0.00     0.225 C 
ATOM      9  C   UNL d   1      -0.197   1.283   0.144  0.00  0.00     0.120 C 
ATOM     10  O   UNL d   1       1.923   0.185   0.272  0.00  0.00    -0.273 OA
ATOM     11  C   UNL d   1      -1.514   0.758  -0.399  0.00  0.00     0.111 C 
ATOM     12  C   UNL d   1      -1.479  -0.723  -0.067  0.00  0.00     0.148 C 
BRANCH  11  13
ATOM     13  C   UNL d   1      -1.644   0.994  -1.891  0.00  0.00     0.145 C 
ATOM     14  O   UNL d   1      -1.720   0.118  -2.734  0.00  0.00    -0.650 OA
BRANCH  13  15
ATOM     15  O   UNL d   1      -1.733   2.302  -2.215  0.00  0.00    -0.776 OA
ATOM     16  H   UNL d   1      -1.698   2.930  -1.470  0.00  0.00     0.167 HD
ENDBRANCH  13  15
ENDBRANCH  11  13
ENDBRANCH   1   7
BRANCH   4  17
ATOM     17  O   UNL d   1       1.521  -6.448   0.273  0.00  0.00    -0.255 OA
BRANCH  17  18
ATOM     18  C   UNL d   1       2.582  -6.898   1.101  0.00  0.00     0.530 C 
ATOM     19  F   UNL d   1       3.015  -5.981   1.991  0.00  0.00    -0.144 F 
ATOM     20  F   UNL d   1       2.146  -7.971   1.802  0.00  0.00    -0.144 F 
ATOM     21  F   UNL d   1       3.620  -7.293   0.334  0.00  0.00    -0.144 F 
ENDBRANCH  17  18
ENDBRANCH   4  17
TORSDOF 5
