REMARK  3 active torsions:
REMARK  status: ('A' for Active; 'I' for Inactive)
REMARK    1  A    between atoms: S_2  and  C_1 
REMARK    2  A    between atoms: C_8  and  S_2 
REMARK    3  A    between atoms: N_11  and  C_3 
ROOT
ATOM      1  S   UNL d   1       2.888   1.708  -0.228  0.00  0.00     0.225 S 
ATOM      2  O   UNL d   1       3.006   2.630   0.887  0.00  0.00    -0.216 OA
ATOM      3  O   UNL d   1       3.836   0.634  -0.450  0.00  0.00    -0.216 OA
ENDROOT
BRANCH   1   4
ATOM      4  C   UNL d   1       1.340   0.930  -0.024  0.00  0.00     0.167 A 
ATOM      5  C   UNL d   1       0.971   0.054   0.996  0.00  0.00     0.110 A 
ATOM      6  S   UNL d   1      -0.671  -0.449   0.698  0.00  0.00    -0.064 SA
ATOM      7  C   UNL d   1      -0.745   0.534  -0.687  0.00  0.00     0.141 A 
ATOM      8  N   UNL d   1       0.344   1.196  -0.982  0.00  0.00    -0.348 N 
ATOM      9  HN  UNL d   1       0.454   1.813  -1.786  1.00  0.00     0.166 HD
BRANCH   5  10
ATOM     10  N   UNL d   1       1.538  -0.465   2.119  0.00  0.00    -0.386 N 
ATOM     11  C   UNL d   1       2.892  -0.293   2.579  0.00  0.00     0.147 C 
ATOM     12  H   UNL d   1       1.020  -1.190   2.611  0.00  0.00     0.159 HD
ENDBRANCH   5  10
ENDBRANCH   1   4
BRANCH   1  13
ATOM     13  C   UNL d   1       2.764   2.674  -1.713  0.00  0.00     0.065 A 
ATOM     14  C   UNL d   1       2.334   4.002  -1.639  0.00  0.00     0.024 A 
ATOM     15  C   UNL d   1       2.228   4.762  -2.806  0.00  0.00     0.008 A 
ATOM     16  C   UNL d   1       2.554   4.202  -4.049  0.00  0.00    -0.062 A 
ATOM     17  C   UNL d   1       3.024   2.882  -4.107  0.00  0.00     0.008 A 
ATOM     18  C   UNL d   1       2.435   5.031  -5.295  0.00  0.00     0.048 C 
ATOM     19  C   UNL d   1       3.130   2.118  -2.942  0.00  0.00     0.024 A 
ENDBRANCH   1  13
TORSDOF 3
