REMARK  5 active torsions:
REMARK  status: ('A' for Active; 'I' for Inactive)
REMARK    1  A    between atoms: C_8  and  C_1 
REMARK    2  A    between atoms: C_7  and  C_2 
REMARK    3  A    between atoms: C_9  and  C_3 
REMARK    4  A    between atoms: O_17  and  C_7 
REMARK    5  A    between atoms: O_16  and  C_8 
ROOT
ATOM      1  C   UNL d   1      -1.285  -0.997   0.100  0.00  0.00     0.052 C 
ATOM      2  C   UNL d   1       1.283  -1.016   0.104  0.00  0.00     0.052 C 
ATOM      3  C   UNL d   1       0.001  -1.833  -0.060  0.00  0.00     0.101 C 
ATOM      4  C   UNL d   1       1.232   0.336   0.011  0.00  0.00     0.018 C 
ATOM      5  C   UNL d   1      -1.226   0.355   0.004  0.00  0.00     0.018 C 
ATOM      6  N   UNL d   1       0.012   0.966  -0.169  0.00  0.00    -0.362 N 
ATOM      7  C   UNL d   1      -2.357   1.352   0.101  0.00  0.00     0.069 C 
ATOM      8  C   UNL d   1       2.430   1.248   0.107  0.00  0.00     0.069 C 
ATOM      9  H   UNL d   1       0.019   1.984  -0.164  0.00  0.00     0.165 HD
ENDROOT
BRANCH   3  10
ATOM     10  C   UNL d   1      -0.001  -2.509  -1.432  0.00  0.00    -0.038 A 
ATOM     11  C   UNL d   1      -0.057  -3.875  -1.646  0.00  0.00     0.057 A 
ATOM     12  S   UNL d   1      -0.045  -4.291  -3.306  0.00  0.00    -0.113 SA
ATOM     13  C   UNL d   1       0.029  -2.652  -3.776  0.00  0.00     0.050 A 
ATOM     14  C   UNL d   1       0.046  -1.808  -2.690  0.00  0.00     0.016 A 
ENDBRANCH   3  10
BRANCH   2  15
ATOM     15  C   UNL d   1       2.570  -1.716   0.343  0.00  0.00     0.291 C 
ATOM     16  O   UNL d   1       3.673  -1.241   0.114  0.00  0.00    -0.260 OA
BRANCH  15  17
ATOM     17  O   UNL d   1       2.365  -2.939   0.896  0.00  0.00    -0.323 OA
ATOM     18  C   UNL d   1       3.578  -3.627   1.214  0.00  0.00     0.213 C 
ENDBRANCH  15  17
ENDBRANCH   2  15
BRANCH   1  19
ATOM     19  C   UNL d   1      -2.490  -1.823   0.401  0.00  0.00     0.291 C 
ATOM     20  O   UNL d   1      -2.423  -2.938   0.908  0.00  0.00    -0.260 OA
BRANCH  19  21
ATOM     21  O   UNL d   1      -3.639  -1.209   0.045  0.00  0.00    -0.323 OA
ATOM     22  C   UNL d   1      -4.837  -1.889   0.424  0.00  0.00     0.213 C 
ENDBRANCH  19  21
ENDBRANCH   1  19
TORSDOF 5
