REMARK  3 active torsions:
REMARK  status: ('A' for Active; 'I' for Inactive)
REMARK    1  A    between atoms: C_6  and  C_1 
REMARK    2  A    between atoms: C_7  and  C_2 
REMARK    3  A    between atoms: C_8  and  C_3 
REMARK       I    between atoms: N_20  and  C_7 
ROOT
ATOM      1  C   UNL d   1       1.740  -1.292   0.039  0.00  0.00     0.035 A 
ATOM      2  C   UNL d   1       2.117   0.044   0.072  0.00  0.00     0.087 A 
ATOM      3  C   UNL d   1       0.308  -1.455  -0.046  0.00  0.00     0.040 A 
ATOM      4  S   UNL d   1       0.739   1.070   0.016  0.00  0.00    -0.072 SA
ATOM      5  C   UNL d   1      -0.350  -0.241  -0.110  0.00  0.00     0.100 A 
ATOM      6  C   UNL d   1      -1.768  -0.032  -0.159  0.00  0.00     0.108 C 
ATOM      7  N   UNL d   1      -2.908   0.175  -0.169  0.00  0.00    -0.191 NA
ENDROOT
BRANCH   3   8
ATOM      8  C   UNL d   1      -0.443  -2.756  -0.009  0.00  0.00     0.088 A 
ATOM      9  O   UNL d   1      -1.630  -2.981  -0.652  0.00  0.00    -0.322 OA
ATOM     10  C   UNL d   1      -1.983  -4.269  -0.419  0.00  0.00     0.142 A 
ATOM     11  C   UNL d   1      -1.084  -4.870   0.427  0.00  0.00     0.027 A 
ATOM     12  C   UNL d   1      -0.098  -3.894   0.697  0.00  0.00     0.040 A 
ENDBRANCH   3   8
BRANCH   1  13
ATOM     13  C   UNL d   1       2.708  -2.442   0.042  0.00  0.00     0.087 A 
ATOM     14  O   UNL d   1       2.456  -3.640  -0.574  0.00  0.00    -0.322 OA
ATOM     15  C   UNL d   1       3.502  -4.464  -0.330  0.00  0.00     0.142 A 
ATOM     16  C   UNL d   1       4.434  -3.828   0.450  0.00  0.00     0.027 A 
ATOM     17  C   UNL d   1       3.931  -2.523   0.679  0.00  0.00     0.040 A 
ENDBRANCH   1  13
BRANCH   2  18
ATOM     18  C   UNL d   1       3.444   0.641   0.032  0.00  0.00     0.257 C 
ATOM     19  O   UNL d   1       4.426   0.142  -0.510  0.00  0.00    -0.267 OA
ATOM     20  N   UNL d   1       3.597   1.848   0.657  0.00  0.00    -0.365 N 
ATOM     21  H   UNL d   1       2.817   2.370   1.031  0.00  0.00     0.159 HD
ATOM     22  H   UNL d   1       4.501   2.295   0.582  0.00  0.00     0.159 HD
ENDBRANCH   2  18
TORSDOF 3
