REMARK  4 active torsions:
REMARK  status: ('A' for Active; 'I' for Inactive)
REMARK    1  A    between atoms: C_2  and  S_1 
REMARK    2  A    between atoms: N_9  and  S_1 
REMARK    3  A    between atoms: C_3  and  C_8 
REMARK       I    between atoms: C_8  and  N_16 
REMARK    4  A    between atoms: N_16  and  N_9 
ROOT
ATOM      1  N   UNL d   1       0.380  -0.046  -1.606  0.00  0.00    -0.220 N 
ATOM      2  H   UNL d   1      -0.168  -0.882  -1.842  0.00  0.00     0.200 HD
ENDROOT
BRANCH   1   3
ATOM      3  S   UNL d   1       0.996   0.109  -0.048  0.00  0.00     0.280 S 
ATOM      4  O   UNL d   1       0.358  -0.873   0.796  0.00  0.00    -0.199 OA
ATOM      5  O   UNL d   1       2.430   0.240  -0.166  0.00  0.00    -0.199 OA
BRANCH   3   6
ATOM      6  C   UNL d   1       0.460   1.617   0.548  0.00  0.00     0.136 A 
ATOM      7  C   UNL d   1      -0.845   2.016   0.716  0.00  0.00     0.098 A 
ATOM      8  O   UNL d   1      -0.856   3.304   1.155  0.00  0.00    -0.241 OA
ATOM      9  C   UNL d   1      -2.170   1.397   0.533  0.00  0.00     0.081 C 
ATOM     10  N   UNL d   1       0.440   3.764   1.275  0.00  0.00    -0.264 N 
ATOM     11  C   UNL d   1       1.232   2.741   0.926  0.00  0.00     0.054 A 
ATOM     12  HN  UNL d   1       0.734   4.694   1.570  1.00  0.00     0.194 HD
ATOM     13  C   UNL d   1       2.703   2.932   0.953  0.00  0.00     0.072 C 
ENDBRANCH   3   6
ENDBRANCH   1   3
BRANCH   1  14
ATOM     14  N   UNL d   1       0.792   0.883  -2.629  0.00  0.00    -0.256 N 
ATOM     15  C   UNL d   1       0.320   0.775  -3.928  0.00  0.00     0.280 C 
ATOM     16  O   UNL d   1      -0.412  -0.153  -4.258  0.00  0.00    -0.265 OA
ATOM     17  H   UNL d   1       1.439   1.621  -2.360  0.00  0.00     0.191 HD
BRANCH  15  18
ATOM     18  C   UNL d   1       0.740   1.837  -4.818  0.00  0.00     0.115 A 
ATOM     19  C   UNL d   1       0.484   2.065  -6.165  0.00  0.00     0.046 A 
ATOM     20  N   UNL d   1       1.055   3.230  -6.675  0.00  0.00    -0.298 N 
ATOM     21  C   UNL d   1      -0.302   1.244  -7.119  0.00  0.00     0.071 C 
ATOM     22  N   UNL d   1       1.728   3.900  -5.760  0.00  0.00    -0.269 N 
ATOM     23  HN  UNL d   1       0.963   3.530  -7.646  1.00  0.00     0.187 HD
ATOM     24  S   UNL d   1       1.703   3.161  -4.274  0.00  0.00     0.009 SA
ATOM     25  HN  UNL d   1       2.212   4.778  -5.946  1.00  0.00     0.195 HD
ENDBRANCH  15  18
ENDBRANCH   1  14
TORSDOF 4
