REMARK  2 active torsions:
REMARK  status: ('A' for Active; 'I' for Inactive)
REMARK    1  A    between atoms: N_7  and  C_1 
REMARK       I    between atoms: C_6  and  N_8 
REMARK    2  A    between atoms: C_9  and  C_6 
ROOT
ATOM      1  C   UNL d   1      -3.503   1.834   3.584  0.00  0.00     0.254 C 
ATOM      2  N   UNL d   1       0.004   2.575   1.112  0.00  0.00     0.105 N 
ATOM      3  N   UNL d   1      -2.360   2.233   2.868  0.00  0.00    -0.345 N 
ATOM      4  C   UNL d   1      -2.362   3.234   1.793  0.00  0.00     0.156 C 
ATOM      5  C   UNL d   1      -1.216   1.321   2.957  0.00  0.00     0.156 C 
ATOM      6  C   UNL d   1       0.102   1.874   2.401  0.00  0.00     0.293 C 
ATOM      7  C   UNL d   1      -0.995   3.635   1.214  0.00  0.00     0.293 C 
ATOM      8  O   UNL d   1      -3.465   0.960   4.450  0.00  0.00    -0.267 OA
ENDROOT
BRANCH   2   9
ATOM      9  C   UNL d   1      -0.005   1.750  -0.111  0.00  0.00     0.290 C 
ATOM     10  C   UNL d   1       1.323   0.990  -0.224  0.00  0.00    -0.009 A 
ATOM     11  C   UNL d   1       1.099  -0.402  -0.158  0.00  0.00    -0.017 A 
ATOM     12  C   UNL d   1       2.604   1.513  -0.330  0.00  0.00     0.010 A 
ATOM     13  C   UNL d   1       2.164  -1.286  -0.193  0.00  0.00     0.013 A 
ATOM     14  C   UNL d   1      -0.328  -0.642  -0.110  0.00  0.00    -0.017 C 
ATOM     15  C   UNL d   1       3.458  -0.765  -0.295  0.00  0.00     0.001 A 
ATOM     16  C   UNL d   1       3.676   0.621  -0.367  0.00  0.00     0.001 A 
ATOM     17  C   UNL d   1      -1.004   0.596  -0.198  0.00  0.00    -0.009 C 
ATOM     18  C   UNL d   1      -1.032  -1.834  -0.047  0.00  0.00     0.013 C 
ATOM     19  C   UNL d   1      -2.376   0.626  -0.399  0.00  0.00     0.010 C 
ATOM     20  C   UNL d   1      -3.091  -0.573  -0.336  0.00  0.00     0.001 C 
ATOM     21  C   UNL d   1      -2.426  -1.790  -0.130  0.00  0.00     0.001 C 
ENDBRANCH   2   9
BRANCH   1  22
ATOM     22  C   UNL d   1      -4.822   2.465   3.333  0.00  0.00     0.035 A 
ATOM     23  C   UNL d   1      -5.589   2.848   4.441  0.00  0.00     0.056 A 
ATOM     24  C   UNL d   1      -6.828   3.407   4.204  0.00  0.00     0.106 A 
ATOM     25  O   UNL d   1      -7.713   3.822   5.150  0.00  0.00    -0.323 OA
ATOM     26  C   UNL d   1      -7.306   3.596   2.927  0.00  0.00     0.105 A 
ATOM     27  C   UNL d   1      -8.807   4.273   4.324  0.00  0.00     0.352 A 
ATOM     28  O   UNL d   1      -8.536   4.175   2.910  0.00  0.00    -0.323 OA
ATOM     29  C   UNL d   1      -6.596   3.195   1.819  0.00  0.00     0.041 A 
ATOM     30  C   UNL d   1      -5.359   2.584   2.033  0.00  0.00     0.020 A 
ENDBRANCH   1  22
TORSDOF 2
