REMARK  5 active torsions:
REMARK  status: ('A' for Active; 'I' for Inactive)
REMARK    1  A    between atoms: C_2  and  C_1 
REMARK       I    between atoms: N_3  and  C_1 
REMARK    2  A    between atoms: C_6  and  N_3 
REMARK    3  A    between atoms: C_4  and  C_5 
REMARK    4  A    between atoms: C_23  and  C_8 
REMARK    5  A    between atoms: C_22  and  C_9 
ROOT
ATOM      1  C   UNL d   1       0.702  -0.662   0.098  0.00  0.00     0.260 C 
ATOM      2  N   UNL d   1       0.129  -0.174   1.285  0.00  0.00    -0.317 N 
ATOM      3  O   UNL d   1       1.838  -1.135   0.030  0.00  0.00    -0.267 OA
ATOM      4  C   UNL d   1      -1.144   0.545   1.420  0.00  0.00     0.159 C 
ENDROOT
BRANCH   1   5
ATOM      5  C   UNL d   1      -0.038  -0.612  -1.176  0.00  0.00     0.062 A 
ATOM      6  C   UNL d   1      -0.130  -1.686  -2.075  0.00  0.00     0.066 A 
ATOM      7  C   UNL d   1      -0.811  -1.474  -3.299  0.00  0.00     0.034 A 
ATOM      8  C   UNL d   1      -1.341  -0.235  -3.586  0.00  0.00     0.088 A 
ATOM      9  N   UNL d   1      -1.218   0.816  -2.757  0.00  0.00    -0.374 N 
ATOM     10  C   UNL d   1      -0.550   0.616  -1.601  0.00  0.00     0.105 A 
ATOM     11  HN  UNL d   1      -1.613   1.727  -2.992  1.00  0.00     0.164 HD
BRANCH   6  12
ATOM     12  C   UNL d   1       0.452  -3.067  -1.875  0.00  0.00     0.418 C 
ATOM     13  F   UNL d   1       1.023  -3.346  -0.683  0.00  0.00    -0.166 F 
ATOM     14  F   UNL d   1      -0.517  -4.022  -2.030  0.00  0.00    -0.166 F 
ATOM     15  F   UNL d   1       1.382  -3.361  -2.830  0.00  0.00    -0.166 F 
ENDBRANCH   6  12
ENDBRANCH   1   5
BRANCH   2  16
ATOM     16  C   UNL d   1       0.879  -0.262   2.500  0.00  0.00     0.049 A 
ATOM     17  C   UNL d   1       1.908   0.671   2.786  0.00  0.00    -0.031 A 
ATOM     18  C   UNL d   1       2.520   0.627   4.053  0.00  0.00     0.009 A 
ATOM     19  C   UNL d   1       2.151  -0.322   5.003  0.00  0.00     0.001 A 
ATOM     20  C   UNL d   1       1.161  -1.250   4.704  0.00  0.00     0.009 A 
ATOM     21  C   UNL d   1       0.507  -1.233   3.460  0.00  0.00    -0.031 A 
BRANCH  17  22
ATOM     22  C   UNL d   1       2.349   1.755   1.825  0.00  0.00     0.036 C 
ATOM     23  C   UNL d   1       3.842   1.715   1.507  0.00  0.00     0.010 C 
ENDBRANCH  17  22
BRANCH  21  24
ATOM     24  C   UNL d   1      -0.537  -2.300   3.208  0.00  0.00     0.036 C 
ATOM     25  C   UNL d   1       0.068  -3.590   2.675  0.00  0.00     0.010 C 
ENDBRANCH  21  24
ENDBRANCH   2  16
TORSDOF 5
