REMARK  6 active torsions:
REMARK  status: ('A' for Active; 'I' for Inactive)
REMARK    1  A    between atoms: N_2  and  C_1 
REMARK    2  A    between atoms: C_8  and  C_3 
REMARK    3  A    between atoms: C_9  and  C_3 
REMARK    4  A    between atoms: N_4  and  O_12 
REMARK    5  A    between atoms: C_6  and  C_11 
REMARK    6  A    between atoms: O_12  and  C_10 
ROOT
ATOM      1  O   UNL d   1       1.783   2.178  -0.138  0.00  0.00    -0.235 OA
ENDROOT
BRANCH   1   2
ATOM      2  N   UNL d   1       3.106   1.896  -0.454  0.00  0.00    -0.258 N 
ATOM      3  C   UNL d   1       3.808   2.969  -0.701  0.00  0.00     0.089 C 
ATOM      4  HN  UNL d   1       3.488   0.951  -0.490  1.00  0.00     0.195 HD
BRANCH   3   5
ATOM      5  C   UNL d   1       3.319   4.350  -0.678  0.00  0.00     0.034 A 
ATOM      6  S   UNL d   1       1.849   4.792  -1.456  0.00  0.00    -0.100 SA
ATOM      7  C   UNL d   1       1.935   6.397  -0.882  0.00  0.00     0.050 A 
ATOM      8  C   UNL d   1       3.107   6.638  -0.204  0.00  0.00     0.008 A 
ATOM      9  C   UNL d   1       3.910   5.463  -0.097  0.00  0.00     0.022 A 
ENDBRANCH   3   5
BRANCH   3  10
ATOM     10  C   UNL d   1       5.232   2.811  -0.995  0.00  0.00     0.034 A 
ATOM     11  S   UNL d   1       6.084   1.467  -0.336  0.00  0.00    -0.100 SA
ATOM     12  C   UNL d   1       7.550   1.936  -1.071  0.00  0.00     0.050 A 
ATOM     13  C   UNL d   1       7.411   3.088  -1.809  0.00  0.00     0.008 A 
ATOM     14  C   UNL d   1       6.077   3.592  -1.767  0.00  0.00     0.022 A 
ENDBRANCH   3  10
ENDBRANCH   1   2
BRANCH   1  15
ATOM     15  C   UNL d   1       1.022   1.044  -0.045  0.00  0.00     0.131 A 
ATOM     16  C   UNL d   1       1.170  -0.157  -0.741  0.00  0.00     0.139 A 
ATOM     17  C   UNL d   1       0.249  -1.211  -0.590  0.00  0.00     0.055 A 
ATOM     18  C   UNL d   1      -0.850  -1.065   0.270  0.00  0.00     0.050 A 
ATOM     19  C   UNL d   1      -0.994   0.137   0.979  0.00  0.00     0.019 A 
ATOM     20  C   UNL d   1      -0.073   1.177   0.818  0.00  0.00     0.043 A 
BRANCH  16  21
ATOM     21  N   UNL d   1       2.225  -0.353  -1.708  0.00  0.00    -0.113 N 
ATOM     22  O   UNL d   1       3.052  -1.244  -1.462  0.00  0.00    -0.532 OA
ATOM     23  O   UNL d   1       2.156   0.295  -2.763  0.00  0.00    -0.532 OA
ENDBRANCH  16  21
BRANCH  18  24
ATOM     24  C   UNL d   1      -1.879  -2.157   0.432  0.00  0.00     0.417 C 
ATOM     25  F   UNL d   1      -1.660  -3.233  -0.372  0.00  0.00    -0.166 F 
ATOM     26  F   UNL d   1      -1.929  -2.639   1.703  0.00  0.00    -0.166 F 
ATOM     27  F   UNL d   1      -3.138  -1.725   0.143  0.00  0.00    -0.166 F 
ENDBRANCH  18  24
ENDBRANCH   1  15
TORSDOF 6
