REMARK  3 active torsions:
REMARK  status: ('A' for Active; 'I' for Inactive)
REMARK    1  A    between atoms: C_7  and  C_1 
REMARK    2  A    between atoms: C_15  and  C_5 
REMARK    3  A    between atoms: S_9  and  C_8 
ROOT
ATOM      1  C   UNL d   1       2.747   2.610  -0.071  0.00  0.00     0.067 C 
ATOM      2  C   UNL d   1       1.927   2.616   0.996  0.00  0.00     0.141 C 
ATOM      3  C   UNL d   1       2.324   2.392   2.338  0.00  0.00     0.111 C 
ATOM      4  N   UNL d   1       2.648   2.218   3.436  0.00  0.00    -0.191 NA
ENDROOT
BRANCH   2   5
ATOM      5  S   UNL d   1       0.233   2.915   0.720  0.00  0.00     0.181 S 
ATOM      6  O   UNL d   1      -0.326   3.648   1.840  0.00  0.00    -0.222 OA
ATOM      7  O   UNL d   1       0.038   3.418  -0.630  0.00  0.00    -0.222 OA
ATOM      8  C   UNL d   1      -0.461   1.278   0.756  0.00  0.00     0.168 C 
ENDBRANCH   2   5
BRANCH   1   9
ATOM      9  C   UNL d   1       4.116   2.252  -0.009  0.00  0.00     0.066 A 
ATOM     10  C   UNL d   1       4.834   1.053  -0.032  0.00  0.00     0.071 A 
ATOM     11  N   UNL d   1       6.202   1.291  -0.048  0.00  0.00    -0.334 N 
ATOM     12  C   UNL d   1       6.297   2.587  -0.054  0.00  0.00     0.147 A 
ATOM     13  HN  UNL d   1       6.957   0.606  -0.054  1.00  0.00     0.168 HD
ATOM     14  N   UNL d   1       5.092   3.206   0.000  0.00  0.00    -0.325 N 
ATOM     15  S   UNL d   1       7.626   3.669  -0.117  0.00  0.00    -0.092 SA
ATOM     16  C   UNL d   1       5.101   4.653  -0.030  0.00  0.00     0.142 C 
ATOM     17  C   UNL d   1       6.541   5.102   0.247  0.00  0.00     0.102 C 
BRANCH  10  18
ATOM     18  C   UNL d   1       4.300  -0.303  -0.035  0.00  0.00    -0.007 A 
ATOM     19  C   UNL d   1       5.075  -1.334   0.515  0.00  0.00     0.014 A 
ATOM     20  C   UNL d   1       4.597  -2.645   0.559  0.00  0.00     0.001 A 
ATOM     21  C   UNL d   1       3.336  -2.943   0.048  0.00  0.00     0.000 A 
ATOM     22  C   UNL d   1       2.565  -1.935  -0.526  0.00  0.00     0.001 A 
ATOM     23  C   UNL d   1       3.049  -0.624  -0.579  0.00  0.00     0.014 A 
ENDBRANCH  10  18
ENDBRANCH   1   9
TORSDOF 3
