REMARK  3 active torsions:
REMARK  status: ('A' for Active; 'I' for Inactive)
REMARK    1  A    between atoms: N_2  and  C_1 
REMARK    2  A    between atoms: N_10  and  C_1 
REMARK    3  A    between atoms: C_3  and  N_2 
ROOT
ATOM      1  C   UNL d   1       0.914   2.349   0.710  0.00  0.00     0.040 C 
ATOM      2  C   UNL d   1       0.536   3.041   1.873  0.00  0.00     0.037 C 
ATOM      3  C   UNL d   1       1.828   2.952  -0.168  0.00  0.00    -0.035 C 
ATOM      4  C   UNL d   1       2.462   4.144   0.239  0.00  0.00     0.016 C 
ATOM      5  C   UNL d   1       1.150   4.238   2.266  0.00  0.00    -0.054 C 
ATOM      6  C   UNL d   1       2.170   4.766   1.463  0.00  0.00    -0.056 C 
ATOM      7  C   UNL d   1       2.238   2.392  -1.500  0.00  0.00     0.050 C 
ATOM      8  C   UNL d   1       0.733   4.889   3.553  0.00  0.00     0.049 C 
ATOM      9  C   UNL d   1       2.956   5.974   1.891  0.00  0.00     0.049 C 
ENDROOT
BRANCH   1  10
ATOM     10  N   UNL d   1       0.340   1.080   0.438  0.00  0.00    -0.333 N 
ATOM     11  H   UNL d   1       0.492   0.717  -0.490  0.00  0.00     0.168 HD
BRANCH  10  12
ATOM     12  C   UNL d   1       0.048   0.081   1.369  0.00  0.00     0.173 C 
ATOM     13  S   UNL d   1       0.875  -0.081   2.835  0.00  0.00    -0.041 SA
BRANCH  12  14
ATOM     14  N   UNL d   1      -0.944  -0.824   0.935  0.00  0.00    -0.367 N 
ATOM     15  C   UNL d   1      -1.381  -1.961   1.752  0.00  0.00     0.151 C 
ATOM     16  C   UNL d   1      -1.587  -0.769  -0.377  0.00  0.00     0.151 C 
ENDBRANCH  12  14
ENDBRANCH  10  12
ENDBRANCH   1  10
TORSDOF 3
