REMARK  3 active torsions:
REMARK  status: ('A' for Active; 'I' for Inactive)
REMARK    1  A    between atoms: N_5  and  C_1 
REMARK    2  A    between atoms: C_8  and  C_2 
REMARK       I    between atoms: C_7  and  N_5 
REMARK    3  A    between atoms: C_9  and  C_7 
REMARK       I    between atoms: N_13  and  C_8 
ROOT
ATOM      1  C   UNL d   1      -2.115  -0.836   0.137  0.00  0.00     0.093 A 
ATOM      2  C   UNL d   1      -1.016  -1.696   0.048  0.00  0.00     0.073 A 
ATOM      3  S   UNL d   1      -1.672   0.799   0.173  0.00  0.00    -0.075 SA
ATOM      4  C   UNL d   1       0.227  -0.927   0.067  0.00  0.00    -0.026 A 
ATOM      5  C   UNL d   1      -0.025   0.435   0.089  0.00  0.00    -0.008 A 
ATOM      6  C   UNL d   1       1.649  -1.422   0.034  0.00  0.00     0.041 C 
ATOM      7  C   UNL d   1       0.998   1.531   0.090  0.00  0.00     0.047 C 
ATOM      8  C   UNL d   1       2.667  -0.338   0.422  0.00  0.00     0.005 C 
ATOM      9  C   UNL d   1       2.379   0.987  -0.287  0.00  0.00     0.005 C 
ENDROOT
BRANCH   1  10
ATOM     10  N   UNL d   1      -3.459  -1.209   0.185  0.00  0.00    -0.316 N 
ATOM     11  C   UNL d   1      -4.552  -0.380   0.372  0.00  0.00     0.256 C 
ATOM     12  O   UNL d   1      -4.547   0.836   0.526  0.00  0.00    -0.267 OA
ATOM     13  H   UNL d   1      -3.610  -2.218   0.169  0.00  0.00     0.169 HD
BRANCH  11  14
ATOM     14  C   UNL d   1      -5.875  -1.069   0.445  0.00  0.00     0.032 A 
ATOM     15  C   UNL d   1      -6.849  -0.527   1.298  0.00  0.00     0.023 A 
ATOM     16  C   UNL d   1      -8.106  -1.131   1.429  0.00  0.00    -0.061 A 
ATOM     17  C   UNL d   1      -9.132  -0.579   2.375  0.00  0.00     0.048 C 
ATOM     18  C   UNL d   1      -8.395  -2.265   0.661  0.00  0.00     0.007 A 
ATOM     19  C   UNL d   1      -7.440  -2.793  -0.211  0.00  0.00     0.002 A 
ATOM     20  C   UNL d   1      -6.177  -2.201  -0.319  0.00  0.00     0.017 A 
ENDBRANCH  11  14
ENDBRANCH   1  10
BRANCH   2  21
ATOM     21  C   UNL d   1      -1.226  -3.148  -0.028  0.00  0.00     0.252 C 
ATOM     22  O   UNL d   1      -2.343  -3.665   0.038  0.00  0.00    -0.268 OA
ATOM     23  N   UNL d   1      -0.145  -3.961  -0.207  0.00  0.00    -0.366 N 
ATOM     24  H   UNL d   1       0.783  -3.638  -0.411  0.00  0.00     0.159 HD
ATOM     25  H   UNL d   1      -0.332  -4.950  -0.298  0.00  0.00     0.159 HD
ENDBRANCH   2  21
TORSDOF 3
