REMARK  4 active torsions:
REMARK  status: ('A' for Active; 'I' for Inactive)
REMARK    1  A    between atoms: C_2  and  C_1 
REMARK    2  A    between atoms: C_3  and  C_2 
REMARK    3  A    between atoms: S_7  and  C_4 
REMARK    4  A    between atoms: S_8  and  C_4 
ROOT
ATOM      1  C   UNL d   1       1.019   0.230   2.687  0.00  0.00     0.025 A 
ATOM      2  C   UNL d   1       0.626  -0.635   3.755  0.00  0.00    -0.012 A 
ATOM      3  C   UNL d   1       1.330  -0.536   4.984  0.00  0.00    -0.025 A 
ATOM      4  C   UNL d   1       2.034   1.185   2.889  0.00  0.00     0.016 A 
ATOM      5  C   UNL d   1      -0.415  -1.598   3.692  0.00  0.00     0.013 A 
ATOM      6  C   UNL d   1       2.709   1.261   4.101  0.00  0.00     0.002 A 
ATOM      7  C   UNL d   1       2.366   0.397   5.135  0.00  0.00     0.012 A 
ATOM      8  C   UNL d   1       0.995  -1.368   6.066  0.00  0.00     0.012 A 
ATOM      9  C   UNL d   1      -0.750  -2.404   4.783  0.00  0.00     0.001 A 
ATOM     10  C   UNL d   1      -0.042  -2.292   5.970  0.00  0.00     0.001 A 
ENDROOT
BRANCH   1  11
ATOM     11  C   UNL d   1       0.360   0.183   1.338  0.00  0.00     0.184 C 
ATOM     12  O   UNL d   1      -0.830  -0.073   1.226  0.00  0.00    -0.287 OA
BRANCH  11  13
ATOM     13  C   UNL d   1       1.237   0.458   0.159  0.00  0.00     0.081 C 
ATOM     14  C   UNL d   1       0.880   0.854  -1.076  0.00  0.00     0.040 C 
BRANCH  14  15
ATOM     15  S   UNL d   1       2.192   1.183  -2.203  0.00  0.00    -0.127 SA
ATOM     16  C   UNL d   1       1.787   0.054  -3.556  0.00  0.00     0.096 C 
ENDBRANCH  14  15
BRANCH  14  17
ATOM     17  S   UNL d   1      -0.744   1.141  -1.629  0.00  0.00    -0.127 SA
ATOM     18  C   UNL d   1      -1.284   2.468  -0.530  0.00  0.00     0.096 C 
ENDBRANCH  14  17
ENDBRANCH  11  13
ENDBRANCH   1  11
TORSDOF 4
