REMARK  4 active torsions:
REMARK  status: ('A' for Active; 'I' for Inactive)
REMARK    1  A    between atoms: N_2  and  C_1 
REMARK       I    between atoms: C_5  and  N_2 
REMARK    2  A    between atoms: C_6  and  C_5 
REMARK    3  A    between atoms: C_7  and  C_8 
REMARK    4  A    between atoms: O_14  and  C_7 
ROOT
ATOM      1  N   UNL d   1       2.634  -0.888  -0.078  0.00  0.00    -0.323 N 
ATOM      2  C   UNL d   1       3.380  -1.691  -0.889  0.00  0.00     0.245 C 
ATOM      3  O   UNL d   1       4.602  -1.734  -0.736  0.00  0.00    -0.268 OA
ATOM      4  H   UNL d   1       3.241  -0.243   0.410  0.00  0.00     0.169 HD
ENDROOT
BRANCH   1   5
ATOM      5  C   UNL d   1       1.243  -0.681   0.064  0.00  0.00     0.046 C 
ATOM      6  C   UNL d   1       0.268  -1.690  -0.072  0.00  0.00    -0.034 C 
ATOM      7  C   UNL d   1      -1.096  -1.334  -0.086  0.00  0.00     0.015 C 
ATOM      8  C   UNL d   1       0.551  -3.169  -0.081  0.00  0.00     0.050 C 
ATOM      9  C   UNL d   1      -1.512  -0.018   0.128  0.00  0.00    -0.061 C 
ATOM     10  C   UNL d   1      -0.550   0.943   0.430  0.00  0.00     0.015 C 
ATOM     11  C   UNL d   1      -2.971   0.325   0.124  0.00  0.00     0.048 C 
ATOM     12  C   UNL d   1       0.824   0.624   0.425  0.00  0.00    -0.034 C 
ATOM     13  C   UNL d   1       1.790   1.731   0.759  0.00  0.00     0.050 C 
ENDBRANCH   1   5
BRANCH   2  14
ATOM     14  C   UNL d   1       2.750  -2.441  -1.992  0.00  0.00     0.081 C 
ATOM     15  C   UNL d   1       3.372  -3.545  -2.433  0.00  0.00     0.086 C 
BRANCH  15  16
ATOM     16  C   UNL d   1       2.734  -4.370  -3.468  0.00  0.00     0.165 C 
ATOM     17  O   UNL d   1       1.620  -4.172  -3.918  0.00  0.00    -0.647 OA
BRANCH  16  18
ATOM     18  O   UNL d   1       3.514  -5.403  -3.844  0.00  0.00    -0.773 OA
ATOM     19  H   UNL d   1       4.395  -5.440  -3.427  0.00  0.00     0.167 HD
ENDBRANCH  16  18
ENDBRANCH  15  16
ENDBRANCH   2  14
TORSDOF 4
