REMARK  3 active torsions:
REMARK  status: ('A' for Active; 'I' for Inactive)
REMARK    1  A    between atoms: C_2  and  C_1 
REMARK       I    between atoms: N_5  and  C_2 
REMARK    2  A    between atoms: O_9  and  C_4 
REMARK    3  A    between atoms: C_8  and  O_9 
ROOT
ATOM      1  C   UNL d   1      -0.168   1.154  -0.118  0.00  0.00     0.146 A 
ATOM      2  O   UNL d   1      -0.954   0.042   0.032  0.00  0.00    -0.282 OA
ATOM      3  C   UNL d   1      -0.131  -1.038   0.087  0.00  0.00     0.191 A 
ATOM      4  C   UNL d   1       1.163   0.773  -0.087  0.00  0.00     0.048 A 
ATOM      5  C   UNL d   1       1.185  -0.638  -0.013  0.00  0.00     0.067 A 
ENDROOT
BRANCH   3   6
ATOM      6  O   UNL d   1      -0.773  -2.197   0.220  0.00  0.00    -0.288 OA
BRANCH   6   7
ATOM      7  C   UNL d   1      -0.117  -3.297   0.714  0.00  0.00     0.081 A 
ATOM      8  C   UNL d   1       0.714  -3.222   1.837  0.00  0.00     0.061 A 
ATOM      9  C   UNL d   1       1.361  -4.367   2.292  0.00  0.00     0.038 A 
ATOM     10 CL   UNL d   1       2.431  -4.254   3.636  0.00  0.00    -0.084 Cl
ATOM     11  C   UNL d   1       1.159  -5.593   1.668  0.00  0.00     0.048 A 
ATOM     12  C   UNL d   1       0.291  -5.666   0.576  0.00  0.00     0.038 A 
ATOM     13  C   UNL d   1      -0.351  -4.525   0.098  0.00  0.00     0.061 A 
ATOM     14 CL   UNL d   1       0.017  -7.185  -0.185  0.00  0.00    -0.084 Cl
ENDBRANCH   6   7
ENDBRANCH   3   6
BRANCH   1  15
ATOM     15  C   UNL d   1      -0.745   2.485  -0.202  0.00  0.00     0.277 C 
ATOM     16  N   UNL d   1      -1.987   2.663  -0.823  0.00  0.00    -0.346 N 
ATOM     17  C   UNL d   1      -2.788   1.636  -1.487  0.00  0.00     0.126 C 
ATOM     18  C   UNL d   1      -2.622   3.977  -0.787  0.00  0.00     0.126 C 
ATOM     19  C   UNL d   1      -4.096   1.449  -0.727  0.00  0.00     0.020 C 
ATOM     20  C   UNL d   1      -4.852   2.779  -0.647  0.00  0.00     0.003 C 
ATOM     21  C   UNL d   1      -3.970   3.891  -0.070  0.00  0.00     0.020 C 
ATOM     22  O   UNL d   1      -0.125   3.454   0.241  0.00  0.00    -0.265 OA
ENDBRANCH   1  15
TORSDOF 3
