REMARK  4 active torsions:
REMARK  status: ('A' for Active; 'I' for Inactive)
REMARK    1  A    between atoms: N_3  and  S_1 
REMARK    2  A    between atoms: C_9  and  S_1 
REMARK    3  A    between atoms: C_2  and  N_3 
REMARK    4  A    between atoms: C_12  and  C_8 
ROOT
ATOM      1  C   UNL d   1       0.708  -2.268   1.490  0.00  0.00     0.133 A 
ATOM      2  C   UNL d   1      -0.079  -3.188   2.130  0.00  0.00     0.082 A 
ATOM      3  N   UNL d   1       1.779  -4.253   1.382  0.00  0.00    -0.296 N 
ATOM      4  HN  UNL d   1       2.481  -4.962   1.172  1.00  0.00     0.187 HD
ATOM      5  N   UNL d   1       1.840  -2.934   1.109  0.00  0.00    -0.280 N 
ATOM      6  C   UNL d   1       0.595  -4.432   1.990  0.00  0.00     0.062 A 
ATOM      7  C   UNL d   1       3.092  -2.372   0.659  0.00  0.00     0.179 C 
ENDROOT
BRANCH   1   8
ATOM      8  N   UNL d   1       0.335  -0.954   1.302  0.00  0.00    -0.264 N 
ATOM      9  H   UNL d   1      -0.218  -0.502   2.014  0.00  0.00     0.180 HD
BRANCH   8  10
ATOM     10  S   UNL d   1       0.070  -0.336  -0.194  0.00  0.00     0.264 S 
ATOM     11  O   UNL d   1       1.027  -0.837  -1.155  0.00  0.00    -0.200 OA
ATOM     12  O   UNL d   1      -0.170   1.087  -0.072  0.00  0.00    -0.200 OA
BRANCH  10  13
ATOM     13  C   UNL d   1      -1.517  -1.077  -0.577  0.00  0.00     0.079 A 
ATOM     14  C   UNL d   1      -2.685  -0.505  -0.057  0.00  0.00     0.026 A 
ATOM     15  C   UNL d   1      -3.921  -1.087  -0.346  0.00  0.00     0.008 A 
ATOM     16  C   UNL d   1      -4.001  -2.228  -1.156  0.00  0.00    -0.062 A 
ATOM     17  C   UNL d   1      -2.823  -2.788  -1.670  0.00  0.00     0.008 A 
ATOM     18  C   UNL d   1      -5.344  -2.815  -1.490  0.00  0.00     0.048 C 
ATOM     19  C   UNL d   1      -1.580  -2.216  -1.385  0.00  0.00     0.026 A 
ENDBRANCH  10  13
ENDBRANCH   8  10
ENDBRANCH   1   8
BRANCH   6  20
ATOM     20  C   UNL d   1       0.125  -5.762   2.402  0.00  0.00    -0.008 A 
ATOM     21  C   UNL d   1      -1.203  -5.963   2.814  0.00  0.00     0.015 A 
ATOM     22  C   UNL d   1      -1.650  -7.237   3.187  0.00  0.00     0.024 A 
ATOM     23  C   UNL d   1      -0.776  -8.318   3.148  0.00  0.00     0.034 A 
ATOM     24  C   UNL d   1       0.544  -8.138   2.744  0.00  0.00     0.024 A 
ATOM     25 CL   UNL d   1      -1.333  -9.881   3.597  0.00  0.00    -0.084 Cl
ATOM     26  C   UNL d   1       0.991  -6.865   2.372  0.00  0.00     0.015 A 
ENDBRANCH   6  20
TORSDOF 4
