REMARK  2 active torsions:
REMARK  status: ('A' for Active; 'I' for Inactive)
REMARK    1  A    between atoms: C_12  and  N_1 
REMARK    2  A    between atoms: O_16  and  C_9 
ROOT
ATOM      1  N   UNL d   1      -1.545  -1.125  -0.048  0.00  0.00    -0.239 N 
ATOM      2  C   UNL d   1      -0.227  -0.671   0.020  0.00  0.00     0.144 A 
ATOM      3  N   UNL d   1      -2.421  -0.074  -0.146  0.00  0.00    -0.302 N 
ATOM      4  HN  UNL d   1      -3.437  -0.116  -0.225  1.00  0.00     0.186 HD
ATOM      5  C   UNL d   1      -0.286   0.714  -0.016  0.00  0.00     0.077 A 
ATOM      6  C   UNL d   1      -1.651   1.013  -0.117  0.00  0.00     0.127 A 
ATOM      7  N   UNL d   1       0.909  -1.396   0.099  0.00  0.00    -0.336 N 
ATOM      8  HN  UNL d   1       0.929  -2.415   0.121  1.00  0.00     0.168 HD
ATOM      9  C   UNL d   1       0.928   1.391   0.048  0.00  0.00     0.156 A 
ATOM     10  N   UNL d   1       2.081   0.712   0.129  0.00  0.00    -0.332 N 
ATOM     11  HN  UNL d   1       2.978   1.195   0.175  1.00  0.00     0.168 HD
ATOM     12  C   UNL d   1       2.011  -0.629   0.147  0.00  0.00     0.184 A 
ENDROOT
BRANCH   1  13
ATOM     13  C   UNL d   1      -2.044  -2.464  -0.022  0.00  0.00     0.058 A 
ATOM     14  C   UNL d   1      -1.193  -3.567   0.141  0.00  0.00     0.034 A 
ATOM     15  C   UNL d   1      -1.715  -4.864   0.166  0.00  0.00     0.044 A 
ATOM     16  C   UNL d   1      -3.082  -5.061   0.025  0.00  0.00     0.116 A 
ATOM     17  C   UNL d   1      -3.943  -3.984  -0.138  0.00  0.00     0.044 A 
ATOM     18  F   UNL d   1      -3.575  -6.306   0.049  0.00  0.00    -0.206 F 
ATOM     19  C   UNL d   1      -3.428  -2.685  -0.160  0.00  0.00     0.034 A 
ENDBRANCH   1  13
BRANCH   9  20
ATOM     20  O   UNL d   1       1.049   2.757   0.031  0.00  0.00    -0.345 OA
ATOM     21  H   UNL d   1       0.160   3.139  -0.015  0.00  0.00     0.219 HD
ENDBRANCH   9  20
TORSDOF 2
