REMARK  7 active torsions:
REMARK  status: ('A' for Active; 'I' for Inactive)
REMARK    1  A    between atoms: C_6  and  N_1 
REMARK    2  A    between atoms: C_3  and  C_2 
REMARK       I    between atoms: N_5  and  C_3 
REMARK    3  A    between atoms: C_4  and  N_8 
REMARK    4  A    between atoms: N_13  and  C_4 
REMARK    5  A    between atoms: N_8  and  N_5 
REMARK    6  A    between atoms: C_22  and  N_13 
REMARK    7  A    between atoms: C_16  and  C_22 
ROOT
ATOM      1  C   UNL d   1       2.252  -1.331  -0.028  0.00  0.00     0.287 C 
ATOM      2  N   UNL d   1       3.290  -0.809   0.713  0.00  0.00    -0.262 N 
ATOM      3  O   UNL d   1       2.418  -2.333  -0.736  0.00  0.00    -0.264 OA
ATOM      4  H   UNL d   1       3.180  -0.004   1.326  0.00  0.00     0.190 HD
ENDROOT
BRANCH   1   5
ATOM      5  C   UNL d   1       0.997  -0.602   0.070  0.00  0.00     0.109 A 
ATOM      6  N   UNL d   1      -0.288  -1.143  -0.022  0.00  0.00    -0.318 N 
ATOM      7  C   UNL d   1      -1.187  -0.089  -0.092  0.00  0.00     0.098 A 
ATOM      8  C   UNL d   1      -0.514   1.101   0.033  0.00  0.00     0.020 A 
ATOM      9  C   UNL d   1       0.851   0.785   0.151  0.00  0.00     0.037 A 
BRANCH   6  10
ATOM     10  C   UNL d   1      -0.692  -2.513   0.004  0.00  0.00     0.039 A 
ATOM     11  C   UNL d   1       0.061  -3.472   0.696  0.00  0.00     0.033 A 
ATOM     12  C   UNL d   1      -0.364  -4.802   0.733  0.00  0.00     0.044 A 
ATOM     13  C   UNL d   1      -1.536  -5.172   0.087  0.00  0.00     0.116 A 
ATOM     14  C   UNL d   1      -2.303  -4.231  -0.591  0.00  0.00     0.044 A 
ATOM     15  F   UNL d   1      -1.940  -6.448   0.121  0.00  0.00    -0.206 F 
ATOM     16  C   UNL d   1      -1.886  -2.900  -0.629  0.00  0.00     0.033 A 
ENDBRANCH   6  10
ENDBRANCH   1   5
BRANCH   2  17
ATOM     17  N   UNL d   1       4.589  -1.342   0.589  0.00  0.00    -0.274 N 
ATOM     18  H   UNL d   1       4.632  -2.147  -0.046  0.00  0.00     0.189 HD
BRANCH  17  19
ATOM     19  C   UNL d   1       5.434  -1.425   1.692  0.00  0.00     0.186 C 
ATOM     20  S   UNL d   1       4.953  -1.147   3.268  0.00  0.00    -0.040 SA
BRANCH  19  21
ATOM     21  N   UNL d   1       6.713  -1.753   1.289  0.00  0.00    -0.363 N 
ATOM     22  H   UNL d   1       6.956  -1.419   0.363  0.00  0.00     0.162 HD
BRANCH  21  23
ATOM     23  C   UNL d   1       7.847  -2.084   2.136  0.00  0.00     0.148 C 
BRANCH  23  24
ATOM     24  C   UNL d   1       8.582  -3.187   1.440  0.00  0.00    -0.018 C 
ATOM     25  C   UNL d   1       9.882  -3.170   1.115  0.00  0.00     0.008 C 
ENDBRANCH  23  24
ENDBRANCH  21  23
ENDBRANCH  19  21
ENDBRANCH  17  19
ENDBRANCH   2  17
TORSDOF 7
