REMARK  4 active torsions:
REMARK  status: ('A' for Active; 'I' for Inactive)
REMARK    1  A    between atoms: C_13  and  N_1 
REMARK    2  A    between atoms: S_2  and  C_3 
REMARK    3  A    between atoms: N_8  and  N_16 
REMARK    4  A    between atoms: N_16  and  C_19 
ROOT
ATOM      1  C   UNL d   1       6.543  -5.775  -0.398  0.00  0.00     0.223 C 
ATOM      2  N   UNL d   1       5.693  -4.884  -0.824  0.00  0.00    -0.281 N 
ATOM      3  HN  UNL d   1       5.076  -5.076  -1.612  1.00  0.00     0.188 HD
ATOM      4  C   UNL d   1       6.526  -6.987  -1.161  0.00  0.00     0.131 C 
ATOM      5  N   UNL d   1       6.553  -7.965  -1.794  0.00  0.00    -0.189 NA
ENDROOT
BRANCH   1   6
ATOM      6  S   UNL d   1       7.691  -5.642   0.912  0.00  0.00     0.198 S 
ATOM      7  O   UNL d   1       7.260  -4.541   1.760  0.00  0.00    -0.221 OA
ATOM      8  O   UNL d   1       7.884  -6.970   1.461  0.00  0.00    -0.221 OA
ATOM      9  C   UNL d   1       9.184  -5.145   0.106  0.00  0.00     0.169 C 
ENDBRANCH   1   6
BRANCH   2  10
ATOM     10  N   UNL d   1       5.661  -3.683  -0.175  0.00  0.00    -0.299 N 
ATOM     11  H   UNL d   1       6.111  -3.601   0.751  0.00  0.00     0.187 HD
BRANCH  10  12
ATOM     12  C   UNL d   1       4.441  -2.964  -0.165  0.00  0.00     0.048 A 
ATOM     13  C   UNL d   1       4.278  -1.967   0.806  0.00  0.00     0.033 A 
ATOM     14  C   UNL d   1       3.112  -1.205   0.870  0.00  0.00     0.034 A 
ATOM     15  C   UNL d   1       2.093  -1.405  -0.063  0.00  0.00     0.056 A 
ATOM     16  C   UNL d   1       2.244  -2.394  -1.046  0.00  0.00     0.034 A 
ATOM     17  C   UNL d   1       3.427  -3.148  -1.110  0.00  0.00     0.033 A 
BRANCH  15  18
ATOM     18  N   UNL d   1       0.889  -0.651   0.010  0.00  0.00    -0.261 N 
ATOM     19  N   UNL d   1      -0.277  -1.197  -0.428  0.00  0.00    -0.298 N 
ATOM     20  C   UNL d   1      -1.233  -0.391   0.042  0.00  0.00     0.024 C 
ATOM     21  HN  UNL d   1      -0.396  -2.038  -0.993  1.00  0.00     0.187 HD
ATOM     22  C   UNL d   1      -2.667  -0.733  -0.112  0.00  0.00     0.070 C 
ATOM     23  C   UNL d   1      -0.693   0.764   0.635  0.00  0.00     0.052 C 
ATOM     24  C   UNL d   1       0.676   0.618   0.539  0.00  0.00     0.032 C 
ATOM     25  C   UNL d   1       1.727   1.617   0.860  0.00  0.00     0.070 C 
ENDBRANCH  15  18
ENDBRANCH  10  12
ENDBRANCH   2  10
TORSDOF 4
