REMARK  3 active torsions:
REMARK  status: ('A' for Active; 'I' for Inactive)
REMARK    1  A    between atoms: N_2  and  C_1 
REMARK    2  A    between atoms: O_7  and  C_1 
REMARK    3  A    between atoms: C_4  and  N_2 
ROOT
ATOM      1  C   UNL d   1       1.153   0.884   2.320  0.00  0.00     0.036 A 
ATOM      2  C   UNL d   1       2.127   1.883   2.330  0.00  0.00     0.053 A 
ATOM      3  C   UNL d   1       2.648   2.345   3.542  0.00  0.00     0.036 A 
ATOM      4 CL   UNL d   1       3.846   3.581   3.541  0.00  0.00    -0.084 Cl
ATOM      5  C   UNL d   1       1.204   0.851   4.753  0.00  0.00     0.004 A 
ATOM      6  C   UNL d   1       0.672   0.394   3.542  0.00  0.00     0.029 A 
ATOM      7  C   UNL d   1       2.200   1.824   4.752  0.00  0.00     0.024 A 
ENDROOT
BRANCH   1   8
ATOM      8  N   UNL d   1       0.572   0.362   1.142  0.00  0.00    -0.328 N 
ATOM      9  H   UNL d   1      -0.277  -0.170   1.270  0.00  0.00     0.169 HD
BRANCH   8  10
ATOM     10  C   UNL d   1       1.077   0.306  -0.136  0.00  0.00     0.214 C 
ATOM     11  S   UNL d   1       2.640   0.466  -0.682  0.00  0.00    -0.033 SA
BRANCH  10  12
ATOM     12  O   UNL d   1       0.197  -0.101  -1.087  0.00  0.00    -0.332 OA
ATOM     13  C   UNL d   1      -1.149   0.400  -1.106  0.00  0.00     0.212 C 
ENDBRANCH  10  12
ENDBRANCH   8  10
ENDBRANCH   1   8
TORSDOF 3
