REMARK  1 active torsions:
REMARK  status: ('A' for Active; 'I' for Inactive)
REMARK    1  A    between atoms: C_11  and  N_2 
ROOT
ATOM      1  C   UNL d   1       3.212  -0.247   0.295  0.00  0.00     0.036 C 
ATOM      2  N   UNL d   1       4.341   0.602   0.673  0.00  0.00    -0.248 NA
ATOM      3  C   UNL d   1       1.920   0.172  -0.043  0.00  0.00     0.013 A 
ATOM      4  N   UNL d   1       1.321  -2.171  -0.265  0.00  0.00    -0.358 N 
ATOM      5  HN  UNL d   1       0.634  -2.878  -0.525  1.00  0.00     0.166 HD
ATOM      6  C   UNL d   1       3.495  -1.603   0.453  0.00  0.00    -0.012 C 
ATOM      7  C   UNL d   1       0.973  -0.859  -0.256  0.00  0.00     0.050 A 
ATOM      8  C   UNL d   1       2.576  -2.542   0.068  0.00  0.00     0.013 C 
ATOM      9  C   UNL d   1       4.955  -0.345   1.672  0.00  0.00     0.106 C 
ATOM     10  C   UNL d   1       4.825  -1.762   1.090  0.00  0.00     0.057 C 
ATOM     11  C   UNL d   1      -0.373  -0.500  -0.406  0.00  0.00    -0.034 A 
ATOM     12  C   UNL d   1       1.524   1.523  -0.094  0.00  0.00     0.015 A 
ATOM     13  C   UNL d   1       2.913  -3.996   0.015  0.00  0.00     0.068 C 
ATOM     14  C   UNL d   1       0.192   1.858  -0.299  0.00  0.00     0.002 A 
ATOM     15  C   UNL d   1      -0.759   0.851  -0.444  0.00  0.00     0.009 A 
ATOM     16  C   UNL d   1      -1.436  -1.563  -0.520  0.00  0.00     0.050 C 
ENDROOT
BRANCH   2  17
ATOM     17  C   UNL d   1       5.411   0.922  -0.248  0.00  0.00     0.015 A 
ATOM     18  C   UNL d   1       5.514   0.345  -1.524  0.00  0.00     0.026 A 
ATOM     19  C   UNL d   1       6.702   0.449  -2.258  0.00  0.00     0.026 A 
ATOM     20  C   UNL d   1       7.780   1.163  -1.740  0.00  0.00     0.034 A 
ATOM     21  C   UNL d   1       7.662   1.827  -0.522  0.00  0.00     0.026 A 
ATOM     22 CL   UNL d   1       9.275   1.195  -2.590  0.00  0.00    -0.084 Cl
ATOM     23  C   UNL d   1       6.476   1.724   0.209  0.00  0.00     0.026 A 
ENDBRANCH   2  17
TORSDOF 1
