REMARK  4 active torsions:
REMARK  status: ('A' for Active; 'I' for Inactive)
REMARK    1  A    between atoms: C_5  and  C_1 
REMARK    2  A    between atoms: C_6  and  C_1 
REMARK    3  A    between atoms: N_8  and  N_2 
REMARK    4  A    between atoms: C_12  and  N_8 
ROOT
ATOM      1  N   UNL d   1      -2.482  -8.071   1.215  0.00  0.00    -0.191 NA
ATOM      2  C   UNL d   1      -1.898  -7.080   1.050  0.00  0.00     0.099 C 
ATOM      3  C   UNL d   1      -1.177  -5.858   0.851  0.00  0.00     0.044 A 
ATOM      4  C   UNL d   1       0.234  -3.449   0.477  0.00  0.00     0.048 A 
ATOM      5  C   UNL d   1       0.067  -5.671   1.459  0.00  0.00     0.025 A 
ATOM      6  C   UNL d   1      -1.720  -4.841   0.061  0.00  0.00     0.025 A 
ATOM      7  C   UNL d   1      -1.023  -3.641  -0.108  0.00  0.00     0.032 A 
ATOM      8  C   UNL d   1       0.767  -4.476   1.266  0.00  0.00     0.032 A 
ENDROOT
BRANCH   4   9
ATOM      9  N   UNL d   1       0.919  -2.231   0.394  0.00  0.00    -0.300 N 
ATOM     10  H   UNL d   1       1.925  -2.233   0.601  0.00  0.00     0.187 HD
BRANCH   9  11
ATOM     11  N   UNL d   1       0.241  -1.090   0.137  0.00  0.00    -0.294 N 
ATOM     12  C   UNL d   1       0.825   0.043   0.423  0.00  0.00     0.139 C 
ATOM     13  HN  UNL d   1      -0.696  -1.113  -0.267  1.00  0.00     0.187 HD
BRANCH  12  14
ATOM     14  C   UNL d   1       0.021   1.294   0.139  0.00  0.00     0.177 C 
ATOM     15  O   UNL d   1       0.625   2.341  -0.064  0.00  0.00    -0.291 OA
ATOM     16  C   UNL d   1      -1.481   1.199   0.166  0.00  0.00     0.098 C 
ENDBRANCH  12  14
BRANCH  12  17
ATOM     17  C   UNL d   1       2.223   0.118   1.031  0.00  0.00     0.177 C 
ATOM     18  O   UNL d   1       3.059  -0.734   0.739  0.00  0.00    -0.291 OA
ATOM     19  C   UNL d   1       2.509   1.210   2.019  0.00  0.00     0.098 C 
ENDBRANCH  12  17
ENDBRANCH   9  11
ENDBRANCH   4   9
TORSDOF 4
