REMARK  6 active torsions:
REMARK  status: ('A' for Active; 'I' for Inactive)
REMARK    1  A    between atoms: S_14  and  C_4 
REMARK       I    between atoms: C_7  and  N_11 
REMARK    2  A    between atoms: C_17  and  C_7 
REMARK    3  A    between atoms: C_10  and  C_22 
REMARK       I    between atoms: N_15  and  C_10 
REMARK    4  A    between atoms: N_11  and  N_15 
REMARK    5  A    between atoms: C_22  and  S_14 
REMARK    6  A    between atoms: C_18  and  C_19 
ROOT
ATOM      1  C   UNL d   1       1.560  -3.373  -0.850  0.00  0.00     0.245 C 
ATOM      2  N   UNL d   1       2.603  -3.876  -0.102  0.00  0.00    -0.267 N 
ATOM      3  O   UNL d   1       0.897  -4.107  -1.591  0.00  0.00    -0.271 OA
ATOM      4  H   UNL d   1       3.253  -3.293   0.424  0.00  0.00     0.190 HD
ENDROOT
BRANCH   1   5
ATOM      5  C   UNL d   1       1.158  -1.927  -0.612  0.00  0.00     0.185 C 
BRANCH   5   6
ATOM      6  S   UNL d   1       2.558  -0.822  -0.254  0.00  0.00    -0.102 SA
BRANCH   6   7
ATOM      7  C   UNL d   1       1.713   0.744  -0.175  0.00  0.00     0.090 A 
ATOM      8  C   UNL d   1       2.395   1.939   0.088  0.00  0.00     0.065 A 
ATOM      9  S   UNL d   1       4.060   2.247   0.386  0.00  0.00    -0.096 SA
ATOM     10  C   UNL d   1       1.663   3.126   0.128  0.00  0.00     0.059 A 
ATOM     11  C   UNL d   1       3.800   3.922   0.571  0.00  0.00     0.059 A 
ATOM     12  C   UNL d   1       2.475   4.278   0.412  0.00  0.00    -0.027 A 
ATOM     13  C   UNL d   1       1.969   5.678   0.528  0.00  0.00     0.051 C 
ATOM     14  N   UNL d   1       0.323   3.163  -0.080  0.00  0.00    -0.351 N 
ATOM     15  C   UNL d   1      -0.233   1.976  -0.325  0.00  0.00     0.181 A 
ATOM     16  HN  UNL d   1      -0.215   4.029  -0.051  1.00  0.00     0.166 HD
ATOM     17  N   UNL d   1       0.378   0.785  -0.378  0.00  0.00    -0.346 N 
ATOM     18  HN  UNL d   1      -0.150  -0.067  -0.567  1.00  0.00     0.167 HD
ENDBRANCH   6   7
ENDBRANCH   5   6
ENDBRANCH   1   5
BRANCH   2  19
ATOM     19  N   UNL d   1       2.897  -5.241  -0.226  0.00  0.00    -0.263 N 
ATOM     20  C   UNL d   1       4.186  -5.699  -0.019  0.00  0.00     0.270 C 
ATOM     21  O   UNL d   1       5.123  -4.979   0.302  0.00  0.00    -0.266 OA
ATOM     22  H   UNL d   1       2.222  -5.783  -0.766  0.00  0.00     0.190 HD
BRANCH  20  23
ATOM     23  C   UNL d   1       4.366  -7.165  -0.226  0.00  0.00     0.033 A 
ATOM     24  C   UNL d   1       5.566  -7.665  -0.733  0.00  0.00     0.017 A 
ATOM     25  C   UNL d   1       5.716  -9.044  -0.955  0.00  0.00     0.009 A 
ATOM     26  C   UNL d   1       4.681  -9.959  -0.664  0.00  0.00    -0.051 A 
ATOM     27  C   UNL d   1       3.504  -9.432  -0.107  0.00  0.00     0.009 A 
ATOM     28  C   UNL d   1       3.346  -8.059   0.109  0.00  0.00     0.017 A 
BRANCH  26  29
ATOM     29  C   UNL d   1       4.840 -11.460  -0.972  0.00  0.00    -0.024 C 
ATOM     30  C   UNL d   1       3.603 -12.305  -0.585  0.00  0.00     0.019 C 
ATOM     31  C   UNL d   1       5.061 -11.652  -2.488  0.00  0.00     0.019 C 
ATOM     32  C   UNL d   1       6.046 -12.050  -0.211  0.00  0.00     0.019 C 
ENDBRANCH  26  29
ENDBRANCH  20  23
ENDBRANCH   2  19
TORSDOF 6
