REMARK  2 active torsions:
REMARK  status: ('A' for Active; 'I' for Inactive)
REMARK       I    between atoms: N_3  and  C_1 
REMARK    1  A    between atoms: C_6  and  C_1 
REMARK    2  A    between atoms: C_2  and  C_5 
REMARK       I    between atoms: N_4  and  C_2 
ROOT
ATOM      1  C   UNL d   1      -1.310   3.343  -1.360  0.00  0.00     0.032 C 
ATOM      2  C   UNL d   1       0.083   1.165  -0.270  0.00  0.00     0.032 C 
ATOM      3  C   UNL d   1      -1.803   2.685  -0.228  0.00  0.00     0.018 C 
ATOM      4  C   UNL d   1      -1.091   1.626   0.334  0.00  0.00     0.018 C 
ATOM      5  C   UNL d   1      -0.050   2.994  -1.856  0.00  0.00     0.018 C 
ATOM      6  C   UNL d   1       0.626   1.883  -1.342  0.00  0.00     0.018 C 
ENDROOT
BRANCH   1   7
ATOM      7  C   UNL d   1      -2.116   4.455  -1.923  0.00  0.00     0.253 C 
ATOM      8  N   UNL d   1      -2.198   4.632  -3.293  0.00  0.00    -0.348 N 
ATOM      9  C   UNL d   1      -1.745   3.791  -4.388  0.00  0.00     0.126 C 
ATOM     10  C   UNL d   1      -2.912   5.780  -3.826  0.00  0.00     0.126 C 
ATOM     11  C   UNL d   1      -1.394   4.826  -5.442  0.00  0.00     0.021 C 
ATOM     12  C   UNL d   1      -2.530   5.834  -5.307  0.00  0.00     0.021 C 
ATOM     13  O   UNL d   1      -2.707   5.187  -1.133  0.00  0.00    -0.267 OA
ENDBRANCH   1   7
BRANCH   2  14
ATOM     14  C   UNL d   1       0.820  -0.008   0.265  0.00  0.00     0.253 C 
ATOM     15  N   UNL d   1       0.106  -1.101   0.738  0.00  0.00    -0.348 N 
ATOM     16  C   UNL d   1       0.800  -2.199   1.389  0.00  0.00     0.126 C 
ATOM     17  C   UNL d   1      -1.264  -1.479   0.402  0.00  0.00     0.126 C 
ATOM     18  C   UNL d   1      -0.054  -3.421   1.096  0.00  0.00     0.021 C 
ATOM     19  C   UNL d   1      -1.463  -2.852   1.032  0.00  0.00     0.021 C 
ATOM     20  O   UNL d   1       2.048   0.037   0.266  0.00  0.00    -0.267 OA
ENDBRANCH   2  14
TORSDOF 2
