REMARK  8 active torsions:
REMARK  status: ('A' for Active; 'I' for Inactive)
REMARK    1  A    between atoms: C_9  and  C_1 
REMARK    2  A    between atoms: C_29  and  N_5 
REMARK    3  A    between atoms: C_7  and  C_8 
REMARK       I    between atoms: N_16  and  C_9 
REMARK    4  A    between atoms: C_10  and  C_14 
REMARK    5  A    between atoms: C_12  and  N_18 
REMARK    6  A    between atoms: N_15  and  C_12 
REMARK    7  A    between atoms: C_13  and  N_15 
REMARK    8  A    between atoms: N_18  and  N_16 
ROOT
ATOM      1  C   UNL d   1       3.682  -1.413  -0.439  0.00  0.00     0.275 C 
ATOM      2  N   UNL d   1       4.668  -0.633  -1.015  0.00  0.00    -0.263 N 
ATOM      3  O   UNL d   1       3.832  -2.623  -0.299  0.00  0.00    -0.266 OA
ATOM      4  H   UNL d   1       4.556   0.345  -1.259  0.00  0.00     0.190 HD
ENDROOT
BRANCH   1   5
ATOM      5  C   UNL d   1       2.405  -0.695  -0.118  0.00  0.00     0.100 C 
ATOM      6  C   UNL d   1       1.139  -1.429   0.158  0.00  0.00     0.201 C 
ATOM      7  C   UNL d   1      -0.129  -0.653   0.139  0.00  0.00     0.043 A 
ATOM      8  O   UNL d   1       1.098  -2.633   0.380  0.00  0.00    -0.286 OA
ATOM      9  C   UNL d   1      -1.346  -1.357   0.151  0.00  0.00     0.034 A 
ATOM     10  C   UNL d   1      -0.087   0.755   0.088  0.00  0.00     0.048 A 
ATOM     11  C   UNL d   1      -2.562  -0.672   0.081  0.00  0.00     0.049 A 
ATOM     12  C   UNL d   1      -2.535   0.726   0.020  0.00  0.00     0.018 A 
ATOM     13  C   UNL d   1      -1.319   1.424   0.034  0.00  0.00     0.031 A 
ATOM     14  N   UNL d   1       1.161   1.411   0.074  0.00  0.00    -0.355 N 
ATOM     15  C   UNL d   1       2.314   0.645  -0.081  0.00  0.00     0.112 C 
BRANCH  11  16
ATOM     16  C   UNL d   1      -3.880  -1.406   0.047  0.00  0.00     0.417 C 
ATOM     17  F   UNL d   1      -3.761  -2.757   0.153  0.00  0.00    -0.166 F 
ATOM     18  F   UNL d   1      -4.713  -1.022   1.054  0.00  0.00    -0.166 F 
ATOM     19  F   UNL d   1      -4.564  -1.180  -1.109  0.00  0.00    -0.166 F 
ENDBRANCH  11  16
BRANCH  14  20
ATOM     20  C   UNL d   1       1.228   2.884   0.093  0.00  0.00     0.124 C 
ATOM     21  C   UNL d   1       1.081   3.470  -1.306  0.00  0.00     0.027 C 
ENDBRANCH  14  20
ENDBRANCH   1   5
BRANCH   2  22
ATOM     22  N   UNL d   1       5.768  -1.258  -1.610  0.00  0.00    -0.273 N 
ATOM     23  H   UNL d   1       5.687  -2.274  -1.709  0.00  0.00     0.189 HD
BRANCH  22  24
ATOM     24  C   UNL d   1       7.037  -0.741  -1.469  0.00  0.00     0.191 C 
ATOM     25  S   UNL d   1       7.453   0.562  -0.507  0.00  0.00    -0.039 SA
BRANCH  24  26
ATOM     26  N   UNL d   1       8.012  -1.381  -2.190  0.00  0.00    -0.331 N 
ATOM     27  H   UNL d   1       8.950  -1.276  -1.806  0.00  0.00     0.168 HD
BRANCH  26  28
ATOM     28  C   UNL d   1       7.930  -1.848  -3.527  0.00  0.00     0.049 A 
ATOM     29  C   UNL d   1       8.953  -2.649  -4.064  0.00  0.00     0.074 A 
ATOM     30  C   UNL d   1       8.901  -3.004  -5.430  0.00  0.00     0.018 A 
ATOM     31  C   UNL d   1       7.867  -2.564  -6.254  0.00  0.00     0.001 A 
ATOM     32  C   UNL d   1       6.859  -1.774  -5.722  0.00  0.00     0.002 A 
ATOM     33  C   UNL d   1       6.889  -1.421  -4.372  0.00  0.00     0.030 A 
BRANCH  29  34
ATOM     34  C   UNL d   1      10.095  -3.204  -3.251  0.00  0.00     0.419 C 
ATOM     35  F   UNL d   1      10.154  -2.746  -1.968  0.00  0.00    -0.166 F 
ATOM     36  F   UNL d   1      10.056  -4.562  -3.162  0.00  0.00    -0.166 F 
ATOM     37  F   UNL d   1      11.309  -2.903  -3.795  0.00  0.00    -0.166 F 
ENDBRANCH  29  34
ENDBRANCH  26  28
ENDBRANCH  24  26
ENDBRANCH  22  24
ENDBRANCH   2  22
TORSDOF 8
