REMARK  6 active torsions:
REMARK  status: ('A' for Active; 'I' for Inactive)
REMARK    1  A    between atoms: N_2  and  S_1 
REMARK    2  A    between atoms: C_4  and  S_1 
REMARK    3  A    between atoms: C_7  and  C_3 
REMARK    4  A    between atoms: C_5  and  C_8 
REMARK    5  A    between atoms: C_6  and  C_9 
REMARK    6  A    between atoms: C_19  and  C_7 
ROOT
ATOM      1  S   UNL d   1       1.484  -0.297   0.222  0.00  0.00     0.269 S 
ATOM      2  O   UNL d   1       2.243   0.714  -0.481  0.00  0.00    -0.200 OA
ATOM      3  O   UNL d   1       0.512  -1.145  -0.440  0.00  0.00    -0.200 OA
ENDROOT
BRANCH   1   4
ATOM      4  N   UNL d   1       0.587   0.480   1.443  0.00  0.00    -0.243 N 
ATOM      5  C   UNL d   1       0.538   1.830   1.703  0.00  0.00     0.100 A 
ATOM      6  C   UNL d   1      -0.147   1.964   2.905  0.00  0.00     0.036 A 
ATOM      7  C   UNL d   1      -0.558   0.677   3.333  0.00  0.00     0.021 A 
ATOM      8  C   UNL d   1      -0.122  -0.224   2.388  0.00  0.00     0.110 A 
BRANCH   5   9
ATOM      9  C   UNL d   1       1.205   2.876   0.962  0.00  0.00     0.209 C 
ATOM     10  O   UNL d   1       2.290   3.304   1.343  0.00  0.00    -0.285 OA
BRANCH   9  11
ATOM     11  C   UNL d   1       0.551   3.493  -0.239  0.00  0.00     0.016 A 
ATOM     12  C   UNL d   1       1.317   4.376  -1.020  0.00  0.00     0.015 A 
ATOM     13  C   UNL d   1       0.759   5.011  -2.132  0.00  0.00     0.001 A 
ATOM     14  C   UNL d   1      -0.570   4.778  -2.472  0.00  0.00     0.000 A 
ATOM     15  C   UNL d   1      -1.340   3.902  -1.708  0.00  0.00     0.001 A 
ATOM     16  C   UNL d   1      -0.785   3.258  -0.593  0.00  0.00     0.015 A 
ENDBRANCH   9  11
ENDBRANCH   5   9
ENDBRANCH   1   4
BRANCH   1  17
ATOM     17  C   UNL d   1       2.631  -1.344   1.094  0.00  0.00     0.082 A 
ATOM     18  C   UNL d   1       3.344  -0.857   2.196  0.00  0.00     0.041 A 
ATOM     19  C   UNL d   1       4.192  -1.716   2.916  0.00  0.00     0.050 A 
ATOM     20  C   UNL d   1       4.315  -3.057   2.504  0.00  0.00     0.032 A 
ATOM     21  C   UNL d   1       3.618  -3.547   1.386  0.00  0.00     0.050 A 
ATOM     22  C   UNL d   1       2.771  -2.677   0.684  0.00  0.00     0.041 A 
BRANCH  19  23
ATOM     23  C   UNL d   1       4.937  -1.240   4.144  0.00  0.00     0.417 C 
ATOM     24  F   UNL d   1       4.976   0.113   4.264  0.00  0.00    -0.166 F 
ATOM     25  F   UNL d   1       4.370  -1.705   5.291  0.00  0.00    -0.166 F 
ATOM     26  F   UNL d   1       6.231  -1.661   4.167  0.00  0.00    -0.166 F 
ENDBRANCH  19  23
BRANCH  21  27
ATOM     27  C   UNL d   1       3.769  -4.997   0.981  0.00  0.00     0.417 C 
ATOM     28  F   UNL d   1       3.155  -5.300  -0.195  0.00  0.00    -0.166 F 
ATOM     29  F   UNL d   1       5.071  -5.361   0.831  0.00  0.00    -0.166 F 
ATOM     30  F   UNL d   1       3.246  -5.843   1.909  0.00  0.00    -0.166 F 
ENDBRANCH  21  27
ENDBRANCH   1  17
TORSDOF 6
