REMARK  3 active torsions:
REMARK  status: ('A' for Active; 'I' for Inactive)
REMARK    1  A    between atoms: N_9  and  C_3 
REMARK    2  A    between atoms: N_13  and  C_6 
REMARK    3  A    between atoms: C_11  and  N_9 
ROOT
ATOM      1  N   UNL d   1      -0.122  -1.118  -0.468  0.00  0.00    -0.166 N 
ATOM      2  HN  UNL d   1      -0.568  -1.996  -0.731  1.00  0.00     0.187 HD
ATOM      3  C   UNL d   1      -0.827  -0.069  -0.049  0.00  0.00     0.686 A 
ATOM      4  N   UNL d   1      -0.282   1.084   0.330  0.00  0.00    -0.188 N 
ATOM      5  HN  UNL d   1      -0.838   1.889   0.616  1.00  0.00     0.185 HD
ATOM      6  C   UNL d   1       1.187  -0.956  -0.524  0.00  0.00     0.170 A 
ATOM      7  N   UNL d   1       1.837   0.118  -0.108  0.00  0.00    -0.328 N 
ATOM      8  HN  UNL d   1       2.855   0.186  -0.105  1.00  0.00     0.169 HD
ATOM      9  C   UNL d   1       1.046   1.101   0.305  0.00  0.00     0.200 A 
ENDROOT
BRANCH   3  10
ATOM     10  N   UNL d   1      -2.215  -0.132  -0.038  0.00  0.00    -0.189 N 
ATOM     11  H   UNL d   1      -2.644   0.781   0.019  0.00  0.00     0.184 HD
BRANCH  10  12
ATOM     12  C   UNL d   1      -3.073  -1.232   0.092  0.00  0.00     0.087 A 
ATOM     13  C   UNL d   1      -4.361  -1.183  -0.460  0.00  0.00     0.143 A 
ATOM     14  F   UNL d   1      -4.773  -0.067  -1.083  0.00  0.00    -0.204 F 
ATOM     15  C   UNL d   1      -5.231  -2.270  -0.392  0.00  0.00     0.044 A 
ATOM     16  C   UNL d   1      -4.825  -3.438   0.250  0.00  0.00     0.003 A 
ATOM     17  C   UNL d   1      -3.549  -3.514   0.803  0.00  0.00     0.002 A 
ATOM     18  C   UNL d   1      -2.675  -2.426   0.706  0.00  0.00     0.033 A 
ENDBRANCH  10  12
ENDBRANCH   3  10
BRANCH   6  19
ATOM     19  N   UNL d   1       1.931  -1.995  -1.040  0.00  0.00    -0.273 NA
ATOM     20  H   UNL d   1       1.410  -2.861  -1.011  0.00  0.00     0.127 HD
ATOM     21  H   UNL d   1       2.873  -1.992  -0.678  0.00  0.00     0.127 HD
ENDBRANCH   6  19
TORSDOF 3
