REMARK  3 active torsions:
REMARK  status: ('A' for Active; 'I' for Inactive)
REMARK    1  A    between atoms: N_8  and  N_1 
REMARK    2  A    between atoms: C_9  and  N_2 
REMARK       I    between atoms: C_7  and  N_8 
REMARK       I    between atoms: N_10  and  C_7 
REMARK    3  A    between atoms: C_17  and  N_10 
ROOT
ATOM      1  N   UNL d   1       0.372   1.349   0.466  0.00  0.00    -0.247 N 
ATOM      2  N   UNL d   1      -1.150  -0.913   0.493  0.00  0.00    -0.308 N 
ATOM      3  C   UNL d   1      -1.781   0.254   0.007  0.00  0.00     0.244 C 
ATOM      4  C   UNL d   1       1.045   0.162   0.721  0.00  0.00     0.257 C 
ATOM      5  C   UNL d   1      -0.804   1.367  -0.403  0.00  0.00     0.255 C 
ATOM      6  C   UNL d   1       0.288  -1.055   0.215  0.00  0.00     0.236 C 
ATOM      7  O   UNL d   1       2.176   0.115   1.200  0.00  0.00    -0.270 OA
ATOM      8  O   UNL d   1      -2.990   0.407  -0.157  0.00  0.00    -0.271 OA
ENDROOT
BRANCH   1   9
ATOM      9  N   UNL d   1       1.149   2.549   0.544  0.00  0.00    -0.246 N 
ATOM     10  C   UNL d   1       1.553   3.188  -0.632  0.00  0.00     0.339 C 
ATOM     11  N   UNL d   1       2.501   4.163  -0.381  0.00  0.00    -0.308 N 
ATOM     12  O   UNL d   1       1.079   2.918  -1.731  0.00  0.00    -0.245 OA
ATOM     13  H   UNL d   1       2.974   4.119   0.508  0.00  0.00     0.170 HD
ATOM     14  H   UNL d   1       1.860   2.482   1.266  0.00  0.00     0.192 HD
BRANCH  11  15
ATOM     15  C   UNL d   1       3.009   5.099  -1.311  0.00  0.00     0.036 A 
ATOM     16  C   UNL d   1       2.396   5.380  -2.535  0.00  0.00     0.029 A 
ATOM     17  C   UNL d   1       2.951   6.318  -3.412  0.00  0.00     0.002 A 
ATOM     18  C   UNL d   1       4.127   6.983  -3.073  0.00  0.00     0.000 A 
ATOM     19  C   UNL d   1       4.738   6.723  -1.850  0.00  0.00     0.002 A 
ATOM     20  C   UNL d   1       4.176   5.792  -0.967  0.00  0.00     0.029 A 
ENDBRANCH  11  15
ENDBRANCH   1   9
BRANCH   2  21
ATOM     21  C   UNL d   1      -1.865  -2.039   1.019  0.00  0.00     0.037 A 
ATOM     22  C   UNL d   1      -3.195  -2.315   0.673  0.00  0.00     0.031 A 
ATOM     23  C   UNL d   1      -3.871  -3.425   1.203  0.00  0.00     0.026 A 
ATOM     24  C   UNL d   1      -3.227  -4.268   2.100  0.00  0.00     0.034 A 
ATOM     25  C   UNL d   1      -1.915  -4.009   2.473  0.00  0.00     0.026 A 
ATOM     26 CL   UNL d   1      -4.054  -5.625   2.755  0.00  0.00    -0.084 Cl
ATOM     27  C   UNL d   1      -1.242  -2.904   1.937  0.00  0.00     0.031 A 
ENDBRANCH   2  21
TORSDOF 3
