REMARK  4 active torsions:
REMARK  status: ('A' for Active; 'I' for Inactive)
REMARK    1  A    between atoms: C_11  and  C_1 
REMARK    2  A    between atoms: C_10  and  C_3 
REMARK    3  A    between atoms: C_12  and  C_4 
REMARK    4  A    between atoms: C_14  and  C_9 
ROOT
ATOM      1  C   UNL d   1      -0.757  -1.974   0.099  0.00  0.00     0.188 C 
ATOM      2  C   UNL d   1       0.679  -1.517   0.252  0.00  0.00     0.012 C 
ATOM      3  C   UNL d   1       1.013  -0.229   0.014  0.00  0.00    -0.012 C 
ATOM      4  C   UNL d   1       1.308  -2.496   1.164  0.00  0.00    -0.011 C 
ATOM      5  O   UNL d   1      -1.770  -0.981   0.026  0.00  0.00    -0.321 OA
ATOM      6  C   UNL d   1      -0.862  -2.509   1.519  0.00  0.00     0.194 C 
ATOM      7  C   UNL d   1       0.463  -2.586   2.212  0.00  0.00     0.067 C 
ATOM      8  C   UNL d   1      -0.102   0.688  -0.287  0.00  0.00     0.050 C 
ATOM      9  C   UNL d   1      -1.388   0.318  -0.176  0.00  0.00     0.082 C 
ATOM     10  O   UNL d   1      -1.878  -2.902   2.093  0.00  0.00    -0.289 OA
ENDROOT
BRANCH   3  11
ATOM     11  C   UNL d   1       2.330   0.402   0.249  0.00  0.00    -0.025 A 
ATOM     12  C   UNL d   1       3.189   0.603  -0.841  0.00  0.00     0.013 A 
ATOM     13  C   UNL d   1       4.238   1.525  -0.754  0.00  0.00     0.020 A 
ATOM     14  C   UNL d   1       4.429   2.246   0.424  0.00  0.00     0.011 A 
ATOM     15  C   UNL d   1       3.610   2.024   1.530  0.00  0.00     0.020 A 
ATOM     16 BR   UNL d   1       5.762   3.586   0.499  0.00  0.00    -0.051 Br
ATOM     17  C   UNL d   1       2.563   1.100   1.443  0.00  0.00     0.013 A 
ENDBRANCH   3  11
BRANCH   1  18
ATOM     18  C   UNL d   1      -0.914  -2.908  -1.095  0.00  0.00    -0.011 A 
ATOM     19  C   UNL d   1      -1.243  -4.264  -0.991  0.00  0.00     0.011 A 
ATOM     20  C   UNL d   1      -1.332  -5.063  -2.139  0.00  0.00     0.001 A 
ATOM     21  C   UNL d   1      -1.103  -4.521  -3.404  0.00  0.00     0.000 A 
ATOM     22  C   UNL d   1      -0.786  -3.176  -3.530  0.00  0.00     0.001 A 
ATOM     23  C   UNL d   1      -0.693  -2.381  -2.390  0.00  0.00     0.011 A 
ENDBRANCH   1  18
BRANCH   4  24
ATOM     24  C   UNL d   1       1.940  -3.814   0.772  0.00  0.00    -0.025 A 
ATOM     25  C   UNL d   1       1.710  -5.005   1.510  0.00  0.00     0.012 A 
ATOM     26  C   UNL d   1       2.050  -6.267   1.019  0.00  0.00     0.001 A 
ATOM     27  C   UNL d   1       2.670  -6.374  -0.214  0.00  0.00     0.000 A 
ATOM     28  C   UNL d   1       2.966  -5.217  -0.934  0.00  0.00     0.001 A 
ATOM     29  C   UNL d   1       2.607  -3.949  -0.447  0.00  0.00     0.012 A 
ENDBRANCH   4  24
BRANCH   9  30
ATOM     30  C   UNL d   1      -2.534   1.253  -0.117  0.00  0.00    -0.003 A 
ATOM     31  C   UNL d   1      -2.544   2.504  -0.742  0.00  0.00     0.014 A 
ATOM     32  C   UNL d   1      -3.650   3.352  -0.616  0.00  0.00     0.001 A 
ATOM     33  C   UNL d   1      -4.763   2.961   0.130  0.00  0.00     0.000 A 
ATOM     34  C   UNL d   1      -4.775   1.716   0.751  0.00  0.00     0.001 A 
ATOM     35  C   UNL d   1      -3.669   0.875   0.627  0.00  0.00     0.014 A 
ENDBRANCH   9  30
TORSDOF 4
