REMARK  4 active torsions:
REMARK  status: ('A' for Active; 'I' for Inactive)
REMARK    1  A    between atoms: N_16  and  C_1 
REMARK    2  A    between atoms: C_6  and  C_2 
REMARK    3  A    between atoms: C_8  and  C_15 
REMARK    4  A    between atoms: N_12  and  N_16 
ROOT
ATOM      1  N   UNL d   1      -0.301   3.759  -0.006  0.00  0.00    -0.326 N 
ATOM      2  HN  UNL d   1      -1.274   3.453  -0.012  1.00  0.00     0.180 HD
ATOM      3  C   UNL d   1       0.035   5.010  -0.064  0.00  0.00     0.120 C 
ENDROOT
BRANCH   1   4
ATOM      4  N   UNL d   1       0.740   2.885   0.062  0.00  0.00    -0.203 NA
ATOM      5  H   UNL d   1       1.392   2.924  -0.729  0.00  0.00     0.153 HD
BRANCH   4   6
ATOM      6  C   UNL d   1       0.385   1.527   0.328  0.00  0.00     0.071 A 
ATOM      7  C   UNL d   1       1.048   0.499  -0.376  0.00  0.00     0.060 A 
ATOM      8  C   UNL d   1       0.763  -0.850  -0.160  0.00  0.00     0.049 A 
ATOM      9 CL   UNL d   1       2.247   0.880  -1.570  0.00  0.00    -0.082 Cl
ATOM     10  C   UNL d   1      -0.190  -1.200   0.791  0.00  0.00     0.037 A 
ATOM     11  C   UNL d   1      -0.846  -0.219   1.526  0.00  0.00     0.049 A 
ATOM     12 CL   UNL d   1      -0.545  -2.859   1.073  0.00  0.00    -0.084 Cl
ATOM     13  C   UNL d   1      -0.555   1.136   1.309  0.00  0.00     0.060 A 
ATOM     14 CL   UNL d   1      -1.359   2.256   2.360  0.00  0.00    -0.082 Cl
ENDBRANCH   4   6
ENDBRANCH   1   4
BRANCH   3  15
ATOM     15  C   UNL d   1      -0.949   6.065  -0.054  0.00  0.00     0.022 A 
ATOM     16  S   UNL d   1      -2.608   5.719  -0.253  0.00  0.00    -0.088 SA
ATOM     17  C   UNL d   1      -3.070   7.359  -0.044  0.00  0.00     0.022 A 
ATOM     18  C   UNL d   1      -1.955   8.155   0.152  0.00  0.00     0.021 A 
ATOM     19  C   UNL d   1      -0.734   7.414   0.131  0.00  0.00     0.021 A 
BRANCH  17  20
ATOM     20  C   UNL d   1      -4.461   7.759  -0.086  0.00  0.00     0.021 A 
ATOM     21  S   UNL d   1      -4.927   9.376  -0.438  0.00  0.00    -0.101 SA
ATOM     22  C   UNL d   1      -6.590   9.006  -0.319  0.00  0.00     0.050 A 
ATOM     23  C   UNL d   1      -6.802   7.684  -0.008  0.00  0.00     0.008 A 
ATOM     24  C   UNL d   1      -5.578   6.967   0.126  0.00  0.00     0.021 A 
ENDBRANCH  17  20
ENDBRANCH   3  15
TORSDOF 4
