REMARK  4 active torsions:
REMARK  status: ('A' for Active; 'I' for Inactive)
REMARK    1  A    between atoms: C_7  and  C_1 
REMARK    2  A    between atoms: N_11  and  C_5 
REMARK    3  A    between atoms: O_12  and  C_7 
REMARK    4  A    between atoms: C_13  and  O_12 
ROOT
ATOM      1  C   UNL d   1      -0.080  -1.306   0.029  0.00  0.00     0.155 A 
ATOM      2  C   UNL d   1       1.238  -0.789   0.064  0.00  0.00     0.132 A 
ATOM      3  N   UNL d   1      -0.978  -0.304   0.078  0.00  0.00    -0.252 N 
ATOM      4  HN  UNL d   1      -1.994  -0.390   0.084  1.00  0.00     0.195 HD
ATOM      5  C   UNL d   1       1.085   0.574   0.101  0.00  0.00     0.187 A 
ATOM      6  O   UNL d   1      -0.242   0.865   0.119  0.00  0.00    -0.218 OA
ATOM      7  C   UNL d   1       2.473  -1.487   0.028  0.00  0.00     0.106 C 
ATOM      8  N   UNL d   1       3.504  -2.022  -0.003  0.00  0.00    -0.191 NA
ENDROOT
BRANCH   1   9
ATOM      9  C   UNL d   1      -0.482  -2.702  -0.105  0.00  0.00     0.313 C 
ATOM     10  O   UNL d   1       0.325  -3.617  -0.222  0.00  0.00    -0.257 OA
BRANCH   9  11
ATOM     11  O   UNL d   1      -1.837  -2.860  -0.167  0.00  0.00    -0.317 OA
BRANCH  11  12
ATOM     12  C   UNL d   1      -2.300  -4.116  -0.678  0.00  0.00     0.175 C 
ATOM     13  C   UNL d   1      -2.375  -4.017  -2.191  0.00  0.00     0.034 C 
ENDBRANCH  11  12
ENDBRANCH   9  11
ENDBRANCH   1   9
BRANCH   5  14
ATOM     14  N   UNL d   1       1.935   1.612   0.117  0.00  0.00    -0.377 N 
ATOM     15  H   UNL d   1       2.934   1.508  -0.035  0.00  0.00     0.158 HD
ATOM     16  H   UNL d   1       1.581   2.558   0.004  0.00  0.00     0.158 HD
ENDBRANCH   5  14
TORSDOF 4
