REMARK  4 active torsions:
REMARK  status: ('A' for Active; 'I' for Inactive)
REMARK    1  A    between atoms: C_2  and  C_1 
REMARK    2  A    between atoms: C_18  and  C_7 
REMARK    3  A    between atoms: C_14  and  S_17 
REMARK    4  A    between atoms: S_17  and  C_18 
ROOT
ATOM      1  C   UNL d   1       0.523  -1.012  -0.015  0.00  0.00     0.186 A 
ATOM      2  N   UNL d   1       1.187   0.052   0.381  0.00  0.00    -0.322 N 
ATOM      3  HN  UNL d   1       2.083   0.098   0.867  1.00  0.00     0.169 HD
ATOM      4  C   UNL d   1       0.377   1.089  -0.021  0.00  0.00     0.113 A 
ATOM      5  N   UNL d   1      -0.793   0.701  -0.548  0.00  0.00    -0.246 N 
ATOM      6  HN  UNL d   1      -1.567   1.282  -0.867  1.00  0.00     0.196 HD
ATOM      7  O   UNL d   1      -0.696  -0.691  -0.553  0.00  0.00    -0.217 OA
ENDROOT
BRANCH   4   8
ATOM      8  C   UNL d   1       0.756   2.527   0.088  0.00  0.00     0.159 C 
BRANCH   8   9
ATOM      9  S   UNL d   1       2.554   2.776  -0.141  0.00  0.00    -0.105 SA
BRANCH   9  10
ATOM     10  C   UNL d   1       2.641   4.550  -0.044  0.00  0.00     0.069 A 
ATOM     11  N   UNL d   1       1.493   5.242   0.132  0.00  0.00    -0.361 N 
ATOM     12  C   UNL d   1       1.589   6.589   0.185  0.00  0.00     0.089 A 
ATOM     13  HN  UNL d   1       0.594   4.769   0.222  1.00  0.00     0.165 HD
ATOM     14  C   UNL d   1       2.779   7.285   0.076  0.00  0.00     0.017 A 
ATOM     15  C   UNL d   1       3.949   6.556  -0.099  0.00  0.00     0.004 A 
ATOM     16  C   UNL d   1       3.883   5.167  -0.159  0.00  0.00     0.037 A 
ENDBRANCH   9  10
ENDBRANCH   8   9
ENDBRANCH   4   8
BRANCH   1  17
ATOM     17  C   UNL d   1       1.062  -2.385   0.062  0.00  0.00     0.073 A 
ATOM     18  C   UNL d   1       0.470  -3.522  -0.429  0.00  0.00     0.089 A 
ATOM     19  O   UNL d   1       1.297  -4.580  -0.200  0.00  0.00    -0.242 OA
ATOM     20  C   UNL d   1      -0.791  -3.819  -1.133  0.00  0.00     0.080 C 
ATOM     21  N   UNL d   1       2.437  -4.144   0.453  0.00  0.00    -0.265 N 
ATOM     22  C   UNL d   1       2.289  -2.822   0.610  0.00  0.00     0.045 A 
ATOM     23  HN  UNL d   1       3.228  -4.714   0.753  1.00  0.00     0.194 HD
ATOM     24  C   UNL d   1       3.338  -2.027   1.288  0.00  0.00     0.071 C 
ENDBRANCH   1  17
TORSDOF 4
