REMARK  2 active torsions:
REMARK  status: ('A' for Active; 'I' for Inactive)
REMARK       I    between atoms: N_2  and  C_1 
REMARK       I    between atoms: N_3  and  C_1 
REMARK    1  A    between atoms: C_5  and  N_2 
REMARK    2  A    between atoms: C_6  and  N_3 
ROOT
ATOM      1  C   UNL d   1       1.055   0.153   0.053  0.00  0.00     0.325 C 
ATOM      2  N   UNL d   1       0.473  -0.806   0.868  0.00  0.00    -0.309 N 
ATOM      3  N   UNL d   1       0.128   0.716  -0.811  0.00  0.00    -0.309 N 
ATOM      4  O   UNL d   1       2.240   0.461   0.079  0.00  0.00    -0.247 OA
ATOM      5  H   UNL d   1      -0.420  -1.162   0.564  0.00  0.00     0.170 HD
ATOM      6  H   UNL d   1      -0.830   0.729  -0.493  0.00  0.00     0.170 HD
ENDROOT
BRANCH   2   7
ATOM      7  C   UNL d   1       1.144  -1.542   1.874  0.00  0.00     0.036 A 
ATOM      8  C   UNL d   1       2.400  -1.188   2.380  0.00  0.00     0.031 A 
ATOM      9  C   UNL d   1       3.038  -1.978   3.342  0.00  0.00     0.026 A 
ATOM     10  C   UNL d   1       2.412  -3.123   3.819  0.00  0.00     0.034 A 
ATOM     11  C   UNL d   1       1.149  -3.476   3.350  0.00  0.00     0.026 A 
ATOM     12 CL   UNL d   1       3.201  -4.103   4.990  0.00  0.00    -0.084 Cl
ATOM     13  C   UNL d   1       0.513  -2.685   2.383  0.00  0.00     0.031 A 
ENDBRANCH   2   7
BRANCH   3  14
ATOM     14  C   UNL d   1       0.455   1.555  -1.903  0.00  0.00     0.036 A 
ATOM     15  C   UNL d   1       1.734   1.594  -2.470  0.00  0.00     0.031 A 
ATOM     16  C   UNL d   1       2.019   2.442  -3.543  0.00  0.00     0.026 A 
ATOM     17  C   UNL d   1       1.017   3.250  -4.066  0.00  0.00     0.034 A 
ATOM     18  C   UNL d   1      -0.268   3.209  -3.529  0.00  0.00     0.026 A 
ATOM     19 CL   UNL d   1       1.368   4.299  -5.383  0.00  0.00    -0.084 Cl
ATOM     20  C   UNL d   1      -0.552   2.357  -2.454  0.00  0.00     0.031 A 
ENDBRANCH   3  14
TORSDOF 2
