REMARK  7 active torsions:
REMARK  status: ('A' for Active; 'I' for Inactive)
REMARK    1  A    between atoms: N_3  and  C_1 
REMARK    2  A    between atoms: N_4  and  C_1 
REMARK    3  A    between atoms: C_2  and  N_3 
REMARK    4  A    between atoms: C_5  and  N_4 
REMARK    5  A    between atoms: C_16  and  C_7 
REMARK    6  A    between atoms: C_15  and  C_8 
REMARK    7  A    between atoms: O_10  and  C_9 
ROOT
ATOM      1  C   UNL d   1       0.804  -0.157   0.099  0.00  0.00     0.176 C 
ATOM      2  S   UNL d   1       2.180  -1.101   0.016  0.00  0.00    -0.041 SA
ENDROOT
BRANCH   1   3
ATOM      3  N   UNL d   1       0.461   0.670   1.133  0.00  0.00    -0.332 N 
ATOM      4  H   UNL d   1      -0.489   0.496   1.441  0.00  0.00     0.168 HD
BRANCH   3   5
ATOM      5  C   UNL d   1       1.163   1.640   1.893  0.00  0.00     0.046 A 
ATOM      6  C   UNL d   1       2.204   2.457   1.376  0.00  0.00    -0.031 A 
ATOM      7  C   UNL d   1       2.680   3.514   2.183  0.00  0.00     0.009 A 
ATOM      8  C   UNL d   1       2.124   3.805   3.424  0.00  0.00     0.001 A 
ATOM      9  C   UNL d   1       1.111   3.006   3.926  0.00  0.00     0.009 A 
ATOM     10  C   UNL d   1       0.640   1.906   3.191  0.00  0.00    -0.031 A 
BRANCH   6  11
ATOM     11  C   UNL d   1       2.824   2.274   0.002  0.00  0.00     0.036 C 
ATOM     12  C   UNL d   1       3.460   3.497  -0.659  0.00  0.00     0.010 C 
ENDBRANCH   6  11
BRANCH  10  13
ATOM     13  C   UNL d   1      -0.369   1.008   3.889  0.00  0.00     0.036 C 
ATOM     14  C   UNL d   1      -1.817   1.430   3.690  0.00  0.00     0.010 C 
ENDBRANCH  10  13
ENDBRANCH   3   5
ENDBRANCH   1   3
BRANCH   1  15
ATOM     15  N   UNL d   1      -0.201  -0.371  -0.825  0.00  0.00    -0.331 N 
ATOM     16  H   UNL d   1      -0.083  -1.188  -1.411  0.00  0.00     0.168 HD
BRANCH  15  17
ATOM     17  C   UNL d   1      -1.274   0.490  -1.167  0.00  0.00     0.068 A 
ATOM     18  C   UNL d   1      -2.449   0.001  -1.766  0.00  0.00     0.095 A 
ATOM     19  C   UNL d   1      -3.426   0.908  -2.201  0.00  0.00     0.039 A 
ATOM     20  C   UNL d   1      -3.260   2.285  -2.058  0.00  0.00     0.003 A 
ATOM     21  C   UNL d   1      -2.099   2.773  -1.474  0.00  0.00     0.002 A 
ATOM     22  C   UNL d   1      -1.122   1.882  -1.029  0.00  0.00     0.032 A 
BRANCH  18  23
ATOM     23  O   UNL d   1      -2.777  -1.302  -2.027  0.00  0.00    -0.354 OA
ATOM     24  C   UNL d   1      -2.360  -2.307  -1.112  0.00  0.00     0.210 C 
ENDBRANCH  18  23
ENDBRANCH  15  17
ENDBRANCH   1  15
TORSDOF 7
