REMARK  4 active torsions:
REMARK  status: ('A' for Active; 'I' for Inactive)
REMARK    1  A    between atoms: C_2  and  S_1 
REMARK    2  A    between atoms: C_12  and  S_1 
REMARK    3  A    between atoms: C_7  and  C_4 
REMARK    4  A    between atoms: N_16  and  C_5 
ROOT
ATOM      1  C   UNL d   1       0.595   1.544  -0.431  0.00  0.00     0.144 C 
ATOM      2  C   UNL d   1      -0.118   1.409  -1.570  0.00  0.00     0.049 C 
ATOM      3  C   UNL d   1       1.102   0.483   0.346  0.00  0.00     0.112 C 
ATOM      4  N   UNL d   1       1.520  -0.399   0.969  0.00  0.00    -0.191 NA
ENDROOT
BRANCH   1   5
ATOM      5  S   UNL d   1       0.801   3.166   0.182  0.00  0.00     0.216 S 
ATOM      6  O   UNL d   1      -0.259   3.416   1.143  0.00  0.00    -0.216 OA
ATOM      7  O   UNL d   1       0.998   4.083  -0.927  0.00  0.00    -0.216 OA
BRANCH   5   8
ATOM      8  C   UNL d   1       2.342   3.204   1.087  0.00  0.00     0.065 A 
ATOM      9  C   UNL d   1       3.544   2.956   0.414  0.00  0.00     0.025 A 
ATOM     10  C   UNL d   1       4.755   3.078   1.102  0.00  0.00     0.025 A 
ATOM     11  C   UNL d   1       4.762   3.462   2.444  0.00  0.00     0.034 A 
ATOM     12  C   UNL d   1       3.565   3.724   3.110  0.00  0.00     0.025 A 
ATOM     13 CL   UNL d   1       6.258   3.638   3.275  0.00  0.00    -0.084 Cl
ATOM     14  C   UNL d   1       2.349   3.595   2.433  0.00  0.00     0.025 A 
ENDBRANCH   5   8
ENDBRANCH   1   5
BRANCH   2  15
ATOM     15  C   UNL d   1      -0.545   0.198  -2.303  0.00  0.00     0.006 A 
ATOM     16  C   UNL d   1      -0.611   0.243  -3.703  0.00  0.00     0.149 A 
ATOM     17  C   UNL d   1      -1.153  -0.804  -4.473  0.00  0.00     0.110 A 
ATOM     18  F   UNL d   1      -0.168   1.349  -4.327  0.00  0.00    -0.203 F 
ATOM     19  C   UNL d   1      -1.248  -0.567  -5.885  0.00  0.00     0.105 C 
ATOM     20  C   UNL d   1      -1.654  -1.972  -3.856  0.00  0.00     0.053 A 
ATOM     21  N   UNL d   1      -1.302  -0.378  -7.030  0.00  0.00    -0.191 NA
ATOM     22  C   UNL d   1      -1.560  -2.006  -2.446  0.00  0.00     0.032 A 
ATOM     23  C   UNL d   1      -1.034  -0.947  -1.681  0.00  0.00     0.017 A 
BRANCH  20  24
ATOM     24  N   UNL d   1      -2.272  -3.012  -4.545  0.00  0.00    -0.388 N 
ATOM     25  C   UNL d   1      -3.292  -3.850  -3.913  0.00  0.00     0.149 C 
ATOM     26  C   UNL d   1      -1.712  -3.574  -5.776  0.00  0.00     0.149 C 
ENDBRANCH  20  24
ENDBRANCH   2  15
TORSDOF 4
