REMARK  2 active torsions:
REMARK  status: ('A' for Active; 'I' for Inactive)
REMARK       I    between atoms: N_2  and  C_1 
REMARK       I    between atoms: N_3  and  C_1 
REMARK    1  A    between atoms: C_5  and  N_2 
REMARK    2  A    between atoms: C_6  and  N_3 
ROOT
ATOM      1  C   UNL d   1       1.117  -0.069  -0.114  0.00  0.00     0.321 C 
ATOM      2  N   UNL d   1       0.466   1.061  -0.576  0.00  0.00    -0.335 N 
ATOM      3  N   UNL d   1       0.233  -0.960   0.457  0.00  0.00    -0.309 N 
ATOM      4  O   UNL d   1       2.325  -0.234  -0.212  0.00  0.00    -0.247 OA
ATOM      5  H   UNL d   1      -0.377   1.278  -0.068  0.00  0.00     0.165 HD
ATOM      6  H   UNL d   1      -0.722  -0.901   0.130  0.00  0.00     0.170 HD
ENDROOT
BRANCH   3   7
ATOM      7  C   UNL d   1       0.594  -2.104   1.202  0.00  0.00     0.036 A 
ATOM      8  C   UNL d   1       1.866  -2.276   1.762  0.00  0.00     0.031 A 
ATOM      9  C   UNL d   1       2.174  -3.416   2.510  0.00  0.00     0.026 A 
ATOM     10  C   UNL d   1       1.206  -4.394   2.706  0.00  0.00     0.034 A 
ATOM     11  C   UNL d   1      -0.069  -4.237   2.162  0.00  0.00     0.026 A 
ATOM     12 CL   UNL d   1       1.578  -5.792   3.633  0.00  0.00    -0.084 Cl
ATOM     13  C   UNL d   1      -0.376  -3.091   1.417  0.00  0.00     0.031 A 
ENDBRANCH   3   7
BRANCH   2  14
ATOM     14  C   UNL d   1       1.199   2.219  -1.127  0.00  0.00     0.023 C 
ATOM     15  C   UNL d   1       1.999   1.830  -2.384  0.00  0.00     0.037 C 
ATOM     16  C   UNL d   1       0.174   3.293  -1.537  0.00  0.00     0.037 C 
ATOM     17  C   UNL d   1       2.135   2.828  -0.069  0.00  0.00     0.037 C 
ENDBRANCH   2  14
TORSDOF 2
