REMARK  3 active torsions:
REMARK  status: ('A' for Active; 'I' for Inactive)
REMARK    1  A    between atoms: C_10  and  C_5 
REMARK    2  A    between atoms: S_13  and  C_8 
REMARK    3  A    between atoms: N_14  and  C_9 
ROOT
ATOM      1  N   UNL d   1       1.774   0.055   0.002  0.00  0.00    -0.326 N 
ATOM      2  HN  UNL d   1       2.794   0.082  -0.006  1.00  0.00     0.169 HD
ATOM      3  N   UNL d   1      -0.299   1.145   0.119  0.00  0.00    -0.322 N 
ATOM      4  HN  UNL d   1      -0.846   2.003   0.189  1.00  0.00     0.169 HD
ATOM      5  C   UNL d   1       1.036   1.158   0.117  0.00  0.00     0.089 A 
ATOM      6  N   UNL d   1      -0.227  -1.190  -0.105  0.00  0.00    -0.313 N 
ATOM      7  HN  UNL d   1      -0.708  -2.084  -0.200  1.00  0.00     0.170 HD
ATOM      8  C   UNL d   1       1.095  -1.084  -0.102  0.00  0.00     0.147 A 
ATOM      9  C   UNL d   1      -0.870  -0.045   0.026  0.00  0.00     0.158 A 
ENDROOT
BRANCH   5  10
ATOM     10  C   UNL d   1       1.746   2.475   0.326  0.00  0.00     0.053 A 
ATOM     11  C   UNL d   1       1.486   3.654  -0.585  0.00  0.00     0.013 A 
ATOM     12  C   UNL d   1       2.803   2.941  -0.649  0.00  0.00     0.013 A 
ENDBRANCH   5  10
BRANCH   9  13
ATOM     13  N   UNL d   1      -2.248  -0.090   0.055  0.00  0.00    -0.274 NA
ATOM     14  H   UNL d   1      -2.595  -0.928  -0.389  0.00  0.00     0.127 HD
ATOM     15  H   UNL d   1      -2.641   0.793  -0.239  0.00  0.00     0.127 HD
ENDBRANCH   9  13
BRANCH   8  16
ATOM     16  S   UNL d   1       2.080  -2.562  -0.233  0.00  0.00    -0.098 SA
ATOM     17  C   UNL d   1       0.795  -3.828  -0.093  0.00  0.00     0.099 C 
ENDBRANCH   8  16
TORSDOF 3
