REMARK  3 active torsions:
REMARK  status: ('A' for Active; 'I' for Inactive)
REMARK    1  A    between atoms: C_6  and  N_1 
REMARK    2  A    between atoms: O_9  and  C_12 
REMARK    3  A    between atoms: C_15  and  O_9 
ROOT
ATOM      1  C   UNL d   1       0.054   2.290   0.025  0.00  0.00     0.046 A 
ATOM      2  C   UNL d   1      -0.687   2.989   0.992  0.00  0.00     0.033 A 
ATOM      3  C   UNL d   1       0.815   3.046  -0.880  0.00  0.00     0.033 A 
ATOM      4  C   UNL d   1       0.048   5.120   0.110  0.00  0.00     0.076 A 
ATOM      5  C   UNL d   1       0.808   4.447  -0.842  0.00  0.00     0.039 A 
ATOM      6  C   UNL d   1      -0.663   4.387   1.057  0.00  0.00     0.039 A 
ENDROOT
BRANCH   1   7
ATOM      7  N   UNL d   1       0.040   0.869  -0.021  0.00  0.00    -0.245 N 
ATOM      8  C   UNL d   1      -0.921   0.067   0.536  0.00  0.00     0.255 A 
ATOM      9  C   UNL d   1      -0.535  -1.326   0.281  0.00  0.00     0.080 A 
ATOM     10  O   UNL d   1      -1.960   0.336   1.112  0.00  0.00    -0.268 OA
ATOM     11  C   UNL d   1       0.602  -1.315  -0.410  0.00  0.00     0.080 A 
ATOM     12  C   UNL d   1       0.986   0.085  -0.624  0.00  0.00     0.255 A 
ATOM     13  O   UNL d   1       2.014   0.371  -1.213  0.00  0.00    -0.268 OA
ENDBRANCH   1   7
BRANCH   4  14
ATOM     14  O   UNL d   1       0.112   6.493   0.085  0.00  0.00    -0.311 OA
BRANCH  14  15
ATOM     15  C   UNL d   1      -1.008   7.229   0.406  0.00  0.00     0.076 A 
ATOM     16  C   UNL d   1      -0.776   8.464   1.013  0.00  0.00     0.037 A 
ATOM     17  C   UNL d   1      -1.849   9.284   1.368  0.00  0.00     0.003 A 
ATOM     18  C   UNL d   1      -3.156   8.870   1.113  0.00  0.00     0.000 A 
ATOM     19  C   UNL d   1      -3.390   7.651   0.477  0.00  0.00     0.003 A 
ATOM     20  C   UNL d   1      -2.317   6.841   0.102  0.00  0.00     0.037 A 
ENDBRANCH  14  15
ENDBRANCH   4  14
TORSDOF 3
