REMARK  3 active torsions:
REMARK  status: ('A' for Active; 'I' for Inactive)
REMARK    1  A    between atoms: C_9  and  N_4 
REMARK    2  A    between atoms: C_12  and  N_5 
REMARK    3  A    between atoms: C_8  and  C_9 
ROOT
ATOM      1  C   UNL d   1      -1.411   1.685   3.240  0.00  0.00     0.170 C 
ATOM      2  N   UNL d   1      -1.508   1.643   1.891  0.00  0.00    -0.342 N 
ATOM      3  N   UNL d   1      -1.631   0.520   3.889  0.00  0.00    -0.342 N 
ATOM      4  N   UNL d   1      -1.823  -0.703   1.869  0.00  0.00     0.125 N 
ATOM      5  C   UNL d   1      -2.135   0.552   1.210  0.00  0.00     0.399 C 
ATOM      6  C   UNL d   1      -2.241  -0.615   3.252  0.00  0.00     0.399 C 
ATOM      7  S   UNL d   1      -1.001   3.074   4.046  0.00  0.00    -0.041 SA
ATOM      8  H   UNL d   1      -1.415   2.533   1.412  0.00  0.00     0.163 HD
ATOM      9  H   UNL d   1      -1.644   0.570   4.898  0.00  0.00     0.163 HD
ENDROOT
BRANCH   4  10
ATOM     10  C   UNL d   1      -0.420  -1.115   1.674  0.00  0.00     0.312 C 
BRANCH  10  11
ATOM     11  C   UNL d   1      -0.043  -2.535   2.196  0.00  0.00     0.251 C 
ATOM     12  N   UNL d   1      -0.677  -3.757   1.642  0.00  0.00     0.094 N 
ATOM     13  C   UNL d   1       0.289  -4.861   1.799  0.00  0.00     0.273 C 
ATOM     14  C   UNL d   1       1.589  -4.266   2.315  0.00  0.00     0.032 C 
ATOM     15  C   UNL d   1       1.456  -2.784   2.047  0.00  0.00     0.039 C 
BRANCH  12  16
ATOM     16  C   UNL d   1      -1.198  -3.651   0.277  0.00  0.00     0.268 C 
ATOM     17  C   UNL d   1      -1.922  -4.923  -0.175  0.00  0.00     0.037 C 
ENDBRANCH  12  16
ENDBRANCH  10  11
ENDBRANCH   4  10
TORSDOF 3
