REMARK  3 active torsions:
REMARK  status: ('A' for Active; 'I' for Inactive)
REMARK    1  A    between atoms: C_4  and  C_1 
REMARK    2  A    between atoms: N_6  and  C_2 
REMARK       I    between atoms: C_3  and  N_5 
REMARK       I    between atoms: N_7  and  C_3 
REMARK    3  A    between atoms: C_15  and  N_7 
ROOT
ATOM      1  C   UNL d   1      -3.164   6.219  -0.332  0.00  0.00     0.323 C 
ATOM      2  N   UNL d   1      -2.596   4.956  -0.190  0.00  0.00    -0.332 N 
ATOM      3  N   UNL d   1      -1.137   2.499  -0.053  0.00  0.00    -0.266 NA
ATOM      4  N   UNL d   1      -4.205   6.513   0.516  0.00  0.00    -0.309 N 
ATOM      5  O   UNL d   1      -2.742   6.990  -1.190  0.00  0.00    -0.247 OA
ATOM      6  C   UNL d   1      -2.753   4.042   0.964  0.00  0.00     0.142 C 
ATOM      7  C   UNL d   1      -1.381   4.725  -0.994  0.00  0.00     0.142 C 
ATOM      8  C   UNL d   1      -2.446   2.563   0.619  0.00  0.00     0.117 C 
ATOM      9  C   UNL d   1      -1.164   3.243  -1.325  0.00  0.00     0.117 C 
ATOM     10  H   UNL d   1      -4.456   5.826   1.203  0.00  0.00     0.170 HD
ENDROOT
BRANCH   4  11
ATOM     11  C   UNL d   1      -4.968   7.705   0.542  0.00  0.00     0.037 A 
ATOM     12  C   UNL d   1      -4.786   8.772  -0.347  0.00  0.00     0.048 A 
ATOM     13  C   UNL d   1      -5.570   9.923  -0.240  0.00  0.00     0.013 A 
ATOM     14 BR   UNL d   1      -5.295  11.356  -1.445  0.00  0.00    -0.051 Br
ATOM     15  C   UNL d   1      -6.545  10.025   0.745  0.00  0.00     0.019 A 
ATOM     16  C   UNL d   1      -6.745   8.965   1.626  0.00  0.00     0.004 A 
ATOM     17  C   UNL d   1      -5.961   7.811   1.524  0.00  0.00     0.029 A 
ENDBRANCH   4  11
BRANCH   3  18
ATOM     18  C   UNL d   1      -0.504   1.264  -0.085  0.00  0.00     0.097 A 
ATOM     19  C   UNL d   1       0.883   1.159  -0.211  0.00  0.00     0.086 A 
ATOM     20  C   UNL d   1       1.461  -0.126  -0.215  0.00  0.00     0.021 A 
ATOM     21  C   UNL d   1       0.671  -1.250  -0.057  0.00  0.00     0.018 A 
ATOM     22  C   UNL d   1      -0.684  -1.056   0.094  0.00  0.00     0.089 A 
ATOM     23  N   UNL d   1      -1.274   0.159   0.081  0.00  0.00    -0.356 N 
ATOM     24  HN  UNL d   1      -2.284   0.245   0.196  1.00  0.00     0.166 HD
BRANCH  19  25
ATOM     25  C   UNL d   1       1.810   2.336  -0.317  0.00  0.00     0.420 C 
ATOM     26  F   UNL d   1       1.307   3.552   0.028  0.00  0.00    -0.166 F 
ATOM     27  F   UNL d   1       2.922   2.186   0.464  0.00  0.00    -0.166 F 
ATOM     28  F   UNL d   1       2.288   2.487  -1.588  0.00  0.00    -0.166 F 
ENDBRANCH  19  25
ENDBRANCH   3  18
TORSDOF 3
