REMARK  5 active torsions:
REMARK  status: ('A' for Active; 'I' for Inactive)
REMARK    1  A    between atoms: C_2  and  S_1 
REMARK    2  A    between atoms: N_7  and  S_1 
REMARK    3  A    between atoms: C_16  and  N_7 
REMARK    4  A    between atoms: C_9  and  O_12 
REMARK    5  A    between atoms: O_12  and  C_15 
ROOT
ATOM      1  N   UNL d   1       0.189   5.024  -0.971  0.00  0.00    -0.345 N 
ATOM      2  HN  UNL d   1      -0.422   5.805  -1.209  1.00  0.00     0.167 HD
ATOM      3  C   UNL d   1       1.412   5.217  -0.425  0.00  0.00     0.148 A 
ATOM      4  C   UNL d   1       0.628   2.642  -0.916  0.00  0.00     0.038 A 
ATOM      5  C   UNL d   1      -0.182   3.740  -1.182  0.00  0.00     0.114 A 
ATOM      6  C   UNL d   1       2.317   4.190  -0.187  0.00  0.00     0.058 A 
ATOM      7  C   UNL d   1       1.913   2.878  -0.438  0.00  0.00     0.030 A 
ENDROOT
BRANCH   4   8
ATOM      8  N   UNL d   1       0.128   1.320  -1.122  0.00  0.00    -0.180 NA
ATOM      9  H   UNL d   1       0.753   0.740  -1.681  0.00  0.00     0.146 HD
BRANCH   8  10
ATOM     10  S   UNL d   1      -0.278   0.424   0.268  0.00  0.00     0.250 S 
ATOM     11  O   UNL d   1      -0.822  -0.830  -0.210  0.00  0.00    -0.205 OA
ATOM     12  O   UNL d   1       0.859   0.436   1.166  0.00  0.00    -0.205 OA
BRANCH  10  13
ATOM     13  C   UNL d   1      -1.553   1.167   1.113  0.00  0.00     0.130 A 
ATOM     14  C   UNL d   1      -1.504   1.909   2.268  0.00  0.00     0.097 A 
ATOM     15  O   UNL d   1      -2.766   2.311   2.586  0.00  0.00    -0.241 OA
ATOM     16  C   UNL d   1      -0.455   2.320   3.218  0.00  0.00     0.081 C 
ATOM     17  N   UNL d   1      -3.662   1.808   1.665  0.00  0.00    -0.264 N 
ATOM     18  C   UNL d   1      -2.935   1.097   0.794  0.00  0.00     0.054 A 
ATOM     19  HN  UNL d   1      -4.672   1.949   1.650  1.00  0.00     0.194 HD
ATOM     20  C   UNL d   1      -3.621   0.355  -0.290  0.00  0.00     0.072 C 
ENDBRANCH  10  13
ENDBRANCH   8  10
ENDBRANCH   4   8
BRANCH   3  21
ATOM     21  O   UNL d   1       1.780   6.484   0.021  0.00  0.00    -0.290 OA
BRANCH  21  22
ATOM     22  C   UNL d   1       0.761   7.370   0.310  0.00  0.00     0.121 A 
ATOM     23  C   UNL d   1      -0.301   7.078   1.182  0.00  0.00     0.069 A 
ATOM     24 CL   UNL d   1      -0.371   5.635   2.126  0.00  0.00    -0.081 Cl
ATOM     25  C   UNL d   1      -1.325   8.007   1.396  0.00  0.00     0.027 A 
ATOM     26  C   UNL d   1      -1.259   9.269   0.813  0.00  0.00     0.003 A 
ATOM     27  C   UNL d   1      -0.160   9.605   0.025  0.00  0.00     0.027 A 
ATOM     28  C   UNL d   1       0.842   8.660  -0.229  0.00  0.00     0.069 A 
ATOM     29 CL   UNL d   1       2.190   9.151  -1.194  0.00  0.00    -0.081 Cl
ENDBRANCH  21  22
ENDBRANCH   3  21
TORSDOF 5
