REMARK  4 active torsions:
REMARK  status: ('A' for Active; 'I' for Inactive)
REMARK       I    between atoms: N_2  and  C_1 
REMARK       I    between atoms: N_3  and  C_1 
REMARK    1  A    between atoms: C_7  and  N_2 
REMARK    2  A    between atoms: C_10  and  N_3 
REMARK       I    between atoms: C_4  and  N_5 
REMARK    3  A    between atoms: N_5  and  C_11 
REMARK    4  A    between atoms: O_17  and  C_12 
ROOT
ATOM      1  C   UNL d   1       0.936  -0.072  -0.095  0.00  0.00     0.325 C 
ATOM      2  N   UNL d   1       2.284  -0.393  -0.022  0.00  0.00    -0.309 N 
ATOM      3  N   UNL d   1       0.142  -1.204  -0.143  0.00  0.00    -0.309 N 
ATOM      4  O   UNL d   1       0.500   1.072  -0.132  0.00  0.00    -0.247 OA
ATOM      5  H   UNL d   1       2.534  -1.354  -0.193  0.00  0.00     0.170 HD
ATOM      6  H   UNL d   1       0.591  -2.086   0.034  0.00  0.00     0.170 HD
ENDROOT
BRANCH   3   7
ATOM      7  C   UNL d   1      -1.263  -1.234  -0.304  0.00  0.00     0.036 A 
ATOM      8  C   UNL d   1      -2.055  -0.104  -0.519  0.00  0.00     0.032 A 
ATOM      9  C   UNL d   1      -3.444  -0.214  -0.649  0.00  0.00     0.032 A 
ATOM     10  C   UNL d   1      -4.071  -1.460  -0.573  0.00  0.00     0.034 A 
ATOM     11  C   UNL d   1      -3.280  -2.592  -0.386  0.00  0.00     0.032 A 
ATOM     12  C   UNL d   1      -1.889  -2.481  -0.252  0.00  0.00     0.032 A 
BRANCH  10  13
ATOM     13  N   UNL d   1      -5.477  -1.482  -0.680  0.00  0.00    -0.328 N 
ATOM     14  C   UNL d   1      -6.302  -2.587  -0.598  0.00  0.00     0.218 C 
ATOM     15  O   UNL d   1      -5.955  -3.754  -0.444  0.00  0.00    -0.274 OA
ATOM     16  C   UNL d   1      -7.767  -2.246  -0.706  0.00  0.00     0.117 C 
ATOM     17  H   UNL d   1      -5.921  -0.582  -0.807  0.00  0.00     0.169 HD
ENDBRANCH  10  13
ENDBRANCH   3   7
BRANCH   2  18
ATOM     18  C   UNL d   1       3.352   0.537   0.011  0.00  0.00     0.039 A 
ATOM     19  C   UNL d   1       3.169   1.902   0.263  0.00  0.00     0.066 A 
ATOM     20  C   UNL d   1       4.237   2.799   0.203  0.00  0.00     0.070 A 
ATOM     21  C   UNL d   1       5.511   2.318  -0.091  0.00  0.00     0.037 A 
ATOM     22  C   UNL d   1       5.719   0.954  -0.301  0.00  0.00     0.005 A 
ATOM     23  C   UNL d   1       4.643   0.064  -0.242  0.00  0.00     0.030 A 
BRANCH  20  24
ATOM     24  O   UNL d   1       4.150   4.150   0.408  0.00  0.00    -0.356 OA
ATOM     25  C   UNL d   1       2.852   4.667   0.695  0.00  0.00     0.210 C 
ENDBRANCH  20  24
ENDBRANCH   2  18
TORSDOF 4
