REMARK  4 active torsions:
REMARK  status: ('A' for Active; 'I' for Inactive)
REMARK    1  A    between atoms: C_2  and  C_1 
REMARK       I    between atoms: C_3  and  N_8 
REMARK    2  A    between atoms: C_5  and  C_3 
REMARK    3  A    between atoms: O_18  and  C_4 
REMARK    4  A    between atoms: N_8  and  C_12 
ROOT
ATOM      1  C   UNL d   1       0.549   1.309  -0.063  0.00  0.00     0.101 A 
ATOM      2  C   UNL d   1      -0.803   1.083   0.122  0.00  0.00     0.157 A 
ATOM      3  N   UNL d   1      -1.343  -0.156   0.196  0.00  0.00    -0.344 N 
ATOM      4  HN  UNL d   1      -2.345  -0.292   0.331  1.00  0.00     0.167 HD
ATOM      5  C   UNL d   1       1.385   0.186  -0.196  0.00  0.00     0.051 A 
ATOM      6  C   UNL d   1       0.877  -1.109  -0.115  0.00  0.00     0.051 A 
ATOM      7  C   UNL d   1      -0.496  -1.213   0.083  0.00  0.00     0.119 A 
ENDROOT
BRANCH   6   8
ATOM      8  N   UNL d   1       1.672  -2.278  -0.186  0.00  0.00    -0.326 N 
ATOM      9  C   UNL d   1       3.032  -2.321  -0.433  0.00  0.00     0.226 C 
ATOM     10  O   UNL d   1       3.741  -1.371  -0.729  0.00  0.00    -0.273 OA
ATOM     11  H   UNL d   1       1.208  -3.159  -0.021  0.00  0.00     0.169 HD
BRANCH   9  12
ATOM     12  C   UNL d   1       3.708  -3.647  -0.314  0.00  0.00     0.078 A 
ATOM     13  C   UNL d   1       3.046  -4.999  -0.315  0.00  0.00     0.015 A 
ATOM     14  C   UNL d   1       3.587  -4.437   0.970  0.00  0.00     0.015 A 
ENDBRANCH   9  12
ENDBRANCH   6   8
BRANCH   1  15
ATOM     15  C   UNL d   1       1.159   2.676  -0.128  0.00  0.00     0.421 C 
ATOM     16  F   UNL d   1       0.331   3.723   0.128  0.00  0.00    -0.166 F 
ATOM     17  F   UNL d   1       2.187   2.809   0.762  0.00  0.00    -0.166 F 
ATOM     18  F   UNL d   1       1.706   2.932  -1.351  0.00  0.00    -0.166 F 
ENDBRANCH   1  15
BRANCH   2  19
ATOM     19  O   UNL d   1      -1.627   2.176   0.250  0.00  0.00    -0.340 OA
ATOM     20  C   UNL d   1      -3.007   1.864   0.404  0.00  0.00     0.211 C 
ENDBRANCH   2  19
TORSDOF 4
