REMARK  4 active torsions:
REMARK  status: ('A' for Active; 'I' for Inactive)
REMARK    1  A    between atoms: C_2  and  S_1 
REMARK    2  A    between atoms: C_11  and  S_1 
REMARK    3  A    between atoms: N_4  and  C_3 
REMARK    4  A    between atoms: C_8  and  C_6 
ROOT
ATOM      1  C   UNL d   1       0.593  -0.291   1.684  0.00  0.00     0.144 C 
ATOM      2  C   UNL d   1      -0.233   0.685   2.114  0.00  0.00     0.047 C 
ATOM      3  C   UNL d   1       1.187  -0.334   0.403  0.00  0.00     0.112 C 
ATOM      4  N   UNL d   1       1.686  -0.350  -0.645  0.00  0.00    -0.191 NA
ENDROOT
BRANCH   1   5
ATOM      5  S   UNL d   1       0.934  -1.650   2.709  0.00  0.00     0.216 S 
ATOM      6  O   UNL d   1       0.569  -2.872   2.017  0.00  0.00    -0.216 OA
ATOM      7  O   UNL d   1       0.430  -1.405   4.049  0.00  0.00    -0.216 OA
BRANCH   5   8
ATOM      8  C   UNL d   1       2.718  -1.642   2.831  0.00  0.00     0.065 A 
ATOM      9  C   UNL d   1       3.327  -1.036   3.935  0.00  0.00     0.025 A 
ATOM     10  C   UNL d   1       4.720  -1.037   4.038  0.00  0.00     0.025 A 
ATOM     11  C   UNL d   1       5.491  -1.649   3.048  0.00  0.00     0.034 A 
ATOM     12  C   UNL d   1       4.881  -2.274   1.960  0.00  0.00     0.025 A 
ATOM     13 CL   UNL d   1       7.206  -1.634   3.174  0.00  0.00    -0.084 Cl
ATOM     14  C   UNL d   1       3.488  -2.284   1.853  0.00  0.00     0.025 A 
ENDBRANCH   5   8
ENDBRANCH   1   5
BRANCH   2  15
ATOM     15  C   UNL d   1      -0.713   1.806   1.350  0.00  0.00    -0.025 A 
ATOM     16  C   UNL d   1      -1.005   1.808  -0.052  0.00  0.00     0.055 A 
ATOM     17  C   UNL d   1      -1.444   3.039  -0.490  0.00  0.00     0.144 A 
ATOM     18  S   UNL d   1      -1.560   4.175   0.765  0.00  0.00    -0.077 SA
ATOM     19  C   UNL d   1      -1.010   3.029   1.923  0.00  0.00     0.063 A 
BRANCH  17  20
ATOM     20  N   UNL d   1      -1.793   3.382  -1.844  0.00  0.00    -0.108 N 
ATOM     21  O   UNL d   1      -1.695   2.474  -2.681  0.00  0.00    -0.531 OA
ATOM     22  O   UNL d   1      -2.162   4.539  -2.080  0.00  0.00    -0.531 OA
ENDBRANCH  17  20
ENDBRANCH   2  15
TORSDOF 4
