REMARK  1 active torsions:
REMARK  status: ('A' for Active; 'I' for Inactive)
REMARK    1  A    between atoms: C_11  and  C_4 
ROOT
ATOM      1  C   UNL d   1      -0.194   0.103  -0.087  0.00  0.00     0.053 A 
ATOM      2  C   UNL d   1       0.307  -1.140  -0.245  0.00  0.00    -0.017 A 
ATOM      3  C   UNL d   1       2.605  -0.297  -0.123  0.00  0.00     0.124 A 
ATOM      4  C   UNL d   1       1.767  -1.350  -0.278  0.00  0.00     0.009 A 
ATOM      5  N   UNL d   1       0.663   1.161   0.068  0.00  0.00    -0.321 N 
ATOM      6  C   UNL d   1       2.027   1.063   0.074  0.00  0.00     0.267 A 
ATOM      7  C   UNL d   1      -1.660   0.325  -0.063  0.00  0.00    -0.003 A 
ATOM      8  C   UNL d   1       4.024  -0.403  -0.125  0.00  0.00     0.106 C 
ATOM      9  C   UNL d   1      -0.627  -2.327  -0.365  0.00  0.00     0.046 C 
ATOM     10  N   UNL d   1       5.181  -0.515  -0.124  0.00  0.00    -0.191 NA
ATOM     11  O   UNL d   1       2.724   2.061   0.238  0.00  0.00    -0.266 OA
ATOM     12  C   UNL d   1      -2.508  -0.770   0.207  0.00  0.00    -0.045 A 
ATOM     13  C   UNL d   1      -1.906  -2.129   0.454  0.00  0.00     0.044 C 
ATOM     14  C   UNL d   1      -2.245   1.578  -0.300  0.00  0.00     0.014 A 
ATOM     15  C   UNL d   1      -3.896  -0.591   0.293  0.00  0.00     0.008 A 
ATOM     16  C   UNL d   1      -3.631   1.745  -0.233  0.00  0.00     0.001 A 
ATOM     17  C   UNL d   1      -4.454   0.665   0.072  0.00  0.00     0.001 A 
ATOM     18  H   UNL d   1       0.304   2.091   0.236  0.00  0.00     0.169 HD
ENDROOT
BRANCH   4  19
ATOM     19  C   UNL d   1       2.344  -2.702  -0.470  0.00  0.00    -0.024 A 
ATOM     20  C   UNL d   1       2.633  -3.509   0.639  0.00  0.00     0.012 A 
ATOM     21  C   UNL d   1       3.104  -4.810   0.457  0.00  0.00     0.001 A 
ATOM     22  C   UNL d   1       3.292  -5.310  -0.831  0.00  0.00     0.000 A 
ATOM     23  C   UNL d   1       3.016  -4.509  -1.938  0.00  0.00     0.001 A 
ATOM     24  C   UNL d   1       2.543  -3.208  -1.761  0.00  0.00     0.012 A 
ENDBRANCH   4  19
TORSDOF 1
