REMARK  6 active torsions:
REMARK  status: ('A' for Active; 'I' for Inactive)
REMARK    1  A    between atoms: C_2  and  C_1 
REMARK       I    between atoms: N_4  and  C_2 
REMARK    2  A    between atoms: C_5  and  C_3 
REMARK    3  A    between atoms: C_6  and  N_4 
REMARK    4  A    between atoms: C_23  and  N_4 
REMARK    5  A    between atoms: N_16  and  C_11 
REMARK    6  A    between atoms: C_25  and  N_16 
ROOT
ATOM      1  C   UNL d   1       0.570   1.286   0.092  0.00  0.00     0.063 A 
ATOM      2  C   UNL d   1       1.433   0.185   0.034  0.00  0.00     0.068 A 
ATOM      3  C   UNL d   1      -0.790   1.024  -0.004  0.00  0.00     0.107 A 
ATOM      4  N   UNL d   1      -1.335  -0.217   0.002  0.00  0.00    -0.356 N 
ATOM      5  HN  UNL d   1      -2.347  -0.344   0.023  1.00  0.00     0.166 HD
ATOM      6  C   UNL d   1      -0.511  -1.272  -0.019  0.00  0.00     0.081 A 
ATOM      7  C   UNL d   1       0.867  -1.102  -0.072  0.00  0.00     0.059 A 
ENDROOT
BRANCH   1   8
ATOM      8  C   UNL d   1       1.074   2.677   0.168  0.00  0.00     0.260 C 
ATOM      9  N   UNL d   1       0.561   3.587   1.115  0.00  0.00    -0.312 N 
ATOM     10  O   UNL d   1       1.974   2.953  -0.625  0.00  0.00    -0.267 OA
BRANCH   9  11
ATOM     11  C   UNL d   1       1.233   4.844   1.228  0.00  0.00     0.059 A 
ATOM     12  C   UNL d   1       0.670   6.065   0.817  0.00  0.00     0.062 A 
ATOM     13  C   UNL d   1       1.339   7.268   1.064  0.00  0.00     0.050 A 
ATOM     14 CL   UNL d   1      -0.831   6.143  -0.037  0.00  0.00    -0.082 Cl
ATOM     15  C   UNL d   1       2.570   7.254   1.716  0.00  0.00     0.035 A 
ATOM     16  C   UNL d   1       3.156   6.051   2.101  0.00  0.00     0.026 A 
ATOM     17 CL   UNL d   1       3.372   8.739   2.055  0.00  0.00    -0.084 Cl
ATOM     18  C   UNL d   1       2.494   4.847   1.846  0.00  0.00     0.033 A 
ENDBRANCH   9  11
BRANCH   9  19
ATOM     19  C   UNL d   1      -0.678   3.401   1.897  0.00  0.00     0.128 C 
ATOM     20  C   UNL d   1      -0.847   4.229   3.168  0.00  0.00     0.027 C 
ENDBRANCH   9  19
ENDBRANCH   1   8
BRANCH   2  21
ATOM     21  C   UNL d   1       2.934   0.279   0.067  0.00  0.00     0.418 C 
ATOM     22  F   UNL d   1       3.443   1.367   0.704  0.00  0.00    -0.166 F 
ATOM     23  F   UNL d   1       3.479  -0.784   0.737  0.00  0.00    -0.166 F 
ATOM     24  F   UNL d   1       3.491   0.236  -1.173  0.00  0.00    -0.166 F 
ENDBRANCH   2  21
BRANCH   6  25
ATOM     25  N   UNL d   1      -1.002  -2.574   0.011  0.00  0.00    -0.275 NA
ATOM     26  H   UNL d   1      -0.868  -3.042  -0.879  0.00  0.00     0.129 HD
BRANCH  25  27
ATOM     27  C   UNL d   1      -2.302  -2.804   0.636  0.00  0.00     0.053 C 
ATOM     28  C   UNL d   1      -3.463  -2.547  -0.319  0.00  0.00     0.026 C 
ATOM     29  C   UNL d   1      -2.325  -4.262   1.105  0.00  0.00     0.026 C 
ENDBRANCH  25  27
ENDBRANCH   6  25
TORSDOF 6
