REMARK  5 active torsions:
REMARK  status: ('A' for Active; 'I' for Inactive)
REMARK    1  A    between atoms: C_15  and  C_5 
REMARK    2  A    between atoms: C_16  and  C_6 
REMARK    3  A    between atoms: C_8  and  C_13 
REMARK    4  A    between atoms: C_13  and  C_20 
REMARK    5  A    between atoms: C_19  and  C_14 
ROOT
ATOM      1  C   UNL d   1      -7.196  -4.520   3.400  0.00  0.00    -0.034 A 
ATOM      2  C   UNL d   1      -5.641  -4.853   1.089  0.00  0.00    -0.034 A 
ATOM      3  C   UNL d   1      -6.782  -5.797   3.006  0.00  0.00     0.012 A 
ATOM      4  C   UNL d   1      -6.053  -3.576   1.483  0.00  0.00     0.012 A 
ATOM      5  C   UNL d   1      -6.007  -5.964   1.855  0.00  0.00     0.012 A 
ATOM      6  C   UNL d   1      -6.827  -3.409   2.635  0.00  0.00     0.012 A 
ENDROOT
BRANCH   1   7
ATOM      7  C   UNL d   1      -7.981  -4.358   4.623  0.00  0.00     0.047 C 
ATOM      8  C   UNL d   1      -7.416  -4.182   5.823  0.00  0.00     0.111 A 
ATOM      9  N   UNL d   1      -6.081  -4.095   6.109  0.00  0.00    -0.331 N 
ATOM     10  C   UNL d   1      -8.221  -4.048   7.064  0.00  0.00     0.316 A 
ATOM     11  C   UNL d   1      -6.075  -3.914   7.390  0.00  0.00     0.162 A 
ATOM     12  HN  UNL d   1      -5.287  -4.157   5.470  1.00  0.00     0.168 HD
ATOM     13  O   UNL d   1      -7.270  -3.882   8.026  0.00  0.00    -0.256 OA
ATOM     14  O   UNL d   1      -9.426  -4.079   7.213  0.00  0.00    -0.257 OA
BRANCH  11  15
ATOM     15  C   UNL d   1      -4.891  -3.712   8.238  0.00  0.00     0.015 A 
ATOM     16  C   UNL d   1      -3.631  -3.660   7.628  0.00  0.00     0.016 A 
ATOM     17  C   UNL d   1      -2.491  -3.419   8.397  0.00  0.00     0.001 A 
ATOM     18  C   UNL d   1      -2.607  -3.233   9.774  0.00  0.00     0.000 A 
ATOM     19  C   UNL d   1      -3.858  -3.297  10.387  0.00  0.00     0.001 A 
ATOM     20  C   UNL d   1      -5.002  -3.538   9.622  0.00  0.00     0.016 A 
ENDBRANCH  11  15
ENDBRANCH   1   7
BRANCH   2  21
ATOM     21  C   UNL d   1      -4.802  -5.016  -0.098  0.00  0.00     0.047 C 
BRANCH  21  22
ATOM     22  C   UNL d   1      -3.466  -4.990  -0.044  0.00  0.00     0.111 A 
ATOM     23  N   UNL d   1      -2.684  -4.838   1.069  0.00  0.00    -0.331 N 
ATOM     24  C   UNL d   1      -1.486  -4.901   0.585  0.00  0.00     0.162 A 
ATOM     25  HN  UNL d   1      -2.974  -4.707   2.038  1.00  0.00     0.168 HD
ATOM     26  O   UNL d   1      -1.355  -5.073  -0.752  0.00  0.00    -0.256 OA
ATOM     27  C   UNL d   1      -2.617  -5.145  -1.256  0.00  0.00     0.316 A 
ATOM     28  O   UNL d   1      -2.946  -5.297  -2.414  0.00  0.00    -0.257 OA
BRANCH  24  29
ATOM     29  C   UNL d   1      -0.231  -4.827   1.350  0.00  0.00     0.015 A 
ATOM     30  C   UNL d   1      -0.301  -4.694   2.743  0.00  0.00     0.016 A 
ATOM     31  C   UNL d   1       0.870  -4.664   3.503  0.00  0.00     0.001 A 
ATOM     32  C   UNL d   1       2.110  -4.762   2.874  0.00  0.00     0.000 A 
ATOM     33  C   UNL d   1       2.185  -4.882   1.486  0.00  0.00     0.001 A 
ATOM     34  C   UNL d   1       1.016  -4.914   0.721  0.00  0.00     0.016 A 
ENDBRANCH  24  29
ENDBRANCH  21  22
ENDBRANCH   2  21
TORSDOF 5
