REMARK  6 active torsions:
REMARK  status: ('A' for Active; 'I' for Inactive)
REMARK    1  A    between atoms: C_4  and  C_1 
REMARK    2  A    between atoms: C_3  and  C_2 
REMARK       I    between atoms: N_8  and  C_4 
REMARK    3  A    between atoms: C_15  and  N_8 
REMARK    4  A    between atoms: O_19  and  C_9 
REMARK    5  A    between atoms: C_17  and  C_15 
REMARK    6  A    between atoms: C_24  and  O_19 
ROOT
ATOM      1  C   UNL d   1       0.760   1.185   0.051  0.00  0.00     0.062 A 
ATOM      2  C   UNL d   1       1.535   0.018   0.036  0.00  0.00     0.069 A 
ATOM      3  C   UNL d   1      -0.628   1.033  -0.012  0.00  0.00     0.108 A 
ATOM      4  N   UNL d   1      -1.282  -0.152  -0.065  0.00  0.00    -0.346 N 
ATOM      5  HN  UNL d   1      -2.300  -0.201  -0.110  1.00  0.00     0.167 HD
ATOM      6  C   UNL d   1      -0.523  -1.261  -0.054  0.00  0.00     0.142 A 
ATOM      7  C   UNL d   1       0.859  -1.224   0.010  0.00  0.00     0.073 A 
ENDROOT
BRANCH   1   8
ATOM      8  C   UNL d   1       1.240   2.588   0.047  0.00  0.00     0.254 C 
ATOM      9  N   UNL d   1       2.320   2.914   0.830  0.00  0.00    -0.353 N 
ATOM     10  H   UNL d   1       2.786   2.225   1.400  0.00  0.00     0.163 HD
ATOM     11  O   UNL d   1       0.633   3.414  -0.629  0.00  0.00    -0.268 OA
BRANCH   9  12
ATOM     12  C   UNL d   1       2.946   4.217   0.744  0.00  0.00     0.161 C 
BRANCH  12  13
ATOM     13  C   UNL d   1       2.692   5.041   1.979  0.00  0.00    -0.040 A 
ATOM     14  C   UNL d   1       3.498   4.894   3.117  0.00  0.00     0.010 A 
ATOM     15  C   UNL d   1       3.265   5.671   4.254  0.00  0.00     0.024 A 
ATOM     16  C   UNL d   1       2.221   6.594   4.261  0.00  0.00     0.034 A 
ATOM     17  C   UNL d   1       1.405   6.744   3.143  0.00  0.00     0.024 A 
ATOM     18 CL   UNL d   1       1.941   7.556   5.661  0.00  0.00    -0.084 Cl
ATOM     19  C   UNL d   1       1.636   5.964   2.006  0.00  0.00     0.010 A 
ENDBRANCH  12  13
ENDBRANCH   9  12
ENDBRANCH   1   8
BRANCH   2  20
ATOM     20  C   UNL d   1       3.032  -0.049   0.002  0.00  0.00     0.418 C 
ATOM     21  F   UNL d   1       3.684   1.127  -0.177  0.00  0.00    -0.166 F 
ATOM     22  F   UNL d   1       3.534  -0.565   1.161  0.00  0.00    -0.166 F 
ATOM     23  F   UNL d   1       3.491  -0.864  -0.991  0.00  0.00    -0.166 F 
ENDBRANCH   2  20
BRANCH   6  24
ATOM     24  O   UNL d   1      -1.116  -2.504  -0.081  0.00  0.00    -0.336 OA
BRANCH  24  25
ATOM     25  C   UNL d   1      -2.450  -2.472  -0.592  0.00  0.00     0.173 C 
ATOM     26  C   UNL d   1      -3.043  -3.865  -0.479  0.00  0.00     0.034 C 
ENDBRANCH  24  25
ENDBRANCH   6  24
TORSDOF 6
