REMARK  4 active torsions:
REMARK  status: ('A' for Active; 'I' for Inactive)
REMARK    1  A    between atoms: C_10  and  C_15 
REMARK    2  A    between atoms: O_16  and  C_10 
REMARK    3  A    between atoms: O_14  and  C_11 
REMARK    4  A    between atoms: C_15  and  O_14 
ROOT
ATOM      1  C   UNL d   1       0.019  -0.851  -0.029  0.00  0.00     0.049 A 
ATOM      2  C   UNL d   1      -1.296  -1.541  -0.057  0.00  0.00     0.165 C 
ATOM      3  C   UNL d   1      -0.011   0.553  -0.028  0.00  0.00     0.086 A 
ATOM      4  O   UNL d   1      -1.151   1.315  -0.081  0.00  0.00    -0.340 OA
ATOM      5  C   UNL d   1       1.256  -1.523   0.005  0.00  0.00    -0.043 A 
ATOM      6  C   UNL d   1      -2.358   0.634  -0.462  0.00  0.00     0.067 C 
ATOM      7  C   UNL d   1      -2.486  -0.689   0.281  0.00  0.00     0.121 C 
ATOM      8  C   UNL d   1       1.176   1.288   0.031  0.00  0.00     0.074 A 
ATOM      9  C   UNL d   1       2.443  -0.754   0.044  0.00  0.00     0.044 A 
ATOM     10  C   UNL d   1       2.408   0.640   0.077  0.00  0.00     0.072 A 
ATOM     11  O   UNL d   1      -1.426  -2.729  -0.320  0.00  0.00    -0.292 OA
ATOM     12  C   UNL d   1       1.438  -3.016  -0.045  0.00  0.00     0.049 C 
ATOM     13  C   UNL d   1      -2.403   0.469  -1.991  0.00  0.00     0.046 C 
ATOM     14  C   UNL d   1      -3.517   1.549  -0.042  0.00  0.00     0.046 C 
ENDROOT
BRANCH  10  15
ATOM     15  O   UNL d   1       3.505   1.457   0.108  0.00  0.00    -0.341 OA
BRANCH  15  16
ATOM     16  C   UNL d   1       4.692   0.880   0.668  0.00  0.00     0.285 C 
BRANCH  16  17
ATOM     17  C   UNL d   1       5.787   1.937   0.708  0.00  0.00     0.164 C 
ATOM     18  O   UNL d   1       6.888   1.756   1.208  0.00  0.00    -0.648 OA
BRANCH  17  19
ATOM     19  O   UNL d   1       5.435   3.098   0.108  0.00  0.00    -0.775 OA
ATOM     20  H   UNL d   1       4.513   3.034  -0.224  0.00  0.00     0.167 HD
ENDBRANCH  17  19
ENDBRANCH  16  17
ENDBRANCH  15  16
ENDBRANCH  10  15
TORSDOF 4
