REMARK  2 active torsions:
REMARK  status: ('A' for Active; 'I' for Inactive)
REMARK    1  A    between atoms: C_10  and  N_1 
REMARK    2  A    between atoms: C_3  and  C_10 
ROOT
ATOM      1  N   UNL d   1       1.579  -1.051  -0.058  0.00  0.00    -0.266 N 
ATOM      2  N   UNL d   1       2.364   0.043  -0.080  0.00  0.00    -0.019 NA
ATOM      3  N   UNL d   1       1.569   1.105  -0.075  0.00  0.00    -0.282 N 
ATOM      4  HN  UNL d   1       1.871   2.079  -0.092  1.00  0.00     0.184 HD
ATOM      5  C   UNL d   1       0.249  -0.724  -0.036  0.00  0.00     0.077 A 
ATOM      6  C   UNL d   1       0.272   0.666  -0.046  0.00  0.00     0.074 A 
ATOM      7  C   UNL d   1      -0.936  -1.467  -0.008  0.00  0.00     0.033 A 
ATOM      8  C   UNL d   1      -0.935   1.379  -0.022  0.00  0.00     0.033 A 
ATOM      9  C   UNL d   1      -2.132  -0.740   0.013  0.00  0.00     0.002 A 
ATOM     10  C   UNL d   1      -2.136   0.657   0.007  0.00  0.00     0.002 A 
ENDROOT
BRANCH   1  11
ATOM     11  C   UNL d   1       2.178  -2.360   0.012  0.00  0.00     0.233 C 
BRANCH  11  12
ATOM     12  C   UNL d   1       2.346  -2.941  -1.338  0.00  0.00     0.161 A 
ATOM     13  O   UNL d   1       3.518  -2.708  -1.976  0.00  0.00    -0.267 OA
ATOM     14  C   UNL d   1       3.373  -3.372  -3.149  0.00  0.00     0.235 A 
ATOM     15  S   UNL d   1       4.556  -3.419  -4.285  0.00  0.00    -0.031 SA
ATOM     16  N   UNL d   1       2.139  -3.949  -3.146  0.00  0.00    -0.268 N 
ATOM     17  N   UNL d   1       1.485  -3.674  -1.983  0.00  0.00    -0.279 N 
ATOM     18  H   UNL d   1       1.733  -4.519  -3.878  0.00  0.00     0.190 HD
ATOM     19  HN  UNL d   1       0.553  -3.968  -1.691  1.00  0.00     0.189 HD
ENDBRANCH  11  12
ENDBRANCH   1  11
TORSDOF 2
