REMARK  7 active torsions:
REMARK  status: ('A' for Active; 'I' for Inactive)
REMARK    1  A    between atoms: C_8  and  C_3 
REMARK    2  A    between atoms: S_4  and  N_9 
REMARK    3  A    between atoms: C_11  and  S_4 
REMARK    4  A    between atoms: C_13  and  N_5 
REMARK       I    between atoms: N_10  and  C_8 
REMARK    5  A    between atoms: N_9  and  N_10 
REMARK    6  A    between atoms: O_21  and  C_14 
REMARK    7  A    between atoms: O_23  and  C_18 
ROOT
ATOM      1  N   UNL d   1       1.510  -3.459   0.031  0.00  0.00    -0.220 N 
ATOM      2  H   UNL d   1       1.872  -2.499   0.013  0.00  0.00     0.200 HD
ENDROOT
BRANCH   1   3
ATOM      3  S   UNL d   1       2.549  -4.776   0.099  0.00  0.00     0.276 S 
ATOM      4  O   UNL d   1       2.302  -5.465   1.349  0.00  0.00    -0.199 OA
ATOM      5  O   UNL d   1       2.462  -5.474  -1.166  0.00  0.00    -0.199 OA
BRANCH   3   6
ATOM      6  C   UNL d   1       4.164  -4.024   0.203  0.00  0.00     0.084 A 
ATOM      7  C   UNL d   1       4.741  -3.789   1.458  0.00  0.00     0.065 A 
ATOM      8  C   UNL d   1       6.065  -3.323   1.567  0.00  0.00     0.102 A 
ATOM      9  C   UNL d   1       6.806  -3.091   0.393  0.00  0.00     0.101 A 
ATOM     10  C   UNL d   1       6.206  -3.327  -0.857  0.00  0.00     0.041 A 
ATOM     11  C   UNL d   1       4.897  -3.800  -0.960  0.00  0.00     0.028 A 
BRANCH   8  12
ATOM     12  O   UNL d   1       6.679  -3.098   2.769  0.00  0.00    -0.353 OA
ATOM     13  C   UNL d   1       5.957  -3.358   3.965  0.00  0.00     0.210 C 
ENDBRANCH   8  12
BRANCH   9  14
ATOM     14  O   UNL d   1       8.098  -2.649   0.263  0.00  0.00    -0.353 OA
ATOM     15  C   UNL d   1       8.877  -2.416   1.426  0.00  0.00     0.210 C 
ENDBRANCH   9  14
ENDBRANCH   3   6
ENDBRANCH   1   3
BRANCH   1  16
ATOM     16  N   UNL d   1       0.058  -3.652  -0.015  0.00  0.00    -0.255 N 
ATOM     17  C   UNL d   1      -0.754  -2.534  -0.059  0.00  0.00     0.288 C 
ATOM     18  O   UNL d   1      -0.282  -1.394  -0.053  0.00  0.00    -0.264 OA
ATOM     19  H   UNL d   1      -0.339  -4.590  -0.009  0.00  0.00     0.191 HD
BRANCH  17  20
ATOM     20  C   UNL d   1      -2.201  -2.793  -0.110  0.00  0.00     0.119 A 
ATOM     21  N   UNL d   1      -2.760  -4.018  -0.136  0.00  0.00    -0.292 N 
ATOM     22  N   UNL d   1      -4.111  -3.797  -0.195  0.00  0.00    -0.287 N 
ATOM     23  HN  UNL d   1      -2.280  -4.917  -0.115  1.00  0.00     0.187 HD
ATOM     24  C   UNL d   1      -4.412  -2.447  -0.206  0.00  0.00     0.028 A 
ATOM     25  C   UNL d   1      -5.752  -1.808  -0.272  0.00  0.00     0.070 C 
ATOM     26  C   UNL d   1      -3.199  -1.795  -0.147  0.00  0.00     0.063 A 
BRANCH  22  27
ATOM     27  C   UNL d   1      -5.035  -4.956  -0.248  0.00  0.00     0.043 C 
ATOM     28  C   UNL d   1      -4.272  -6.306  -0.191  0.00  0.00     0.039 C 
ATOM     29  C   UNL d   1      -5.999  -4.953   0.958  0.00  0.00     0.039 C 
ATOM     30  C   UNL d   1      -5.829  -4.962  -1.573  0.00  0.00     0.039 C 
ENDBRANCH  22  27
ENDBRANCH  17  20
ENDBRANCH   1  16
TORSDOF 7
