REMARK  3 active torsions:
REMARK  status: ('A' for Active; 'I' for Inactive)
REMARK    1  A    between atoms: C_6  and  C_1 
REMARK       I    between atoms: C_2  and  N_3 
REMARK    2  A    between atoms: C_10  and  C_2 
REMARK    3  A    between atoms: N_4  and  C_5 
ROOT
ATOM      1  C   UNL d   1      -1.384   4.831   6.581  0.00  0.00     0.253 C 
ATOM      2  N   UNL d   1      -1.025   3.756   5.772  0.00  0.00    -0.345 N 
ATOM      3  N   UNL d   1      -0.807   1.374   4.253  0.00  0.00    -0.364 N 
ATOM      4  C   UNL d   1      -1.638   3.657   4.435  0.00  0.00     0.146 C 
ATOM      5  C   UNL d   1       0.046   2.775   6.046  0.00  0.00     0.146 C 
ATOM      6  C   UNL d   1      -0.324   1.338   5.631  0.00  0.00     0.144 C 
ATOM      7  C   UNL d   1      -1.997   2.207   4.061  0.00  0.00     0.144 C 
ATOM      8  O   UNL d   1      -2.312   5.592   6.300  0.00  0.00    -0.267 OA
ENDROOT
BRANCH   3   9
ATOM      9  C   UNL d   1      -0.493   0.333   3.410  0.00  0.00     0.103 A 
ATOM     10  C   UNL d   1      -0.514   0.522   2.032  0.00  0.00     0.064 A 
ATOM     11  C   UNL d   1      -0.037  -0.470   1.170  0.00  0.00     0.052 A 
ATOM     12  C   UNL d   1       0.411  -1.669   1.725  0.00  0.00     0.033 A 
ATOM     13  C   UNL d   1       0.383  -1.797   3.098  0.00  0.00     0.090 A 
ATOM     14  N   UNL d   1      -0.037  -0.826   3.935  0.00  0.00    -0.352 N 
ATOM     15  HN  UNL d   1      -0.012  -0.964   4.945  1.00  0.00     0.166 HD
BRANCH  11  16
ATOM     16  C   UNL d   1       0.041  -0.233  -0.310  0.00  0.00     0.417 C 
ATOM     17  F   UNL d   1      -0.392   1.001  -0.689  0.00  0.00    -0.166 F 
ATOM     18  F   UNL d   1      -0.702  -1.124  -1.021  0.00  0.00    -0.166 F 
ATOM     19  F   UNL d   1       1.312  -0.343  -0.785  0.00  0.00    -0.166 F 
ENDBRANCH  11  16
ENDBRANCH   3   9
BRANCH   1  20
ATOM     20  C   UNL d   1      -0.683   5.072   7.866  0.00  0.00     0.032 A 
ATOM     21  C   UNL d   1       0.714   5.093   7.965  0.00  0.00     0.018 A 
ATOM     22  C   UNL d   1       1.323   5.275   9.209  0.00  0.00     0.025 A 
ATOM     23  C   UNL d   1       0.536   5.494  10.340  0.00  0.00     0.034 A 
ATOM     24  C   UNL d   1      -0.852   5.548  10.238  0.00  0.00     0.025 A 
ATOM     25 CL   UNL d   1       1.288   5.706  11.872  0.00  0.00    -0.084 Cl
ATOM     26  C   UNL d   1      -1.463   5.337   8.999  0.00  0.00     0.018 A 
ENDBRANCH   1  20
TORSDOF 3
