REMARK  2 active torsions:
REMARK  status: ('A' for Active; 'I' for Inactive)
REMARK    1  A    between atoms: C_10  and  C_3 
REMARK    2  A    between atoms: N_8  and  C_9 
ROOT
ATOM      1  N   UNL d   1       1.229  -1.391  -0.034  0.00  0.00    -0.335 N 
ATOM      2  HN  UNL d   1       1.246  -2.410  -0.085  1.00  0.00     0.168 HD
ATOM      3  C   UNL d   1       2.318  -0.703   0.013  0.00  0.00     0.162 A 
ATOM      4  O   UNL d   1       2.423   0.642   0.069  0.00  0.00    -0.257 OA
ATOM      5  C   UNL d   1       1.298   1.399   0.060  0.00  0.00     0.302 A 
ATOM      6  C   UNL d   1       0.007   0.698   0.015  0.00  0.00     0.066 A 
ATOM      7  C   UNL d   1       0.029  -0.689  -0.013  0.00  0.00     0.052 A 
ATOM      8  C   UNL d   1      -1.175  -1.395  -0.031  0.00  0.00     0.054 A 
ATOM      9  C   UNL d   1      -1.206   1.398   0.004  0.00  0.00     0.022 A 
ATOM     10  O   UNL d   1       1.343   2.623   0.094  0.00  0.00    -0.259 OA
ATOM     11  C   UNL d   1      -2.387  -0.706  -0.038  0.00  0.00     0.036 A 
ATOM     12  C   UNL d   1      -2.409   0.688  -0.027  0.00  0.00     0.025 A 
ATOM     13 CL   UNL d   1      -3.866  -1.584  -0.067  0.00  0.00    -0.084 Cl
ENDROOT
BRANCH   3  14
ATOM     14  C   UNL d   1       3.655  -1.339  -0.021  0.00  0.00     0.018 A 
ATOM     15  C   UNL d   1       4.771  -0.745   0.580  0.00  0.00     0.052 A 
ATOM     16  C   UNL d   1       5.997  -1.427   0.566  0.00  0.00     0.103 A 
ATOM     17  C   UNL d   1       6.119  -2.679  -0.055  0.00  0.00     0.036 A 
ATOM     18  C   UNL d   1       5.005  -3.257  -0.662  0.00  0.00     0.003 A 
ATOM     19  C   UNL d   1       3.777  -2.594  -0.639  0.00  0.00     0.016 A 
BRANCH  16  20
ATOM     20  N   UNL d   1       7.165  -0.836   1.232  0.00  0.00    -0.116 N 
ATOM     21  O   UNL d   1       7.016   0.260   1.788  0.00  0.00    -0.532 OA
ATOM     22  O   UNL d   1       8.228  -1.473   1.203  0.00  0.00    -0.532 OA
ENDBRANCH  16  20
ENDBRANCH   3  14
TORSDOF 2
