REMARK  6 active torsions:
REMARK  status: ('A' for Active; 'I' for Inactive)
REMARK    1  A    between atoms: C_2  and  N_1 
REMARK    2  A    between atoms: C_16  and  C_3 
REMARK       I    between atoms: C_4  and  N_7 
REMARK    3  A    between atoms: C_13  and  C_4 
REMARK    4  A    between atoms: N_7  and  C_10 
REMARK    5  A    between atoms: S_12  and  C_16 
REMARK    6  A    between atoms: C_17  and  S_12 
ROOT
ATOM      1  C   UNL d   1       0.142   4.225  -7.848  0.00  0.00     0.051 A 
ATOM      2  C   UNL d   1      -0.140   3.041  -7.130  0.00  0.00     0.027 A 
ATOM      3  C   UNL d   1       0.568   4.144  -9.187  0.00  0.00     0.031 A 
ATOM      4  C   UNL d   1      -0.009   1.814  -7.809  0.00  0.00     0.021 A 
ATOM      5  C   UNL d   1       0.717   2.916  -9.826  0.00  0.00     0.002 A 
ATOM      6  C   UNL d   1       0.416   1.750  -9.139  0.00  0.00     0.002 A 
ENDROOT
BRANCH   2   7
ATOM      7  S   UNL d   1      -0.938   3.034  -5.514  0.00  0.00    -0.123 SA
BRANCH   7   8
ATOM      8  C   UNL d   1      -0.038   1.689  -4.654  0.00  0.00     0.121 C 
BRANCH   8   9
ATOM      9  C   UNL d   1      -0.505   1.552  -3.219  0.00  0.00    -0.012 A 
ATOM     10  C   UNL d   1      -1.704   0.866  -2.947  0.00  0.00     0.047 A 
ATOM     11  C   UNL d   1      -2.169   0.752  -1.629  0.00  0.00     0.104 A 
ATOM     12  C   UNL d   1      -1.451   1.314  -0.569  0.00  0.00     0.048 A 
ATOM     13  C   UNL d   1      -0.253   1.993  -0.828  0.00  0.00     0.002 A 
ATOM     14  C   UNL d   1       0.521   2.623   0.292  0.00  0.00     0.212 C 
ATOM     15  C   UNL d   1       0.204   2.121  -2.149  0.00  0.00     0.087 A 
ATOM     16  O   UNL d   1       1.853   2.909  -0.111  0.00  0.00    -0.362 OA
ATOM     17  C   UNL d   1       1.840   3.588  -1.361  0.00  0.00     0.345 C 
ATOM     18  O   UNL d   1       1.371   2.777  -2.436  0.00  0.00    -0.325 OA
BRANCH  11  19
ATOM     19  N   UNL d   1      -3.422   0.034  -1.363  0.00  0.00    -0.116 N 
ATOM     20  O   UNL d   1      -3.820  -0.010  -0.188  0.00  0.00    -0.532 OA
ATOM     21  O   UNL d   1      -4.010  -0.481  -2.322  0.00  0.00    -0.532 OA
ENDBRANCH  11  19
ENDBRANCH   8   9
ENDBRANCH   7   8
ENDBRANCH   2   7
BRANCH   1  22
ATOM     22  N   UNL d   1      -0.094   5.539  -7.388  0.00  0.00    -0.322 N 
ATOM     23  C   UNL d   1       0.244   6.062  -6.155  0.00  0.00     0.256 C 
ATOM     24  O   UNL d   1       0.960   5.549  -5.307  0.00  0.00    -0.267 OA
ATOM     25  H   UNL d   1      -0.249   6.228  -8.113  0.00  0.00     0.169 HD
BRANCH  23  26
ATOM     26  C   UNL d   1      -0.204   7.477  -5.990  0.00  0.00     0.032 A 
ATOM     27  C   UNL d   1      -1.450   7.894  -6.480  0.00  0.00     0.018 A 
ATOM     28  C   UNL d   1      -1.793   9.248  -6.455  0.00  0.00     0.025 A 
ATOM     29  C   UNL d   1      -0.896  10.178  -5.929  0.00  0.00     0.034 A 
ATOM     30  C   UNL d   1       0.321   9.761  -5.387  0.00  0.00     0.025 A 
ATOM     31 CL   UNL d   1      -1.282  11.853  -5.976  0.00  0.00    -0.084 Cl
ATOM     32  C   UNL d   1       0.666   8.406  -5.409  0.00  0.00     0.018 A 
ENDBRANCH  23  26
ENDBRANCH   1  22
TORSDOF 6
