REMARK  5 active torsions:
REMARK  status: ('A' for Active; 'I' for Inactive)
REMARK    1  A    between atoms: S_14  and  C_4 
REMARK    2  A    between atoms: C_10  and  C_12 
REMARK    3  A    between atoms: O_18  and  C_10 
REMARK    4  A    between atoms: C_12  and  C_17 
REMARK    5  A    between atoms: C_17  and  S_14 
ROOT
ATOM      1  S   UNL d   1       1.307   1.672  -0.028  0.00  0.00     0.179 S 
ATOM      2  C   UNL d   1      -0.124   0.643   0.017  0.00  0.00     0.071 A 
ATOM      3  C   UNL d   1      -0.034  -0.755   0.037  0.00  0.00     0.004 A 
ATOM      4  C   UNL d   1       1.273  -1.466   0.037  0.00  0.00     0.009 A 
ATOM      5  C   UNL d   1       2.451  -0.823   0.034  0.00  0.00     0.008 A 
ATOM      6  C   UNL d   1       2.733   0.641   0.065  0.00  0.00     0.174 A 
ATOM      7  O   UNL d   1       1.297   2.306  -1.335  0.00  0.00    -0.222 OA
ATOM      8  O   UNL d   1       1.259   2.471   1.184  0.00  0.00    -0.222 OA
ATOM      9  C   UNL d   1      -1.358   1.325   0.012  0.00  0.00     0.026 A 
ATOM     10  C   UNL d   1      -1.267  -1.446   0.046  0.00  0.00     0.038 A 
ATOM     11  C   UNL d   1      -2.497  -0.775   0.034  0.00  0.00     0.035 A 
ATOM     12  C   UNL d   1      -2.548   0.611   0.020  0.00  0.00     0.025 A 
ATOM     13 CL   UNL d   1      -3.962  -1.679   0.030  0.00  0.00    -0.084 Cl
ENDROOT
BRANCH   4  14
ATOM     14  S   UNL d   1       1.288  -3.214  -0.083  0.00  0.00    -0.129 SA
BRANCH  14  15
ATOM     15  C   UNL d   1       2.121  -3.699   1.468  0.00  0.00     0.090 C 
BRANCH  15  16
ATOM     16  C   UNL d   1       2.162  -5.221   1.583  0.00  0.00     0.120 C 
BRANCH  16  17
ATOM     17  C   UNL d   1       2.885  -5.634   2.841  0.00  0.00     0.140 C 
ATOM     18  O   UNL d   1       3.375  -4.863   3.651  0.00  0.00    -0.650 OA
BRANCH  17  19
ATOM     19  O   UNL d   1       2.952  -6.976   2.990  0.00  0.00    -0.776 OA
ATOM     20  H   UNL d   1       2.526  -7.487   2.275  0.00  0.00     0.167 HD
ENDBRANCH  17  19
ENDBRANCH  16  17
ENDBRANCH  15  16
ENDBRANCH  14  15
ENDBRANCH   4  14
TORSDOF 5
