REMARK  2 active torsions:
REMARK  status: ('A' for Active; 'I' for Inactive)
REMARK    1  A    between atoms: N_4  and  C_9 
REMARK    2  A    between atoms: C_10  and  C_5 
ROOT
ATOM      1  C   UNL d   1      -0.116   0.465  -0.050  0.00  0.00     0.055 A 
ATOM      2  N   UNL d   1       2.193  -0.217   0.133  0.00  0.00    -0.336 N 
ATOM      3  C   UNL d   1       1.315   0.817  -0.009  0.00  0.00     0.255 C 
ATOM      4  C   UNL d   1       1.857  -1.575  -0.170  0.00  0.00     0.196 C 
ATOM      5  N   UNL d   1       0.509  -1.868   0.279  0.00  0.00    -0.267 NA
ATOM      6  C   UNL d   1      -0.461  -0.890   0.051  0.00  0.00     0.026 A 
ATOM      7  C   UNL d   1      -1.085   1.471  -0.132  0.00  0.00     0.054 A 
ATOM      8  C   UNL d   1      -2.433   1.108  -0.096  0.00  0.00     0.103 A 
ATOM      9  O   UNL d   1       1.697   1.978  -0.070  0.00  0.00    -0.268 OA
ATOM     10  C   UNL d   1      -1.818  -1.227   0.102  0.00  0.00     0.027 A 
ATOM     11  C   UNL d   1      -2.805  -0.239   0.013  0.00  0.00     0.038 A 
ATOM     12  H   UNL d   1       3.165   0.051   0.086  0.00  0.00     0.164 HD
ATOM     13  H   UNL d   1       0.217  -2.811   0.046  0.00  0.00     0.130 HD
ENDROOT
BRANCH   4  14
ATOM     14  C   UNL d   1       2.820  -2.511   0.533  0.00  0.00    -0.018 A 
ATOM     15  C   UNL d   1       3.635  -3.394  -0.195  0.00  0.00     0.050 A 
ATOM     16  C   UNL d   1       4.510  -4.197   0.510  0.00  0.00     0.105 A 
ATOM     17  O   UNL d   1       5.376  -5.094  -0.034  0.00  0.00    -0.323 OA
ATOM     18  C   UNL d   1       4.596  -4.156   1.882  0.00  0.00     0.105 A 
ATOM     19  C   UNL d   1       6.045  -5.579   1.150  0.00  0.00     0.352 A 
ATOM     20  O   UNL d   1       5.525  -5.018   2.373  0.00  0.00    -0.323 OA
ATOM     21  C   UNL d   1       3.809  -3.314   2.633  0.00  0.00     0.040 A 
ATOM     22  C   UNL d   1       2.916  -2.487   1.950  0.00  0.00     0.013 A 
ENDBRANCH   4  14
BRANCH   8  23
ATOM     23  N   UNL d   1      -3.469   2.148  -0.138  0.00  0.00    -0.116 N 
ATOM     24  O   UNL d   1      -3.102   3.328  -0.197  0.00  0.00    -0.532 OA
ATOM     25  O   UNL d   1      -4.653   1.779  -0.110  0.00  0.00    -0.532 OA
ENDBRANCH   8  23
TORSDOF 2
