REMARK  1 active torsions:
REMARK  status: ('A' for Active; 'I' for Inactive)
REMARK    1  A    between atoms: C_2  and  C_1 
ROOT
ATOM      1  C   UNL d   1      -0.136  -1.172  -0.312  0.00  0.00     0.035 A 
ATOM      2  S   UNL d   1      -0.847  -0.465  -1.696  0.00  0.00    -0.074 SA
ATOM      3  C   UNL d   1       0.205   0.863  -1.620  0.00  0.00     0.097 A 
ATOM      4  C   UNL d   1       0.863  -0.375   0.213  0.00  0.00     0.047 A 
ATOM      5  C   UNL d   1       1.075   0.804  -0.559  0.00  0.00     0.064 A 
ATOM      6 CL   UNL d   1       0.090   2.083  -2.828  0.00  0.00    -0.074 Cl
ATOM      7 CL   UNL d   1       2.285   1.945  -0.166  0.00  0.00    -0.082 Cl
ENDROOT
BRANCH   1   8
ATOM      8  C   UNL d   1      -0.506  -2.501   0.272  0.00  0.00     0.056 A 
ATOM      9  N   UNL d   1       0.146  -2.977   1.398  0.00  0.00    -0.353 N 
ATOM     10  C   UNL d   1      -0.306  -4.173   1.708  0.00  0.00     0.047 A 
ATOM     11  HN  UNL d   1       0.870  -2.475   1.911  1.00  0.00     0.166 HD
ATOM     12  C   UNL d   1       0.195  -4.990   2.846  0.00  0.00     0.076 C 
ATOM     13  S   UNL d   1      -1.538  -4.787   0.681  0.00  0.00    -0.087 SA
ATOM     14  C   UNL d   1      -1.464  -3.348  -0.248  0.00  0.00     0.082 A 
ENDBRANCH   1   8
TORSDOF 1
