REMARK  3 active torsions:
REMARK  status: ('A' for Active; 'I' for Inactive)
REMARK       I    between atoms: N_5  and  C_1 
REMARK    1  A    between atoms: C_8  and  C_1 
REMARK    2  A    between atoms: C_4  and  C_10 
REMARK    3  A    between atoms: C_14  and  N_5 
ROOT
ATOM      1  C   UNL d   1       2.296   2.869   4.161  0.00  0.00    -0.001 A 
ATOM      2  C   UNL d   1       0.964   1.374   2.155  0.00  0.00     0.035 A 
ATOM      3  C   UNL d   1       2.738   2.894   2.831  0.00  0.00     0.016 A 
ATOM      4  C   UNL d   1       1.201   2.058   4.473  0.00  0.00     0.016 A 
ATOM      5  C   UNL d   1       0.546   1.318   3.484  0.00  0.00     0.030 A 
ATOM      6  C   UNL d   1       2.085   2.147   1.839  0.00  0.00     0.030 A 
ENDROOT
BRANCH   2   7
ATOM      7  N   UNL d   1       0.309   0.684   1.111  0.00  0.00    -0.323 N 
ATOM      8  C   UNL d   1      -0.947   0.107   1.192  0.00  0.00     0.256 C 
ATOM      9  O   UNL d   1      -1.716   0.166   2.146  0.00  0.00    -0.267 OA
ATOM     10  H   UNL d   1       0.742   0.740   0.199  0.00  0.00     0.169 HD
BRANCH   8  11
ATOM     11  C   UNL d   1      -1.422  -0.599  -0.029  0.00  0.00     0.032 A 
ATOM     12  C   UNL d   1      -0.551  -1.287  -0.883  0.00  0.00     0.018 A 
ATOM     13  C   UNL d   1      -1.063  -1.973  -1.990  0.00  0.00     0.025 A 
ATOM     14  C   UNL d   1      -2.437  -1.974  -2.237  0.00  0.00     0.034 A 
ATOM     15  C   UNL d   1      -3.309  -1.299  -1.387  0.00  0.00     0.025 A 
ATOM     16 CL   UNL d   1      -3.060  -2.829  -3.593  0.00  0.00    -0.084 Cl
ATOM     17  C   UNL d   1      -2.802  -0.615  -0.282  0.00  0.00     0.018 A 
ENDBRANCH   8  11
ENDBRANCH   2   7
BRANCH   1  18
ATOM     18  C   UNL d   1       2.928   3.667   5.202  0.00  0.00     0.102 A 
ATOM     19  O   UNL d   1       3.973   4.477   4.836  0.00  0.00    -0.304 OA
ATOM     20  C   UNL d   1       4.332   5.095   5.994  0.00  0.00     0.233 A 
ATOM     21  N   UNL d   1       3.631   4.761   7.051  0.00  0.00    -0.354 N 
ATOM     22  C   UNL d   1       2.730   3.852   6.555  0.00  0.00     0.127 A 
ATOM     23  HN  UNL d   1       3.731   5.095   8.010  1.00  0.00     0.166 HD
ENDBRANCH   1  18
TORSDOF 3
