REMARK  4 active torsions:
REMARK  status: ('A' for Active; 'I' for Inactive)
REMARK    1  A    between atoms: C_4  and  C_1 
REMARK       I    between atoms: N_9  and  C_4 
REMARK       I    between atoms: C_8  and  N_6 
REMARK    2  A    between atoms: O_18  and  C_8 
REMARK    3  A    between atoms: C_15  and  N_9 
REMARK    4  A    between atoms: C_21  and  O_18 
ROOT
ATOM      1  C   UNL d   1       5.792  -0.984  -0.030  0.00  0.00     0.260 C 
ATOM      2  N   UNL d   1       4.504  -1.336   0.339  0.00  0.00    -0.352 N 
ATOM      3  O   UNL d   1       6.475  -1.741  -0.711  0.00  0.00    -0.267 OA
ATOM      4  H   UNL d   1       4.008  -0.696   0.946  0.00  0.00     0.163 HD
ENDROOT
BRANCH   2   5
ATOM      5  C   UNL d   1       3.813  -2.553  -0.082  0.00  0.00     0.087 C 
ATOM      6  C   UNL d   1       4.334  -3.791   0.664  0.00  0.00     0.045 C 
ATOM      7  C   UNL d   1       4.277  -5.121  -0.081  0.00  0.00     0.130 C 
ATOM      8  N   UNL d   1       3.571  -5.044  -1.340  0.00  0.00    -0.328 N 
ATOM      9  C   UNL d   1       4.010  -3.970  -2.212  0.00  0.00     0.130 C 
ATOM     10  C   UNL d   1       2.849  -6.139  -1.779  0.00  0.00     0.362 C 
ATOM     11  C   UNL d   1       3.654  -2.627  -1.609  0.00  0.00     0.045 C 
ATOM     12  O   UNL d   1       2.657  -7.146  -1.106  0.00  0.00    -0.238 OA
BRANCH  10  13
ATOM     13  O   UNL d   1       2.390  -5.981  -3.050  0.00  0.00    -0.304 OA
BRANCH  13  14
ATOM     14  C   UNL d   1       1.830  -7.148  -3.662  0.00  0.00     0.176 C 
ATOM     15  C   UNL d   1       2.953  -7.965  -4.275  0.00  0.00     0.034 C 
ENDBRANCH  13  14
ENDBRANCH  10  13
ENDBRANCH   2   5
BRANCH   1  16
ATOM     16  C   UNL d   1       6.230   0.331   0.436  0.00  0.00     0.096 A 
ATOM     17  S   UNL d   1       5.169   1.319   1.356  0.00  0.00    -0.082 SA
ATOM     18  C   UNL d   1       6.304   2.593   1.494  0.00  0.00     0.017 A 
ATOM     19  C   UNL d   1       6.106   3.819   2.159  0.00  0.00     0.020 A 
ATOM     20  C   UNL d   1       7.503   2.282   0.853  0.00  0.00     0.004 A 
ATOM     21  C   UNL d   1       7.146   4.748   2.191  0.00  0.00     0.001 A 
ATOM     22  C   UNL d   1       8.355   4.468   1.573  0.00  0.00     0.001 A 
ATOM     23  C   UNL d   1       8.541   3.252   0.905  0.00  0.00     0.014 A 
ATOM     24  C   UNL d   1       7.438   0.976   0.234  0.00  0.00     0.068 A 
ATOM     25 CL   UNL d   1       8.771   0.348  -0.656  0.00  0.00    -0.082 Cl
ENDBRANCH   1  16
TORSDOF 4
