REMARK  3 active torsions:
REMARK  status: ('A' for Active; 'I' for Inactive)
REMARK    1  A    between atoms: N_2  and  S_1 
REMARK    2  A    between atoms: C_3  and  S_1 
REMARK    3  A    between atoms: N_7  and  C_4 
ROOT
ATOM      1  C   UNL d   1       0.580   1.378  -0.935  0.00  0.00     0.090 A 
ATOM      2  C   UNL d   1      -0.123   3.688  -2.297  0.00  0.00     0.103 A 
ATOM      3  N   UNL d   1       0.850   3.733  -1.358  0.00  0.00    -0.351 N 
ATOM      4  HN  UNL d   1       1.324   4.611  -1.144  1.00  0.00     0.166 HD
ATOM      5  C   UNL d   1       1.188   2.592  -0.703  0.00  0.00     0.114 A 
ATOM      6  C   UNL d   1      -0.387   1.307  -1.928  0.00  0.00     0.030 A 
ATOM      7  C   UNL d   1      -0.744   2.476  -2.600  0.00  0.00     0.050 A 
ENDROOT
BRANCH   1   8
ATOM      8  S   UNL d   1       1.094  -0.060  -0.056  0.00  0.00     0.245 S 
ATOM      9  O   UNL d   1       0.670  -1.210  -0.825  0.00  0.00    -0.206 OA
ATOM     10  O   UNL d   1       2.486   0.123   0.305  0.00  0.00    -0.206 OA
BRANCH   8  11
ATOM     11  N   UNL d   1       0.157  -0.020   1.379  0.00  0.00    -0.205 NA
ATOM     12  C   UNL d   1       0.551   1.034   2.364  0.00  0.00     0.117 C 
ATOM     13  C   UNL d   1      -0.049   0.793   3.748  0.00  0.00     0.089 C 
ATOM     14  S   UNL d   1      -1.866   0.839   3.705  0.00  0.00    -0.167 SA
ATOM     15  C   UNL d   1      -2.083  -0.457   2.449  0.00  0.00     0.089 C 
ATOM     16  C   UNL d   1      -1.319  -0.139   1.164  0.00  0.00     0.117 C 
ENDBRANCH   8  11
ENDBRANCH   1   8
BRANCH   2  17
ATOM     17  N   UNL d   1      -0.434   4.838  -2.975  0.00  0.00    -0.363 N 
ATOM     18  C   UNL d   1       0.529   5.938  -3.064  0.00  0.00     0.150 C 
ATOM     19  C   UNL d   1       0.615   6.376  -4.539  0.00  0.00     0.187 C 
ATOM     20  O   UNL d   1      -0.678   6.731  -5.069  0.00  0.00    -0.388 OA
ATOM     21  C   UNL d   1      -1.590   5.623  -4.972  0.00  0.00     0.187 C 
ATOM     22  C   UNL d   1      -1.756   5.159  -3.517  0.00  0.00     0.150 C 
ENDBRANCH   2  17
TORSDOF 3
