REMARK  8 active torsions:
REMARK  status: ('A' for Active; 'I' for Inactive)
REMARK    1  A    between atoms: C_11  and  N_1 
REMARK    2  A    between atoms: C_8  and  C_2 
REMARK    3  A    between atoms: S_5  and  N_9 
REMARK    4  A    between atoms: C_10  and  S_5 
REMARK    5  A    between atoms: O_21  and  C_8 
REMARK    6  A    between atoms: N_9  and  C_17 
REMARK    7  A    between atoms: C_29  and  O_21 
REMARK    8  A    between atoms: O_28  and  C_22 
ROOT
ATOM      1  C   UNL d   1      -0.637  -2.485   0.124  0.00  0.00     0.056 A 
ATOM      2  C   UNL d   1      -0.886  -5.269   0.209  0.00  0.00     0.042 A 
ATOM      3  C   UNL d   1      -0.145  -3.217   1.217  0.00  0.00     0.034 A 
ATOM      4  C   UNL d   1      -1.270  -3.160  -0.927  0.00  0.00     0.034 A 
ATOM      5  C   UNL d   1      -1.384  -4.558  -0.884  0.00  0.00     0.032 A 
ATOM      6  C   UNL d   1      -0.288  -4.600   1.269  0.00  0.00     0.032 A 
ENDROOT
BRANCH   1   7
ATOM      7  N   UNL d   1      -0.397  -1.081   0.104  0.00  0.00    -0.260 N 
ATOM      8  N   UNL d   1       0.717  -0.625   0.727  0.00  0.00    -0.297 N 
ATOM      9  C   UNL d   1       0.798   0.666   0.412  0.00  0.00     0.041 C 
ATOM     10  HN  UNL d   1       1.359  -1.159   1.313  1.00  0.00     0.187 HD
ATOM     11  C   UNL d   1       2.006   1.429   0.826  0.00  0.00     0.071 C 
ATOM     12  C   UNL d   1      -0.356   1.112  -0.284  0.00  0.00     0.087 C 
ATOM     13  C   UNL d   1      -1.121  -0.043  -0.464  0.00  0.00     0.049 C 
ATOM     14  C   UNL d   1      -2.484  -0.203  -1.042  0.00  0.00     0.071 C 
BRANCH  12  15
ATOM     15  C   UNL d   1      -0.674   2.463  -0.730  0.00  0.00     0.297 C 
ATOM     16  O   UNL d   1      -1.662   2.749  -1.395  0.00  0.00    -0.259 OA
BRANCH  15  17
ATOM     17  O   UNL d   1       0.289   3.361  -0.374  0.00  0.00    -0.318 OA
BRANCH  17  18
ATOM     18  C   UNL d   1       0.263   4.619  -1.059  0.00  0.00     0.174 C 
ATOM     19  C   UNL d   1       1.031   4.468  -2.359  0.00  0.00     0.034 C 
ENDBRANCH  17  18
ENDBRANCH  15  17
ENDBRANCH  12  15
ENDBRANCH   1   7
BRANCH   2  20
ATOM     20  N   UNL d   1      -0.944  -6.682   0.259  0.00  0.00    -0.281 N 
ATOM     21  H   UNL d   1      -1.843  -7.152   0.329  0.00  0.00     0.179 HD
BRANCH  20  22
ATOM     22  S   UNL d   1       0.254  -7.582  -0.512  0.00  0.00     0.263 S 
ATOM     23  O   UNL d   1      -0.169  -8.963  -0.421  0.00  0.00    -0.200 OA
ATOM     24  O   UNL d   1       0.553  -6.984  -1.792  0.00  0.00    -0.200 OA
BRANCH  22  25
ATOM     25  C   UNL d   1       1.661  -7.386   0.560  0.00  0.00     0.080 A 
ATOM     26  C   UNL d   1       1.804  -8.216   1.675  0.00  0.00     0.028 A 
ATOM     27  C   UNL d   1       2.938  -8.100   2.490  0.00  0.00     0.038 A 
ATOM     28  C   UNL d   1       3.927  -7.162   2.186  0.00  0.00     0.068 A 
ATOM     29  C   UNL d   1       3.783  -6.351   1.055  0.00  0.00     0.038 A 
ATOM     30  C   UNL d   1       2.652  -6.456   0.241  0.00  0.00     0.028 A 
BRANCH  28  31
ATOM     31  O   UNL d   1       5.089  -6.978   2.883  0.00  0.00    -0.356 OA
ATOM     32  C   UNL d   1       5.080  -7.393   4.244  0.00  0.00     0.210 C 
ENDBRANCH  28  31
ENDBRANCH  22  25
ENDBRANCH  20  22
ENDBRANCH   2  20
TORSDOF 8
