REMARK  4 active torsions:
REMARK  status: ('A' for Active; 'I' for Inactive)
REMARK    1  A    between atoms: N_8  and  C_3 
REMARK       I    between atoms: C_11  and  N_8 
REMARK    2  A    between atoms: C_18  and  N_10 
REMARK    3  A    between atoms: C_15  and  C_11 
REMARK    4  A    between atoms: N_12  and  C_15 
ROOT
ATOM      1  N   UNL d   1       4.806  -1.484   1.262  0.00  0.00    -0.305 N 
ATOM      2  C   UNL d   1       3.614  -2.096   1.567  0.00  0.00     0.252 C 
ATOM      3  O   UNL d   1       3.370  -2.769   2.567  0.00  0.00    -0.271 OA
ATOM      4  H   UNL d   1       4.881  -1.057   0.346  0.00  0.00     0.171 HD
ENDROOT
BRANCH   2   5
ATOM      5  C   UNL d   1       2.520  -1.927   0.513  0.00  0.00     0.375 C 
BRANCH   5   6
ATOM      6  N   UNL d   1       2.935  -1.117  -0.662  0.00  0.00     0.100 N 
ATOM      7  C   UNL d   1       2.693   0.340  -0.428  0.00  0.00     0.292 C 
ATOM      8  C   UNL d   1       2.881   1.238  -1.689  0.00  0.00     0.153 C 
ATOM      9  N   UNL d   1       2.123   0.684  -2.818  0.00  0.00    -0.378 N 
ATOM     10  C   UNL d   1       2.400  -0.730  -3.085  0.00  0.00     0.153 C 
ATOM     11  C   UNL d   1       2.092  -1.542  -1.818  0.00  0.00     0.292 C 
BRANCH   9  12
ATOM     12  C   UNL d   1       1.252   1.417  -3.597  0.00  0.00     0.030 A 
ATOM     13  C   UNL d   1       0.137   0.823  -4.210  0.00  0.00     0.029 A 
ATOM     14  C   UNL d   1      -0.741   1.554  -5.022  0.00  0.00     0.002 A 
ATOM     15  C   UNL d   1      -0.523   2.900  -5.243  0.00  0.00     0.000 A 
ATOM     16  C   UNL d   1       0.560   3.525  -4.640  0.00  0.00     0.002 A 
ATOM     17  C   UNL d   1       1.431   2.791  -3.824  0.00  0.00     0.029 A 
ENDBRANCH   9  12
ENDBRANCH   5   6
ENDBRANCH   2   5
BRANCH   1  18
ATOM     18  C   UNL d   1       5.957  -1.532   2.006  0.00  0.00     0.168 C 
ATOM     19  S   UNL d   1       6.030  -2.293   3.528  0.00  0.00    -0.031 SA
ATOM     20  C   UNL d   1       7.725  -2.098   3.467  0.00  0.00     0.126 C 
ATOM     21  N   UNL d   1       8.143  -1.350   2.464  0.00  0.00    -0.289 N 
ATOM     22  C   UNL d   1       8.591  -2.794   4.372  0.00  0.00     0.110 A 
ATOM     23  N   UNL d   1       7.102  -1.016   1.609  0.00  0.00    -0.279 N 
ATOM     24  HN  UNL d   1       9.111  -1.055   2.334  1.00  0.00     0.188 HD
ATOM     25  HN  UNL d   1       7.210  -0.439   0.775  1.00  0.00     0.189 HD
ATOM     26  O   UNL d   1       8.125  -3.649   5.344  0.00  0.00    -0.320 OA
ATOM     27  C   UNL d   1       9.976  -2.828   4.396  0.00  0.00     0.042 A 
ATOM     28  C   UNL d   1       9.192  -4.242   5.929  0.00  0.00     0.142 A 
ATOM     29  C   UNL d   1      10.360  -3.773   5.380  0.00  0.00     0.027 A 
ENDBRANCH   1  18
TORSDOF 4
