REMARK  3 active torsions:
REMARK  status: ('A' for Active; 'I' for Inactive)
REMARK    1  A    between atoms: C_3  and  C_1 
REMARK    2  A    between atoms: N_7  and  C_2 
REMARK       I    between atoms: C_4  and  N_7 
REMARK       I    between atoms: N_11  and  C_4 
REMARK    3  A    between atoms: N_10  and  N_11 
ROOT
ATOM      1  C   UNL d   1      -0.668   0.275  -0.142  0.00  0.00     0.074 A 
ATOM      2  C   UNL d   1      -1.486  -0.553   0.728  0.00  0.00     0.052 A 
ATOM      3  N   UNL d   1       0.246   1.016   0.498  0.00  0.00    -0.324 N 
ATOM      4  HN  UNL d   1       0.890   1.667   0.048  1.00  0.00     0.174 HD
ATOM      5  S   UNL d   1       0.180   0.720   2.120  0.00  0.00    -0.024 SA
ATOM      6  C   UNL d   1      -1.127  -0.372   2.055  0.00  0.00     0.094 A 
ENDROOT
BRANCH   2   7
ATOM      7  N   UNL d   1      -2.583  -1.335   0.364  0.00  0.00    -0.207 NA
ATOM      8  C   UNL d   1      -2.442  -2.718   0.226  0.00  0.00     0.313 C 
ATOM      9  N   UNL d   1      -3.592  -3.221  -0.405  0.00  0.00    -0.275 N 
ATOM     10  O   UNL d   1      -1.442  -3.349   0.547  0.00  0.00    -0.252 OA
ATOM     11  H   UNL d   1      -4.405  -2.632  -0.240  0.00  0.00     0.185 HD
ATOM     12  H   UNL d   1      -3.080  -0.955  -0.435  0.00  0.00     0.138 HD
BRANCH   9  13
ATOM     13  N   UNL d   1      -3.910  -4.610  -0.549  0.00  0.00    -0.224 NA
ATOM     14  C   UNL d   1      -2.780  -5.514  -0.877  0.00  0.00     0.140 C 
ATOM     15  C   UNL d   1      -2.235  -5.340  -2.301  0.00  0.00     0.183 C 
ATOM     16  O   UNL d   1      -3.272  -5.480  -3.284  0.00  0.00    -0.389 OA
ATOM     17  C   UNL d   1      -4.340  -4.561  -3.025  0.00  0.00     0.183 C 
ATOM     18  C   UNL d   1      -4.925  -4.778  -1.620  0.00  0.00     0.140 C 
ENDBRANCH   9  13
ENDBRANCH   2   7
BRANCH   1  19
ATOM     19  C   UNL d   1      -0.755   0.388  -1.616  0.00  0.00     0.036 A 
ATOM     20  C   UNL d   1      -1.982   0.703  -2.250  0.00  0.00     0.048 A 
ATOM     21 CL   UNL d   1      -3.455   1.024  -1.392  0.00  0.00    -0.083 Cl
ATOM     22  C   UNL d   1      -2.068   0.817  -3.646  0.00  0.00     0.025 A 
ATOM     23  C   UNL d   1      -0.940   0.679  -4.434  0.00  0.00     0.003 A 
ATOM     24  C   UNL d   1       0.289   0.403  -3.833  0.00  0.00     0.025 A 
ATOM     25  C   UNL d   1       0.379   0.238  -2.441  0.00  0.00     0.048 A 
ATOM     26 CL   UNL d   1       1.952  -0.164  -1.838  0.00  0.00    -0.083 Cl
ENDBRANCH   1  19
TORSDOF 3
