REMARK  3 active torsions:
REMARK  status: ('A' for Active; 'I' for Inactive)
REMARK    1  A    between atoms: N_5  and  C_1 
REMARK    2  A    between atoms: C_2  and  C_3 
REMARK       I    between atoms: C_4  and  N_5 
REMARK       I    between atoms: N_10  and  C_4 
REMARK    3  A    between atoms: C_9  and  N_10 
ROOT
ATOM      1  C   UNL d   1      -2.388  -2.762  -0.228  0.00  0.00     0.326 C 
ATOM      2  N   UNL d   1      -3.557  -3.252  -0.736  0.00  0.00    -0.293 N 
ATOM      3  N   UNL d   1      -1.357  -3.656  -0.056  0.00  0.00    -0.307 N 
ATOM      4  O   UNL d   1      -2.311  -1.565   0.033  0.00  0.00    -0.247 OA
ATOM      5  H   UNL d   1      -4.278  -2.550  -0.832  0.00  0.00     0.172 HD
ATOM      6  H   UNL d   1      -1.414  -4.429  -0.714  0.00  0.00     0.170 HD
ENDROOT
BRANCH   3   7
ATOM      7  C   UNL d   1      -0.071  -3.206   0.307  0.00  0.00     0.066 A 
ATOM      8  C   UNL d   1       0.226  -2.563   1.513  0.00  0.00     0.077 A 
ATOM      9  C   UNL d   1       1.535  -2.076   1.695  0.00  0.00     0.035 A 
ATOM     10  C   UNL d   1       2.482  -2.277   0.705  0.00  0.00     0.088 A 
ATOM     11  N   UNL d   1       2.231  -2.948  -0.435  0.00  0.00    -0.373 N 
ATOM     12  C   UNL d   1       0.968  -3.400  -0.604  0.00  0.00     0.117 A 
ATOM     13  HN  UNL d   1       2.956  -3.107  -1.134  1.00  0.00     0.164 HD
BRANCH   8  14
ATOM     14  C   UNL d   1      -0.718  -2.453   2.682  0.00  0.00     0.419 C 
ATOM     15  F   UNL d   1      -1.952  -3.002   2.523  0.00  0.00    -0.166 F 
ATOM     16  F   UNL d   1      -0.199  -3.078   3.785  0.00  0.00    -0.166 F 
ATOM     17  F   UNL d   1      -0.921  -1.163   3.076  0.00  0.00    -0.166 F 
ENDBRANCH   8  14
ENDBRANCH   3   7
BRANCH   2  18
ATOM     18  C   UNL d   1      -3.919  -4.565  -0.938  0.00  0.00     0.132 A 
ATOM     19  N   UNL d   1      -3.100  -5.619  -0.835  0.00  0.00    -0.245 N 
ATOM     20  O   UNL d   1      -3.904  -6.738  -0.951  0.00  0.00    -0.241 OA
ATOM     21  HN  UNL d   1      -2.090  -5.600  -0.699  1.00  0.00     0.196 HD
ATOM     22  C   UNL d   1      -5.190  -6.350  -1.151  0.00  0.00     0.076 A 
ATOM     23  C   UNL d   1      -5.235  -4.981  -1.245  0.00  0.00     0.084 A 
ATOM     24  C   UNL d   1      -6.208  -7.415  -1.168  0.00  0.00     0.079 C 
ENDBRANCH   2  18
TORSDOF 3
