REMARK  2 active torsions:
REMARK  status: ('A' for Active; 'I' for Inactive)
REMARK    1  A    between atoms: C_11  and  C_5 
REMARK    2  A    between atoms: N_17  and  C_6 
ROOT
ATOM      1  C   UNL d   1      -0.308   0.949  -0.146  0.00  0.00     0.068 A 
ATOM      2  C   UNL d   1       0.137  -0.313  -0.091  0.00  0.00     0.104 A 
ATOM      3  C   UNL d   1      -2.636  -0.015  -0.095  0.00  0.00     0.088 A 
ATOM      4  C   UNL d   1       0.642   2.083  -0.177  0.00  0.00     0.298 A 
ATOM      5  C   UNL d   1      -1.789   1.258  -0.168  0.00  0.00     0.133 A 
ATOM      6  C   UNL d   1      -2.077  -1.241  -0.018  0.00  0.00     0.160 A 
ATOM      7  O   UNL d   1      -0.701  -1.408  -0.063  0.00  0.00    -0.291 OA
ATOM      8  C   UNL d   1       1.563  -0.609  -0.038  0.00  0.00     0.033 A 
ATOM      9  O   UNL d   1       1.991   1.785  -0.033  0.00  0.00    -0.274 OA
ATOM     10  C   UNL d   1       2.453   0.459   0.006  0.00  0.00     0.092 A 
ATOM     11  C   UNL d   1      -4.058   0.124  -0.054  0.00  0.00     0.100 C 
ATOM     12  N   UNL d   1      -5.213   0.205  -0.044  0.00  0.00    -0.191 NA
ATOM     13  O   UNL d   1       0.270   3.240  -0.339  0.00  0.00    -0.259 OA
ATOM     14  C   UNL d   1       2.082  -1.908  -0.012  0.00  0.00     0.017 A 
ATOM     15  C   UNL d   1       3.832   0.268   0.074  0.00  0.00     0.038 A 
ATOM     16  C   UNL d   1       3.463  -2.117   0.051  0.00  0.00     0.001 A 
ATOM     17  C   UNL d   1       4.337  -1.029   0.094  0.00  0.00     0.003 A 
ENDROOT
BRANCH   5  18
ATOM     18  C   UNL d   1      -2.203   2.243   0.893  0.00  0.00     0.066 A 
ATOM     19  O   UNL d   1      -2.083   1.826   2.186  0.00  0.00    -0.326 OA
ATOM     20  C   UNL d   1      -2.586   2.816   2.965  0.00  0.00     0.142 A 
ATOM     21  C   UNL d   1      -2.998   3.876   2.193  0.00  0.00     0.027 A 
ATOM     22  C   UNL d   1      -2.735   3.515   0.850  0.00  0.00     0.035 A 
ENDBRANCH   5  18
BRANCH   6  23
ATOM     23  N   UNL d   1      -2.749  -2.430   0.116  0.00  0.00    -0.379 N 
ATOM     24  H   UNL d   1      -3.731  -2.443  -0.148  0.00  0.00     0.158 HD
ATOM     25  H   UNL d   1      -2.216  -3.235  -0.202  0.00  0.00     0.158 HD
ENDBRANCH   6  23
TORSDOF 2
