REMARK  4 active torsions:
REMARK  status: ('A' for Active; 'I' for Inactive)
REMARK    1  A    between atoms: C_7  and  C_1 
REMARK    2  A    between atoms: C_8  and  N_2 
REMARK    3  A    between atoms: N_10  and  C_3 
REMARK       I    between atoms: N_13  and  C_7 
REMARK    4  A    between atoms: C_9  and  C_8 
ROOT
ATOM      1  C   UNL d   1      -0.843  -0.582  -0.038  0.00  0.00     0.159 A 
ATOM      2  N   UNL d   1       0.988   0.570   0.134  0.00  0.00    -0.254 N 
ATOM      3  C   UNL d   1       0.129   0.041  -0.801  0.00  0.00     0.148 A 
ATOM      4  N   UNL d   1       0.582   0.277   1.390  0.00  0.00    -0.018 NA
ATOM      5  N   UNL d   1      -0.537  -0.427   1.297  0.00  0.00    -0.276 N 
ATOM      6  HN  UNL d   1      -1.080  -0.793   2.080  1.00  0.00     0.184 HD
ENDROOT
BRANCH   2   7
ATOM      7  C   UNL d   1       2.119   1.460  -0.065  0.00  0.00     0.189 C 
BRANCH   7   8
ATOM      8  C   UNL d   1       3.411   0.696  -0.234  0.00  0.00    -0.017 A 
ATOM      9  C   UNL d   1       3.984   0.422  -1.486  0.00  0.00     0.042 A 
ATOM     10 CL   UNL d   1       3.313   1.020  -2.962  0.00  0.00    -0.084 Cl
ATOM     11  C   UNL d   1       5.150  -0.343  -1.585  0.00  0.00     0.024 A 
ATOM     12  C   UNL d   1       5.773  -0.828  -0.437  0.00  0.00     0.002 A 
ATOM     13  C   UNL d   1       5.235  -0.543   0.814  0.00  0.00     0.001 A 
ATOM     14  C   UNL d   1       4.061   0.207   0.915  0.00  0.00     0.010 A 
ENDBRANCH   7   8
ENDBRANCH   2   7
BRANCH   3  15
ATOM     15  N   UNL d   1       0.273   0.183  -2.140  0.00  0.00    -0.382 N 
ATOM     16  H   UNL d   1       1.178   0.362  -2.574  0.00  0.00     0.157 HD
ATOM     17  H   UNL d   1      -0.343  -0.363  -2.749  0.00  0.00     0.157 HD
ENDBRANCH   3  15
BRANCH   1  18
ATOM     18  C   UNL d   1      -2.021  -1.291  -0.509  0.00  0.00     0.270 C 
ATOM     19  O   UNL d   1      -2.275  -1.505  -1.691  0.00  0.00    -0.266 OA
ATOM     20  N   UNL d   1      -2.868  -1.711   0.478  0.00  0.00    -0.365 N 
ATOM     21  H   UNL d   1      -2.674  -1.502   1.450  0.00  0.00     0.159 HD
ATOM     22  H   UNL d   1      -3.728  -2.170   0.217  0.00  0.00     0.159 HD
ENDBRANCH   1  18
TORSDOF 4
