REMARK  7 active torsions:
REMARK  status: ('A' for Active; 'I' for Inactive)
REMARK    1  A    between atoms: C1*_3  and  N_1 
REMARK    2  A    between atoms: N_18  and  C_2 
REMARK    3  A    between atoms: C2*_8  and  O2*_19 
REMARK    4  A    between atoms: C3*_10  and  O3*_21 
REMARK    5  A    between atoms: C4*_11  and  C5*_22 
REMARK    6  A    between atoms: N_20  and  C_14 
REMARK    7  A    between atoms: O5*_23  and  C5*_22 
ROOT
ATOM      1  N   UNL d   1       1.650   1.202  -0.062  0.00  0.00    -0.277 N 
ATOM      2  C   UNL d   1       2.461   0.080  -0.097  0.00  0.00     0.163 A 
ATOM      3  C   UNL d   1       0.373   0.767   0.211  0.00  0.00     0.144 A 
ATOM      4  N   UNL d   1       1.764  -1.020   0.079  0.00  0.00    -0.326 N 
ATOM      5  HN  UNL d   1       2.117  -1.977   0.107  1.00  0.00     0.168 HD
ATOM      6  C   UNL d   1       0.460  -0.613   0.218  0.00  0.00     0.123 A 
ATOM      7  N   UNL d   1      -0.738   1.506   0.331  0.00  0.00    -0.336 N 
ATOM      8  HN  UNL d   1      -0.754   2.526   0.336  1.00  0.00     0.168 HD
ATOM      9  C   UNL d   1      -0.753  -1.320   0.309  0.00  0.00     0.131 A 
ATOM     10  N   UNL d   1      -1.901  -0.620   0.443  0.00  0.00    -0.337 N 
ATOM     11  HN  UNL d   1      -2.797  -1.098   0.542  1.00  0.00     0.168 HD
ATOM     12  C   UNL d   1      -1.833   0.726   0.443  0.00  0.00     0.183 A 
ENDROOT
BRANCH   1  13
ATOM     13  C1* UNL d   1       1.977   2.517  -0.566  0.00  0.00     0.264 C 
ATOM     14  C2* UNL d   1       1.394   3.730   0.169  0.00  0.00     0.198 C 
ATOM     15  C3* UNL d   1       0.343   4.287  -0.786  0.00  0.00     0.182 C 
ATOM     16  C4* UNL d   1       0.784   3.768  -2.150  0.00  0.00     0.179 C 
ATOM     17  O4* UNL d   1       1.550   2.573  -1.942  0.00  0.00    -0.353 OA
BRANCH  14  18
ATOM     18  O2* UNL d   1       2.409   4.735   0.397  0.00  0.00    -0.388 OA
ATOM     19  H2* UNL d   1       2.792   4.979  -0.468  0.00  0.00     0.210 HD
ENDBRANCH  14  18
BRANCH  15  20
ATOM     20  O3* UNL d   1       0.325   5.717  -0.779  0.00  0.00    -0.390 OA
ATOM     21  H3* UNL d   1       0.804   6.003   0.024  0.00  0.00     0.210 HD
ENDBRANCH  15  20
BRANCH  16  22
ATOM     22  C5* UNL d   1      -0.371   3.441  -3.100  0.00  0.00     0.198 C 
BRANCH  22  23
ATOM     23  O5* UNL d   1      -1.244   2.460  -2.544  0.00  0.00    -0.398 OA
ATOM     24  H5* UNL d   1      -0.685   1.706  -2.277  0.00  0.00     0.209 HD
ENDBRANCH  22  23
ENDBRANCH  16  22
ENDBRANCH   1  13
BRANCH   2  25
ATOM     25  N   UNL d   1       3.772   0.076  -0.446  0.00  0.00    -0.268 NA
ATOM     26  C   UNL d   1       4.762   0.773   0.360  0.00  0.00     0.116 C 
ATOM     27  H   UNL d   1       4.076  -0.888  -0.592  0.00  0.00     0.130 HD
ENDBRANCH   2  25
BRANCH   9  28
ATOM     28  N   UNL d   1      -0.832  -2.700   0.228  0.00  0.00    -0.383 N 
ATOM     29  H   UNL d   1       0.026  -3.193   0.430  0.00  0.00     0.157 HD
ATOM     30  H   UNL d   1      -1.705  -3.075   0.573  0.00  0.00     0.157 HD
ENDBRANCH   9  28
TORSDOF 7
