REMARK  4 active torsions:
REMARK  status: ('A' for Active; 'I' for Inactive)
REMARK    1  A    between atoms: C_2  and  N_1 
REMARK    2  A    between atoms: C_3  and  S_11 
REMARK    3  A    between atoms: S_11  and  C_5 
REMARK    4  A    between atoms: N_15  and  C_8 
ROOT
ATOM      1  C   UNL d   1       1.397  -1.567  -3.378  0.00  0.00     0.179 A 
ATOM      2  N   UNL d   1       1.280  -2.557  -2.452  0.00  0.00    -0.168 N 
ATOM      3  N   UNL d   1       1.002  -2.004  -4.548  0.00  0.00    -0.265 N 
ATOM      4  HN  UNL d   1       1.007  -1.481  -5.424  1.00  0.00     0.189 HD
ATOM      5  C   UNL d   1       0.739  -3.621  -3.106  0.00  0.00     0.692 A 
ATOM      6  N   UNL d   1       0.575  -3.309  -4.371  0.00  0.00    -0.130 N 
ATOM      7  HN  UNL d   1       0.199  -3.921  -5.096  1.00  0.00     0.205 HD
ATOM      8  H   UNL d   1       1.478  -2.481  -1.465  0.00  0.00     0.186 HD
ENDROOT
BRANCH   1   9
ATOM      9  S   UNL d   1       2.067  -0.032  -2.974  0.00  0.00    -0.048 SA
BRANCH   9  10
ATOM     10  C   UNL d   1       0.571   0.798  -2.413  0.00  0.00     0.063 A 
ATOM     11  C   UNL d   1       0.185   0.823  -1.058  0.00  0.00     0.121 A 
ATOM     12  C   UNL d   1      -0.920   1.557  -0.594  0.00  0.00     0.037 A 
ATOM     13  C   UNL d   1      -1.673   2.299  -1.495  0.00  0.00     0.004 A 
ATOM     14  C   UNL d   1      -1.320   2.300  -2.843  0.00  0.00     0.025 A 
ATOM     15  C   UNL d   1      -0.213   1.564  -3.300  0.00  0.00     0.053 A 
ATOM     16 CL   UNL d   1       0.140   1.694  -4.992  0.00  0.00    -0.083 Cl
BRANCH  11  17
ATOM     17  N   UNL d   1       0.943   0.109  -0.048  0.00  0.00    -0.114 N 
ATOM     18  O   UNL d   1       0.978  -1.128  -0.125  0.00  0.00    -0.532 OA
ATOM     19  O   UNL d   1       1.469   0.786   0.845  0.00  0.00    -0.532 OA
ENDBRANCH  11  17
ENDBRANCH   9  10
ENDBRANCH   1   9
BRANCH   5  20
ATOM     20  N   UNL d   1       0.442  -4.756  -2.459  0.00  0.00    -0.233 N 
ATOM     21  H   UNL d   1       0.852  -4.995  -1.564  0.00  0.00     0.174 HD
ATOM     22  H   UNL d   1       0.202  -5.561  -3.031  0.00  0.00     0.174 HD
ENDBRANCH   5  20
TORSDOF 4
