REMARK  0 active torsions:
REMARK  status: ('A' for Active; 'I' for Inactive)
ROOT
ATOM      1  N   UNL d   1       2.548   0.757   0.133  0.00  0.00    -0.276 N 
ATOM      2  N   UNL d   1       3.211   3.212  -1.224  0.00  0.00    -0.276 N 
ATOM      3  C   UNL d   1       1.498   1.649  -0.471  0.00  0.00     0.228 C 
ATOM      4  C   UNL d   1       3.810   2.817   0.117  0.00  0.00     0.228 C 
ATOM      5  N   UNL d   1       1.927   2.510  -1.617  0.00  0.00    -0.206 NA
ATOM      6  N   UNL d   1       3.843   1.358   0.398  0.00  0.00    -0.206 NA
ATOM      7  C   UNL d   1       2.470  -0.627  -0.055  0.00  0.00     0.129 C 
ATOM      8  C   UNL d   1       3.218   4.590  -1.482  0.00  0.00     0.129 C 
ATOM      9  C   UNL d   1       1.323  -1.251  -0.371  0.00  0.00     0.054 C 
ATOM     10  C   UNL d   1       3.055   5.497  -0.505  0.00  0.00     0.054 C 
ATOM     11  C   UNL d   1       3.108   3.677   1.201  0.00  0.00    -0.008 A 
ATOM     12  C   UNL d   1       0.172   0.927  -0.665  0.00  0.00    -0.008 A 
ATOM     13  C   UNL d   1       0.096  -0.469  -0.521  0.00  0.00    -0.024 A 
ATOM     14  C   UNL d   1       2.745   5.000   0.843  0.00  0.00    -0.024 A 
ATOM     15  C   UNL d   1       3.545   4.978  -2.817  0.00  0.00     0.119 C 
ATOM     16  C   UNL d   1       3.657  -1.407   0.130  0.00  0.00     0.119 C 
ATOM     17  N   UNL d   1       4.603  -2.068   0.290  0.00  0.00    -0.190 NA
ATOM     18  N   UNL d   1       3.853   5.332  -3.881  0.00  0.00    -0.190 NA
ATOM     19  C   UNL d   1       2.713   3.190   2.461  0.00  0.00     0.011 A 
ATOM     20  C   UNL d   1      -1.017   1.670  -0.778  0.00  0.00     0.011 A 
ATOM     21  C   UNL d   1      -1.152  -1.098  -0.459  0.00  0.00     0.012 A 
ATOM     22  C   UNL d   1       2.005   5.796   1.723  0.00  0.00     0.012 A 
ATOM     23  C   UNL d   1      -2.257   1.039  -0.693  0.00  0.00     0.001 A 
ATOM     24  C   UNL d   1       1.939   3.980   3.314  0.00  0.00     0.001 A 
ATOM     25  C   UNL d   1      -2.324  -0.343  -0.522  0.00  0.00     0.001 A 
ATOM     26  C   UNL d   1       1.587   5.277   2.947  0.00  0.00     0.001 A 
ATOM     27  H   UNL d   1       2.172   1.856  -2.363  0.00  0.00     0.149 HD
ATOM     28  H   UNL d   1       4.149   1.197   1.355  0.00  0.00     0.149 HD
ENDROOT
TORSDOF 0
