REMARK  6 active torsions:
REMARK  status: ('A' for Active; 'I' for Inactive)
REMARK    1  A    between atoms: C_2  and  N_1 
REMARK    2  A    between atoms: N_17  and  C_3 
REMARK    3  A    between atoms: C_4  and  C_9 
REMARK    4  A    between atoms: O_18  and  C_4 
REMARK    5  A    between atoms: C_8  and  C_5 
REMARK    6  A    between atoms: C_20  and  O_18 
ROOT
ATOM      1  C   UNL d   1       2.453  -0.098   1.078  0.00  0.00     0.051 A 
ATOM      2  C   UNL d   1       3.459  -1.099   1.003  0.00  0.00     0.033 A 
ATOM      3  C   UNL d   1       4.679  -0.093   2.865  0.00  0.00     0.011 A 
ATOM      4  C   UNL d   1       4.510  -1.122   1.936  0.00  0.00     0.040 A 
ATOM      5  C   UNL d   1       2.670   0.940   2.009  0.00  0.00     0.032 A 
ATOM      6  C   UNL d   1       3.772   0.961   2.875  0.00  0.00     0.017 A 
ENDROOT
BRANCH   1   7
ATOM      7  N   UNL d   1       1.298  -0.093   0.300  0.00  0.00    -0.379 N 
ATOM      8  C   UNL d   1       0.596  -1.328  -0.064  0.00  0.00     0.124 C 
ATOM      9  C   UNL d   1      -0.903  -1.203   0.233  0.00  0.00     0.034 C 
ATOM     10  C   UNL d   1      -1.523   0.088  -0.316  0.00  0.00     0.088 C 
ATOM     11  C   UNL d   1      -0.700   1.295   0.158  0.00  0.00     0.034 C 
ATOM     12  C   UNL d   1       0.764   1.150  -0.255  0.00  0.00     0.124 C 
BRANCH  10  13
ATOM     13  C   UNL d   1      -1.640   0.058  -1.836  0.00  0.00     0.263 C 
ATOM     14  O   UNL d   1      -1.377  -0.900  -2.546  0.00  0.00    -0.265 OA
BRANCH  13  15
ATOM     15  O   UNL d   1      -2.073   1.268  -2.290  0.00  0.00    -0.322 OA
BRANCH  15  16
ATOM     16  C   UNL d   1      -2.024   1.480  -3.708  0.00  0.00     0.174 C 
ATOM     17  C   UNL d   1      -3.374   1.218  -4.346  0.00  0.00     0.034 C 
ENDBRANCH  15  16
ENDBRANCH  13  15
ENDBRANCH  10  13
ENDBRANCH   1   7
BRANCH   2  18
ATOM     18  N   UNL d   1       3.374  -2.183   0.097  0.00  0.00    -0.301 NA
ATOM     19  H   UNL d   1       2.943  -1.872  -0.771  0.00  0.00     0.124 HD
ATOM     20  H   UNL d   1       4.266  -2.638  -0.069  0.00  0.00     0.124 HD
ENDBRANCH   2  18
BRANCH   3  21
ATOM     21  C   UNL d   1       5.841  -0.167   3.794  0.00  0.00     0.155 C 
ATOM     22  O   UNL d   1       6.817  -0.852   3.489  0.00  0.00    -0.293 OA
ATOM     23  C   UNL d   1       5.808   0.581   5.102  0.00  0.00     0.096 C 
ENDBRANCH   3  21
TORSDOF 6
