REMARK  9 active torsions:
REMARK  status: ('A' for Active; 'I' for Inactive)
REMARK    1  A    between atoms: N_16  and  C_8 
REMARK    2  A    between atoms: S_15  and  C_9 
REMARK    3  A    between atoms: S_17  and  C_10 
REMARK    4  A    between atoms: C_22  and  S_15 
REMARK    5  A    between atoms: C_26  and  N_16 
REMARK    6  A    between atoms: C_27  and  N_16 
REMARK    7  A    between atoms: C_23  and  S_17 
REMARK    8  A    between atoms: C_18  and  C_22 
REMARK       I    between atoms: N_25  and  C_18 
REMARK    9  A    between atoms: C_19  and  C_23 
REMARK       I    between atoms: N_24  and  C_19 
ROOT
ATOM      1  N   UNL d   1      -1.177   1.271   0.194  0.00  0.00    -0.176 N 
ATOM      2  HN  UNL d   1      -1.155   2.277   0.360  1.00  0.00     0.186 HD
ATOM      3  C   UNL d   1      -0.045   0.575   0.140  0.00  0.00     0.137 A 
ATOM      4  N   UNL d   1       1.089   1.265   0.203  0.00  0.00    -0.322 N 
ATOM      5  HN  UNL d   1       1.081   2.280   0.301  1.00  0.00     0.169 HD
ATOM      6  N   UNL d   1       2.353  -0.739   0.061  0.00  0.00    -0.330 N 
ATOM      7  HN  UNL d   1       3.261  -1.204   0.041  1.00  0.00     0.168 HD
ATOM      8  C   UNL d   1      -2.349   0.636   0.028  0.00  0.00     0.681 A 
ATOM      9  C   UNL d   1       1.205  -1.428   0.015  0.00  0.00     0.087 A 
ATOM     10  C   UNL d   1       2.242   0.590   0.134  0.00  0.00     0.147 A 
ATOM     11  C   UNL d   1      -0.040  -0.797   0.015  0.00  0.00     0.058 A 
ATOM     12  N   UNL d   1      -2.427  -0.688  -0.140  0.00  0.00    -0.201 N 
ATOM     13  HN  UNL d   1      -3.325  -1.149  -0.287  1.00  0.00     0.183 HD
ATOM     14  C   UNL d   1      -1.287  -1.388  -0.110  0.00  0.00     0.124 A 
ENDROOT
BRANCH   9  15
ATOM     15  S   UNL d   1       1.350  -3.207  -0.123  0.00  0.00    -0.102 SA
BRANCH  15  16
ATOM     16  C   UNL d   1       2.875  -3.512   0.824  0.00  0.00     0.183 C 
BRANCH  16  17
ATOM     17  C   UNL d   1       2.736  -3.029   2.255  0.00  0.00     0.225 C 
ATOM     18  O   UNL d   1       1.988  -3.545   3.082  0.00  0.00    -0.273 OA
ATOM     19  N   UNL d   1       3.505  -1.949   2.588  0.00  0.00    -0.369 N 
ATOM     20  H   UNL d   1       3.825  -1.314   1.865  0.00  0.00     0.159 HD
ATOM     21  H   UNL d   1       3.352  -1.546   3.505  0.00  0.00     0.159 HD
ENDBRANCH  16  17
ENDBRANCH  15  16
ENDBRANCH   9  15
BRANCH  10  22
ATOM     22  S   UNL d   1       3.769   1.490   0.066  0.00  0.00    -0.085 SA
BRANCH  22  23
ATOM     23  C   UNL d   1       3.277   3.029   0.895  0.00  0.00     0.184 C 
BRANCH  23  24
ATOM     24  C   UNL d   1       2.828   2.752   2.318  0.00  0.00     0.225 C 
ATOM     25  O   UNL d   1       3.503   2.151   3.149  0.00  0.00    -0.273 OA
ATOM     26  N   UNL d   1       1.588   3.224   2.645  0.00  0.00    -0.369 N 
ATOM     27  H   UNL d   1       0.886   3.325   1.920  0.00  0.00     0.159 HD
ATOM     28  H   UNL d   1       1.246   2.951   3.559  0.00  0.00     0.159 HD
ENDBRANCH  23  24
ENDBRANCH  22  23
ENDBRANCH  10  22
BRANCH   8  29
ATOM     29  N   UNL d   1      -3.520   1.358   0.018  0.00  0.00    -0.218 N 
BRANCH  29  30
ATOM     30  C   UNL d   1      -4.689   0.806  -0.654  0.00  0.00     0.136 C 
ATOM     31  C   UNL d   1      -5.538  -0.037   0.283  0.00  0.00     0.027 C 
ENDBRANCH  29  30
BRANCH  29  32
ATOM     32  C   UNL d   1      -3.588   2.663   0.650  0.00  0.00     0.136 C 
ATOM     33  C   UNL d   1      -3.325   3.782  -0.344  0.00  0.00     0.027 C 
ENDBRANCH  29  32
ENDBRANCH   8  29
TORSDOF 9
