REMARK  4 active torsions:
REMARK  status: ('A' for Active; 'I' for Inactive)
REMARK    1  A    between atoms: C_4  and  C_1 
REMARK    2  A    between atoms: C_3  and  C_2 
REMARK       I    between atoms: N_8  and  C_4 
REMARK    3  A    between atoms: C_12  and  N_8 
REMARK    4  A    between atoms: C_11  and  C_12 
ROOT
ATOM      1  C   UNL d   1       4.545   1.111  -0.018  0.00  0.00     0.062 A 
ATOM      2  C   UNL d   1       5.785   1.342  -0.629  0.00  0.00     0.068 A 
ATOM      3  C   UNL d   1       3.905   2.201   0.579  0.00  0.00     0.107 A 
ATOM      4  N   UNL d   1       4.412   3.459   0.642  0.00  0.00    -0.356 N 
ATOM      5  HN  UNL d   1       3.909   4.219   1.101  1.00  0.00     0.166 HD
ATOM      6  C   UNL d   1       5.609   3.647   0.069  0.00  0.00     0.104 A 
ATOM      7  C   UNL d   1       6.324   2.648  -0.564  0.00  0.00     0.059 A 
ATOM      8 CL   UNL d   1       6.216   5.245   0.157  0.00  0.00    -0.065 Cl
ENDROOT
BRANCH   1   9
ATOM      9  C   UNL d   1       3.784  -0.163   0.021  0.00  0.00     0.254 C 
ATOM     10  N   UNL d   1       4.481  -1.324   0.261  0.00  0.00    -0.353 N 
ATOM     11  H   UNL d   1       5.489  -1.333   0.252  0.00  0.00     0.163 HD
ATOM     12  O   UNL d   1       2.569  -0.116  -0.120  0.00  0.00    -0.268 OA
BRANCH  10  13
ATOM     13  C   UNL d   1       3.844  -2.623   0.112  0.00  0.00     0.163 C 
BRANCH  13  14
ATOM     14  C   UNL d   1       4.214  -3.627   1.179  0.00  0.00    -0.019 A 
ATOM     15  C   UNL d   1       3.716  -4.943   1.114  0.00  0.00     0.042 A 
ATOM     16 CL   UNL d   1       2.704  -5.470  -0.187  0.00  0.00    -0.084 Cl
ATOM     17  C   UNL d   1       4.020  -5.878   2.109  0.00  0.00     0.024 A 
ATOM     18  C   UNL d   1       4.833  -5.521   3.182  0.00  0.00     0.002 A 
ATOM     19  C   UNL d   1       5.340  -4.228   3.261  0.00  0.00     0.001 A 
ATOM     20  C   UNL d   1       5.030  -3.289   2.273  0.00  0.00     0.010 A 
ENDBRANCH  13  14
ENDBRANCH  10  13
ENDBRANCH   1   9
BRANCH   2  21
ATOM     21  C   UNL d   1       6.601   0.329  -1.377  0.00  0.00     0.418 C 
ATOM     22  F   UNL d   1       5.993  -0.853  -1.635  0.00  0.00    -0.166 F 
ATOM     23  F   UNL d   1       7.020   0.793  -2.587  0.00  0.00    -0.166 F 
ATOM     24  F   UNL d   1       7.734   0.012  -0.689  0.00  0.00    -0.166 F 
ENDBRANCH   2  21
TORSDOF 4
