REMARK  2 active torsions:
REMARK  status: ('A' for Active; 'I' for Inactive)
REMARK    1  A    between atoms: N_7  and  C_6 
REMARK    2  A    between atoms: C_23  and  N_11 
ROOT
ATOM      1  C   UNL d   1       2.212   0.403   1.052  0.00  0.00     0.073 A 
ATOM      2  S   UNL d   1       2.510   0.603   2.733  0.00  0.00    -0.066 SA
ATOM      3  C   UNL d   1       1.779  -0.877   3.120  0.00  0.00     0.088 A 
ATOM      4  C   UNL d   1       1.332  -1.581   2.010  0.00  0.00     0.032 A 
ATOM      5  C   UNL d   1       1.575  -0.814   0.810  0.00  0.00     0.067 A 
ATOM      6  C   UNL d   1       2.559   1.234  -0.030  0.00  0.00     0.103 A 
ATOM      7  N   UNL d   1       1.701  -1.257   4.412  0.00  0.00    -0.354 N 
ATOM      8  HN  UNL d   1       2.047  -0.677   5.176  1.00  0.00     0.166 HD
ATOM      9  C   UNL d   1       0.757  -2.859   2.252  0.00  0.00    -0.045 A 
ATOM     10  N   UNL d   1       2.229   0.798  -1.270  0.00  0.00    -0.342 N 
ATOM     11  HN  UNL d   1       2.459   1.359  -2.090  1.00  0.00     0.167 HD
ATOM     12  N   UNL d   1       1.250  -1.218  -0.446  0.00  0.00    -0.350 N 
ATOM     13  HN  UNL d   1       0.772  -2.099  -0.634  1.00  0.00     0.166 HD
ATOM     14  C   UNL d   1       1.603  -0.374  -1.410  0.00  0.00     0.182 A 
ATOM     15  C   UNL d   1       0.667  -3.276   3.591  0.00  0.00     0.032 A 
ATOM     16  C   UNL d   1       1.133  -2.459   4.614  0.00  0.00     0.006 A 
ATOM     17  C   UNL d   1       0.248  -3.796   1.190  0.00  0.00     0.049 C 
ATOM     18  C   UNL d   1       1.009  -2.920   6.037  0.00  0.00     0.068 C 
ENDROOT
BRANCH   6  19
ATOM     19  N   UNL d   1       3.345   2.381   0.110  0.00  0.00    -0.265 NA
ATOM     20  C   UNL d   1       4.038   2.773  -1.139  0.00  0.00     0.116 C 
ATOM     21  C   UNL d   1       5.092   3.854  -0.829  0.00  0.00     0.138 C 
ATOM     22  N   UNL d   1       4.436   5.006  -0.176  0.00  0.00    -0.379 N 
ATOM     23  C   UNL d   1       3.711   4.649   1.059  0.00  0.00     0.138 C 
ATOM     24  C   UNL d   1       2.668   3.541   0.744  0.00  0.00     0.116 C 
BRANCH  22  25
ATOM     25  C   UNL d   1       4.912   6.280  -0.417  0.00  0.00     0.030 A 
ATOM     26  C   UNL d   1       5.125   7.223   0.597  0.00  0.00     0.029 A 
ATOM     27  C   UNL d   1       5.546   8.527   0.309  0.00  0.00     0.002 A 
ATOM     28  C   UNL d   1       5.759   8.918  -1.010  0.00  0.00     0.000 A 
ATOM     29  C   UNL d   1       5.557   8.004  -2.033  0.00  0.00     0.002 A 
ATOM     30  C   UNL d   1       5.142   6.704  -1.736  0.00  0.00     0.029 A 
ENDBRANCH  22  25
ENDBRANCH   6  19
TORSDOF 2
