REMARK  3 active torsions:
REMARK  status: ('A' for Active; 'I' for Inactive)
REMARK    1  A    between atoms: N_6  and  C_1 
REMARK    2  A    between atoms: C_17  and  C_2 
REMARK       I    between atoms: C_5  and  N_6 
REMARK       I    between atoms: N_14  and  C_5 
REMARK    3  A    between atoms: C_7  and  N_15 
ROOT
ATOM      1  C   UNL d   1       1.503  -2.744  -0.187  0.00  0.00     0.323 C 
ATOM      2  N   UNL d   1       0.747  -2.897   0.957  0.00  0.00    -0.304 N 
ATOM      3  N   UNL d   1       2.417  -1.705  -0.135  0.00  0.00    -0.331 N 
ATOM      4  N   UNL d   1       4.420   0.498  -0.151  0.00  0.00    -0.397 N 
ATOM      5  O   UNL d   1       1.439  -3.518  -1.142  0.00  0.00    -0.247 OA
ATOM      6  C   UNL d   1       2.480  -0.727   0.951  0.00  0.00     0.147 C 
ATOM      7  C   UNL d   1       3.627  -1.828  -0.951  0.00  0.00     0.147 C 
ATOM      8  C   UNL d   1       4.396  -0.510  -1.217  0.00  0.00     0.138 C 
ATOM      9  C   UNL d   1       3.096   0.599   0.491  0.00  0.00     0.138 C 
ATOM     10  H   UNL d   1       1.296  -2.758   1.799  0.00  0.00     0.171 HD
ENDROOT
BRANCH   2  11
ATOM     11  C   UNL d   1      -0.243  -3.867   1.085  0.00  0.00     0.097 C 
ATOM     12  C   UNL d   1      -0.349  -4.840   2.126  0.00  0.00     0.094 C 
ATOM     13  N   UNL d   1      -1.522  -5.485   2.052  0.00  0.00    -0.258 N 
ATOM     14  O   UNL d   1      -2.101  -5.074   0.868  0.00  0.00    -0.240 OA
ATOM     15  HN  UNL d   1      -1.908  -6.142   2.730  1.00  0.00     0.195 HD
ATOM     16  C   UNL d   1      -1.299  -4.159   0.252  0.00  0.00     0.101 C 
ATOM     17  C   UNL d   1      -1.768  -3.720  -1.075  0.00  0.00     0.081 C 
BRANCH  12  18
ATOM     18  C   UNL d   1       0.707  -5.302   3.025  0.00  0.00    -0.005 A 
ATOM     19  C   UNL d   1       0.435  -5.717   4.332  0.00  0.00     0.014 A 
ATOM     20  C   UNL d   1       1.440  -6.317   5.098  0.00  0.00     0.001 A 
ATOM     21  C   UNL d   1       2.716  -6.506   4.564  0.00  0.00     0.000 A 
ATOM     22  C   UNL d   1       3.001  -6.082   3.271  0.00  0.00     0.001 A 
ATOM     23  C   UNL d   1       2.001  -5.484   2.505  0.00  0.00     0.014 A 
ENDBRANCH  12  18
ENDBRANCH   2  11
BRANCH   4  24
ATOM     24  C   UNL d   1       5.607   0.511   0.732  0.00  0.00     0.147 C 
ATOM     25  C   UNL d   1       5.489   1.657   1.746  0.00  0.00    -0.020 A 
ATOM     26  C   UNL d   1       5.310   1.130   3.046  0.00  0.00    -0.017 A 
ATOM     27  C   UNL d   1       5.362   3.015   1.484  0.00  0.00     0.010 A 
ATOM     28  C   UNL d   1       4.978   1.969   4.096  0.00  0.00     0.013 A 
ATOM     29  C   UNL d   1       5.457  -0.310   2.990  0.00  0.00    -0.017 C 
ATOM     30  C   UNL d   1       4.811   3.334   3.833  0.00  0.00     0.001 A 
ATOM     31  C   UNL d   1       5.007   3.853   2.541  0.00  0.00     0.001 A 
ATOM     32  C   UNL d   1       5.747  -0.689   1.661  0.00  0.00    -0.020 C 
ATOM     33  C   UNL d   1       5.314  -1.275   3.973  0.00  0.00     0.013 C 
ATOM     34  C   UNL d   1       6.069  -1.999   1.344  0.00  0.00     0.010 C 
ATOM     35  C   UNL d   1       5.918  -2.972   2.331  0.00  0.00     0.001 C 
ATOM     36  C   UNL d   1       5.511  -2.616   3.626  0.00  0.00     0.001 C 
ENDBRANCH   4  24
TORSDOF 3
