REMARK  2 active torsions:
REMARK  status: ('A' for Active; 'I' for Inactive)
REMARK    1  A    between atoms: N_7  and  C_10 
REMARK    2  A    between atoms: C_15  and  C_8 
ROOT
ATOM      1  N   UNL d   1       0.137   0.555  -0.025  0.00  0.00    -0.293 N 
ATOM      2  C   UNL d   1       0.690  -0.676  -0.087  0.00  0.00     0.150 A 
ATOM      3  C   UNL d   1       2.376   0.588   0.017  0.00  0.00     0.104 A 
ATOM      4  N   UNL d   1       1.984  -0.734  -0.053  0.00  0.00    -0.332 N 
ATOM      5  HN  UNL d   1       2.576  -1.564  -0.073  1.00  0.00     0.168 HD
ATOM      6  C   UNL d   1       1.161   1.458  -0.002  0.00  0.00     0.276 A 
ATOM      7  C   UNL d   1       3.652   0.988   0.086  0.00  0.00     0.046 C 
ATOM      8  S   UNL d   1      -0.306  -2.081  -0.187  0.00  0.00    -0.093 SA
ATOM      9  O   UNL d   1       1.096   2.672  -0.043  0.00  0.00    -0.265 OA
ATOM     10  C   UNL d   1      -1.248   0.961  -0.130  0.00  0.00     0.135 C 
ATOM     11  C   UNL d   1      -2.260  -0.173  -0.102  0.00  0.00     0.031 C 
ATOM     12  C   UNL d   1      -1.798  -1.367  -0.917  0.00  0.00     0.084 C 
ENDROOT
BRANCH   7  13
ATOM     13  C   UNL d   1       4.112   2.376   0.190  0.00  0.00    -0.034 A 
ATOM     14  C   UNL d   1       4.306   2.956   1.451  0.00  0.00     0.014 A 
ATOM     15  C   UNL d   1       4.763   4.274   1.563  0.00  0.00     0.037 A 
ATOM     16  C   UNL d   1       5.039   5.010   0.403  0.00  0.00     0.102 A 
ATOM     17  C   UNL d   1       4.840   4.442  -0.862  0.00  0.00     0.037 A 
ATOM     18  C   UNL d   1       4.373   3.127  -0.963  0.00  0.00     0.014 A 
BRANCH  16  19
ATOM     19  N   UNL d   1       5.562   6.378   0.514  0.00  0.00    -0.116 N 
ATOM     20  O   UNL d   1       5.744   6.837   1.651  0.00  0.00    -0.532 OA
ATOM     21  O   UNL d   1       5.805   6.990  -0.536  0.00  0.00    -0.532 OA
ENDBRANCH  16  19
ENDBRANCH   7  13
TORSDOF 2
