REMARK  2 active torsions:
REMARK  status: ('A' for Active; 'I' for Inactive)
REMARK    1  A    between atoms: C_7  and  C_2 
REMARK    2  A    between atoms: C_12  and  C_6 
ROOT
ATOM      1  C   UNL d   1      -0.468  -0.422   0.007  0.00  0.00     0.124 A 
ATOM      2  C   UNL d   1       0.285  -1.548  -0.025  0.00  0.00     0.009 A 
ATOM      3  C   UNL d   1       0.217   0.905   0.052  0.00  0.00     0.267 A 
ATOM      4  N   UNL d   1       1.587   0.889   0.086  0.00  0.00    -0.322 N 
ATOM      5  C   UNL d   1       1.744  -1.445   0.016  0.00  0.00     0.045 A 
ATOM      6  C   UNL d   1       2.345  -0.249   0.070  0.00  0.00     0.046 A 
ATOM      7  C   UNL d   1      -1.890  -0.418  -0.003  0.00  0.00     0.106 C 
ATOM      8  N   UNL d   1      -3.052  -0.449   0.003  0.00  0.00    -0.191 NA
ATOM      9  O   UNL d   1      -0.398   1.966   0.057  0.00  0.00    -0.266 OA
ATOM     10  H   UNL d   1       2.044   1.794   0.112  0.00  0.00     0.169 HD
ENDROOT
BRANCH   2  11
ATOM     11  C   UNL d   1      -0.362  -2.825  -0.104  0.00  0.00     0.016 A 
ATOM     12  S   UNL d   1      -0.668  -3.542  -1.640  0.00  0.00    -0.101 SA
ATOM     13  C   UNL d   1      -1.399  -4.914  -0.934  0.00  0.00     0.050 A 
ATOM     14  C   UNL d   1      -1.401  -4.850   0.440  0.00  0.00     0.008 A 
ATOM     15  C   UNL d   1      -0.802  -3.647   0.919  0.00  0.00     0.020 A 
ENDBRANCH   2  11
BRANCH   6  16
ATOM     16  C   UNL d   1       3.800  -0.089   0.099  0.00  0.00    -0.009 A 
ATOM     17  C   UNL d   1       4.515   0.028  -1.099  0.00  0.00     0.013 A 
ATOM     18  C   UNL d   1       5.892   0.255  -1.076  0.00  0.00     0.001 A 
ATOM     19  C   UNL d   1       6.560   0.366   0.143  0.00  0.00     0.000 A 
ATOM     20  C   UNL d   1       5.855   0.240   1.340  0.00  0.00     0.001 A 
ATOM     21  C   UNL d   1       4.478   0.009   1.319  0.00  0.00     0.013 A 
ENDBRANCH   6  16
TORSDOF 2
