REMARK  4 active torsions:
REMARK  status: ('A' for Active; 'I' for Inactive)
REMARK    1  A    between atoms: C_2  and  C_1 
REMARK       I    between atoms: N_3  and  C_2 
REMARK       I    between atoms: C_7  and  N_3 
REMARK    2  A    between atoms: S_19  and  C_6 
REMARK       I    between atoms: N_11  and  C_7 
REMARK    3  A    between atoms: C_8  and  N_11 
REMARK    4  A    between atoms: S_20  and  C_9 
ROOT
ATOM      1  C   UNL d   1      -2.882  -1.349   0.499  0.00  0.00     0.264 C 
ATOM      2  N   UNL d   1      -3.549  -0.760  -0.557  0.00  0.00    -0.275 N 
ATOM      3  C   UNL d   1      -4.820  -1.006  -1.026  0.00  0.00     0.328 C 
ATOM      4  N   UNL d   1      -5.588  -1.831  -0.252  0.00  0.00    -0.293 N 
ATOM      5  O   UNL d   1      -3.389  -2.199   1.228  0.00  0.00    -0.267 OA
ATOM      6  O   UNL d   1      -5.140  -0.461  -2.079  0.00  0.00    -0.247 OA
ATOM      7  H   UNL d   1      -3.054  -0.102  -1.144  0.00  0.00     0.173 HD
ATOM      8  H   UNL d   1      -5.178  -2.199   0.600  0.00  0.00     0.172 HD
ENDROOT
BRANCH   1   9
ATOM      9  C   UNL d   1      -1.511  -0.900   0.645  0.00  0.00     0.091 A 
ATOM     10  C   UNL d   1      -0.400  -1.728   0.558  0.00  0.00     0.076 A 
ATOM     11  S   UNL d   1       1.012  -0.774   0.747  0.00  0.00    -0.006 SA
ATOM     12  N   UNL d   1       0.229   0.662   0.976  0.00  0.00    -0.319 N 
ATOM     13  C   UNL d   1      -1.080   0.437   0.946  0.00  0.00     0.093 A 
ATOM     14  HN  UNL d   1       0.675   1.568   1.115  1.00  0.00     0.175 HD
BRANCH  10  15
ATOM     15  S   UNL d   1      -0.293  -3.461   0.315  0.00  0.00    -0.125 SA
ATOM     16  C   UNL d   1      -0.910  -3.628  -1.372  0.00  0.00     0.096 C 
ENDBRANCH  10  15
BRANCH  13  17
ATOM     17  S   UNL d   1      -2.191   1.765   1.280  0.00  0.00    -0.115 SA
ATOM     18  C   UNL d   1      -1.175   2.800   2.365  0.00  0.00     0.097 C 
ENDBRANCH  13  17
ENDBRANCH   1   9
BRANCH   4  19
ATOM     19  C   UNL d   1      -6.907  -2.148  -0.506  0.00  0.00     0.132 A 
ATOM     20  N   UNL d   1      -7.606  -1.786  -1.586  0.00  0.00    -0.245 N 
ATOM     21  O   UNL d   1      -8.884  -2.275  -1.407  0.00  0.00    -0.241 OA
ATOM     22  HN  UNL d   1      -7.263  -1.254  -2.385  1.00  0.00     0.196 HD
ATOM     23  C   UNL d   1      -8.954  -2.931  -0.221  0.00  0.00     0.076 A 
ATOM     24  C   UNL d   1      -7.719  -2.900   0.379  0.00  0.00     0.084 A 
ATOM     25  C   UNL d   1     -10.270  -3.475   0.154  0.00  0.00     0.079 C 
ENDBRANCH   4  19
TORSDOF 4
