REMARK  3 active torsions:
REMARK  status: ('A' for Active; 'I' for Inactive)
REMARK    1  A    between atoms: C_2  and  S_1 
REMARK    2  A    between atoms: N_3  and  S_1 
REMARK    3  A    between atoms: C_4  and  C_7 
REMARK       I    between atoms: C_7  and  N_11 
ROOT
ATOM      1  N   UNL d   1       0.696   0.921  -1.535  0.00  0.00    -0.203 NA
ATOM      2  C   UNL d   1      -2.878   3.350  -1.212  0.00  0.00     0.251 C 
ATOM      3  N   UNL d   1      -1.685   2.635  -1.396  0.00  0.00    -0.348 N 
ATOM      4  C   UNL d   1       0.793   2.378  -1.858  0.00  0.00     0.127 C 
ATOM      5  C   UNL d   1      -0.661   0.402  -1.883  0.00  0.00     0.127 C 
ATOM      6  C   UNL d   1      -0.343   3.215  -1.217  0.00  0.00     0.141 C 
ATOM      7  C   UNL d   1      -1.767   1.184  -1.169  0.00  0.00     0.141 C 
ATOM      8  O   UNL d   1      -3.921   2.754  -0.923  0.00  0.00    -0.270 OA
ENDROOT
BRANCH   2   9
ATOM      9  C   UNL d   1      -2.866   4.901  -1.311  0.00  0.00     0.245 C 
ATOM     10  O   UNL d   1      -2.134   5.449  -2.403  0.00  0.00    -0.331 OA
ATOM     11  C   UNL d   1      -2.837   5.353  -3.572  0.00  0.00     0.103 A 
ATOM     12  C   UNL d   1      -2.092   5.321  -4.749  0.00  0.00     0.040 A 
ATOM     13  C   UNL d   1      -4.228   5.264  -3.616  0.00  0.00     0.102 A 
ATOM     14  C   UNL d   1      -2.735   5.122  -5.971  0.00  0.00     0.003 A 
ATOM     15  C   UNL d   1      -4.124   5.003  -6.016  0.00  0.00     0.003 A 
ATOM     16  C   UNL d   1      -4.872   5.098  -4.841  0.00  0.00     0.039 A 
ATOM     17  O   UNL d   1      -5.020   5.294  -2.504  0.00  0.00    -0.345 OA
ATOM     18  C   UNL d   1      -4.289   5.481  -1.283  0.00  0.00     0.218 C 
ENDBRANCH   2   9
BRANCH   1  19
ATOM     19  S   UNL d   1       1.330   0.422  -0.036  0.00  0.00     0.248 S 
ATOM     20  O   UNL d   1       1.317   1.552   0.859  0.00  0.00    -0.206 OA
ATOM     21  O   UNL d   1       0.709  -0.838   0.325  0.00  0.00    -0.206 OA
BRANCH  19  22
ATOM     22  C   UNL d   1       2.976  -0.010  -0.218  0.00  0.00     0.130 A 
ATOM     23  C   UNL d   1       3.488  -1.030  -0.985  0.00  0.00     0.097 A 
ATOM     24  O   UNL d   1       4.833  -1.094  -0.790  0.00  0.00    -0.241 OA
ATOM     25  C   UNL d   1       2.947  -2.035  -1.918  0.00  0.00     0.081 C 
ATOM     26  N   UNL d   1       5.221  -0.110   0.094  0.00  0.00    -0.264 N 
ATOM     27  C   UNL d   1       4.102   0.541   0.439  0.00  0.00     0.054 A 
ATOM     28  HN  UNL d   1       6.168   0.082   0.420  1.00  0.00     0.194 HD
ATOM     29  C   UNL d   1       4.197   1.675   1.387  0.00  0.00     0.072 C 
ENDBRANCH  19  22
ENDBRANCH   1  19
TORSDOF 3
