REMARK  0 active torsions:
REMARK  status: ('A' for Active; 'I' for Inactive)
ROOT
ATOM      1  N   UNL d   1      -0.917   0.480  -0.001  0.00  0.00    -0.315 N 
ATOM      2  C   UNL d   1      -1.697  -0.656  -0.000  0.00  0.00     0.107 A 
ATOM      3  C   UNL d   1      -1.120  -1.975  -0.001  0.00  0.00     0.273 A 
ATOM      4  N   UNL d   1       0.257  -2.010  -0.001  0.00  0.00    -0.320 N 
ATOM      5  C   UNL d   1       0.493   0.417  -0.001  0.00  0.00     0.066 A 
ATOM      6  C   UNL d   1       1.067  -0.864  -0.001  0.00  0.00     0.062 A 
ATOM      7  C   UNL d   1      -1.741   1.583  -0.000  0.00  0.00     0.098 A 
ATOM      8  C   UNL d   1      -3.023  -0.266   0.001  0.00  0.00     0.037 A 
ATOM      9  C   UNL d   1      -3.050   1.147   0.001  0.00  0.00     0.020 A 
ATOM     10  O   UNL d   1      -1.768  -3.018  -0.001  0.00  0.00    -0.266 OA
ATOM     11  C   UNL d   1       1.299   1.557  -0.001  0.00  0.00     0.032 A 
ATOM     12  C   UNL d   1       2.453  -1.005  -0.000  0.00  0.00     0.032 A 
ATOM     13  C   UNL d   1       2.688   1.407  -0.001  0.00  0.00     0.002 A 
ATOM     14  C   UNL d   1       3.263   0.133   0.000  0.00  0.00     0.002 A 
ATOM     15  H   UNL d   1       0.669  -2.932  -0.001  0.00  0.00     0.169 HD
ENDROOT
TORSDOF 0
