REMARK  13 active torsions:
REMARK  status: ('A' for Active; 'I' for Inactive)
REMARK    1  A    between atoms: C_6  and  C_1 
REMARK    2  A    between atoms: C_8  and  C_2 
REMARK    3  A    between atoms: C_7  and  C_3 
REMARK    4  A    between atoms: C_15  and  C_5 
REMARK    5  A    between atoms: O_9  and  C_6 
REMARK    6  A    between atoms: O_16  and  C_7 
REMARK    7  A    between atoms: C_14  and  C_8 
REMARK    8  A    between atoms: C_17  and  O_9 
REMARK    9  A    between atoms: C_10  and  C_14 
REMARK   10  A    between atoms: O_18  and  C_10 
REMARK   11  A    between atoms: C_20  and  O_16 
REMARK   12  A    between atoms: C_19  and  C_17 
REMARK   13  A    between atoms: C_21  and  O_18 
ROOT
ATOM      1  C   UNL d   1       1.075  -0.595  -0.073  0.00  0.00     0.070 A 
ATOM      2  C   UNL d   1       1.145   0.886  -0.046  0.00  0.00    -0.007 A 
ATOM      3  C   UNL d   1      -0.162   1.383  -0.027  0.00  0.00     0.116 A 
ATOM      4  N   UNL d   1      -0.983   0.298   0.029  0.00  0.00    -0.353 N 
ATOM      5  C   UNL d   1      -0.298  -0.890  -0.003  0.00  0.00     0.026 A 
ATOM      6  H   UNL d   1      -1.991   0.384   0.058  0.00  0.00     0.166 HD
ENDROOT
BRANCH   1   7
ATOM      7  C   UNL d   1       2.197  -1.597  -0.148  0.00  0.00     0.296 C 
ATOM      8  O   UNL d   1       2.026  -2.796  -0.301  0.00  0.00    -0.259 OA
BRANCH   7   9
ATOM      9  O   UNL d   1       3.458  -1.073   0.005  0.00  0.00    -0.313 OA
BRANCH   9  10
ATOM     10  C   UNL d   1       4.518  -1.988   0.387  0.00  0.00     0.217 C 
BRANCH  10  11
ATOM     11  C   UNL d   1       5.505  -2.451  -0.678  0.00  0.00    -0.034 A 
ATOM     12  C   UNL d   1       5.232  -2.423  -2.048  0.00  0.00     0.009 A 
ATOM     13  C   UNL d   1       6.184  -2.865  -2.979  0.00  0.00     0.001 A 
ATOM     14  C   UNL d   1       7.422  -3.358  -2.559  0.00  0.00     0.000 A 
ATOM     15  C   UNL d   1       7.699  -3.425  -1.198  0.00  0.00     0.001 A 
ATOM     16  C   UNL d   1       6.750  -2.985  -0.270  0.00  0.00     0.009 A 
ENDBRANCH  10  11
ENDBRANCH   9  10
ENDBRANCH   7   9
ENDBRANCH   1   7
BRANCH   2  17
ATOM     17  C   UNL d   1       2.390   1.739  -0.065  0.00  0.00     0.052 C 
BRANCH  17  18
ATOM     18  C   UNL d   1       2.586   2.490   1.249  0.00  0.00     0.116 C 
BRANCH  18  19
ATOM     19  C   UNL d   1       3.897   3.233   1.291  0.00  0.00     0.259 C 
ATOM     20  O   UNL d   1       4.790   3.160   0.468  0.00  0.00    -0.265 OA
BRANCH  19  21
ATOM     21  O   UNL d   1       3.914   4.002   2.420  0.00  0.00    -0.322 OA
BRANCH  21  22
ATOM     22  C   UNL d   1       5.090   4.793   2.625  0.00  0.00     0.174 C 
ATOM     23  C   UNL d   1       4.994   6.090   1.840  0.00  0.00     0.034 C 
ENDBRANCH  21  22
ENDBRANCH  19  21
ENDBRANCH  18  19
ENDBRANCH  17  18
ENDBRANCH   2  17
BRANCH   5  24
ATOM     24  C   UNL d   1      -1.227  -2.069   0.048  0.00  0.00     0.054 C 
ATOM     25  C   UNL d   1      -0.647  -3.453   0.092  0.00  0.00     0.011 C 
ENDBRANCH   5  24
BRANCH   3  26
ATOM     26  C   UNL d   1      -0.819   2.676  -0.081  0.00  0.00     0.310 C 
ATOM     27  O   UNL d   1      -2.032   2.808  -0.089  0.00  0.00    -0.258 OA
BRANCH  26  28
ATOM     28  O   UNL d   1       0.075   3.693  -0.208  0.00  0.00    -0.317 OA
BRANCH  28  29
ATOM     29  C   UNL d   1      -0.487   4.924  -0.680  0.00  0.00     0.175 C 
ATOM     30  C   UNL d   1      -0.389   4.901  -2.193  0.00  0.00     0.034 C 
ENDBRANCH  28  29
ENDBRANCH  26  28
ENDBRANCH   3  26
TORSDOF 13
