REMARK  4 active torsions:
REMARK  status: ('A' for Active; 'I' for Inactive)
REMARK       I    between atoms: C_2  and  N_1 
REMARK    1  A    between atoms: C_8  and  C_2 
REMARK    2  A    between atoms: N_10  and  C_8 
REMARK    3  A    between atoms: C_15  and  N_10 
REMARK    4  A    between atoms: C_16  and  N_10 
ROOT
ATOM      1  N   UNL d   1      -0.034  -0.825   0.926  0.00  0.00    -0.279 N 
ATOM      2  C   UNL d   1      -0.168  -1.843   1.884  0.00  0.00     0.257 C 
ATOM      3  S   UNL d   1       0.214   2.225   0.587  0.00  0.00    -0.086 SA
ATOM      4  C   UNL d   1      -1.190  -0.168   0.370  0.00  0.00     0.059 A 
ATOM      5  C   UNL d   1       1.212  -0.356   0.414  0.00  0.00     0.059 A 
ATOM      6  C   UNL d   1       1.448   1.006   0.175  0.00  0.00     0.033 A 
ATOM      7  C   UNL d   1      -1.211   1.230   0.189  0.00  0.00     0.033 A 
ATOM      8  O   UNL d   1      -1.242  -2.402   2.144  0.00  0.00    -0.271 OA
ATOM      9  C   UNL d   1      -2.301  -0.908  -0.060  0.00  0.00     0.031 A 
ATOM     10  C   UNL d   1       2.191  -1.287   0.008  0.00  0.00     0.031 A 
ATOM     11  C   UNL d   1      -2.349   1.866  -0.326  0.00  0.00     0.021 A 
ATOM     12  C   UNL d   1       2.649   1.427  -0.403  0.00  0.00     0.021 A 
ATOM     13  C   UNL d   1      -3.406  -0.275  -0.642  0.00  0.00     0.002 A 
ATOM     14  C   UNL d   1       3.393  -0.861  -0.555  0.00  0.00     0.002 A 
ATOM     15  C   UNL d   1       3.624   0.494  -0.759  0.00  0.00     0.002 A 
ATOM     16  C   UNL d   1      -3.441   1.111  -0.748  0.00  0.00     0.002 A 
ENDROOT
BRANCH   2  17
ATOM     17  C   UNL d   1       1.065  -2.225   2.743  0.00  0.00     0.375 C 
BRANCH  17  18
ATOM     18  N   UNL d   1       1.651  -1.085   3.497  0.00  0.00     0.096 N 
BRANCH  18  19
ATOM     19  C   UNL d   1       0.709  -0.517   4.478  0.00  0.00     0.268 C 
ATOM     20  C   UNL d   1       0.320  -1.413   5.653  0.00  0.00     0.037 C 
ENDBRANCH  18  19
BRANCH  18  21
ATOM     21  C   UNL d   1       2.949  -1.482   4.070  0.00  0.00     0.268 C 
ATOM     22  C   UNL d   1       3.703  -0.373   4.799  0.00  0.00     0.037 C 
ENDBRANCH  18  21
ENDBRANCH  17  18
ENDBRANCH   2  17
TORSDOF 4
