REMARK  5 active torsions:
REMARK  status: ('A' for Active; 'I' for Inactive)
REMARK    1  A    between atoms: C_3  and  C_1 
REMARK    2  A    between atoms: C_12  and  C_2 
REMARK    3  A    between atoms: C_10  and  C_5 
REMARK    4  A    between atoms: C_7  and  C_9 
REMARK    5  A    between atoms: C_9  and  C_8 
ROOT
ATOM      1  C   UNL d   1       0.152   1.229   0.025  0.00  0.00     0.100 A 
ATOM      2  C   UNL d   1       1.456   0.751  -0.032  0.00  0.00    -0.003 A 
ATOM      3  S   UNL d   1      -0.989  -0.071   0.050  0.00  0.00    -0.085 SA
ATOM      4  C   UNL d   1       0.221  -1.282   0.044  0.00  0.00     0.006 A 
ATOM      5  C   UNL d   1       1.467  -0.689  -0.019  0.00  0.00     0.032 A 
ENDROOT
BRANCH   4   6
ATOM      6  C   UNL d   1      -0.154  -2.660   0.089  0.00  0.00     0.023 C 
ATOM      7  C   UNL d   1       0.776  -3.626   0.080  0.00  0.00     0.057 C 
BRANCH   7   8
ATOM      8  C   UNL d   1       0.434  -5.083   0.104  0.00  0.00     0.189 C 
ATOM      9  O   UNL d   1      -0.672  -5.442   0.511  0.00  0.00    -0.287 OA
BRANCH   8  10
ATOM     10  C   UNL d   1       1.483  -6.016  -0.287  0.00  0.00     0.054 A 
ATOM     11  S   UNL d   1       2.654  -5.607  -1.479  0.00  0.00    -0.098 SA
ATOM     12  C   UNL d   1       3.439  -7.115  -1.330  0.00  0.00     0.050 A 
ATOM     13  C   UNL d   1       2.813  -7.932  -0.417  0.00  0.00     0.009 A 
ATOM     14  C   UNL d   1       1.671  -7.307   0.166  0.00  0.00     0.023 A 
ENDBRANCH   8  10
ENDBRANCH   7   8
ENDBRANCH   4   6
BRANCH   1  15
ATOM     15  C   UNL d   1      -0.425   2.611   0.062  0.00  0.00     0.424 C 
ATOM     16  F   UNL d   1       0.482   3.591   0.300  0.00  0.00    -0.166 F 
ATOM     17  F   UNL d   1      -1.026   2.926  -1.118  0.00  0.00    -0.166 F 
ATOM     18  F   UNL d   1      -1.375   2.747   1.027  0.00  0.00    -0.166 F 
ENDBRANCH   1  15
BRANCH   2  19
ATOM     19  C   UNL d   1       2.678   1.566  -0.060  0.00  0.00    -0.025 A 
ATOM     20  C   UNL d   1       3.803   1.142   0.671  0.00  0.00     0.012 A 
ATOM     21  C   UNL d   1       4.999   1.863   0.641  0.00  0.00     0.001 A 
ATOM     22  C   UNL d   1       5.082   3.035  -0.103  0.00  0.00     0.000 A 
ATOM     23  C   UNL d   1       3.981   3.465  -0.840  0.00  0.00     0.001 A 
ATOM     24  C   UNL d   1       2.796   2.720  -0.842  0.00  0.00     0.012 A 
ENDBRANCH   2  19
TORSDOF 5
