REMARK  2 active torsions:
REMARK  status: ('A' for Active; 'I' for Inactive)
REMARK    1  A    between atoms: C_8  and  C_3 
REMARK    2  A    between atoms: N_14  and  C_4 
ROOT
ATOM      1  N   UNL d   1       1.470   1.031   0.044  0.00  0.00    -0.331 N 
ATOM      2  HN  UNL d   1       1.904   1.954   0.064  1.00  0.00     0.168 HD
ATOM      3  C   UNL d   1       2.217  -0.090  -0.024  0.00  0.00     0.118 A 
ATOM      4  C   UNL d   1       0.133   0.889   0.082  0.00  0.00     0.101 A 
ATOM      5  C   UNL d   1      -0.475  -0.349   0.062  0.00  0.00     0.098 A 
ATOM      6  N   UNL d   1       1.706  -1.335  -0.068  0.00  0.00    -0.350 N 
ATOM      7  HN  UNL d   1       2.303  -2.159  -0.133  1.00  0.00     0.166 HD
ATOM      8  C   UNL d   1      -1.887  -0.528   0.106  0.00  0.00     0.104 C 
ATOM      9  N   UNL d   1      -3.036  -0.690   0.111  0.00  0.00    -0.191 NA
ATOM     10  C   UNL d   1       0.364  -1.435  -0.023  0.00  0.00     0.115 A 
ENDROOT
BRANCH   4  11
ATOM     11  N   UNL d   1      -0.583   2.075   0.238  0.00  0.00    -0.287 NA
ATOM     12  H   UNL d   1       0.053   2.865   0.147  0.00  0.00     0.125 HD
ATOM     13  H   UNL d   1      -1.401   2.166  -0.354  0.00  0.00     0.125 HD
ENDBRANCH   4  11
BRANCH   3  14
ATOM     14  C   UNL d   1       3.678   0.045  -0.030  0.00  0.00     0.023 A 
ATOM     15  C   UNL d   1       4.305   1.290   0.039  0.00  0.00     0.102 A 
ATOM     16  N   UNL d   1       5.649   1.489   0.042  0.00  0.00    -0.374 N 
ATOM     17  C   UNL d   1       6.425   0.388  -0.024  0.00  0.00     0.087 A 
ATOM     18  HN  UNL d   1       6.052   2.425   0.093  1.00  0.00     0.164 HD
ATOM     19  C   UNL d   1       5.921  -0.898  -0.094  0.00  0.00     0.018 A 
ATOM     20  C   UNL d   1       4.537  -1.064  -0.097  0.00  0.00     0.018 A 
ENDBRANCH   3  14
TORSDOF 2
