REMARK  6 active torsions:
REMARK  status: ('A' for Active; 'I' for Inactive)
REMARK    1  A    between atoms: C_8  and  C_1 
REMARK    2  A    between atoms: C_17  and  N_5 
REMARK    3  A    between atoms: C_9  and  C_7 
REMARK    4  A    between atoms: C_11  and  C_8 
REMARK    5  A    between atoms: O_28  and  C_16 
REMARK    6  A    between atoms: O_29  and  C_20 
ROOT
ATOM      1  C   UNL d   1       1.123   0.487   0.158  0.00  0.00     0.143 A 
ATOM      2  C   UNL d   1      -1.222   0.039  -0.166  0.00  0.00     0.102 A 
ATOM      3  N   UNL d   1       0.953  -0.789   0.294  0.00  0.00    -0.282 N 
ATOM      4  HN  UNL d   1       1.687  -1.472   0.483  1.00  0.00     0.188 HD
ATOM      5  N   UNL d   1      -0.412  -1.073   0.137  0.00  0.00    -0.249 N 
ATOM      6  S   UNL d   1      -0.224   1.515  -0.184  0.00  0.00    -0.047 SA
ATOM      7  C   UNL d   1      -2.523   0.069  -0.522  0.00  0.00     0.069 C 
ENDROOT
BRANCH   7   8
ATOM      8  C   UNL d   1      -3.308   1.318  -0.768  0.00  0.00     0.041 C 
ATOM      9  C   UNL d   1      -4.316   1.324  -1.880  0.00  0.00    -0.001 A 
ATOM     10  C   UNL d   1      -4.448   0.314  -2.842  0.00  0.00     0.054 A 
ATOM     11  C   UNL d   1      -5.182   2.423  -1.935  0.00  0.00    -0.041 A 
ATOM     12  C   UNL d   1      -5.389   0.417  -3.891  0.00  0.00     0.102 A 
ATOM     13  C   UNL d   1      -6.185   1.565  -3.995  0.00  0.00     0.102 A 
ATOM     14  C   UNL d   1      -6.087   2.545  -2.996  0.00  0.00     0.047 A 
ATOM     15  C   UNL d   1      -5.162   3.432  -0.822  0.00  0.00     0.059 C 
ATOM     16  C   UNL d   1      -3.739   3.607  -0.330  0.00  0.00     0.124 C 
ATOM     17  N   UNL d   1      -3.121   2.329   0.019  0.00  0.00    -0.389 N 
ATOM     18  HN  UNL d   1      -2.556   2.236   0.863  1.00  0.00     0.159 HD
BRANCH  12  19
ATOM     19  O   UNL d   1      -5.480  -0.723  -4.641  0.00  0.00    -0.353 OA
ATOM     20  C   UNL d   1      -5.389  -0.592  -6.051  0.00  0.00     0.210 C 
ENDBRANCH  12  19
BRANCH  13  21
ATOM     21  O   UNL d   1      -7.004   1.950  -5.015  0.00  0.00    -0.353 OA
ATOM     22  C   UNL d   1      -7.956   1.029  -5.516  0.00  0.00     0.210 C 
ENDBRANCH  13  21
ENDBRANCH   7   8
BRANCH   5  23
ATOM     23  C   UNL d   1      -0.799  -2.413   0.415  0.00  0.00     0.057 A 
ATOM     24  C   UNL d   1      -2.047  -2.741   0.971  0.00  0.00     0.032 A 
ATOM     25  C   UNL d   1      -2.410  -4.070   1.219  0.00  0.00     0.009 A 
ATOM     26  C   UNL d   1      -1.524  -5.114   0.945  0.00  0.00    -0.062 A 
ATOM     27  C   UNL d   1      -0.267  -4.808   0.424  0.00  0.00     0.009 A 
ATOM     28  C   UNL d   1      -1.931  -6.531   1.221  0.00  0.00     0.048 C 
ATOM     29  C   UNL d   1       0.089  -3.478   0.171  0.00  0.00     0.032 A 
ENDBRANCH   5  23
BRANCH   1  30
ATOM     30  C   UNL d   1       2.382   1.299   0.164  0.00  0.00     0.224 C 
ATOM     31  O   UNL d   1       2.474   2.242   0.934  0.00  0.00    -0.284 OA
BRANCH  30  32
ATOM     32  C   UNL d   1       3.412   0.854  -0.766  0.00  0.00     0.057 A 
ATOM     33  S   UNL d   1       4.821   1.821  -0.961  0.00  0.00    -0.098 SA
ATOM     34  C   UNL d   1       5.518   0.715  -2.060  0.00  0.00     0.050 A 
ATOM     35  C   UNL d   1       4.699  -0.364  -2.295  0.00  0.00     0.009 A 
ATOM     36  C   UNL d   1       3.478  -0.275  -1.565  0.00  0.00     0.023 A 
ENDBRANCH  30  32
ENDBRANCH   1  30
TORSDOF 6
