REMARK  5 active torsions:
REMARK  status: ('A' for Active; 'I' for Inactive)
REMARK    1  A    between atoms: C_5  and  N_1 
REMARK    2  A    between atoms: N_3  and  C_5 
REMARK    3  A    between atoms: C_8  and  C_5 
REMARK    4  A    between atoms: C_9  and  C_6 
REMARK    5  A    between atoms: C_10  and  C_7 
ROOT
ATOM      1  C   UNL d   1       0.289   1.142  -0.115  0.00  0.00     0.215 C 
ENDROOT
BRANCH   1   2
ATOM      2  N   UNL d   1       0.598   1.961  -1.292  0.00  0.00    -0.374 N 
ATOM      3  C   UNL d   1       1.128   3.109  -1.053  0.00  0.00     0.096 C 
ATOM      4  HN  UNL d   1       0.405   1.640  -2.241  1.00  0.00     0.161 HD
BRANCH   3   5
ATOM      5  C   UNL d   1       1.462   4.033  -2.156  0.00  0.00    -0.021 A 
ATOM      6  C   UNL d   1       1.193   3.676  -3.481  0.00  0.00     0.013 A 
ATOM      7  C   UNL d   1       1.507   4.555  -4.516  0.00  0.00     0.001 A 
ATOM      8  C   UNL d   1       2.089   5.790  -4.226  0.00  0.00     0.000 A 
ATOM      9  C   UNL d   1       2.357   6.147  -2.903  0.00  0.00     0.001 A 
ATOM     10  C   UNL d   1       2.043   5.269  -1.863  0.00  0.00     0.013 A 
ENDBRANCH   3   5
ENDBRANCH   1   2
BRANCH   1  11
ATOM     11  N   UNL d   1       1.078  -0.099  -0.201  0.00  0.00    -0.374 N 
ATOM     12  C   UNL d   1       0.835  -0.814  -1.248  0.00  0.00     0.096 C 
ATOM     13  HN  UNL d   1       1.759  -0.372   0.508  1.00  0.00     0.161 HD
BRANCH  12  14
ATOM     14  C   UNL d   1       1.542  -2.082  -1.511  0.00  0.00    -0.021 A 
ATOM     15  C   UNL d   1       2.549  -2.530  -0.652  0.00  0.00     0.013 A 
ATOM     16  C   UNL d   1       3.213  -3.726  -0.925  0.00  0.00     0.001 A 
ATOM     17  C   UNL d   1       2.869  -4.473  -2.053  0.00  0.00     0.000 A 
ATOM     18  C   UNL d   1       1.861  -4.027  -2.909  0.00  0.00     0.001 A 
ATOM     19  C   UNL d   1       1.195  -2.830  -2.640  0.00  0.00     0.013 A 
ENDBRANCH  12  14
ENDBRANCH   1  11
BRANCH   1  20
ATOM     20  C   UNL d   1      -1.205   0.886   0.061  0.00  0.00    -0.016 A 
ATOM     21  C   UNL d   1      -2.160   1.424  -0.817  0.00  0.00     0.011 A 
ATOM     22  C   UNL d   1      -3.521   1.169  -0.637  0.00  0.00     0.001 A 
ATOM     23  C   UNL d   1      -3.947   0.377   0.426  0.00  0.00     0.000 A 
ATOM     24  C   UNL d   1      -3.014  -0.161   1.310  0.00  0.00     0.001 A 
ATOM     25  C   UNL d   1      -1.653   0.093   1.130  0.00  0.00     0.011 A 
ENDBRANCH   1  20
TORSDOF 5
