REMARK  5 active torsions:
REMARK  status: ('A' for Active; 'I' for Inactive)
REMARK    1  A    between atoms: C_6  and  C_1 
REMARK    2  A    between atoms: C_5  and  CA_8 
REMARK    3  A    between atoms: OXT_14  and  C_5 
REMARK    4  A    between atoms: CA_8  and  C_6 
REMARK    5  A    between atoms: N_13  and  CA_8 
ROOT
ATOM      1  C   UNL d   1      -2.798  -1.425  -0.097  0.00  0.00    -0.028 A 
ATOM      2  C   UNL d   1      -1.669  -0.549  -0.209  0.00  0.00    -0.001 A 
ATOM      3  N   UNL d   1      -3.525   0.684  -0.078  0.00  0.00    -0.365 N 
ATOM      4  C   UNL d   1      -3.921  -0.624  -0.041  0.00  0.00     0.096 A 
ATOM      5  C   UNL d   1      -2.152   0.759  -0.133  0.00  0.00     0.043 A 
ATOM      6  C   UNL d   1      -0.277  -0.746  -0.315  0.00  0.00     0.033 A 
ATOM      7  C   UNL d   1      -1.315   1.880  -0.121  0.00  0.00     0.031 A 
ATOM      8  C   UNL d   1       0.570   0.368  -0.298  0.00  0.00     0.011 A 
ATOM      9  C   UNL d   1       0.063   1.660  -0.194  0.00  0.00     0.021 A 
ATOM     10 BR   UNL d   1       2.442   0.108  -0.398  0.00  0.00    -0.051 Br
ATOM     11  H   UNL d   1      -4.144   1.483  -0.042  0.00  0.00     0.165 HD
ENDROOT
BRANCH   1  12
ATOM     12  C   UNL d   1      -2.792  -2.923  -0.001  0.00  0.00     0.087 C 
BRANCH  12  13
ATOM     13  CA  UNL d   1      -2.049  -3.466   1.231  0.00  0.00     0.318 C 
BRANCH  13  14
ATOM     14  C   UNL d   1      -2.715  -3.046   2.555  0.00  0.00     0.174 C 
ATOM     15  O   UNL d   1      -3.358  -3.816   3.264  0.00  0.00    -0.648 OA
BRANCH  14  16
ATOM     16  OXT UNL d   1      -2.494  -1.766   2.927  0.00  0.00    -0.775 OA
ATOM     17  HXT UNL d   1      -1.994  -1.235   2.274  0.00  0.00     0.167 HD
ENDBRANCH  14  16
ENDBRANCH  13  14
BRANCH  13  18
ATOM     18  N   UNL d   1      -2.007  -4.954   1.156  0.00  0.00     0.093 N 
ATOM     19  H1  UNL d   1      -2.963  -5.293   1.304  0.00  0.00     0.314 HD
ATOM     20  H2  UNL d   1      -1.514  -5.297   1.986  0.00  0.00     0.314 HD
ENDBRANCH  13  18
ENDBRANCH  12  13
ENDBRANCH   1  12
TORSDOF 5
