REMARK  12 active torsions:
REMARK  status: ('A' for Active; 'I' for Inactive)
REMARK       I    between atoms: C_4  and  N_1 
REMARK    1  A    between atoms: C_2  and  C_6 
REMARK    2  A    between atoms: C_12  and  C_5 
REMARK    3  A    between atoms: O_10  and  C_6 
REMARK    4  A    between atoms: C_13  and  C_12 
REMARK    5  A    between atoms: C_20  and  C_13 
REMARK    6  A    between atoms: C_14  and  C_15 
REMARK    7  A    between atoms: C_15  and  C_19 
REMARK    8  A    between atoms: C_16  and  C_21 
REMARK    9  A    between atoms: C_17  and  C_16 
REMARK   10  A    between atoms: C_18  and  C_17 
REMARK   11  A    between atoms: C_19  and  C_18 
REMARK   12  A    between atoms: C_21  and  C_20 
ROOT
ATOM      1  N   UNL d   1      -1.058  -0.869   0.334  0.00  0.00    -0.324 N 
ATOM      2  C   UNL d   1      -1.027   0.613   0.443  0.00  0.00     0.195 C 
ATOM      3  S   UNL d   1       1.466  -0.311   0.168  0.00  0.00    -0.141 SA
ATOM      4  C   UNL d   1      -2.077  -1.570   0.938  0.00  0.00     0.217 C 
ATOM      5  C   UNL d   1       0.127  -1.439  -0.302  0.00  0.00     0.150 C 
ATOM      6  C   UNL d   1       0.381   1.133   0.118  0.00  0.00     0.112 C 
ATOM      7  O   UNL d   1      -3.016  -0.956   1.450  0.00  0.00    -0.274 OA
ATOM      8  C   UNL d   1      -2.107  -3.079   0.916  0.00  0.00     0.117 C 
ENDROOT
BRANCH   5   9
ATOM      9  C   UNL d   1       0.004  -1.489  -1.839  0.00  0.00     0.036 C 
BRANCH   9  10
ATOM     10  C   UNL d   1      -1.109  -2.438  -2.271  0.00  0.00     0.003 C 
BRANCH  10  11
ATOM     11  C   UNL d   1      -1.340  -2.471  -3.780  0.00  0.00     0.000 C 
BRANCH  11  12
ATOM     12  C   UNL d   1      -2.486  -3.420  -4.151  0.00  0.00     0.000 C 
BRANCH  12  13
ATOM     13  C   UNL d   1      -3.818  -3.001  -3.525  0.00  0.00     0.000 C 
BRANCH  13  14
ATOM     14  C   UNL d   1      -4.952  -3.953  -3.882  0.00  0.00     0.000 C 
BRANCH  14  15
ATOM     15  C   UNL d   1      -6.240  -3.502  -3.197  0.00  0.00     0.000 C 
BRANCH  15  16
ATOM     16  C   UNL d   1      -7.391  -4.449  -3.513  0.00  0.00     0.000 C 
BRANCH  16  17
ATOM     17  C   UNL d   1      -8.679  -3.980  -2.841  0.00  0.00    -0.000 C 
BRANCH  17  18
ATOM     18  C   UNL d   1      -9.836  -4.920  -3.167  0.00  0.00    -0.005 C 
ATOM     19  C   UNL d   1     -11.123  -4.457  -2.507  0.00  0.00     0.005 C 
ENDBRANCH  17  18
ENDBRANCH  16  17
ENDBRANCH  15  16
ENDBRANCH  14  15
ENDBRANCH  13  14
ENDBRANCH  12  13
ENDBRANCH  11  12
ENDBRANCH  10  11
ENDBRANCH   9  10
ENDBRANCH   5   9
BRANCH   2  20
ATOM     20  C   UNL d   1      -2.063   1.311  -0.463  0.00  0.00     0.164 C 
ATOM     21  O   UNL d   1      -1.816   2.272  -1.179  0.00  0.00    -0.648 OA
BRANCH  20  22
ATOM     22  O   UNL d   1      -3.329   0.849  -0.339  0.00  0.00    -0.775 OA
ATOM     23  H   UNL d   1      -3.430   0.190   0.391  0.00  0.00     0.167 HD
ENDBRANCH  20  22
ENDBRANCH   2  20
TORSDOF 12
