REMARK  7 active torsions:
REMARK  status: ('A' for Active; 'I' for Inactive)
REMARK       I    between atoms: C_2  and  N_1 
REMARK    1  A    between atoms: C_3  and  N_1 
REMARK    2  A    between atoms: C_5  and  C_2 
REMARK    3  A    between atoms: C_6  and  C_3 
REMARK    4  A    between atoms: C_7  and  C_3 
REMARK    5  A    between atoms: O_8  and  C_7 
REMARK    6  A    between atoms: C_13  and  C_7 
REMARK    7  A    between atoms: C_14  and  C_13 
ROOT
ATOM      1  C   UNL d   1       2.468  -0.101  -0.041  0.00  0.00     0.146 C 
ENDROOT
BRANCH   1   2
ATOM      2  N   UNL d   1       1.010  -0.127  -0.164  0.00  0.00    -0.346 N 
ATOM      3  C   UNL d   1       0.337   0.743  -0.997  0.00  0.00     0.252 C 
ATOM      4  O   UNL d   1       0.886   1.604  -1.676  0.00  0.00    -0.268 OA
ATOM      5  H   UNL d   1       0.482  -0.617   0.543  0.00  0.00     0.163 HD
BRANCH   3   6
ATOM      6  C   UNL d   1      -1.142   0.594  -1.044  0.00  0.00     0.032 A 
ATOM      7  C   UNL d   1      -1.921   1.721  -1.331  0.00  0.00     0.017 A 
ATOM      8  C   UNL d   1      -3.309   1.609  -1.421  0.00  0.00     0.001 A 
ATOM      9  C   UNL d   1      -3.921   0.370  -1.237  0.00  0.00     0.000 A 
ATOM     10  C   UNL d   1      -3.149  -0.759  -0.963  0.00  0.00     0.001 A 
ATOM     11  C   UNL d   1      -1.760  -0.651  -0.868  0.00  0.00     0.017 A 
ENDBRANCH   3   6
ENDBRANCH   1   2
BRANCH   1  12
ATOM     12  C   UNL d   1       2.869   0.195   1.399  0.00  0.00    -0.033 A 
ATOM     13  C   UNL d   1       2.453  -0.604   2.478  0.00  0.00     0.009 A 
ATOM     14  C   UNL d   1       2.827  -0.290   3.786  0.00  0.00     0.001 A 
ATOM     15  C   UNL d   1       3.624   0.823   4.036  0.00  0.00     0.000 A 
ATOM     16  C   UNL d   1       4.049   1.624   2.980  0.00  0.00     0.001 A 
ATOM     17  C   UNL d   1       3.674   1.312   1.672  0.00  0.00     0.009 A 
ENDBRANCH   1  12
BRANCH   1  18
ATOM     18  C   UNL d   1       3.120  -1.399  -0.616  0.00  0.00     0.145 C 
BRANCH  18  19
ATOM     19  O   UNL d   1       2.686  -2.568   0.101  0.00  0.00    -0.393 OA
ATOM     20  H   UNL d   1       1.720  -2.515   0.164  0.00  0.00     0.210 HD
ENDBRANCH  18  19
BRANCH  18  21
ATOM     21  C   UNL d   1       2.804  -1.652  -2.104  0.00  0.00     0.034 C 
BRANCH  21  22
ATOM     22  C   UNL d   1       3.336  -0.573  -3.047  0.00  0.00    -0.002 C 
ATOM     23  C   UNL d   1       2.976  -0.866  -4.496  0.00  0.00     0.005 C 
ENDBRANCH  21  22
ENDBRANCH  18  21
ENDBRANCH   1  18
TORSDOF 7
