REMARK  5 active torsions:
REMARK  status: ('A' for Active; 'I' for Inactive)
REMARK    1  A    between atoms: N_7  and  N_1 
REMARK    2  A    between atoms: C_8  and  N_7 
REMARK    3  A    between atoms: N_15  and  C_8 
REMARK    4  A    between atoms: C_12  and  C_19 
REMARK    5  A    between atoms: C_19  and  N_15 
ROOT
ATOM      1  N   UNL d   1      -0.689   1.065  -0.235  0.00  0.00    -0.222 N 
ATOM      2  C   UNL d   1      -0.552  -1.415  -0.208  0.00  0.00     0.120 A 
ATOM      3  C   UNL d   1      -1.378  -0.165  -0.271  0.00  0.00     0.288 A 
ATOM      4  C   UNL d   1       0.794  -1.302  -0.098  0.00  0.00    -0.034 A 
ATOM      5  C   UNL d   1       0.689   1.139  -0.043  0.00  0.00     0.034 A 
ATOM      6  C   UNL d   1       1.410   0.004  -0.013  0.00  0.00     0.035 A 
ATOM      7  C   UNL d   1      -1.213  -2.674  -0.170  0.00  0.00     0.105 C 
ATOM      8  N   UNL d   1      -1.689  -3.727  -0.112  0.00  0.00    -0.191 NA
ATOM      9  O   UNL d   1      -2.610  -0.232  -0.276  0.00  0.00    -0.265 OA
ATOM     10  C   UNL d   1       1.730  -2.480   0.004  0.00  0.00     0.050 C 
ATOM     11  C   UNL d   1       1.414   2.439   0.154  0.00  0.00     0.070 C 
ENDROOT
BRANCH   1  12
ATOM     12  N   UNL d   1      -1.516   2.163   0.098  0.00  0.00    -0.267 N 
ATOM     13  H   UNL d   1      -2.437   1.845   0.416  0.00  0.00     0.190 HD
BRANCH  12  14
ATOM     14  C   UNL d   1      -1.593   3.369  -0.560  0.00  0.00     0.187 C 
ATOM     15  S   UNL d   1      -0.945   3.785  -2.039  0.00  0.00    -0.040 SA
BRANCH  14  16
ATOM     16  N   UNL d   1      -2.245   4.342   0.168  0.00  0.00    -0.361 N 
ATOM     17  H   UNL d   1      -2.249   5.263  -0.255  0.00  0.00     0.162 HD
BRANCH  16  18
ATOM     18  C   UNL d   1      -2.581   4.259   1.583  0.00  0.00     0.168 C 
BRANCH  18  19
ATOM     19  C   UNL d   1      -3.930   3.634   1.747  0.00  0.00     0.000 A 
ATOM     20  S   UNL d   1      -4.098   2.148   2.588  0.00  0.00    -0.105 SA
ATOM     21  C   UNL d   1      -5.792   2.134   2.359  0.00  0.00     0.050 A 
ATOM     22  C   UNL d   1      -6.228   3.240   1.666  0.00  0.00     0.008 A 
ATOM     23  C   UNL d   1      -5.154   4.106   1.312  0.00  0.00     0.017 A 
ENDBRANCH  18  19
ENDBRANCH  16  18
ENDBRANCH  14  16
ENDBRANCH  12  14
ENDBRANCH   1  12
TORSDOF 5
