REMARK  4 active torsions:
REMARK  status: ('A' for Active; 'I' for Inactive)
REMARK    1  A    between atoms: C_4  and  C_1 
REMARK    2  A    between atoms: C_5  and  C_9 
REMARK    3  A    between atoms: C_14  and  C_10 
REMARK    4  A    between atoms: O_25  and  C_14 
ROOT
ATOM      1  C   UNL d   1      -0.018  -1.004  -0.639  0.00  0.00     0.120 C 
ATOM      2  C   UNL d   1       1.236  -0.254  -0.215  0.00  0.00     0.025 C 
ATOM      3  C   UNL d   1      -1.264  -0.244  -0.200  0.00  0.00     0.025 C 
ATOM      4  C   UNL d   1      -1.224   1.089   0.009  0.00  0.00     0.020 C 
ATOM      5  C   UNL d   1       1.209   1.081  -0.017  0.00  0.00     0.020 C 
ATOM      6  N   UNL d   1      -0.006   1.753  -0.044  0.00  0.00    -0.362 N 
ATOM      7  C   UNL d   1      -2.522  -1.008   0.009  0.00  0.00     0.158 C 
ATOM      8  C   UNL d   1       2.486  -1.026   0.004  0.00  0.00     0.158 C 
ATOM      9  O   UNL d   1      -2.550  -2.227  -0.128  0.00  0.00    -0.293 OA
ATOM     10  O   UNL d   1       2.497  -2.250  -0.099  0.00  0.00    -0.293 OA
ATOM     11  C   UNL d   1       2.454   1.895   0.227  0.00  0.00     0.058 C 
ATOM     12  C   UNL d   1      -2.456   1.907   0.295  0.00  0.00     0.058 C 
ATOM     13  C   UNL d   1      -3.735  -0.248   0.499  0.00  0.00     0.084 C 
ATOM     14  C   UNL d   1       3.699  -0.271   0.502  0.00  0.00     0.084 C 
ATOM     15  C   UNL d   1       3.736   1.125  -0.093  0.00  0.00     0.014 C 
ATOM     16  C   UNL d   1      -3.743   1.165  -0.062  0.00  0.00     0.014 C 
ATOM     17  H   UNL d   1       0.003   2.750   0.148  0.00  0.00     0.165 HD
ENDROOT
BRANCH   1  18
ATOM     18  C   UNL d   1      -0.061  -1.223  -2.137  0.00  0.00     0.067 A 
ATOM     19  O   UNL d   1       0.403  -0.204  -2.924  0.00  0.00    -0.313 OA
ATOM     20  C   UNL d   1       0.197  -0.541  -4.227  0.00  0.00     0.087 A 
ATOM     21  C   UNL d   1      -0.406  -1.787  -4.271  0.00  0.00     0.040 A 
ATOM     22  C   UNL d   1      -0.571  -2.224  -2.933  0.00  0.00     0.036 A 
BRANCH  20  23
ATOM     23  C   UNL d   1       0.516   0.334  -5.406  0.00  0.00     0.021 A 
ATOM     24  C   UNL d   1       1.146   1.572  -5.345  0.00  0.00     0.093 A 
ATOM     25  S   UNL d   1       1.245   2.284  -6.918  0.00  0.00    -0.095 SA
ATOM     26  C   UNL d   1       0.479   0.961  -7.660  0.00  0.00     0.051 A 
ATOM     27  C   UNL d   1       0.151  -0.014  -6.749  0.00  0.00     0.023 A 
BRANCH  24  28
ATOM     28  C   UNL d   1       1.745   2.283  -4.226  0.00  0.00     0.300 C 
ATOM     29  O   UNL d   1       2.329   1.786  -3.272  0.00  0.00    -0.259 OA
BRANCH  28  30
ATOM     30  O   UNL d   1       1.610   3.637  -4.399  0.00  0.00    -0.322 OA
ATOM     31  C   UNL d   1       2.235   4.441  -3.400  0.00  0.00     0.213 C 
ENDBRANCH  28  30
ENDBRANCH  24  28
ENDBRANCH  20  23
ENDBRANCH   1  18
TORSDOF 4
