REMARK  5 active torsions:
REMARK  status: ('A' for Active; 'I' for Inactive)
REMARK    1  A    between atoms: C_7  and  N_1 
REMARK    2  A    between atoms: S_12  and  C_2 
REMARK    3  A    between atoms: C_9  and  C_7 
REMARK    4  A    between atoms: N_11  and  C_8 
REMARK    5  A    between atoms: C_15  and  N_11 
ROOT
ATOM      1  N   UNL d   1       1.387  -1.063  -0.174  0.00  0.00    -0.288 N 
ATOM      2  C   UNL d   1       0.071  -1.373  -0.036  0.00  0.00     0.149 A 
ATOM      3  C   UNL d   1       0.069   0.727  -0.082  0.00  0.00     0.118 A 
ATOM      4  C   UNL d   1       1.482   0.296  -0.234  0.00  0.00     0.278 A 
ATOM      5  N   UNL d   1      -0.754  -0.371   0.027  0.00  0.00    -0.331 N 
ATOM      6  HN  UNL d   1      -1.768  -0.393   0.132  1.00  0.00     0.168 HD
ATOM      7  C   UNL d   1      -0.279   2.016  -0.034  0.00  0.00     0.123 C 
ATOM      8  O   UNL d   1       2.463   1.002  -0.365  0.00  0.00    -0.265 OA
ENDROOT
BRANCH   7   9
ATOM      9  N   UNL d   1      -1.541   2.529   0.137  0.00  0.00    -0.364 N 
ATOM     10  H   UNL d   1      -2.271   1.828   0.235  0.00  0.00     0.165 HD
BRANCH   9  11
ATOM     11  C   UNL d   1      -1.937   3.873   0.235  0.00  0.00     0.031 A 
ATOM     12  C   UNL d   1      -1.061   4.953   0.059  0.00  0.00     0.029 A 
ATOM     13  C   UNL d   1      -1.502   6.274   0.189  0.00  0.00     0.002 A 
ATOM     14  C   UNL d   1      -2.831   6.540   0.499  0.00  0.00     0.000 A 
ATOM     15  C   UNL d   1      -3.719   5.484   0.678  0.00  0.00     0.002 A 
ATOM     16  C   UNL d   1      -3.274   4.164   0.547  0.00  0.00     0.029 A 
ENDBRANCH   9  11
ENDBRANCH   7   9
BRANCH   1  17
ATOM     17  C   UNL d   1       2.557  -1.924  -0.251  0.00  0.00     0.174 C 
BRANCH  17  18
ATOM     18  C   UNL d   1       3.198  -2.272   1.081  0.00  0.00    -0.018 A 
ATOM     19  C   UNL d   1       4.345  -3.090   1.114  0.00  0.00     0.042 A 
ATOM     20 CL   UNL d   1       5.069  -3.696  -0.335  0.00  0.00    -0.084 Cl
ATOM     21  C   UNL d   1       4.946  -3.443   2.327  0.00  0.00     0.024 A 
ATOM     22  C   UNL d   1       4.418  -2.982   3.531  0.00  0.00     0.002 A 
ATOM     23  C   UNL d   1       3.296  -2.160   3.520  0.00  0.00     0.001 A 
ATOM     24  C   UNL d   1       2.693  -1.806   2.309  0.00  0.00     0.010 A 
ENDBRANCH  17  18
ENDBRANCH   1  17
BRANCH   2  25
ATOM     25  S   UNL d   1      -0.420  -3.031   0.058  0.00  0.00    -0.098 SA
ATOM     26  C   UNL d   1      -2.212  -2.850   0.163  0.00  0.00     0.099 C 
ENDBRANCH   2  25
TORSDOF 5
