REMARK  2 active torsions:
REMARK  status: ('A' for Active; 'I' for Inactive)
REMARK    1  A    between atoms: C_2  and  C_1 
REMARK       I    between atoms: N_9  and  C_2 
REMARK    2  A    between atoms: C_3  and  N_10 
ROOT
ATOM      1  C   UNL d   1       0.207   3.019   0.190  0.00  0.00     0.256 C 
ATOM      2  N   UNL d   1      -1.168   3.160  -0.074  0.00  0.00    -0.345 N 
ATOM      3  N   UNL d   1      -3.971   4.058  -0.539  0.00  0.00     0.105 N 
ATOM      4  O   UNL d   1       1.069   3.352  -0.625  0.00  0.00    -0.267 OA
ATOM      5  C   UNL d   1      -2.212   3.014   0.942  0.00  0.00     0.156 C 
ATOM      6  C   UNL d   1      -1.505   3.900  -1.294  0.00  0.00     0.156 C 
ATOM      7  C   UNL d   1      -3.007   4.052  -1.644  0.00  0.00     0.293 C 
ATOM      8  C   UNL d   1      -3.637   2.969   0.389  0.00  0.00     0.293 C 
ENDROOT
BRANCH   1   9
ATOM      9  C   UNL d   1       0.670   2.479   1.498  0.00  0.00     0.069 A 
ATOM     10  C   UNL d   1       1.591   1.417   1.548  0.00  0.00     0.096 A 
ATOM     11  C   UNL d   1       2.032   0.917   2.784  0.00  0.00     0.003 A 
ATOM     12  O   UNL d   1       2.037   0.863   0.376  0.00  0.00    -0.325 OA
ATOM     13  C   UNL d   1       3.050  -0.185   2.832  0.00  0.00     0.212 C 
ATOM     14  C   UNL d   1       1.561   1.493   3.969  0.00  0.00     0.054 A 
ATOM     15  O   UNL d   1       3.191  -0.824   1.571  0.00  0.00    -0.362 OA
ATOM     16  C   UNL d   1       3.262   0.152   0.540  0.00  0.00     0.345 C 
ATOM     17  C   UNL d   1       0.701   2.580   3.908  0.00  0.00     0.118 A 
ATOM     18  C   UNL d   1       0.282   3.099   2.691  0.00  0.00     0.062 A 
ATOM     19  F   UNL d   1       0.276   3.147   5.045  0.00  0.00    -0.206 F 
ENDBRANCH   1   9
BRANCH   3  20
ATOM     20  C   UNL d   1      -4.308   5.379   0.030  0.00  0.00     0.290 C 
ATOM     21  C   UNL d   1      -5.307   5.271   1.190  0.00  0.00    -0.009 A 
ATOM     22  C   UNL d   1      -4.747   5.801   2.373  0.00  0.00    -0.017 A 
ATOM     23  C   UNL d   1      -6.585   4.724   1.182  0.00  0.00     0.010 A 
ATOM     24  C   UNL d   1      -5.456   5.780   3.562  0.00  0.00     0.013 A 
ATOM     25  C   UNL d   1      -3.444   6.353   2.067  0.00  0.00    -0.017 A 
ATOM     26  C   UNL d   1      -6.739   5.221   3.562  0.00  0.00     0.001 A 
ATOM     27  C   UNL d   1      -7.298   4.701   2.381  0.00  0.00     0.001 A 
ATOM     28  C   UNL d   1      -3.195   6.195   0.685  0.00  0.00    -0.009 A 
ATOM     29  C   UNL d   1      -2.535   7.006   2.884  0.00  0.00     0.013 A 
ATOM     30  C   UNL d   1      -2.108   6.825   0.097  0.00  0.00     0.010 A 
ATOM     31  C   UNL d   1      -1.186   7.478   0.917  0.00  0.00     0.001 A 
ATOM     32  C   UNL d   1      -1.386   7.548   2.303  0.00  0.00     0.001 A 
ENDBRANCH   3  20
TORSDOF 2
