REMARK  4 active torsions:
REMARK  status: ('A' for Active; 'I' for Inactive)
REMARK    1  A    between atoms: C_5  and  C_1 
REMARK       I    between atoms: C_2  and  N_3 
REMARK    2  A    between atoms: C_6  and  C_2 
REMARK    3  A    between atoms: N_3  and  C_4 
REMARK    4  A    between atoms: O_16  and  C_5 
ROOT
ATOM      1  C   UNL d   1       2.901  -2.122  -0.939  0.00  0.00     0.256 C 
ATOM      2  N   UNL d   1       1.524  -1.985  -0.933  0.00  0.00    -0.322 N 
ATOM      3  O   UNL d   1       3.501  -3.028  -1.520  0.00  0.00    -0.267 OA
ATOM      4  H   UNL d   1       1.144  -1.043  -0.850  0.00  0.00     0.169 HD
ENDROOT
BRANCH   1   5
ATOM      5  C   UNL d   1       3.707  -1.133  -0.169  0.00  0.00     0.035 C 
ATOM      6  C   UNL d   1       5.097  -1.338  -0.142  0.00  0.00     0.056 C 
ATOM      7  C   UNL d   1       5.873  -0.689   0.806  0.00  0.00     0.103 C 
ATOM      8  O   UNL d   1       7.224  -0.890   0.797  0.00  0.00    -0.348 OA
ATOM      9  C   UNL d   1       5.266   0.172   1.718  0.00  0.00     0.102 C 
ATOM     10  C   UNL d   1       7.648  -1.740   1.863  0.00  0.00     0.178 C 
ATOM     11  C   UNL d   1       7.682  -1.033   3.215  0.00  0.00     0.053 C 
ATOM     12  C   UNL d   1       6.310  -0.520   3.629  0.00  0.00     0.178 C 
ATOM     13  O   UNL d   1       5.923   0.616   2.834  0.00  0.00    -0.348 OA
ATOM     14  C   UNL d   1       3.928   0.529   1.573  0.00  0.00     0.040 C 
ATOM     15  C   UNL d   1       3.138  -0.130   0.628  0.00  0.00     0.020 C 
ENDBRANCH   1   5
BRANCH   2  16
ATOM     16  C   UNL d   1       0.697  -2.925  -1.598  0.00  0.00     0.051 C 
ATOM     17  C   UNL d   1      -0.361  -2.501  -2.422  0.00  0.00     0.066 C 
ATOM     18  C   UNL d   1      -1.009  -3.446  -3.237  0.00  0.00     0.020 C 
ATOM     19  C   UNL d   1      -0.691  -4.801  -3.148  0.00  0.00     0.001 C 
ATOM     20  C   UNL d   1       0.257  -5.232  -2.230  0.00  0.00     0.002 C 
ATOM     21  C   UNL d   1       0.958  -4.297  -1.470  0.00  0.00     0.030 C 
BRANCH  17  22
ATOM     22  C   UNL d   1      -0.799  -1.077  -2.408  0.00  0.00     0.295 C 
ATOM     23  O   UNL d   1      -0.380  -0.247  -1.614  0.00  0.00    -0.259 OA
BRANCH  22  24
ATOM     24  O   UNL d   1      -1.774  -0.882  -3.330  0.00  0.00    -0.322 OA
ATOM     25  C   UNL d   1      -2.477   0.357  -3.210  0.00  0.00     0.213 C 
ENDBRANCH  22  24
ENDBRANCH  17  22
ENDBRANCH   2  16
TORSDOF 4
