REMARK  3 active torsions:
REMARK  status: ('A' for Active; 'I' for Inactive)
REMARK    1  A    between atoms: N_10  and  C_3 
REMARK    2  A    between atoms: C_12  and  C_4 
REMARK    3  A    between atoms: C_11  and  C_5 
ROOT
ATOM      1  N   UNL d   1       1.367   0.375  -0.182  0.00  0.00    -0.187 N 
ATOM      2  HN  UNL d   1       2.333   0.654  -0.348  1.00  0.00     0.184 HD
ATOM      3  C   UNL d   1       0.399   1.294  -0.050  0.00  0.00     0.695 A 
ATOM      4  C   UNL d   1       1.025  -0.943  -0.088  0.00  0.00     0.088 A 
ATOM      5  C   UNL d   1      -0.286  -1.342   0.179  0.00  0.00     0.087 A 
ATOM      6  N   UNL d   1      -1.234  -0.387   0.279  0.00  0.00    -0.283 N 
ATOM      7  HN  UNL d   1      -2.206  -0.647   0.447  1.00  0.00     0.187 HD
ATOM      8  N   UNL d   1      -0.886   0.934   0.154  0.00  0.00    -0.132 N 
ATOM      9  HN  UNL d   1      -1.608   1.653   0.215  1.00  0.00     0.205 HD
ENDROOT
BRANCH   4  10
ATOM     10  C   UNL d   1       2.177  -1.863  -0.262  0.00  0.00    -0.006 A 
ATOM     11  C   UNL d   1       3.407  -1.579   0.358  0.00  0.00     0.014 A 
ATOM     12  C   UNL d   1       4.475  -2.482   0.313  0.00  0.00     0.001 A 
ATOM     13  C   UNL d   1       4.333  -3.693  -0.360  0.00  0.00     0.000 A 
ATOM     14  C   UNL d   1       3.148  -3.974  -1.030  0.00  0.00     0.001 A 
ATOM     15  C   UNL d   1       2.093  -3.057  -1.005  0.00  0.00     0.014 A 
ENDBRANCH   4  10
BRANCH   5  16
ATOM     16  C   UNL d   1      -0.777  -2.721   0.377  0.00  0.00    -0.006 A 
ATOM     17  C   UNL d   1      -0.090  -3.662   1.167  0.00  0.00     0.014 A 
ATOM     18  C   UNL d   1      -0.518  -4.991   1.254  0.00  0.00     0.001 A 
ATOM     19  C   UNL d   1      -1.673  -5.396   0.594  0.00  0.00     0.000 A 
ATOM     20  C   UNL d   1      -2.408  -4.471  -0.141  0.00  0.00     0.001 A 
ATOM     21  C   UNL d   1      -1.964  -3.149  -0.247  0.00  0.00     0.014 A 
ENDBRANCH   5  16
BRANCH   3  22
ATOM     22  N   UNL d   1       0.730   2.626  -0.131  0.00  0.00    -0.216 N 
ATOM     23  C   UNL d   1       2.099   3.058   0.100  0.00  0.00     0.141 C 
ATOM     24  C   UNL d   1       1.943   4.391   0.834  0.00  0.00     0.022 C 
ATOM     25  C   UNL d   1       0.601   4.913   0.343  0.00  0.00     0.022 C 
ATOM     26  C   UNL d   1      -0.243   3.643   0.232  0.00  0.00     0.141 C 
ENDBRANCH   3  22
TORSDOF 3
