REMARK  6 active torsions:
REMARK  status: ('A' for Active; 'I' for Inactive)
REMARK    1  A    between atoms: C_3  and  S_1 
REMARK    2  A    between atoms: N_10  and  S_1 
REMARK       I    between atoms: C_2  and  N_4 
REMARK    3  A    between atoms: C_5  and  C_2 
REMARK    4  A    between atoms: N_4  and  C_6 
REMARK    5  A    between atoms: C_9  and  C_7 
REMARK    6  A    between atoms: O_18  and  C_9 
ROOT
ATOM      1  C   UNL d   1       1.641   5.549  -0.598  0.00  0.00     0.257 C 
ATOM      2  N   UNL d   1       0.887   5.247   0.518  0.00  0.00    -0.322 N 
ATOM      3  O   UNL d   1       1.932   4.764  -1.498  0.00  0.00    -0.267 OA
ATOM      4  H   UNL d   1       0.695   6.002   1.175  0.00  0.00     0.169 HD
ENDROOT
BRANCH   2   5
ATOM      5  C   UNL d   1       0.410   3.969   0.908  0.00  0.00     0.042 A 
ATOM      6  C   UNL d   1       0.889   2.795   0.318  0.00  0.00     0.055 A 
ATOM      7  C   UNL d   1       0.450   1.544   0.759  0.00  0.00     0.081 A 
ATOM      8  C   UNL d   1      -0.443   1.436   1.822  0.00  0.00     0.026 A 
ATOM      9  C   UNL d   1      -0.942   2.598   2.407  0.00  0.00     0.010 A 
ATOM     10  C   UNL d   1      -0.545   3.869   1.946  0.00  0.00    -0.035 A 
ATOM     11  C   UNL d   1      -1.159   5.071   2.616  0.00  0.00     0.050 C 
BRANCH   7  12
ATOM     12  S   UNL d   1       1.106   0.073   0.003  0.00  0.00     0.260 S 
ATOM     13  O   UNL d   1       0.953  -1.007   0.953  0.00  0.00    -0.200 OA
ATOM     14  O   UNL d   1       2.413   0.397  -0.542  0.00  0.00    -0.200 OA
BRANCH  12  15
ATOM     15  N   UNL d   1       0.037  -0.208  -1.293  0.00  0.00    -0.315 N 
ATOM     16  C   UNL d   1      -1.322  -0.647  -0.935  0.00  0.00     0.162 C 
ATOM     17  C   UNL d   1       0.063   0.769  -2.396  0.00  0.00     0.162 C 
ENDBRANCH  12  15
ENDBRANCH   7  12
ENDBRANCH   2   5
BRANCH   1  18
ATOM     18  C   UNL d   1       2.043   6.973  -0.805  0.00  0.00     0.049 A 
ATOM     19  C   UNL d   1       2.535   7.856   0.168  0.00  0.00     0.053 A 
ATOM     20  C   UNL d   1       2.881   9.175  -0.191  0.00  0.00     0.019 A 
ATOM     21  C   UNL d   1       2.784   9.602  -1.514  0.00  0.00     0.001 A 
ATOM     22  C   UNL d   1       2.335   8.723  -2.491  0.00  0.00     0.001 A 
ATOM     23  C   UNL d   1       1.968   7.423  -2.139  0.00  0.00     0.018 A 
BRANCH  19  24
ATOM     24  C   UNL d   1       2.685   7.490   1.589  0.00  0.00     0.177 C 
ATOM     25  O   UNL d   1       1.783   6.984   2.233  0.00  0.00    -0.646 OA
BRANCH  24  26
ATOM     26  O   UNL d   1       3.879   7.839   2.110  0.00  0.00    -0.773 OA
ATOM     27  H   UNL d   1       4.540   8.181   1.475  0.00  0.00     0.167 HD
ENDBRANCH  24  26
ENDBRANCH  19  24
ENDBRANCH   1  18
TORSDOF 6
