REMARK  2 active torsions:
REMARK  status: ('A' for Active; 'I' for Inactive)
REMARK    1  A    between atoms: C_8  and  N_1 
REMARK    2  A    between atoms: C_7  and  C_6 
ROOT
ATOM      1  N   UNL d   1       0.120  -1.261  -0.072  0.00  0.00    -0.262 N 
ATOM      2  C   UNL d   1       0.957  -0.157  -0.080  0.00  0.00     0.153 A 
ATOM      3  C   UNL d   1      -1.505   0.466  -0.028  0.00  0.00     0.077 A 
ATOM      4  C   UNL d   1      -1.251  -1.004  -0.054  0.00  0.00     0.271 A 
ATOM      5  S   UNL d   1      -0.007   1.318  -0.115  0.00  0.00    -0.054 SA
ATOM      6  C   UNL d   1      -2.681   1.100   0.049  0.00  0.00     0.043 C 
ATOM      7  S   UNL d   1       2.625  -0.074   0.039  0.00  0.00    -0.052 SA
ATOM      8  O   UNL d   1      -2.144  -1.838  -0.117  0.00  0.00    -0.266 OA
ENDROOT
BRANCH   1   9
ATOM      9  C   UNL d   1       0.564  -2.617  -0.112  0.00  0.00     0.044 A 
ATOM     10  C   UNL d   1       1.488  -3.051  -1.074  0.00  0.00     0.031 A 
ATOM     11  C   UNL d   1       1.861  -4.397  -1.143  0.00  0.00     0.021 A 
ATOM     12  C   UNL d   1       1.324  -5.314  -0.243  0.00  0.00     0.011 A 
ATOM     13  C   UNL d   1       0.411  -4.900   0.723  0.00  0.00     0.021 A 
ATOM     14 BR   UNL d   1       1.819  -7.134  -0.346  0.00  0.00    -0.051 Br
ATOM     15  C   UNL d   1       0.025  -3.558   0.778  0.00  0.00     0.031 A 
ENDBRANCH   1   9
BRANCH   6  16
ATOM     16  C   UNL d   1      -3.929   0.429   0.128  0.00  0.00     0.006 A 
ATOM     17  S   UNL d   1      -4.631   0.095   1.661  0.00  0.00    -0.102 SA
ATOM     18  C   UNL d   1      -5.998  -0.647   0.952  0.00  0.00     0.050 A 
ATOM     19  C   UNL d   1      -5.942  -0.626  -0.422  0.00  0.00     0.008 A 
ATOM     20  C   UNL d   1      -4.752  -0.001  -0.896  0.00  0.00     0.019 A 
ENDBRANCH   6  16
TORSDOF 2
