REMARK  4 active torsions:
REMARK  status: ('A' for Active; 'I' for Inactive)
REMARK    1  A    between atoms: C_9  and  N_1 
REMARK    2  A    between atoms: C_11  and  C_3 
REMARK    3  A    between atoms: N_8  and  C_13 
REMARK    4  A    between atoms: C_13  and  C_9 
ROOT
ATOM      1  N   UNL d   1       2.114  -0.140   0.228  0.00  0.00    -0.325 N 
ATOM      2  C   UNL d   1       1.159   0.850   0.001  0.00  0.00     0.257 C 
ATOM      3  C   UNL d   1       1.780  -1.522  -0.107  0.00  0.00     0.199 C 
ATOM      4  N   UNL d   1       0.444  -1.852   0.365  0.00  0.00    -0.266 NA
ATOM      5  C   UNL d   1      -0.253   0.430  -0.070  0.00  0.00     0.053 A 
ATOM      6  C   UNL d   1      -0.556  -0.923   0.088  0.00  0.00     0.026 A 
ATOM      7  O   UNL d   1       1.399   2.049  -0.102  0.00  0.00    -0.267 OA
ATOM      8  C   UNL d   1      -1.265   1.390  -0.214  0.00  0.00     0.019 A 
ATOM      9  C   UNL d   1      -1.902  -1.294   0.141  0.00  0.00     0.024 A 
ATOM     10  C   UNL d   1      -2.598   1.002  -0.181  0.00  0.00     0.001 A 
ATOM     11  C   UNL d   1      -2.917  -0.341  -0.005  0.00  0.00     0.002 A 
ATOM     12  H   UNL d   1       0.184  -2.805   0.134  0.00  0.00     0.130 HD
ENDROOT
BRANCH   1  13
ATOM     13  C   UNL d   1       3.540   0.197   0.369  0.00  0.00     0.148 C 
BRANCH  13  14
ATOM     14  C   UNL d   1       3.983   1.664   0.236  0.00  0.00     0.147 C 
BRANCH  14  15
ATOM     15  N   UNL d   1       5.405   1.824   0.491  0.00  0.00    -0.331 N 
ATOM     16  C   UNL d   1       6.405   1.285  -0.317  0.00  0.00     0.318 C 
ATOM     17  N   UNL d   1       7.609   1.833   0.103  0.00  0.00    -0.341 N 
ATOM     18  O   UNL d   1       6.281   0.477  -1.218  0.00  0.00    -0.247 OA
ATOM     19  C   UNL d   1       7.418   2.602   1.301  0.00  0.00     0.144 C 
ATOM     20  H   UNL d   1       8.479   1.431  -0.224  0.00  0.00     0.164 HD
ATOM     21  C   UNL d   1       5.934   2.934   1.252  0.00  0.00     0.147 C 
ENDBRANCH  14  15
ENDBRANCH  13  14
ENDBRANCH   1  13
BRANCH   3  22
ATOM     22  C   UNL d   1       2.715  -2.588   0.459  0.00  0.00    -0.021 A 
ATOM     23  C   UNL d   1       2.845  -2.777   1.846  0.00  0.00     0.011 A 
ATOM     24  C   UNL d   1       3.669  -3.783   2.359  0.00  0.00     0.007 A 
ATOM     25  C   UNL d   1       4.375  -4.631   1.499  0.00  0.00    -0.062 A 
ATOM     26  C   UNL d   1       4.254  -4.447   0.117  0.00  0.00     0.007 A 
ATOM     27  C   UNL d   1       5.243  -5.716   2.063  0.00  0.00     0.048 C 
ATOM     28  C   UNL d   1       3.434  -3.437  -0.398  0.00  0.00     0.011 A 
ENDBRANCH   3  22
TORSDOF 4
