REMARK  1 active torsions:
REMARK  status: ('A' for Active; 'I' for Inactive)
REMARK       I    between atoms: N_2  and  C_1 
REMARK    1  A    between atoms: C_4  and  C_1 
ROOT
ATOM      1  C   UNL d   1       0.895  -0.083   0.021  0.00  0.00     0.253 C 
ATOM      2  N   UNL d   1       0.121  -1.232  -0.101  0.00  0.00    -0.344 N 
ATOM      3  O   UNL d   1       0.779   0.875  -0.746  0.00  0.00    -0.267 OA
ATOM      4  O   UNL d   1      -1.055  -3.723  -0.839  0.00  0.00    -0.388 OA
ATOM      5  C   UNL d   1      -0.018  -2.323   0.872  0.00  0.00     0.152 C 
ATOM      6  C   UNL d   1      -0.891  -1.289  -1.160  0.00  0.00     0.152 C 
ATOM      7  C   UNL d   1       0.002  -3.667   0.134  0.00  0.00     0.187 C 
ATOM      8  C   UNL d   1      -0.912  -2.675  -1.814  0.00  0.00     0.187 C 
ENDROOT
BRANCH   1   9
ATOM      9  C   UNL d   1       1.895   0.041   1.109  0.00  0.00     0.032 A 
ATOM     10  C   UNL d   1       2.813  -0.972   1.407  0.00  0.00     0.017 A 
ATOM     11  C   UNL d   1       3.708  -0.811   2.467  0.00  0.00     0.001 A 
ATOM     12  C   UNL d   1       3.728   0.382   3.192  0.00  0.00     0.000 A 
ATOM     13  C   UNL d   1       2.865   1.422   2.850  0.00  0.00     0.001 A 
ATOM     14  C   UNL d   1       1.951   1.254   1.810  0.00  0.00     0.017 A 
ENDBRANCH   1   9
TORSDOF 1
