REMARK  2 active torsions:
REMARK  status: ('A' for Active; 'I' for Inactive)
REMARK    1  A    between atoms: N_4  and  C_2 
REMARK    2  A    between atoms: C_6  and  N_4 
ROOT
ATOM      1  C   UNL d   1       0.458  -0.884  -0.042  0.00  0.00     0.003 C 
ATOM      2  C   UNL d   1       1.548  -1.651   0.133  0.00  0.00     0.099 C 
ATOM      3  C   UNL d   1       0.661   0.603   0.011  0.00  0.00     0.157 C 
ATOM      4  O   UNL d   1       1.780   1.101  -0.106  0.00  0.00    -0.293 OA
ATOM      5  C   UNL d   1      -0.922  -1.413  -0.303  0.00  0.00     0.044 C 
ATOM      6  C   UNL d   1      -0.534   1.478   0.317  0.00  0.00     0.084 C 
ATOM      7  C   UNL d   1      -2.034  -0.517   0.234  0.00  0.00     0.005 C 
ATOM      8  C   UNL d   1      -1.834   0.916  -0.232  0.00  0.00     0.008 C 
ENDROOT
BRANCH   2   9
ATOM      9  N   UNL d   1       1.639  -3.021   0.084  0.00  0.00    -0.365 N 
ATOM     10  H   UNL d   1       0.791  -3.520  -0.158  0.00  0.00     0.165 HD
BRANCH   9  11
ATOM     11  C   UNL d   1       2.778  -3.833   0.236  0.00  0.00     0.031 A 
ATOM     12  C   UNL d   1       4.040  -3.340   0.592  0.00  0.00     0.029 A 
ATOM     13  C   UNL d   1       5.138  -4.195   0.733  0.00  0.00     0.002 A 
ATOM     14  C   UNL d   1       4.992  -5.561   0.518  0.00  0.00     0.000 A 
ATOM     15  C   UNL d   1       3.749  -6.074   0.160  0.00  0.00     0.002 A 
ATOM     16  C   UNL d   1       2.654  -5.215   0.022  0.00  0.00     0.029 A 
ENDBRANCH   9  11
ENDBRANCH   2   9
TORSDOF 2
