REMARK  7 active torsions:
REMARK  status: ('A' for Active; 'I' for Inactive)
REMARK    1  A    between atoms: C_3  and  C_1 
REMARK    2  A    between atoms: C_2  and  O_13 
REMARK       I    between atoms: N_4  and  C_2 
REMARK    3  A    between atoms: C_14  and  N_4 
REMARK    4  A    between atoms: O_16  and  C_5 
REMARK    5  A    between atoms: O_13  and  C_18 
REMARK    6  A    between atoms: C_19  and  O_16 
REMARK    7  A    between atoms: C_18  and  C_19 
ROOT
ATOM      1  C   UNL d   1       1.463   4.697  -1.615  0.00  0.00     0.204 C 
ENDROOT
BRANCH   1   2
ATOM      2  C   UNL d   1       1.465   6.170  -2.014  0.00  0.00     0.207 C 
BRANCH   2   3
ATOM      3  O   UNL d   1       1.785   7.047  -0.924  0.00  0.00    -0.302 OA
BRANCH   3   4
ATOM      4  C   UNL d   1       3.104   7.259  -0.696  0.00  0.00     0.365 C 
ATOM      5  N   UNL d   1       3.402   8.265   0.188  0.00  0.00    -0.303 N 
ATOM      6  H   UNL d   1       4.403   8.374   0.283  0.00  0.00     0.171 HD
ATOM      7  O   UNL d   1       4.003   6.636  -1.248  0.00  0.00    -0.238 OA
BRANCH   5   8
ATOM      8  C   UNL d   1       2.597   9.236   0.815  0.00  0.00     0.036 A 
ATOM      9  C   UNL d   1       1.203   9.273   0.762  0.00  0.00     0.029 A 
ATOM     10  C   UNL d   1       0.495  10.342   1.322  0.00  0.00     0.002 A 
ATOM     11  C   UNL d   1       1.173  11.378   1.958  0.00  0.00     0.000 A 
ATOM     12  C   UNL d   1       2.559  11.329   2.064  0.00  0.00     0.002 A 
ATOM     13  C   UNL d   1       3.265  10.260   1.503  0.00  0.00     0.029 A 
ENDBRANCH   5   8
ENDBRANCH   3   4
ENDBRANCH   2   3
ENDBRANCH   1   2
BRANCH   1  14
ATOM     14  O   UNL d   1       1.075   3.939  -2.766  0.00  0.00    -0.334 OA
BRANCH  14  15
ATOM     15  C   UNL d   1       0.979   2.583  -2.535  0.00  0.00     0.142 A 
ATOM     16  C   UNL d   1       0.577   1.805  -3.610  0.00  0.00     0.072 A 
ATOM     17  C   UNL d   1       0.445   0.425  -3.429  0.00  0.00     0.053 A 
ATOM     18  C   UNL d   1       0.737  -0.111  -2.170  0.00  0.00     0.033 A 
ATOM     19  C   UNL d   1       1.136   0.749  -1.160  0.00  0.00     0.091 A 
ATOM     20  N   UNL d   1       1.259   2.084  -1.315  0.00  0.00    -0.347 N 
ATOM     21  HN  UNL d   1       1.549   2.687  -0.545  1.00  0.00     0.167 HD
BRANCH  17  22
ATOM     22  C   UNL d   1      -0.007  -0.474  -4.547  0.00  0.00     0.417 C 
ATOM     23  F   UNL d   1      -0.269   0.186  -5.708  0.00  0.00    -0.166 F 
ATOM     24  F   UNL d   1      -1.149  -1.150  -4.237  0.00  0.00    -0.166 F 
ATOM     25  F   UNL d   1       0.916  -1.425  -4.855  0.00  0.00    -0.166 F 
ENDBRANCH  17  22
ENDBRANCH  14  15
ENDBRANCH   1  14
TORSDOF 7
