REMARK  7 active torsions:
REMARK  status: ('A' for Active; 'I' for Inactive)
REMARK    1  A    between atoms: C_8  and  N_1 
REMARK    2  A    between atoms: S_11  and  C_2 
REMARK    3  A    between atoms: O_22  and  C_3 
REMARK    4  A    between atoms: C_21  and  S_11 
REMARK    5  A    between atoms: C_12  and  C_21 
REMARK       I    between atoms: N_14  and  C_12 
REMARK    6  A    between atoms: C_25  and  N_14 
REMARK    7  A    between atoms: C_26  and  C_18 
ROOT
ATOM      1  N   UNL d   1      -0.099  -0.268  -1.359  0.00  0.00    -0.255 N 
ATOM      2  C   UNL d   1       0.594  -1.311  -0.757  0.00  0.00     0.169 C 
ATOM      3  C   UNL d   1      -1.174  -0.064  -0.507  0.00  0.00     0.245 C 
ATOM      4  N   UNL d   1      -0.088  -1.780   0.263  0.00  0.00    -0.276 N 
ATOM      5  HN  UNL d   1       0.160  -2.591   0.831  1.00  0.00     0.189 HD
ATOM      6  N   UNL d   1      -1.194  -0.987   0.428  0.00  0.00    -0.263 N 
ATOM      7  HN  UNL d   1      -1.906  -1.094   1.150  1.00  0.00     0.190 HD
ENDROOT
BRANCH   2   8
ATOM      8  S   UNL d   1       2.256  -1.742  -1.108  0.00  0.00    -0.083 SA
BRANCH   8   9
ATOM      9  C   UNL d   1       2.421  -3.202  -0.066  0.00  0.00     0.185 C 
BRANCH   9  10
ATOM     10  C   UNL d   1       3.796  -3.837  -0.013  0.00  0.00     0.231 C 
ATOM     11  N   UNL d   1       4.811  -3.294  -0.769  0.00  0.00    -0.327 N 
ATOM     12  H   UNL d   1       4.635  -2.392  -1.196  0.00  0.00     0.169 HD
ATOM     13  O   UNL d   1       3.930  -4.823   0.718  0.00  0.00    -0.272 OA
BRANCH  11  14
ATOM     14  C   UNL d   1       6.098  -3.868  -0.982  0.00  0.00     0.034 A 
ATOM     15  C   UNL d   1       6.413  -5.171  -0.594  0.00  0.00     0.030 A 
ATOM     16  C   UNL d   1       7.660  -5.733  -0.875  0.00  0.00     0.010 A 
ATOM     17  C   UNL d   1       8.639  -5.011  -1.563  0.00  0.00    -0.055 A 
ATOM     18  C   UNL d   1       8.342  -3.691  -1.931  0.00  0.00     0.010 A 
ATOM     19  C   UNL d   1       7.083  -3.126  -1.646  0.00  0.00     0.030 A 
BRANCH  17  20
ATOM     20  C   UNL d   1       9.954  -5.669  -1.946  0.00  0.00     0.010 C 
ATOM     21  C   UNL d   1      10.742  -6.151  -0.724  0.00  0.00     0.015 C 
ATOM     22  C   UNL d   1       9.711  -6.837  -2.911  0.00  0.00     0.015 C 
ENDBRANCH  17  20
ENDBRANCH  11  14
ENDBRANCH   9  10
ENDBRANCH   8   9
ENDBRANCH   2   8
BRANCH   1  23
ATOM     23  C   UNL d   1       0.253   0.444  -2.535  0.00  0.00     0.048 A 
ATOM     24  C   UNL d   1       0.855  -0.248  -3.596  0.00  0.00     0.069 A 
ATOM     25  C   UNL d   1       1.384   0.453  -4.673  0.00  0.00     0.104 A 
ATOM     26  O   UNL d   1       2.077  -0.283  -5.599  0.00  0.00    -0.346 OA
ATOM     27  C   UNL d   1       1.230   1.838  -4.753  0.00  0.00     0.102 A 
ATOM     28  C   UNL d   1       2.961   0.559  -6.347  0.00  0.00     0.202 C 
ATOM     29  C   UNL d   1       2.206   1.774  -6.861  0.00  0.00     0.202 C 
ATOM     30  O   UNL d   1       1.738   2.590  -5.778  0.00  0.00    -0.346 OA
ATOM     31  C   UNL d   1       0.565   2.522  -3.735  0.00  0.00     0.042 A 
ATOM     32  C   UNL d   1       0.081   1.831  -2.618  0.00  0.00     0.033 A 
ENDBRANCH   1  23
BRANCH   3  33
ATOM     33  O   UNL d   1      -2.131   0.851  -0.607  0.00  0.00    -0.331 OA
ATOM     34  H   UNL d   1      -2.103   1.258  -1.485  0.00  0.00     0.221 HD
ENDBRANCH   3  33
TORSDOF 7
