REMARK  1 active torsions:
REMARK  status: ('A' for Active; 'I' for Inactive)
REMARK    1  A    between atoms: C_9  and  C_5 
ROOT
ATOM      1  N   UNL d   1      -0.299  -0.746  -1.161  0.00  0.00    -0.302 N 
ATOM      2  HN  UNL d   1      -0.584  -1.265  -1.992  1.00  0.00     0.186 HD
ATOM      3  C   UNL d   1       0.430   1.461  -0.339  0.00  0.00     0.153 C 
ATOM      4  N   UNL d   1       0.194   0.507  -1.291  0.00  0.00    -0.285 N 
ATOM      5  C   UNL d   1      -0.415  -1.298   0.014  0.00  0.00     0.045 C 
ATOM      6  S   UNL d   1       0.005   1.117   1.306  0.00  0.00    -0.093 SA
ATOM      7  S   UNL d   1       1.037   2.946  -0.811  0.00  0.00    -0.051 SA
ATOM      8  C   UNL d   1      -0.011  -0.667   1.318  0.00  0.00     0.141 C 
ATOM      9  H   UNL d   1       0.337   0.803  -2.254  0.00  0.00     0.188 HD
ENDROOT
BRANCH   5  10
ATOM     10  C   UNL d   1      -0.919  -2.711   0.063  0.00  0.00    -0.011 A 
ATOM     11  C   UNL d   1      -0.552  -3.585   1.094  0.00  0.00     0.013 A 
ATOM     12  C   UNL d   1      -1.020  -4.902   1.096  0.00  0.00     0.001 A 
ATOM     13  C   UNL d   1      -1.851  -5.352   0.073  0.00  0.00     0.000 A 
ATOM     14  C   UNL d   1      -2.212  -4.489  -0.961  0.00  0.00     0.001 A 
ATOM     15  C   UNL d   1      -1.746  -3.174  -0.967  0.00  0.00     0.013 A 
ENDBRANCH   5  10
TORSDOF 1
