REMARK  4 active torsions:
REMARK  status: ('A' for Active; 'I' for Inactive)
REMARK    1  A    between atoms: C_10  and  C_3 
REMARK    2  A    between atoms: C_15  and  N_4 
REMARK    3  A    between atoms: C_16  and  C_7 
REMARK    4  A    between atoms: C_13  and  C_10 
ROOT
ATOM      1  N   UNL d   1       0.274   0.721   0.018  0.00  0.00    -0.124 N 
ATOM      2  C   UNL d   1       0.201  -0.671  -0.120  0.00  0.00     0.715 A 
ATOM      3  C   UNL d   1       1.605   1.067   0.247  0.00  0.00     0.196 A 
ATOM      4  N   UNL d   1       1.550  -1.048  -0.045  0.00  0.00    -0.084 N 
ATOM      5  N   UNL d   1       2.408   0.016   0.229  0.00  0.00    -0.260 N 
ATOM      6  HN  UNL d   1       3.416  -0.010   0.379  1.00  0.00     0.190 HD
ATOM      7  C   UNL d   1      -0.922   1.413  -0.044  0.00  0.00     0.074 A 
ATOM      8  N   UNL d   1      -0.867  -1.377  -0.242  0.00  0.00    -0.154 N 
ATOM      9  HN  UNL d   1      -0.813  -2.388  -0.365  1.00  0.00     0.187 HD
ATOM     10  C   UNL d   1      -2.084   0.748  -0.149  0.00  0.00     0.106 A 
ATOM     11  C   UNL d   1      -2.083  -0.738  -0.202  0.00  0.00     0.261 A 
ATOM     12  O   UNL d   1      -3.156  -1.325  -0.232  0.00  0.00    -0.268 OA
ENDROOT
BRANCH   3  13
ATOM     13  C   UNL d   1       2.178   2.416   0.601  0.00  0.00     0.235 C 
ATOM     14  O   UNL d   1       1.613   3.027   1.503  0.00  0.00    -0.283 OA
BRANCH  13  15
ATOM     15  C   UNL d   1       3.420   2.829  -0.044  0.00  0.00     0.058 A 
ATOM     16  S   UNL d   1       4.012   4.414   0.282  0.00  0.00    -0.098 SA
ATOM     17  C   UNL d   1       5.451   4.145  -0.597  0.00  0.00     0.050 A 
ATOM     18  C   UNL d   1       5.477   2.894  -1.168  0.00  0.00     0.009 A 
ATOM     19  C   UNL d   1       4.293   2.148  -0.876  0.00  0.00     0.023 A 
ENDBRANCH  13  15
ENDBRANCH   3  13
BRANCH   7  20
ATOM     20  C   UNL d   1      -0.993   2.876  -0.076  0.00  0.00    -0.008 A 
ATOM     21  C   UNL d   1      -1.184   3.610   1.102  0.00  0.00     0.014 A 
ATOM     22  C   UNL d   1      -1.283   5.000   1.058  0.00  0.00     0.001 A 
ATOM     23  C   UNL d   1      -1.230   5.662  -0.167  0.00  0.00     0.000 A 
ATOM     24  C   UNL d   1      -1.086   4.939  -1.347  0.00  0.00     0.001 A 
ATOM     25  C   UNL d   1      -0.966   3.550  -1.306  0.00  0.00     0.014 A 
ENDBRANCH   7  20
BRANCH   4  26
ATOM     26  C   UNL d   1       2.070  -2.364  -0.051  0.00  0.00     0.074 A 
ATOM     27  C   UNL d   1       1.409  -3.422  -0.696  0.00  0.00     0.032 A 
ATOM     28  C   UNL d   1       1.933  -4.718  -0.685  0.00  0.00     0.002 A 
ATOM     29  C   UNL d   1       3.124  -4.986  -0.018  0.00  0.00     0.000 A 
ATOM     30  C   UNL d   1       3.801  -3.955   0.625  0.00  0.00     0.002 A 
ATOM     31  C   UNL d   1       3.285  -2.657   0.597  0.00  0.00     0.032 A 
ENDBRANCH   4  26
TORSDOF 4
