REMARK  7 active torsions:
REMARK  status: ('A' for Active; 'I' for Inactive)
REMARK    1  A    between atoms: C_3  and  S_1 
REMARK    2  A    between atoms: N_7  and  S_1 
REMARK    3  A    between atoms: S_2  and  C_8 
REMARK    4  A    between atoms: N_14  and  S_2 
REMARK    5  A    between atoms: N_13  and  C_6 
REMARK    6  A    between atoms: C_17  and  N_7 
REMARK    7  A    between atoms: C_18  and  C_17 
ROOT
ATOM      1  S   UNL d   1       0.951   0.074  -0.033  0.00  0.00     0.260 S 
ATOM      2  O   UNL d   1       0.173  -0.218  -1.216  0.00  0.00    -0.201 OA
ATOM      3  O   UNL d   1       2.392   0.192  -0.060  0.00  0.00    -0.201 OA
ENDROOT
BRANCH   1   4
ATOM      4  C   UNL d   1       0.529  -1.157   1.190  0.00  0.00     0.090 C 
ATOM      5  C   UNL d   1       0.862  -2.529   0.968  0.00  0.00    -0.000 A 
ATOM      6  C   UNL d   1       0.592  -3.489   1.997  0.00  0.00     0.002 A 
ATOM      7  C   UNL d   1       1.442  -2.991  -0.233  0.00  0.00     0.014 A 
ATOM      8  C   UNL d   1       0.849  -4.896   1.780  0.00  0.00     0.040 A 
ATOM      9  C   UNL d   1       0.096  -2.966   3.218  0.00  0.00     0.014 C 
ATOM     10  C   UNL d   1       1.397  -5.264   0.534  0.00  0.00     0.030 A 
ATOM     11  C   UNL d   1       1.703  -4.335  -0.450  0.00  0.00     0.003 A 
ATOM     12  C   UNL d   1      -0.310  -1.644   3.382  0.00  0.00     0.003 C 
ATOM     13  C   UNL d   1      -0.129  -0.745   2.353  0.00  0.00     0.026 C 
BRANCH   8  14
ATOM     14  N   UNL d   1       0.571  -5.901   2.714  0.00  0.00    -0.389 N 
ATOM     15  C   UNL d   1       1.317  -7.158   2.743  0.00  0.00     0.149 C 
ATOM     16  C   UNL d   1      -0.631  -5.890   3.542  0.00  0.00     0.149 C 
ENDBRANCH   8  14
ENDBRANCH   1   4
BRANCH   1  17
ATOM     17  N   UNL d   1       0.345   1.512   0.539  0.00  0.00    -0.311 N 
ATOM     18  H   UNL d   1      -0.632   1.709   0.337  0.00  0.00     0.172 HD
BRANCH  17  19
ATOM     19  C   UNL d   1       1.082   2.315   1.500  0.00  0.00     0.170 C 
BRANCH  19  20
ATOM     20  C   UNL d   1       0.285   3.547   1.863  0.00  0.00    -0.040 A 
ATOM     21  C   UNL d   1      -0.093   3.796   3.190  0.00  0.00     0.010 A 
ATOM     22  C   UNL d   1      -0.828   4.937   3.509  0.00  0.00     0.025 A 
ATOM     23  C   UNL d   1      -1.177   5.833   2.496  0.00  0.00     0.074 A 
ATOM     24  C   UNL d   1      -0.832   5.591   1.166  0.00  0.00     0.025 A 
ATOM     25  C   UNL d   1      -0.093   4.453   0.856  0.00  0.00     0.010 A 
BRANCH  23  26
ATOM     26  S   UNL d   1      -1.981   7.348   2.915  0.00  0.00     0.239 S 
ATOM     27  O   UNL d   1      -2.669   7.865   1.761  0.00  0.00    -0.206 OA
ATOM     28  O   UNL d   1      -2.613   7.212   4.210  0.00  0.00    -0.206 OA
BRANCH  26  29
ATOM     29  N   UNL d   1      -0.635   8.321   3.148  0.00  0.00    -0.225 NA
ATOM     30  H   UNL d   1      -0.605   9.073   2.462  0.00  0.00     0.136 HD
ATOM     31  H   UNL d   1      -0.551   8.607   4.122  0.00  0.00     0.136 HD
ENDBRANCH  26  29
ENDBRANCH  23  26
ENDBRANCH  19  20
ENDBRANCH  17  19
ENDBRANCH   1  17
TORSDOF 7
