REMARK  5 active torsions:
REMARK  status: ('A' for Active; 'I' for Inactive)
REMARK    1  A    between atoms: N_2  and  C_1 
REMARK    2  A    between atoms: N_4  and  C_3 
REMARK    3  A    between atoms: C_8  and  C_12 
REMARK    4  A    between atoms: O_18  and  C_13 
REMARK    5  A    between atoms: O_19  and  C_16 
ROOT
ATOM      1  N   UNL d   1      -1.321  -2.572  -0.240  0.00  0.00    -0.379 N 
ATOM      2  C   UNL d   1      -1.353  -3.200   1.108  0.00  0.00     0.123 C 
ATOM      3  C   UNL d   1      -2.431  -2.974  -1.119  0.00  0.00     0.123 C 
ATOM      4  C   UNL d   1      -2.682  -5.197   0.113  0.00  0.00     0.024 C 
ATOM      5  C   UNL d   1      -1.592  -4.708   1.070  0.00  0.00     0.029 C 
ATOM      6  C   UNL d   1      -2.546  -4.489  -1.237  0.00  0.00     0.029 C 
ENDROOT
BRANCH   1   7
ATOM      7  C   UNL d   1      -0.886  -1.218  -0.220  0.00  0.00     0.066 A 
ATOM      8  C   UNL d   1      -1.452  -0.086  -0.855  0.00  0.00     0.129 A 
ATOM      9  C   UNL d   1      -0.946   1.229  -0.704  0.00  0.00     0.041 A 
ATOM     10  C   UNL d   1       0.171   1.461   0.086  0.00  0.00     0.039 A 
ATOM     11  C   UNL d   1       0.791   0.376   0.676  0.00  0.00     0.068 A 
ATOM     12  C   UNL d   1       0.297  -0.922   0.504  0.00  0.00     0.068 A 
BRANCH   8  13
ATOM     13  N   UNL d   1      -2.627  -0.144  -1.694  0.00  0.00    -0.113 N 
ATOM     14  O   UNL d   1      -3.730  -0.090  -1.127  0.00  0.00    -0.532 OA
ATOM     15  O   UNL d   1      -2.448  -0.169  -2.920  0.00  0.00    -0.532 OA
ENDBRANCH   8  13
BRANCH  11  16
ATOM     16  O   UNL d   1       1.901   0.529   1.454  0.00  0.00    -0.361 OA
ATOM     17  H   UNL d   1       2.100   1.476   1.541  0.00  0.00     0.217 HD
ENDBRANCH  11  16
ENDBRANCH   1   7
BRANCH   4  18
ATOM     18  C   UNL d   1      -4.105  -5.202   0.663  0.00  0.00    -0.021 A 
ATOM     19  C   UNL d   1      -4.934  -6.339   0.570  0.00  0.00     0.074 A 
ATOM     20  C   UNL d   1      -6.214  -6.348   1.143  0.00  0.00     0.037 A 
ATOM     21  C   UNL d   1      -6.704  -5.223   1.801  0.00  0.00     0.003 A 
ATOM     22  C   UNL d   1      -5.914  -4.086   1.889  0.00  0.00     0.001 A 
ATOM     23  C   UNL d   1      -4.638  -4.075   1.317  0.00  0.00     0.010 A 
BRANCH  19  24
ATOM     24  O   UNL d   1      -4.524  -7.546   0.062  0.00  0.00    -0.355 OA
ATOM     25  C   UNL d   1      -4.296  -7.542  -1.345  0.00  0.00     0.210 C 
ENDBRANCH  19  24
ENDBRANCH   4  18
TORSDOF 5
