REMARK  6 active torsions:
REMARK  status: ('A' for Active; 'I' for Inactive)
REMARK    1  A    between atoms: C_10  and  N_1 
REMARK    2  A    between atoms: S_15  and  C_2 
REMARK    3  A    between atoms: C_12  and  C_3 
REMARK    4  A    between atoms: C_18  and  C_10 
REMARK    5  A    between atoms: C_11  and  O_13 
REMARK    6  A    between atoms: O_13  and  C_12 
ROOT
ATOM      1  N   UNL d   1      -0.292  -0.719  -0.755  0.00  0.00    -0.309 N 
ATOM      2  C   UNL d   1       0.894  -0.224  -0.263  0.00  0.00     0.160 A 
ATOM      3  C   UNL d   1      -1.255  -0.247   0.120  0.00  0.00     0.125 A 
ATOM      4  N   UNL d   1       0.676   0.473   0.824  0.00  0.00    -0.278 N 
ATOM      5  HN  UNL d   1       1.384   0.941   1.390  1.00  0.00     0.189 HD
ATOM      6  N   UNL d   1      -0.666   0.460   1.065  0.00  0.00    -0.285 N 
ATOM      7  HN  UNL d   1      -1.136   0.919   1.845  1.00  0.00     0.188 HD
ENDROOT
BRANCH   3   8
ATOM      8  C   UNL d   1      -2.739  -0.325  -0.018  0.00  0.00     0.253 C 
BRANCH   8   9
ATOM      9  O   UNL d   1      -3.191  -1.683   0.007  0.00  0.00    -0.343 OA
BRANCH   9  10
ATOM     10  C   UNL d   1      -4.560  -1.827  -0.036  0.00  0.00     0.076 A 
ATOM     11  C   UNL d   1      -5.081  -3.114   0.060  0.00  0.00    -0.018 A 
ATOM     12  C   UNL d   1      -6.463  -3.349  -0.009  0.00  0.00    -0.043 A 
ATOM     13  C   UNL d   1      -4.329  -4.390   0.274  0.00  0.00     0.042 A 
ATOM     14  C   UNL d   1      -6.790  -4.804   0.109  0.00  0.00     0.040 A 
ATOM     15  C   UNL d   1      -7.373  -2.306  -0.166  0.00  0.00    -0.055 A 
ATOM     16  C   UNL d   1      -5.420  -5.473   0.266  0.00  0.00     0.009 A 
ATOM     17  C   UNL d   1      -6.859  -1.010  -0.237  0.00  0.00     0.010 A 
ATOM     18  C   UNL d   1      -8.849  -2.549  -0.252  0.00  0.00     0.049 C 
ATOM     19  C   UNL d   1      -5.475  -0.775  -0.176  0.00  0.00     0.038 A 
ENDBRANCH   9  10
ENDBRANCH   8   9
ENDBRANCH   3   8
BRANCH   1  20
ATOM     20  C   UNL d   1      -0.481  -1.666  -1.844  0.00  0.00     0.171 C 
BRANCH  20  21
ATOM     21  C   UNL d   1      -0.774  -1.002  -3.171  0.00  0.00    -0.040 A 
ATOM     22  C   UNL d   1       0.245  -0.721  -4.092  0.00  0.00     0.009 A 
ATOM     23  C   UNL d   1      -0.031  -0.050  -5.288  0.00  0.00     0.001 A 
ATOM     24  C   UNL d   1      -1.335   0.325  -5.593  0.00  0.00     0.000 A 
ATOM     25  C   UNL d   1      -2.368   0.002  -4.717  0.00  0.00     0.001 A 
ATOM     26  C   UNL d   1      -2.091  -0.665  -3.523  0.00  0.00     0.009 A 
ENDBRANCH  20  21
ENDBRANCH   1  20
BRANCH   2  27
ATOM     27  S   UNL d   1       2.475  -0.485  -0.910  0.00  0.00    -0.105 SA
ATOM     28  H   UNL d   1       2.177  -0.580  -2.204  0.00  0.00     0.110 HD
ENDBRANCH   2  27
TORSDOF 6
