REMARK  6 active torsions:
REMARK  status: ('A' for Active; 'I' for Inactive)
REMARK    1  A    between atoms: C_7  and  C_1 
REMARK    2  A    between atoms: S_2  and  C_7 
REMARK    3  A    between atoms: C_9  and  S_2 
REMARK    4  A    between atoms: C_8  and  C_3 
REMARK    5  A    between atoms: C_10  and  C_5 
REMARK    6  A    between atoms: O_16  and  C_8 
ROOT
ATOM      1  C   UNL d   1       1.325   0.920   0.152  0.00  0.00    -0.020 A 
ATOM      2  C   UNL d   1       0.005   1.348   0.321  0.00  0.00     0.087 A 
ATOM      3  S   UNL d   1      -1.086   0.010   0.345  0.00  0.00    -0.087 SA
ATOM      4  C   UNL d   1       0.145  -1.156   0.134  0.00  0.00    -0.008 A 
ATOM      5  C   UNL d   1       1.374  -0.525   0.068  0.00  0.00     0.025 A 
ENDROOT
BRANCH   1   6
ATOM      6  C   UNL d   1       2.573   1.767  -0.030  0.00  0.00     0.185 C 
BRANCH   6   7
ATOM      7  S   UNL d   1       3.917   1.434   1.120  0.00  0.00     0.179 S 
ATOM      8  O   UNL d   1       3.579   1.977   2.423  0.00  0.00    -0.222 OA
ATOM      9  O   UNL d   1       4.353   0.056   0.980  0.00  0.00    -0.222 OA
BRANCH   7  10
ATOM     10  C   UNL d   1       5.260   2.438   0.483  0.00  0.00     0.059 A 
ATOM     11  C   UNL d   1       5.413   3.758   0.922  0.00  0.00     0.025 A 
ATOM     12  C   UNL d   1       6.502   4.513   0.474  0.00  0.00     0.025 A 
ATOM     13  C   UNL d   1       7.434   3.946  -0.397  0.00  0.00     0.034 A 
ATOM     14  C   UNL d   1       7.289   2.626  -0.824  0.00  0.00     0.025 A 
ATOM     15 CL   UNL d   1       8.780   4.874  -0.932  0.00  0.00    -0.084 Cl
ATOM     16  C   UNL d   1       6.203   1.865  -0.382  0.00  0.00     0.025 A 
ENDBRANCH   7  10
ENDBRANCH   6   7
ENDBRANCH   1   6
BRANCH   2  17
ATOM     17  C   UNL d   1      -0.621   2.663   0.446  0.00  0.00     0.300 C 
ATOM     18  O   UNL d   1      -1.820   2.888   0.588  0.00  0.00    -0.259 OA
BRANCH  17  19
ATOM     19  O   UNL d   1       0.314   3.655   0.366  0.00  0.00    -0.322 OA
ATOM     20  C   UNL d   1      -0.232   4.974   0.457  0.00  0.00     0.213 C 
ENDBRANCH  17  19
ENDBRANCH   2  17
BRANCH   4  21
ATOM     21  C   UNL d   1      -0.188  -2.654   0.030  0.00  0.00    -0.018 C 
ATOM     22  C   UNL d   1       1.101  -3.501  -0.058  0.00  0.00     0.020 C 
ATOM     23  C   UNL d   1      -0.977  -3.134   1.265  0.00  0.00     0.020 C 
ATOM     24  C   UNL d   1      -1.018  -2.941  -1.239  0.00  0.00     0.020 C 
ENDBRANCH   4  21
TORSDOF 6
