REMARK  2 active torsions:
REMARK  status: ('A' for Active; 'I' for Inactive)
REMARK    1  A    between atoms: C_8  and  N_4 
REMARK    2  A    between atoms: C_10  and  C_8 
ROOT
ATOM      1  N   UNL d   1      -0.922   0.454  -0.061  0.00  0.00    -0.248 N 
ATOM      2  C   UNL d   1      -1.759  -0.599   0.083  0.00  0.00     0.117 A 
ATOM      3  C   UNL d   1      -1.744   1.559  -0.204  0.00  0.00     0.349 A 
ATOM      4  N   UNL d   1      -3.047   1.048  -0.172  0.00  0.00    -0.236 N 
ATOM      5  N   UNL d   1      -3.028  -0.308   0.036  0.00  0.00    -0.281 N 
ATOM      6  HN  UNL d   1      -3.822  -0.941   0.133  1.00  0.00     0.188 HD
ATOM      7  C   UNL d   1       0.487   0.393  -0.035  0.00  0.00     0.062 A 
ATOM      8  S   UNL d   1       0.250  -2.370  -0.475  0.00  0.00    -0.120 SA
ATOM      9  C   UNL d   1      -1.268  -1.974   0.407  0.00  0.00     0.158 C 
ATOM     10  C   UNL d   1       1.140  -0.850  -0.169  0.00  0.00     0.028 A 
ATOM     11  O   UNL d   1      -1.445   2.740  -0.319  0.00  0.00    -0.244 OA
ATOM     12  C   UNL d   1       1.273   1.546   0.112  0.00  0.00     0.031 A 
ATOM     13  C   UNL d   1       2.539  -0.923  -0.142  0.00  0.00     0.021 A 
ATOM     14  C   UNL d   1       2.669   1.462   0.153  0.00  0.00     0.002 A 
ATOM     15  C   UNL d   1       3.302   0.230   0.029  0.00  0.00     0.002 A 
ENDROOT
BRANCH   4  16
ATOM     16  C   UNL d   1      -4.271   1.815  -0.185  0.00  0.00     0.194 C 
BRANCH  16  17
ATOM     17  C   UNL d   1      -4.838   2.022  -1.569  0.00  0.00    -0.017 A 
ATOM     18  C   UNL d   1      -5.697   1.101  -2.189  0.00  0.00     0.042 A 
ATOM     19 CL   UNL d   1      -6.157  -0.383  -1.435  0.00  0.00    -0.084 Cl
ATOM     20  C   UNL d   1      -6.236   1.370  -3.453  0.00  0.00     0.024 A 
ATOM     21  C   UNL d   1      -5.922   2.556  -4.115  0.00  0.00     0.002 A 
ATOM     22  C   UNL d   1      -5.051   3.467  -3.525  0.00  0.00     0.001 A 
ATOM     23  C   UNL d   1      -4.507   3.199  -2.267  0.00  0.00     0.010 A 
ENDBRANCH  16  17
ENDBRANCH   4  16
TORSDOF 2
