REMARK  5 active torsions:
REMARK  status: ('A' for Active; 'I' for Inactive)
REMARK    1  A    between atoms: C_4  and  N_1 
REMARK    2  A    between atoms: N_2  and  C_3 
REMARK    3  A    between atoms: N_11  and  N_9 
REMARK    4  A    between atoms: C_17  and  C_15 
REMARK    5  A    between atoms: C_16  and  C_18 
ROOT
ATOM      1  N   UNL d   1       1.400   3.062  -4.167  0.00  0.00    -0.311 N 
ATOM      2  HN  UNL d   1       1.881   2.182  -3.982  1.00  0.00     0.186 HD
ATOM      3  C   UNL d   1       0.524   3.595  -3.378  0.00  0.00     0.118 C 
ENDROOT
BRANCH   1   4
ATOM      4  N   UNL d   1       1.601   3.841  -5.299  0.00  0.00    -0.311 N 
ATOM      5  C   UNL d   1       2.478   3.286  -6.075  0.00  0.00     0.118 C 
ATOM      6  HN  UNL d   1       1.127   4.723  -5.491  1.00  0.00     0.186 HD
BRANCH   5   7
ATOM      7  C   UNL d   1       2.895   3.899  -7.349  0.00  0.00    -0.017 A 
ATOM      8  C   UNL d   1       2.358   5.121  -7.764  0.00  0.00     0.048 A 
ATOM      9  C   UNL d   1       2.784   5.671  -8.980  0.00  0.00     0.103 A 
ATOM     10  C   UNL d   1       3.733   5.009  -9.773  0.00  0.00     0.036 A 
ATOM     11  C   UNL d   1       4.261   3.789  -9.345  0.00  0.00     0.003 A 
ATOM     12  C   UNL d   1       3.843   3.234  -8.134  0.00  0.00     0.013 A 
BRANCH   9  13
ATOM     13  N   UNL d   1       2.230   6.954  -9.429  0.00  0.00    -0.116 N 
ATOM     14  O   UNL d   1       1.393   7.509  -8.704  0.00  0.00    -0.532 OA
ATOM     15  O   UNL d   1       2.634   7.408 -10.510  0.00  0.00    -0.532 OA
ENDBRANCH   9  13
ENDBRANCH   5   7
ENDBRANCH   1   4
BRANCH   3  16
ATOM     16  C   UNL d   1       0.152   2.952  -2.104  0.00  0.00    -0.017 A 
ATOM     17  C   UNL d   1       0.743   1.742  -1.724  0.00  0.00     0.048 A 
ATOM     18  C   UNL d   1       0.374   1.156  -0.508  0.00  0.00     0.103 A 
ATOM     19  C   UNL d   1      -0.573   1.770   0.324  0.00  0.00     0.036 A 
ATOM     20  C   UNL d   1      -1.156   2.978  -0.068  0.00  0.00     0.003 A 
ATOM     21  C   UNL d   1      -0.795   3.570  -1.281  0.00  0.00     0.013 A 
BRANCH  18  22
ATOM     22  N   UNL d   1       0.985  -0.115  -0.102  0.00  0.00    -0.116 N 
ATOM     23  O   UNL d   1       1.813  -0.630  -0.867  0.00  0.00    -0.532 OA
ATOM     24  O   UNL d   1       0.635  -0.600   0.984  0.00  0.00    -0.532 OA
ENDBRANCH  18  22
ENDBRANCH   3  16
TORSDOF 5
