REMARK  3 active torsions:
REMARK  status: ('A' for Active; 'I' for Inactive)
REMARK       I    between atoms: C_7  and  N_1 
REMARK    1  A    between atoms: C_2  and  S_12 
REMARK    2  A    between atoms: C_15  and  C_7 
REMARK    3  A    between atoms: S_12  and  C_15 
ROOT
ATOM      1  N   UNL d   1       0.084  -1.258   0.907  0.00  0.00    -0.279 N 
ATOM      2  S   UNL d   1       0.051   1.769   0.304  0.00  0.00    -0.086 SA
ATOM      3  C   UNL d   1      -1.140  -0.748   0.341  0.00  0.00     0.059 A 
ATOM      4  C   UNL d   1       1.282  -0.725   0.336  0.00  0.00     0.059 A 
ATOM      5  C   UNL d   1       0.050  -2.170   1.978  0.00  0.00     0.238 C 
ATOM      6  C   UNL d   1      -1.279   0.617   0.023  0.00  0.00     0.033 A 
ATOM      7  C   UNL d   1       1.397   0.644   0.018  0.00  0.00     0.033 A 
ATOM      8  O   UNL d   1      -0.970  -2.801   2.291  0.00  0.00    -0.272 OA
ATOM      9  C   UNL d   1      -2.218  -1.604   0.063  0.00  0.00     0.031 A 
ATOM     10  C   UNL d   1       2.357  -1.575   0.036  0.00  0.00     0.031 A 
ATOM     11  C   UNL d   1      -2.482   1.108  -0.504  0.00  0.00     0.021 A 
ATOM     12  C   UNL d   1       2.593   1.145  -0.510  0.00  0.00     0.021 A 
ATOM     13  C   UNL d   1      -3.401  -1.117  -0.504  0.00  0.00     0.002 A 
ATOM     14  C   UNL d   1       3.541  -1.071  -0.504  0.00  0.00     0.002 A 
ATOM     15  C   UNL d   1       3.662   0.289  -0.764  0.00  0.00     0.002 A 
ATOM     16  C   UNL d   1      -3.538   0.240  -0.773  0.00  0.00     0.002 A 
ENDROOT
BRANCH   5  17
ATOM     17  C   UNL d   1       1.295  -2.386   2.852  0.00  0.00     0.186 C 
BRANCH  17  18
ATOM     18  S   UNL d   1       2.073  -0.848   3.444  0.00  0.00    -0.084 SA
BRANCH  18  19
ATOM     19  C   UNL d   1       3.293  -1.486   4.495  0.00  0.00     0.146 A 
ATOM     20  N   UNL d   1       4.414  -0.792   4.871  0.00  0.00    -0.341 N 
ATOM     21  C   UNL d   1       5.037  -1.532   5.846  0.00  0.00     0.109 A 
ATOM     22  C   UNL d   1       4.916   0.463   4.372  0.00  0.00     0.158 C 
ATOM     23  C   UNL d   1       4.296  -2.686   5.947  0.00  0.00     0.107 A 
ATOM     24  N   UNL d   1       3.231  -2.656   5.087  0.00  0.00    -0.345 N 
ATOM     25  HN  UNL d   1       2.536  -3.388   4.938  1.00  0.00     0.167 HD
ENDBRANCH  18  19
ENDBRANCH  17  18
ENDBRANCH   5  17
TORSDOF 3
