REMARK  4 active torsions:
REMARK  status: ('A' for Active; 'I' for Inactive)
REMARK    1  A    between atoms: C_1  and  O_7 
REMARK    2  A    between atoms: C_2  and  O_8 
REMARK    3  A    between atoms: C_3  and  O_9 
REMARK    4  A    between atoms: C_5  and  O_10 
ROOT
ATOM      1  C   UNL d   1       0.960  -0.554   0.300  0.00  0.00     0.204 C 
ATOM      2  C   UNL d   1       0.549   0.670  -0.539  0.00  0.00     0.182 C 
ATOM      3  C   UNL d   1       0.029  -1.738  -0.042  0.00  0.00     0.290 C 
ATOM      4  O   UNL d   1      -1.340  -1.384   0.185  0.00  0.00    -0.356 OA
ATOM      5  C   UNL d   1      -0.950   0.953  -0.373  0.00  0.00     0.173 C 
ATOM      6  C   UNL d   1      -1.775  -0.301  -0.647  0.00  0.00     0.205 C 
ENDROOT
BRANCH   1   7
ATOM      7  O   UNL d   1       2.329  -0.906   0.070  0.00  0.00    -0.388 OA
ATOM      8  H   UNL d   1       2.408  -1.112  -0.879  0.00  0.00     0.210 HD
ENDBRANCH   1   7
BRANCH   2   9
ATOM      9  O   UNL d   1       1.292   1.832  -0.139  0.00  0.00    -0.390 OA
ATOM     10  H   UNL d   1       0.852   2.163   0.669  0.00  0.00     0.210 HD
ENDBRANCH   2   9
BRANCH   3  11
ATOM     11  O   UNL d   1       0.262  -2.133  -1.402  0.00  0.00    -0.363 OA
ATOM     12  C   UNL d   1      -0.437  -3.326  -1.737  0.00  0.00     0.204 C 
ENDBRANCH   3  11
BRANCH   5  13
ATOM     13  O   UNL d   1      -1.179   1.407   0.976  0.00  0.00    -0.391 OA
ATOM     14  H   UNL d   1      -1.461   0.633   1.501  0.00  0.00     0.210 HD
ENDBRANCH   5  13
TORSDOF 4
