REMARK  4 active torsions:
REMARK  status: ('A' for Active; 'I' for Inactive)
REMARK    1  A    between atoms: N_5  and  C_1 
REMARK    2  A    between atoms: C_9  and  C_4 
REMARK       I    between atoms: C_8  and  N_5 
REMARK    3  A    between atoms: C_11  and  C_8 
REMARK    4  A    between atoms: N_14  and  C_11 
ROOT
ATOM      1  C   UNL d   1       0.426  -1.245  -0.065  0.00  0.00     0.151 A 
ATOM      2  N   UNL d   1       1.539  -0.566  -0.140  0.00  0.00    -0.335 N 
ATOM      3  HN  UNL d   1       2.466  -0.974  -0.259  1.00  0.00     0.168 HD
ATOM      4  C   UNL d   1       1.278   0.788  -0.034  0.00  0.00     0.051 A 
ATOM      5  S   UNL d   1      -0.999  -0.337   0.153  0.00  0.00    -0.063 SA
ATOM      6  C   UNL d   1      -0.061   1.105   0.101  0.00  0.00     0.083 A 
ENDROOT
BRANCH   1   7
ATOM      7  N   UNL d   1       0.250  -2.595  -0.140  0.00  0.00    -0.306 N 
ATOM      8  C   UNL d   1       1.281  -3.443  -0.488  0.00  0.00     0.252 C 
ATOM      9  O   UNL d   1       2.438  -3.130  -0.765  0.00  0.00    -0.271 OA
ATOM     10  H   UNL d   1      -0.687  -2.971  -0.081  0.00  0.00     0.171 HD
BRANCH   8  11
ATOM     11  C   UNL d   1       0.859  -4.911  -0.486  0.00  0.00     0.373 C 
BRANCH  11  12
ATOM     12  N   UNL d   1      -0.368  -5.137  -1.293  0.00  0.00     0.088 N 
ATOM     13  C   UNL d   1      -0.115  -4.829  -2.710  0.00  0.00     0.310 C 
ATOM     14  C   UNL d   1      -0.748  -6.552  -1.180  0.00  0.00     0.310 C 
ENDBRANCH  11  12
ENDBRANCH   8  11
ENDBRANCH   1   7
BRANCH   4  15
ATOM     15  C   UNL d   1       2.370   1.755  -0.094  0.00  0.00    -0.009 A 
ATOM     16  C   UNL d   1       3.566   1.395  -0.737  0.00  0.00     0.015 A 
ATOM     17  C   UNL d   1       4.639   2.288  -0.806  0.00  0.00     0.024 A 
ATOM     18  C   UNL d   1       4.528   3.545  -0.221  0.00  0.00     0.034 A 
ATOM     19  C   UNL d   1       3.354   3.915   0.433  0.00  0.00     0.024 A 
ATOM     20 CL   UNL d   1       5.847   4.645  -0.298  0.00  0.00    -0.084 Cl
ATOM     21  C   UNL d   1       2.277   3.022   0.496  0.00  0.00     0.015 A 
ENDBRANCH   4  15
TORSDOF 4
