REMARK  4 active torsions:
REMARK  status: ('A' for Active; 'I' for Inactive)
REMARK    1  A    between atoms: C_2  and  C_1 
REMARK       I    between atoms: N_9  and  C_2 
REMARK    2  A    between atoms: O_7  and  C_3 
REMARK    3  A    between atoms: C_4  and  C_10 
REMARK    4  A    between atoms: C_10  and  O_7 
ROOT
ATOM      1  C   UNL d   1       1.318  -0.236   0.324  0.00  0.00     0.065 A 
ATOM      2  C   UNL d   1       0.392  -1.300   0.243  0.00  0.00     0.084 A 
ATOM      3  C   UNL d   1       0.856   1.093   0.160  0.00  0.00     0.020 A 
ATOM      4  C   UNL d   1      -0.949  -0.981  -0.078  0.00  0.00     0.038 A 
ATOM      5  C   UNL d   1      -0.482   1.378  -0.104  0.00  0.00     0.001 A 
ATOM      6  C   UNL d   1      -1.381   0.339  -0.237  0.00  0.00     0.003 A 
ENDROOT
BRANCH   1   7
ATOM      7  C   UNL d   1       2.787  -0.350   0.556  0.00  0.00     0.252 C 
ATOM      8  O   UNL d   1       3.482   0.620   0.846  0.00  0.00    -0.268 OA
ATOM      9  N   UNL d   1       3.378  -1.572   0.377  0.00  0.00    -0.366 N 
ATOM     10  H   UNL d   1       2.838  -2.397   0.167  0.00  0.00     0.159 HD
ATOM     11  H   UNL d   1       4.379  -1.620   0.482  0.00  0.00     0.159 HD
ENDBRANCH   1   7
BRANCH   2  12
ATOM     12  O   UNL d   1       0.792  -2.610   0.497  0.00  0.00    -0.350 OA
BRANCH  12  13
ATOM     13  C   UNL d   1      -0.308  -3.538   0.605  0.00  0.00     0.180 C 
BRANCH  13  14
ATOM     14  C   UNL d   1       0.022  -4.918   1.078  0.00  0.00     0.010 A 
ATOM     15  C   UNL d   1       0.925  -5.178   2.251  0.00  0.00     0.007 A 
ATOM     16  C   UNL d   1       1.333  -5.620   0.867  0.00  0.00     0.007 A 
ENDBRANCH  13  14
ENDBRANCH  12  13
ENDBRANCH   2  12
TORSDOF 4
