REMARK  5 active torsions:
REMARK  status: ('A' for Active; 'I' for Inactive)
REMARK    1  A    between atoms: C_2  and  C_9 
REMARK       I    between atoms: N_5  and  C_2 
REMARK    2  A    between atoms: C_16  and  N_5 
REMARK    3  A    between atoms: C_13  and  N_6 
REMARK    4  A    between atoms: C_17  and  C_13 
REMARK    5  A    between atoms: O_25  and  C_18 
ROOT
ATOM      1  C   UNL d   1      -4.073  -3.555   3.606  0.00  0.00     0.032 A 
ATOM      2  C   UNL d   1      -4.431  -2.261   4.004  0.00  0.00     0.017 A 
ATOM      3  C   UNL d   1      -3.087  -3.714   2.620  0.00  0.00     0.017 A 
ATOM      4  C   UNL d   1      -2.857  -1.314   2.399  0.00  0.00    -0.030 A 
ATOM      5  C   UNL d   1      -3.819  -1.151   3.406  0.00  0.00     0.010 A 
ATOM      6  C   UNL d   1      -2.485  -2.610   2.021  0.00  0.00     0.010 A 
ENDROOT
BRANCH   1   7
ATOM      7  C   UNL d   1      -4.739  -4.800   4.096  0.00  0.00     0.256 C 
ATOM      8  N   UNL d   1      -5.444  -4.726   5.287  0.00  0.00    -0.323 N 
ATOM      9  H   UNL d   1      -5.485  -3.841   5.769  0.00  0.00     0.169 HD
ATOM     10  O   UNL d   1      -4.636  -5.799   3.389  0.00  0.00    -0.267 OA
BRANCH   8  11
ATOM     11  C   UNL d   1      -6.229  -5.765   5.842  0.00  0.00     0.035 A 
ATOM     12  C   UNL d   1      -6.186  -7.087   5.392  0.00  0.00     0.032 A 
ATOM     13  C   UNL d   1      -7.063  -8.050   5.900  0.00  0.00     0.039 A 
ATOM     14  C   UNL d   1      -8.000  -7.699   6.866  0.00  0.00     0.068 A 
ATOM     15  C   UNL d   1      -7.995  -6.403   7.381  0.00  0.00     0.039 A 
ATOM     16  C   UNL d   1      -7.113  -5.440   6.875  0.00  0.00     0.032 A 
BRANCH  14  17
ATOM     17  O   UNL d   1      -8.931  -8.555   7.387  0.00  0.00    -0.356 OA
ATOM     18  C   UNL d   1      -9.430  -9.517   6.459  0.00  0.00     0.210 C 
ENDBRANCH  14  17
ENDBRANCH   8  11
ENDBRANCH   1   7
BRANCH   4  19
ATOM     19  C   UNL d   1      -2.265  -0.122   1.684  0.00  0.00     0.311 C 
BRANCH  19  20
ATOM     20  N   UNL d   1      -1.450   0.753   2.541  0.00  0.00     0.094 N 
ATOM     21  C   UNL d   1      -0.271   0.103   3.138  0.00  0.00     0.287 C 
ATOM     22  C   UNL d   1       0.780  -0.368   2.151  0.00  0.00     0.170 C 
ATOM     23  S   UNL d   1       1.351   0.984   1.147  0.00  0.00     0.147 S 
ATOM     24  C   UNL d   1      -0.138   1.813   0.663  0.00  0.00     0.170 C 
ATOM     25  O   UNL d   1       1.948   0.417  -0.048  0.00  0.00    -0.228 OA
ATOM     26  O   UNL d   1       2.113   1.882   1.995  0.00  0.00    -0.228 OA
ATOM     27  C   UNL d   1      -1.067   1.998   1.853  0.00  0.00     0.287 C 
ENDBRANCH  19  20
ENDBRANCH   4  19
TORSDOF 5
