REMARK  4 active torsions:
REMARK  status: ('A' for Active; 'I' for Inactive)
REMARK    1  A    between atoms: C_12  and  N_1 
REMARK    2  A    between atoms: C_10  and  N_4 
REMARK    3  A    between atoms: C_18  and  C_9 
REMARK    4  A    between atoms: C_20  and  C_12 
ROOT
ATOM      1  N   UNL d   1       1.134  -1.363   0.012  0.00  0.00    -0.285 N 
ATOM      2  C   UNL d   1      -0.078  -0.693  -0.023  0.00  0.00     0.097 A 
ATOM      3  C   UNL d   1      -0.223   0.661   0.039  0.00  0.00     0.068 A 
ATOM      4  N   UNL d   1       2.160   0.818   0.045  0.00  0.00    -0.229 N 
ATOM      5  C   UNL d   1       2.298  -0.588   0.091  0.00  0.00     0.337 C 
ATOM      6  C   UNL d   1       0.942   1.514   0.095  0.00  0.00     0.269 C 
ATOM      7  S   UNL d   1      -1.552  -1.511  -0.126  0.00  0.00    -0.070 SA
ATOM      8  C   UNL d   1      -1.601   1.038   0.033  0.00  0.00     0.039 A 
ATOM      9  C   UNL d   1      -2.458  -0.050  -0.021  0.00  0.00     0.018 A 
ATOM     10  O   UNL d   1       3.397  -1.135   0.238  0.00  0.00    -0.246 OA
ATOM     11  O   UNL d   1       0.817   2.732   0.147  0.00  0.00    -0.266 OA
ENDROOT
BRANCH   4  12
ATOM     12  C   UNL d   1       3.372   1.587   0.033  0.00  0.00     0.049 A 
ATOM     13  C   UNL d   1       4.364   1.326  -0.926  0.00  0.00     0.056 A 
ATOM     14  C   UNL d   1       5.574   2.026  -0.908  0.00  0.00     0.058 A 
ATOM     15 CL   UNL d   1       6.729   1.665  -2.143  0.00  0.00    -0.082 Cl
ATOM     16  C   UNL d   1       5.815   2.978   0.087  0.00  0.00     0.055 A 
ATOM     17  C   UNL d   1       4.825   3.253   1.035  0.00  0.00     0.028 A 
ATOM     18 CL   UNL d   1       7.308   3.837   0.209  0.00  0.00    -0.083 Cl
ATOM     19  C   UNL d   1       3.603   2.576   0.997  0.00  0.00     0.032 A 
ENDBRANCH   4  12
BRANCH   1  20
ATOM     20  C   UNL d   1       1.279  -2.825  -0.043  0.00  0.00     0.212 C 
BRANCH  20  21
ATOM     21  C   UNL d   1       0.750  -3.627   1.143  0.00  0.00     0.141 C 
ATOM     22  O   UNL d   1       0.472  -4.823   1.005  0.00  0.00    -0.297 OA
ATOM     23  C   UNL d   1       0.731  -3.019   2.521  0.00  0.00     0.092 C 
ENDBRANCH  20  21
ENDBRANCH   1  20
BRANCH   9  24
ATOM     24  C   UNL d   1      -3.931  -0.064  -0.023  0.00  0.00    -0.019 A 
ATOM     25  C   UNL d   1      -4.668  -1.125   0.533  0.00  0.00     0.013 A 
ATOM     26  C   UNL d   1      -6.067  -1.104   0.540  0.00  0.00     0.001 A 
ATOM     27  C   UNL d   1      -6.751  -0.021  -0.003  0.00  0.00     0.000 A 
ATOM     28  C   UNL d   1      -6.041   1.041  -0.553  0.00  0.00     0.001 A 
ATOM     29  C   UNL d   1      -4.644   1.019  -0.564  0.00  0.00     0.013 A 
ENDBRANCH   9  24
TORSDOF 4
