REMARK  2 active torsions:
REMARK  status: ('A' for Active; 'I' for Inactive)
REMARK       I    between atoms: N_2  and  C_1 
REMARK       I    between atoms: N_5  and  C_1 
REMARK    1  A    between atoms: C_10  and  N_5 
REMARK    2  A    between atoms: O_14  and  C_13 
ROOT
ATOM      1  C   UNL d   1       0.585   0.267  -0.523  0.00  0.00     0.328 C 
ATOM      2  N   UNL d   1      -0.095   1.292   0.177  0.00  0.00    -0.293 N 
ATOM      3  C   UNL d   1      -1.333   1.057   0.937  0.00  0.00     0.099 C 
ATOM      4  N   UNL d   1      -0.071   3.238   2.545  0.00  0.00    -0.325 N 
ATOM      5  N   UNL d   1       0.175  -1.013  -0.197  0.00  0.00    -0.306 N 
ATOM      6  C   UNL d   1       0.389   2.643   0.129  0.00  0.00     0.066 A 
ATOM      7  C   UNL d   1      -0.699   2.196   3.133  0.00  0.00     0.224 C 
ATOM      8  C   UNL d   1      -1.048   0.930   2.416  0.00  0.00     0.128 C 
ATOM      9  C   UNL d   1       0.376   3.514   1.238  0.00  0.00     0.062 A 
ATOM     10  O   UNL d   1       1.516   0.460  -1.305  0.00  0.00    -0.246 OA
ATOM     11  O   UNL d   1      -0.952   2.296   4.337  0.00  0.00    -0.273 OA
ATOM     12  C   UNL d   1      -2.477   2.017   0.576  0.00  0.00     0.033 C 
ATOM     13  C   UNL d   1       0.868   3.143  -1.101  0.00  0.00     0.032 A 
ATOM     14  C   UNL d   1       0.877   4.825   1.082  0.00  0.00     0.032 A 
ATOM     15  C   UNL d   1       1.340   4.448  -1.240  0.00  0.00     0.002 A 
ATOM     16  C   UNL d   1       1.351   5.291  -0.143  0.00  0.00     0.002 A 
ATOM     17  H   UNL d   1       0.063   3.979   3.224  0.00  0.00     0.169 HD
ATOM     18  H   UNL d   1      -0.094  -1.162   0.764  0.00  0.00     0.171 HD
ENDROOT
BRANCH   5  19
ATOM     19  C   UNL d   1       0.598  -2.187  -0.858  0.00  0.00     0.069 A 
ATOM     20  C   UNL d   1       0.730  -3.369  -0.113  0.00  0.00     0.095 A 
ATOM     21  C   UNL d   1       1.038  -4.578  -0.740  0.00  0.00     0.039 A 
ATOM     22  C   UNL d   1       1.248  -4.606  -2.119  0.00  0.00     0.003 A 
ATOM     23  C   UNL d   1       1.146  -3.431  -2.864  0.00  0.00     0.002 A 
ATOM     24  C   UNL d   1       0.823  -2.224  -2.236  0.00  0.00     0.032 A 
BRANCH  20  25
ATOM     25  O   UNL d   1       0.549  -3.385   1.249  0.00  0.00    -0.354 OA
ATOM     26  C   UNL d   1       1.656  -2.775   1.925  0.00  0.00     0.210 C 
ENDBRANCH  20  25
ENDBRANCH   5  19
TORSDOF 2
