REMARK  2 active torsions:
REMARK  status: ('A' for Active; 'I' for Inactive)
REMARK    1  A    between atoms: N_10  and  N_2 
REMARK    2  A    between atoms: S_11  and  C_5 
ROOT
ATOM      1  C   UNL d   1      -0.058  -1.249  -0.001  0.00  0.00     0.156 A 
ATOM      2  N   UNL d   1       1.171  -0.621   0.093  0.00  0.00    -0.238 N 
ATOM      3  N   UNL d   1      -0.987  -0.327  -0.196  0.00  0.00    -0.281 N 
ATOM      4  HN  UNL d   1      -1.982  -0.505  -0.332  1.00  0.00     0.188 HD
ATOM      5  C   UNL d   1       0.897   0.722   0.002  0.00  0.00     0.175 A 
ATOM      6  N   UNL d   1      -0.387   0.913  -0.183  0.00  0.00    -0.277 N 
ATOM      7  HN  UNL d   1      -0.854   1.812  -0.297  1.00  0.00     0.189 HD
ATOM      8  C   UNL d   1      -0.346  -2.655   0.051  0.00  0.00     0.051 A 
ATOM      9  S   UNL d   1       0.634  -3.797   0.871  0.00  0.00    -0.098 SA
ATOM     10  C   UNL d   1      -1.458  -3.268  -0.499  0.00  0.00     0.023 A 
ATOM     11  C   UNL d   1      -0.403  -5.094   0.468  0.00  0.00     0.050 A 
ATOM     12  C   UNL d   1      -1.485  -4.675  -0.270  0.00  0.00     0.009 A 
ENDROOT
BRANCH   2  13
ATOM     13  N   UNL d   1       2.488  -1.216   0.168  0.00  0.00    -0.239 NA
ATOM     14  H   UNL d   1       2.421  -2.211   0.385  0.00  0.00     0.143 HD
ATOM     15  H   UNL d   1       2.943  -1.170  -0.744  0.00  0.00     0.143 HD
ENDBRANCH   2  13
BRANCH   5  16
ATOM     16  S   UNL d   1       2.115   1.945   0.086  0.00  0.00    -0.104 SA
ATOM     17  H   UNL d   1       3.136   1.147   0.438  0.00  0.00     0.110 HD
ENDBRANCH   5  16
TORSDOF 2
