REMARK  3 active torsions:
REMARK  status: ('A' for Active; 'I' for Inactive)
REMARK    1  A    between atoms: C_2  and  C_1 
REMARK    2  A    between atoms: C_14  and  N_3 
REMARK    3  A    between atoms: C_11  and  C_4 
ROOT
ATOM      1  C   UNL d   1      -0.479  -2.900  -0.072  0.00  0.00     0.071 A 
ATOM      2  C   UNL d   1      -0.029  -3.749   0.983  0.00  0.00     0.083 A 
ATOM      3  N   UNL d   1      -0.540  -4.982   0.815  0.00  0.00    -0.259 N 
ATOM      4  HN  UNL d   1      -0.439  -5.773   1.451  1.00  0.00     0.195 HD
ATOM      5  C   UNL d   1      -1.181  -3.731  -0.920  0.00  0.00     0.089 A 
ATOM      6  O   UNL d   1      -1.223  -4.972  -0.376  0.00  0.00    -0.241 OA
ATOM      7  C   UNL d   1      -1.820  -3.607  -2.247  0.00  0.00     0.080 C 
ENDROOT
BRANCH   1   8
ATOM      8  C   UNL d   1      -0.227  -1.456  -0.283  0.00  0.00     0.153 C 
ATOM      9  N   UNL d   1      -1.074  -0.513  -0.847  0.00  0.00    -0.224 N 
ATOM     10  N   UNL d   1      -0.330   0.570  -1.174  0.00  0.00     0.001 NA
ATOM     11  N   UNL d   1       0.848   0.378  -0.597  0.00  0.00    -0.007 NA
ATOM     12  N   UNL d   1       0.915  -0.858  -0.010  0.00  0.00    -0.269 N 
ATOM     13  HN  UNL d   1       1.693  -1.239   0.530  1.00  0.00     0.185 HD
BRANCH   9  14
ATOM     14  C   UNL d   1      -2.487  -0.502  -0.962  0.00  0.00     0.056 A 
ATOM     15  C   UNL d   1      -3.282  -1.281  -0.108  0.00  0.00     0.031 A 
ATOM     16  C   UNL d   1      -4.671  -1.261  -0.230  0.00  0.00     0.002 A 
ATOM     17  C   UNL d   1      -5.272  -0.468  -1.204  0.00  0.00     0.000 A 
ATOM     18  C   UNL d   1      -4.489   0.328  -2.040  0.00  0.00     0.002 A 
ATOM     19  C   UNL d   1      -3.098   0.327  -1.913  0.00  0.00     0.031 A 
ENDBRANCH   9  14
ENDBRANCH   1   8
BRANCH   2  20
ATOM     20  C   UNL d   1       0.732  -3.423   2.191  0.00  0.00     0.015 A 
ATOM     21  C   UNL d   1       1.775  -4.233   2.675  0.00  0.00     0.046 A 
ATOM     22 CL   UNL d   1       2.365  -5.625   1.829  0.00  0.00    -0.083 Cl
ATOM     23  C   UNL d   1       2.418  -3.917   3.879  0.00  0.00     0.025 A 
ATOM     24  C   UNL d   1       2.045  -2.787   4.605  0.00  0.00     0.002 A 
ATOM     25  C   UNL d   1       1.029  -1.966   4.129  0.00  0.00     0.001 A 
ATOM     26  C   UNL d   1       0.372  -2.285   2.937  0.00  0.00     0.015 A 
ENDBRANCH   2  20
TORSDOF 3
