REMARK  2 active torsions:
REMARK  status: ('A' for Active; 'I' for Inactive)
REMARK    1  A    between atoms: N_11  and  N_7 
REMARK    2  A    between atoms: C_18  and  C_15 
ROOT
ATOM      1  C   UNL d   1      -0.078  -0.654   0.022  0.00  0.00     0.133 A 
ATOM      2  C   UNL d   1      -0.258   0.665   0.038  0.00  0.00     0.122 A 
ATOM      3  N   UNL d   1      -1.266  -1.359  -0.025  0.00  0.00    -0.321 N 
ATOM      4  N   UNL d   1       1.130  -1.271   0.072  0.00  0.00    -0.329 N 
ATOM      5  HN  UNL d   1       1.210  -2.288   0.063  1.00  0.00     0.168 HD
ATOM      6  C   UNL d   1       0.892   1.559   0.154  0.00  0.00     0.288 A 
ATOM      7  N   UNL d   1       2.136   0.891   0.116  0.00  0.00    -0.207 N 
ATOM      8  C   UNL d   1      -2.411  -0.556  -0.027  0.00  0.00     0.147 A 
ATOM      9  S   UNL d   1      -1.901   1.147  -0.003  0.00  0.00    -0.051 SA
ATOM     10  C   UNL d   1       2.184  -0.505   0.132  0.00  0.00     0.104 A 
ATOM     11  S   UNL d   1      -4.007  -1.031  -0.039  0.00  0.00    -0.052 SA
ATOM     12  O   UNL d   1       0.725   2.770   0.302  0.00  0.00    -0.265 OA
ATOM     13  C   UNL d   1      -1.305  -2.813  -0.018  0.00  0.00     0.159 C 
ATOM     14  C   UNL d   1       3.521  -1.202   0.178  0.00  0.00     0.091 C 
ENDROOT
BRANCH   7  15
ATOM     15  N   UNL d   1       3.331   1.606   0.308  0.00  0.00    -0.300 N 
ATOM     16  C   UNL d   1       3.390   2.794  -0.217  0.00  0.00     0.119 C 
ATOM     17  HN  UNL d   1       4.113   1.213   0.833  1.00  0.00     0.186 HD
BRANCH  16  18
ATOM     18  C   UNL d   1       4.477   3.767   0.032  0.00  0.00    -0.019 A 
ATOM     19  C   UNL d   1       5.561   3.487   0.865  0.00  0.00     0.013 A 
ATOM     20  C   UNL d   1       6.536   4.468   1.084  0.00  0.00     0.001 A 
ATOM     21  C   UNL d   1       6.423   5.723   0.478  0.00  0.00     0.000 A 
ATOM     22  C   UNL d   1       5.336   6.004  -0.345  0.00  0.00     0.001 A 
ATOM     23  C   UNL d   1       4.362   5.030  -0.567  0.00  0.00     0.013 A 
ENDBRANCH  16  18
ENDBRANCH   7  15
TORSDOF 2
