REMARK  5 active torsions:
REMARK  status: ('A' for Active; 'I' for Inactive)
REMARK    1  A    between atoms: C_10  and  C_3 
REMARK    2  A    between atoms: C_8  and  C_7 
REMARK    3  A    between atoms: C_9  and  C_8 
REMARK    4  A    between atoms: O_17  and  C_9 
REMARK    5  A    between atoms: C_19  and  O_17 
ROOT
ATOM      1  N   UNL d   1       1.028  -0.641   0.240  0.00  0.00    -0.277 N 
ATOM      2  HN  UNL d   1       1.857  -1.222   0.370  1.00  0.00     0.189 HD
ATOM      3  C   UNL d   1      -0.202  -1.063   0.020  0.00  0.00     0.174 A 
ATOM      4  O   UNL d   1      -1.086  -0.029  -0.147  0.00  0.00    -0.277 OA
ATOM      5  N   UNL d   1       0.978   0.737   0.260  0.00  0.00    -0.281 N 
ATOM      6  HN  UNL d   1       1.761   1.376   0.402  1.00  0.00     0.189 HD
ATOM      7  C   UNL d   1      -0.282   1.063   0.061  0.00  0.00     0.149 A 
ENDROOT
BRANCH   3   8
ATOM      8  C   UNL d   1      -0.720  -2.424  -0.049  0.00  0.00     0.017 A 
ATOM      9  C   UNL d   1       0.153  -3.502   0.169  0.00  0.00     0.017 A 
ATOM     10  C   UNL d   1      -0.307  -4.821   0.127  0.00  0.00     0.025 A 
ATOM     11  C   UNL d   1      -1.650  -5.075  -0.138  0.00  0.00     0.034 A 
ATOM     12  C   UNL d   1      -2.534  -4.021  -0.358  0.00  0.00     0.025 A 
ATOM     13 CL   UNL d   1      -2.220  -6.697  -0.187  0.00  0.00    -0.084 Cl
ATOM     14  C   UNL d   1      -2.071  -2.700  -0.314  0.00  0.00     0.017 A 
ENDBRANCH   3   8
BRANCH   7  15
ATOM     15  C   UNL d   1      -0.879   2.404  -0.042  0.00  0.00     0.197 C 
BRANCH  15  16
ATOM     16  C   UNL d   1      -1.973   2.582   0.977  0.00  0.00     0.266 C 
ATOM     17  O   UNL d   1      -2.380   1.750   1.773  0.00  0.00    -0.265 OA
BRANCH  16  18
ATOM     18  O   UNL d   1      -2.521   3.825   0.804  0.00  0.00    -0.322 OA
BRANCH  18  19
ATOM     19  C   UNL d   1      -3.822   4.010   1.381  0.00  0.00     0.174 C 
ATOM     20  C   UNL d   1      -4.849   3.576   0.351  0.00  0.00     0.034 C 
ENDBRANCH  18  19
ENDBRANCH  16  18
ENDBRANCH  15  16
ENDBRANCH   7  15
TORSDOF 5
