REMARK  2 active torsions:
REMARK  status: ('A' for Active; 'I' for Inactive)
REMARK    1  A    between atoms: C_4  and  C_2 
REMARK       I    between atoms: N_8  and  C_4 
REMARK    2  A    between atoms: C_13  and  N_8 
ROOT
ATOM      1  S   UNL d   1      -1.708   1.937   0.500  0.00  0.00    -0.083 SA
ATOM      2  C   UNL d   1      -3.201   1.150   0.269  0.00  0.00     0.074 A 
ATOM      3  C   UNL d   1      -0.790   0.487   0.265  0.00  0.00     0.027 A 
ATOM      4  C   UNL d   1      -3.021  -0.208   0.106  0.00  0.00     0.037 A 
ATOM      5  C   UNL d   1      -1.645  -0.609   0.108  0.00  0.00    -0.017 A 
ATOM      6  C   UNL d   1       0.631   0.333   0.212  0.00  0.00    -0.008 A 
ATOM      7  C   UNL d   1      -1.076  -1.893  -0.057  0.00  0.00     0.014 A 
ATOM      8  C   UNL d   1       1.165  -0.963   0.022  0.00  0.00    -0.025 A 
ATOM      9  C   UNL d   1       0.310  -2.060  -0.093  0.00  0.00     0.013 A 
ATOM     10  C   UNL d   1       1.503   1.438   0.314  0.00  0.00     0.013 A 
ATOM     11  C   UNL d   1       2.558  -1.120  -0.063  0.00  0.00     0.012 A 
ATOM     12  C   UNL d   1       2.885   1.260   0.210  0.00  0.00     0.001 A 
ATOM     13  C   UNL d   1       3.409  -0.017   0.024  0.00  0.00     0.001 A 
ENDROOT
BRANCH   2  14
ATOM     14  C   UNL d   1      -4.473   1.864   0.218  0.00  0.00     0.263 C 
ATOM     15  N   UNL d   1      -4.390   3.229   0.448  0.00  0.00    -0.323 N 
ATOM     16  H   UNL d   1      -3.458   3.581   0.634  0.00  0.00     0.169 HD
ATOM     17  O   UNL d   1      -5.515   1.268  -0.048  0.00  0.00    -0.267 OA
BRANCH  15  18
ATOM     18  C   UNL d   1      -5.410   4.188   0.296  0.00  0.00     0.035 A 
ATOM     19  C   UNL d   1      -6.750   3.868   0.063  0.00  0.00     0.031 A 
ATOM     20  C   UNL d   1      -7.692   4.874  -0.176  0.00  0.00     0.026 A 
ATOM     21  C   UNL d   1      -7.297   6.208  -0.175  0.00  0.00     0.034 A 
ATOM     22  C   UNL d   1      -5.974   6.546   0.097  0.00  0.00     0.026 A 
ATOM     23 CL   UNL d   1      -8.445   7.440  -0.523  0.00  0.00    -0.084 Cl
ATOM     24  C   UNL d   1      -5.035   5.538   0.342  0.00  0.00     0.031 A 
ENDBRANCH  15  18
ENDBRANCH   2  14
TORSDOF 2
