REMARK  6 active torsions:
REMARK  status: ('A' for Active; 'I' for Inactive)
REMARK    1  A    between atoms: C_4  and  C_1 
REMARK    2  A    between atoms: C_2  and  C_3 
REMARK    3  A    between atoms: C_7  and  C_6 
REMARK    4  A    between atoms: C_11  and  C_7 
REMARK    5  A    between atoms: C_8  and  N_14 
REMARK    6  A    between atoms: N_14  and  C_12 
ROOT
ATOM      1  C   UNL d   1       0.102   1.363  -0.097  0.00  0.00     0.050 A 
ATOM      2  C   UNL d   1       1.041   3.549   0.424  0.00  0.00     0.050 A 
ATOM      3  C   UNL d   1       1.042   2.372  -0.339  0.00  0.00     0.032 A 
ATOM      4  C   UNL d   1       0.081   3.699   1.444  0.00  0.00     0.045 A 
ATOM      5  C   UNL d   1      -0.837   1.539   0.934  0.00  0.00     0.045 A 
ATOM      6  C   UNL d   1      -0.874   2.707   1.706  0.00  0.00     0.033 A 
ENDROOT
BRANCH   6   7
ATOM      7  N   UNL d   1      -1.770   2.882   2.775  0.00  0.00    -0.366 N 
ATOM      8  H   UNL d   1      -1.948   3.842   3.049  0.00  0.00     0.165 HD
BRANCH   7   9
ATOM      9  C   UNL d   1      -2.465   1.909   3.451  0.00  0.00     0.092 C 
ATOM     10  C   UNL d   1      -3.415   2.085   4.379  0.00  0.00     0.072 C 
BRANCH  10  11
ATOM     11  C   UNL d   1      -3.993   0.887   5.052  0.00  0.00     0.183 C 
ATOM     12  O   UNL d   1      -3.875  -0.231   4.554  0.00  0.00    -0.288 OA
BRANCH  11  13
ATOM     13  C   UNL d   1      -4.703   1.045   6.358  0.00  0.00     0.014 A 
ATOM     14  C   UNL d   1      -4.829   2.268   7.035  0.00  0.00     0.018 A 
ATOM     15  C   UNL d   1      -5.476   2.326   8.274  0.00  0.00     0.043 A 
ATOM     16  C   UNL d   1      -5.991   1.167   8.842  0.00  0.00     0.116 A 
ATOM     17  C   UNL d   1      -5.876  -0.054   8.193  0.00  0.00     0.043 A 
ATOM     18  F   UNL d   1      -6.598   1.230  10.034  0.00  0.00    -0.206 F 
ATOM     19  C   UNL d   1      -5.235  -0.114   6.952  0.00  0.00     0.018 A 
ENDBRANCH  11  13
ENDBRANCH  10  11
ENDBRANCH   7   9
ENDBRANCH   6   7
BRANCH   1  20
ATOM     20  C   UNL d   1       0.069   0.101  -0.925  0.00  0.00     0.417 C 
ATOM     21  F   UNL d   1       1.014   0.074  -1.905  0.00  0.00    -0.166 F 
ATOM     22  F   UNL d   1       0.271  -1.019  -0.179  0.00  0.00    -0.166 F 
ATOM     23  F   UNL d   1      -1.125  -0.075  -1.554  0.00  0.00    -0.166 F 
ENDBRANCH   1  20
BRANCH   2  24
ATOM     24  C   UNL d   1       2.047   4.645   0.166  0.00  0.00     0.417 C 
ATOM     25  F   UNL d   1       2.895   4.373  -0.865  0.00  0.00    -0.166 F 
ATOM     26  F   UNL d   1       2.837   4.895   1.245  0.00  0.00    -0.166 F 
ATOM     27  F   UNL d   1       1.451   5.830  -0.145  0.00  0.00    -0.166 F 
ENDBRANCH   2  24
TORSDOF 6
