REMARK  2 active torsions:
REMARK  status: ('A' for Active; 'I' for Inactive)
REMARK    1  A    between atoms: C_7  and  C_1 
REMARK    2  A    between atoms: O_14  and  C_8 
ROOT
ATOM      1  C   UNL d   1      -2.362   0.041  -0.079  0.00  0.00     0.063 A 
ATOM      2  N   UNL d   1      -1.599   0.074  -1.226  0.00  0.00    -0.340 N 
ATOM      3  HN  UNL d   1      -1.938   0.111  -2.188  1.00  0.00     0.167 HD
ATOM      4  N   UNL d   1      -0.259  -0.044   0.554  0.00  0.00    -0.317 N 
ATOM      5  C   UNL d   1      -0.346   0.048  -0.828  0.00  0.00     0.111 A 
ATOM      6  C   UNL d   1      -1.544  -0.042   1.034  0.00  0.00     0.128 A 
ATOM      7  C   UNL d   1       0.946  -0.123   1.248  0.00  0.00     0.098 A 
ATOM      8  C   UNL d   1       0.876   0.089  -1.553  0.00  0.00     0.049 A 
ATOM      9  C   UNL d   1       2.101  -0.097   0.559  0.00  0.00     0.018 A 
ATOM     10  C   UNL d   1       2.050   0.021  -0.892  0.00  0.00     0.005 A 
ENDROOT
BRANCH   1  11
ATOM     11  C   UNL d   1      -3.829   0.052  -0.055  0.00  0.00     0.027 A 
ATOM     12  C   UNL d   1      -4.604   0.705  -1.058  0.00  0.00     0.102 A 
ATOM     13  C   UNL d   1      -6.010   0.639  -0.960  0.00  0.00     0.068 A 
ATOM     14 CL   UNL d   1      -7.138   1.361  -2.058  0.00  0.00    -0.081 Cl
ATOM     15  C   UNL d   1      -6.620  -0.042   0.106  0.00  0.00     0.027 A 
ATOM     16  C   UNL d   1      -5.862  -0.665   1.086  0.00  0.00     0.003 A 
ATOM     17  C   UNL d   1      -4.476  -0.621   1.002  0.00  0.00     0.017 A 
BRANCH  12  18
ATOM     18  O   UNL d   1      -3.858   1.369  -1.994  0.00  0.00    -0.353 OA
ATOM     19  C   UNL d   1      -4.424   1.992  -3.128  0.00  0.00     0.210 C 
ENDBRANCH  12  18
ENDBRANCH   1  11
TORSDOF 2
