REMARK  2 active torsions:
REMARK  status: ('A' for Active; 'I' for Inactive)
REMARK    1  A    between atoms: C_2  and  C_1 
REMARK    2  A    between atoms: O_20  and  C_5 
ROOT
ATOM      1  C   UNL d   1      -0.646   1.110  -0.000  0.00  0.00     0.092 A 
ATOM      2  N   UNL d   1      -1.377  -0.021  -0.001  0.00  0.00    -0.325 N 
ATOM      3  HN  UNL d   1      -2.397  -0.008  -0.004  1.00  0.00     0.169 HD
ATOM      4  C   UNL d   1      -0.675  -1.167   0.002  0.00  0.00     0.165 A 
ATOM      5  N   UNL d   1       0.704   1.119   0.001  0.00  0.00    -0.347 N 
ATOM      6  HN  UNL d   1       1.216   2.001  -0.000  1.00  0.00     0.167 HD
ATOM      7  C   UNL d   1       0.702  -1.274   0.005  0.00  0.00     0.106 A 
ATOM      8  C   UNL d   1       1.368  -0.067   0.003  0.00  0.00     0.032 A 
ATOM      9 CL   UNL d   1       1.486  -2.804   0.012  0.00  0.00    -0.078 Cl
ATOM     10  C   UNL d   1       2.863   0.060   0.005  0.00  0.00     0.070 C 
ENDROOT
BRANCH   1  11
ATOM     11  C   UNL d   1      -1.379   2.449   0.002  0.00  0.00     0.019 C 
ATOM     12  C   UNL d   1      -2.276   2.573   1.262  0.00  0.00     0.022 C 
ATOM     13  C   UNL d   1      -3.029   3.917   1.267  0.00  0.00    -0.013 C 
ATOM     14  C   UNL d   1      -2.014   5.071   1.262  0.00  0.00     0.009 C 
ATOM     15  C   UNL d   1      -3.906   4.013   0.007  0.00  0.00     0.009 C 
ATOM     16  C   UNL d   1      -1.133   4.989   0.007  0.00  0.00    -0.013 C 
ATOM     17  C   UNL d   1      -0.385   3.647   0.004  0.00  0.00     0.022 C 
ATOM     18  C   UNL d   1      -2.017   5.076  -1.246  0.00  0.00     0.009 C 
ATOM     19  C   UNL d   1      -3.031   3.922  -1.254  0.00  0.00    -0.013 C 
ATOM     20  C   UNL d   1      -2.278   2.577  -1.256  0.00  0.00     0.022 C 
ENDBRANCH   1  11
BRANCH   4  21
ATOM     21  O   UNL d   1      -1.474  -2.269   0.001  0.00  0.00    -0.345 OA
ATOM     22  H   UNL d   1      -2.355  -1.855  -0.003  0.00  0.00     0.219 HD
ENDBRANCH   4  21
TORSDOF 2
