REMARK  6 active torsions:
REMARK  status: ('A' for Active; 'I' for Inactive)
REMARK    1  A    between atoms: C_6  and  C_1 
REMARK    2  A    between atoms: N_3  and  C_2 
REMARK       I    between atoms: C_7  and  N_3 
REMARK    3  A    between atoms: C_13  and  C_7 
REMARK    4  A    between atoms: C_9  and  C_14 
REMARK    5  A    between atoms: O_15  and  C_9 
REMARK    6  A    between atoms: C_14  and  C_13 
ROOT
ATOM      1  N   UNL d   1       2.587   1.594   0.388  0.00  0.00    -0.326 N 
ATOM      2  C   UNL d   1       2.788   2.956   0.455  0.00  0.00     0.222 C 
ATOM      3  O   UNL d   1       1.911   3.810   0.554  0.00  0.00    -0.273 OA
ATOM      4  H   UNL d   1       3.379   0.965   0.528  0.00  0.00     0.169 HD
ENDROOT
BRANCH   1   5
ATOM      5  C   UNL d   1       1.344   0.971   0.261  0.00  0.00     0.056 A 
ATOM      6  C   UNL d   1       1.194  -0.403   0.424  0.00  0.00     0.077 A 
ATOM      7  S   UNL d   1      -0.435  -0.887   0.204  0.00  0.00    -0.096 SA
ATOM      8  C   UNL d   1      -0.940   0.702  -0.139  0.00  0.00     0.053 A 
ATOM      9  C   UNL d   1       0.104   1.595  -0.070  0.00  0.00     0.038 A 
BRANCH   6  10
ATOM     10  C   UNL d   1       2.241  -1.364   0.762  0.00  0.00     0.164 C 
ATOM     11  O   UNL d   1       3.416  -1.007   0.915  0.00  0.00    -0.292 OA
ATOM     12  C   UNL d   1       1.884  -2.819   0.954  0.00  0.00     0.097 C 
ENDBRANCH   6  10
ENDBRANCH   1   5
BRANCH   2  13
ATOM     13  C   UNL d   1       4.247   3.350   0.390  0.00  0.00     0.113 C 
BRANCH  13  14
ATOM     14  C   UNL d   1       4.607   4.257   1.559  0.00  0.00     0.119 C 
BRANCH  14  15
ATOM     15  C   UNL d   1       5.985   4.844   1.385  0.00  0.00     0.139 C 
ATOM     16  O   UNL d   1       6.741   4.599   0.459  0.00  0.00    -0.650 OA
BRANCH  15  17
ATOM     17  O   UNL d   1       6.322   5.681   2.392  0.00  0.00    -0.776 OA
ATOM     18  H   UNL d   1       5.623   5.792   3.065  0.00  0.00     0.167 HD
ENDBRANCH  15  17
ENDBRANCH  14  15
ENDBRANCH  13  14
ENDBRANCH   2  13
TORSDOF 6
