REMARK  4 active torsions:
REMARK  status: ('A' for Active; 'I' for Inactive)
REMARK    1  A    between atoms: C_2  and  N_1 
REMARK       I    between atoms: C_3  and  N_1 
REMARK    2  A    between atoms: N_5  and  C_2 
REMARK    3  A    between atoms: C_4  and  C_3 
REMARK    4  A    between atoms: C_9  and  N_5 
ROOT
ATOM      1  C   UNL d   1       0.253  -3.101   0.110  0.00  0.00     0.174 C 
ATOM      2  S   UNL d   1      -1.374  -3.121   0.476  0.00  0.00    -0.041 SA
ENDROOT
BRANCH   1   3
ATOM      3  N   UNL d   1       0.887  -3.760  -0.923  0.00  0.00    -0.300 N 
ATOM      4  C   UNL d   1       0.389  -4.835  -1.651  0.00  0.00     0.257 C 
ATOM      5  O   UNL d   1      -0.400  -5.667  -1.215  0.00  0.00    -0.267 OA
ATOM      6  H   UNL d   1       1.620  -3.216  -1.337  0.00  0.00     0.171 HD
BRANCH   4   7
ATOM      7  C   UNL d   1       0.939  -5.057  -3.021  0.00  0.00     0.034 A 
ATOM      8  C   UNL d   1       2.206  -4.627  -3.427  0.00  0.00     0.042 A 
ATOM      9  C   UNL d   1       2.651  -4.899  -4.731  0.00  0.00     0.056 A 
ATOM     10 CL   UNL d   1       4.228  -4.337  -5.166  0.00  0.00    -0.083 Cl
ATOM     11  C   UNL d   1       1.837  -5.602  -5.627  0.00  0.00     0.055 A 
ATOM     12  C   UNL d   1       0.578  -6.046  -5.215  0.00  0.00     0.026 A 
ATOM     13 CL   UNL d   1       2.328  -5.963  -7.244  0.00  0.00    -0.083 Cl
ATOM     14  C   UNL d   1       0.136  -5.777  -3.920  0.00  0.00     0.019 A 
ENDBRANCH   4   7
ENDBRANCH   1   3
BRANCH   1  15
ATOM     15  N   UNL d   1       1.065  -2.342   0.912  0.00  0.00    -0.362 N 
ATOM     16  H   UNL d   1       0.564  -1.944   1.703  0.00  0.00     0.162 HD
BRANCH  15  17
ATOM     17  C   UNL d   1       2.522  -2.375   1.006  0.00  0.00     0.085 C 
ATOM     18  C   UNL d   1       3.027  -3.700   1.603  0.00  0.00     0.034 C 
ATOM     19  C   UNL d   1       4.570  -3.764   1.698  0.00  0.00    -0.045 C 
ATOM     20  C   UNL d   1       4.976  -5.017   2.498  0.00  0.00     0.015 C 
ATOM     21  C   UNL d   1       5.187  -3.888   0.290  0.00  0.00     0.015 C 
ATOM     22  C   UNL d   1       5.114  -2.508   2.424  0.00  0.00     0.013 C 
ATOM     23  C   UNL d   1       4.569  -1.186   1.859  0.00  0.00    -0.016 C 
ATOM     24  C   UNL d   1       3.037  -1.199   1.842  0.00  0.00     0.029 C 
ATOM     25  C   UNL d   1       5.095   0.006   2.657  0.00  0.00     0.010 C 
ENDBRANCH  15  17
ENDBRANCH   1  15
TORSDOF 4
