REMARK  8 active torsions:
REMARK  status: ('A' for Active; 'I' for Inactive)
REMARK    1  A    between atoms: S_11  and  C_1 
REMARK       I    between atoms: N_3  and  C_6 
REMARK    2  A    between atoms: C_7  and  N_3 
REMARK    3  A    between atoms: C_13  and  N_3 
REMARK    4  A    between atoms: C_6  and  C_16 
REMARK    5  A    between atoms: C_16  and  S_11 
REMARK    6  A    between atoms: C_14  and  C_13 
REMARK    7  A    between atoms: O_21  and  C_14 
REMARK    8  A    between atoms: C_28  and  O_21 
ROOT
ATOM      1  C   UNL d   1      -3.869   7.197   0.065  0.00  0.00     0.091 A 
ATOM      2  C   UNL d   1      -5.234   6.858   0.126  0.00  0.00     0.084 A 
ATOM      3  N   UNL d   1      -3.436   8.473  -0.117  0.00  0.00    -0.353 N 
ATOM      4  HN  UNL d   1      -2.441   8.692  -0.167  1.00  0.00     0.166 HD
ATOM      5  C   UNL d   1      -6.194   7.878   0.003  0.00  0.00    -0.037 A 
ATOM      6  C   UNL d   1      -5.654   5.498   0.305  0.00  0.00     0.103 C 
ATOM      7  N   UNL d   1      -6.047   4.410   0.440  0.00  0.00    -0.191 NA
ATOM      8  C   UNL d   1      -4.377   9.447  -0.230  0.00  0.00     0.006 A 
ATOM      9  C   UNL d   1      -5.745   9.188  -0.180  0.00  0.00     0.033 A 
ATOM     10  C   UNL d   1      -7.682   7.640   0.058  0.00  0.00     0.050 C 
ATOM     11  C   UNL d   1      -3.914  10.860  -0.419  0.00  0.00     0.068 C 
ENDROOT
BRANCH   1  12
ATOM     12  S   UNL d   1      -2.637   5.914   0.309  0.00  0.00    -0.101 SA
BRANCH  12  13
ATOM     13  C   UNL d   1      -1.024   6.710  -0.074  0.00  0.00     0.184 C 
BRANCH  13  14
ATOM     14  C   UNL d   1       0.063   5.610  -0.148  0.00  0.00     0.234 C 
ATOM     15  N   UNL d   1       1.408   5.990  -0.097  0.00  0.00    -0.308 N 
ATOM     16  O   UNL d   1      -0.228   4.412  -0.232  0.00  0.00    -0.272 OA
BRANCH  15  17
ATOM     17  C   UNL d   1       1.886   7.306  -0.325  0.00  0.00     0.039 A 
ATOM     18  C   UNL d   1       2.784   7.886   0.577  0.00  0.00     0.053 A 
ATOM     19  C   UNL d   1       3.365   9.120   0.289  0.00  0.00     0.036 A 
ATOM     20 CL   UNL d   1       4.468   9.827   1.405  0.00  0.00    -0.084 Cl
ATOM     21  C   UNL d   1       3.073   9.777  -0.903  0.00  0.00     0.024 A 
ATOM     22  C   UNL d   1       2.183   9.199  -1.810  0.00  0.00     0.004 A 
ATOM     23  C   UNL d   1       1.588   7.968  -1.521  0.00  0.00     0.030 A 
ENDBRANCH  15  17
BRANCH  15  24
ATOM     24  C   UNL d   1       2.426   4.920  -0.191  0.00  0.00     0.243 C 
BRANCH  24  25
ATOM     25  C   UNL d   1       3.177   4.596   1.094  0.00  0.00     0.277 C 
ATOM     26  O   UNL d   1       2.953   5.058   2.203  0.00  0.00    -0.263 OA
BRANCH  25  27
ATOM     27  O   UNL d   1       4.211   3.754   0.786  0.00  0.00    -0.321 OA
BRANCH  27  28
ATOM     28  C   UNL d   1       5.221   3.584   1.791  0.00  0.00     0.174 C 
ATOM     29  C   UNL d   1       6.332   4.582   1.518  0.00  0.00     0.034 C 
ENDBRANCH  27  28
ENDBRANCH  25  27
ENDBRANCH  24  25
ENDBRANCH  15  24
ENDBRANCH  13  14
ENDBRANCH  12  13
ENDBRANCH   1  12
TORSDOF 8
