REMARK  5 active torsions:
REMARK  status: ('A' for Active; 'I' for Inactive)
REMARK    1  A    between atoms: C_6  and  C_1 
REMARK    2  A    between atoms: N_2  and  C_3 
REMARK    3  A    between atoms: N_4  and  C_5 
REMARK    4  A    between atoms: O_8  and  C_6 
REMARK    5  A    between atoms: C_7  and  O_8 
ROOT
ATOM      1  C   UNL d   1       4.865  -0.297  -1.030  0.00  0.00     0.301 C 
ATOM      2  O   UNL d   1       5.625  -0.658  -1.914  0.00  0.00    -0.259 OA
ENDROOT
BRANCH   1   3
ATOM      3  C   UNL d   1       4.120   1.002  -1.086  0.00  0.00     0.072 A 
ATOM      4  C   UNL d   1       3.087   1.401  -0.226  0.00  0.00     0.120 A 
ATOM      5  C   UNL d   1       2.239   2.482  -0.521  0.00  0.00     0.060 A 
ATOM      6  C   UNL d   1       2.476   3.226  -1.670  0.00  0.00     0.036 A 
ATOM      7  C   UNL d   1       3.558   2.921  -2.493  0.00  0.00     0.025 A 
ATOM      8 CL   UNL d   1       1.434   4.530  -2.075  0.00  0.00    -0.084 Cl
ATOM      9  C   UNL d   1       4.367   1.811  -2.210  0.00  0.00     0.022 A 
BRANCH   4  10
ATOM     10  N   UNL d   1       2.904   0.788   1.066  0.00  0.00    -0.115 N 
ATOM     11  O   UNL d   1       3.773   1.020   1.915  0.00  0.00    -0.532 OA
ATOM     12  O   UNL d   1       1.875   0.114   1.223  0.00  0.00    -0.532 OA
ENDBRANCH   4  10
ENDBRANCH   1   3
BRANCH   1  13
ATOM     13  O   UNL d   1       4.458  -1.076   0.029  0.00  0.00    -0.272 OA
BRANCH  13  14
ATOM     14  C   UNL d   1       4.145  -2.430  -0.225  0.00  0.00     0.112 A 
ATOM     15  C   UNL d   1       4.483  -3.404   0.715  0.00  0.00     0.137 A 
ATOM     16  C   UNL d   1       3.850  -4.655   0.720  0.00  0.00     0.045 A 
ATOM     17  C   UNL d   1       2.869  -4.936  -0.240  0.00  0.00    -0.059 A 
ATOM     18  C   UNL d   1       2.613  -3.998  -1.250  0.00  0.00     0.009 A 
ATOM     19  C   UNL d   1       2.070  -6.204  -0.148  0.00  0.00     0.048 C 
ATOM     20  C   UNL d   1       3.237  -2.745  -1.240  0.00  0.00     0.040 A 
BRANCH  15  21
ATOM     21  N   UNL d   1       5.488  -3.129   1.723  0.00  0.00    -0.113 N 
ATOM     22  O   UNL d   1       6.579  -2.692   1.334  0.00  0.00    -0.532 OA
ATOM     23  O   UNL d   1       5.200  -3.402   2.897  0.00  0.00    -0.532 OA
ENDBRANCH  15  21
ENDBRANCH  13  14
ENDBRANCH   1  13
TORSDOF 5
