REMARK  5 active torsions:
REMARK  status: ('A' for Active; 'I' for Inactive)
REMARK    1  A    between atoms: N_5  and  C_1 
REMARK    2  A    between atoms: N_8  and  C_1 
REMARK    3  A    between atoms: C_9  and  N_5 
REMARK    4  A    between atoms: C_15  and  N_8 
REMARK    5  A    between atoms: C_17  and  C_15 
ROOT
ATOM      1  N   UNL d   1       7.009  -1.655   6.135  0.00  0.00    -0.191 NA
ATOM      2  C   UNL d   1       6.370  -1.574   5.166  0.00  0.00     0.099 C 
ATOM      3  C   UNL d   1       5.584  -1.476   3.975  0.00  0.00     0.044 A 
ATOM      4  C   UNL d   1       4.058  -1.283   1.618  0.00  0.00    -0.040 A 
ATOM      5  C   UNL d   1       5.258  -2.629   3.255  0.00  0.00     0.023 A 
ATOM      6  C   UNL d   1       5.149  -0.229   3.520  0.00  0.00     0.023 A 
ATOM      7  C   UNL d   1       4.503  -2.531   2.084  0.00  0.00     0.010 A 
ATOM      8  C   UNL d   1       4.396  -0.133   2.346  0.00  0.00     0.010 A 
ENDROOT
BRANCH   4   9
ATOM      9  C   UNL d   1       3.344  -1.212   0.294  0.00  0.00     0.160 C 
BRANCH   9  10
ATOM     10  N   UNL d   1       2.438  -0.086   0.166  0.00  0.00    -0.363 N 
ATOM     11  H   UNL d   1       2.773   0.660  -0.434  0.00  0.00     0.162 HD
BRANCH  10  12
ATOM     12  C   UNL d   1       1.076  -0.195   0.126  0.00  0.00     0.172 C 
ATOM     13  S   UNL d   1       0.262   0.886  -0.857  0.00  0.00    -0.041 SA
BRANCH  12  14
ATOM     14  N   UNL d   1       0.536  -1.152   0.957  0.00  0.00    -0.333 N 
ATOM     15  H   UNL d   1       0.935  -1.126   1.890  0.00  0.00     0.168 HD
BRANCH  14  16
ATOM     16  C   UNL d   1      -0.758  -1.705   0.835  0.00  0.00     0.035 A 
ATOM     17  C   UNL d   1      -1.267  -2.068  -0.416  0.00  0.00     0.055 A 
ATOM     18  C   UNL d   1      -2.578  -2.531  -0.544  0.00  0.00     0.058 A 
ATOM     19 CL   UNL d   1      -3.142  -2.908  -2.133  0.00  0.00    -0.082 Cl
ATOM     20  C   UNL d   1      -3.381  -2.662   0.591  0.00  0.00     0.055 A 
ATOM     21  C   UNL d   1      -2.848  -2.374   1.853  0.00  0.00     0.028 A 
ATOM     22 CL   UNL d   1      -5.032  -3.161   0.504  0.00  0.00    -0.083 Cl
ATOM     23  C   UNL d   1      -1.531  -1.915   1.979  0.00  0.00     0.031 A 
ENDBRANCH  14  16
ENDBRANCH  12  14
ENDBRANCH  10  12
ENDBRANCH   9  10
ENDBRANCH   4   9
TORSDOF 5
