REMARK  4 active torsions:
REMARK  status: ('A' for Active; 'I' for Inactive)
REMARK    1  A    between atoms: C_7  and  C_1 
REMARK    2  A    between atoms: C_9  and  N_5 
REMARK    3  A    between atoms: O_14  and  C_7 
REMARK    4  A    between atoms: C_19  and  O_14 
ROOT
ATOM      1  C   UNL d   1       0.932  -0.690  -0.113  0.00  0.00     0.146 A 
ATOM      2  N   UNL d   1       0.918   0.655  -0.199  0.00  0.00    -0.287 N 
ATOM      3  HN  UNL d   1       1.716   1.271  -0.353  1.00  0.00     0.188 HD
ATOM      4  C   UNL d   1      -0.382  -1.188   0.034  0.00  0.00     0.096 A 
ATOM      5  N   UNL d   1      -0.376   1.020  -0.037  0.00  0.00    -0.266 N 
ATOM      6  C   UNL d   1      -1.192  -0.078   0.095  0.00  0.00     0.142 A 
ATOM      7  C   UNL d   1      -0.823  -2.537   0.137  0.00  0.00     0.103 C 
ATOM      8  N   UNL d   1      -1.238  -3.619   0.217  0.00  0.00    -0.191 NA
ENDROOT
BRANCH   1   9
ATOM      9  C   UNL d   1       2.177  -1.465  -0.103  0.00  0.00     0.313 C 
ATOM     10  O   UNL d   1       2.209  -2.672   0.106  0.00  0.00    -0.258 OA
BRANCH   9  11
ATOM     11  O   UNL d   1       3.284  -0.676  -0.235  0.00  0.00    -0.317 OA
BRANCH  11  12
ATOM     12  C   UNL d   1       4.496  -1.217   0.299  0.00  0.00     0.175 C 
ATOM     13  C   UNL d   1       4.554  -0.864   1.775  0.00  0.00     0.034 C 
ENDBRANCH  11  12
ENDBRANCH   9  11
ENDBRANCH   1   9
BRANCH   5  14
ATOM     14  C   UNL d   1      -0.748   2.391  -0.014  0.00  0.00     0.057 A 
ATOM     15  C   UNL d   1      -2.070   2.772   0.248  0.00  0.00     0.055 A 
ATOM     16  C   UNL d   1      -2.411   4.125   0.255  0.00  0.00     0.036 A 
ATOM     17 CL   UNL d   1      -4.035   4.587   0.591  0.00  0.00    -0.084 Cl
ATOM     18  C   UNL d   1      -1.453   5.104  -0.003  0.00  0.00     0.024 A 
ATOM     19  C   UNL d   1      -0.135   4.730  -0.258  0.00  0.00     0.004 A 
ATOM     20  C   UNL d   1       0.222   3.379  -0.256  0.00  0.00     0.031 A 
ENDBRANCH   5  14
TORSDOF 4
