REMARK  0 active torsions:
REMARK  status: ('A' for Active; 'I' for Inactive)
ROOT
ATOM      1  N   UNL d   1       0.020   1.605  -0.002  0.00  0.00    -0.354 N 
ATOM      2  C   UNL d   1      -1.103   0.814  -0.003  0.00  0.00     0.059 A 
ATOM      3  C   UNL d   1       1.161   0.838   0.004  0.00  0.00     0.043 A 
ATOM      4  C   UNL d   1       0.758  -0.497  -0.005  0.00  0.00     0.003 A 
ATOM      5  C   UNL d   1      -0.673  -0.512   0.000  0.00  0.00     0.006 A 
ATOM      6  N   UNL d   1      -3.378   0.173   0.005  0.00  0.00    -0.373 N 
ATOM      7  HN  UNL d   1      -4.372   0.400   0.006  1.00  0.00     0.164 HD
ATOM      8  C   UNL d   1      -2.449   1.156  -0.005  0.00  0.00     0.117 A 
ATOM      9  C   UNL d   1      -1.644  -1.525   0.010  0.00  0.00     0.031 A 
ATOM     10  C   UNL d   1       1.749  -1.500  -0.012  0.00  0.00     0.014 A 
ATOM     11  C   UNL d   1       2.508   1.222   0.018  0.00  0.00     0.030 A 
ATOM     12  C   UNL d   1      -2.969  -1.115   0.015  0.00  0.00     0.088 A 
ATOM     13  C   UNL d   1       3.100  -1.134  -0.003  0.00  0.00     0.001 A 
ATOM     14  C   UNL d   1       3.470   0.209   0.016  0.00  0.00     0.002 A 
ATOM     15  H   UNL d   1       0.012   2.614  -0.001  0.00  0.00     0.166 HD
ENDROOT
TORSDOF 0
