REMARK  3 active torsions:
REMARK  status: ('A' for Active; 'I' for Inactive)
REMARK    1  A    between atoms: C_4  and  C_1 
REMARK    2  A    between atoms: C_3  and  C_12 
REMARK       I    between atoms: N_11  and  C_4 
REMARK    3  A    between atoms: C_12  and  N_11 
ROOT
ATOM      1  C   UNL d   1       3.242  -2.872  -1.117  0.00  0.00     0.254 C 
ATOM      2  N   UNL d   1       1.980  -2.435  -0.781  0.00  0.00    -0.352 N 
ATOM      3  O   UNL d   1       3.892  -3.645  -0.416  0.00  0.00    -0.268 OA
ATOM      4  H   UNL d   1       1.522  -1.769  -1.400  0.00  0.00     0.163 HD
ENDROOT
BRANCH   2   5
ATOM      5  C   UNL d   1       1.190  -3.030   0.301  0.00  0.00     0.089 C 
ATOM      6  C   UNL d   1      -0.222  -3.281  -0.244  0.00  0.00     0.033 C 
BRANCH   5   7
ATOM      7  C   UNL d   1       1.231  -2.192   1.624  0.00  0.00    -0.019 C 
ATOM      8  C   UNL d   1       0.776  -0.726   1.397  0.00  0.00     0.016 C 
ATOM      9  C   UNL d   1       0.841   0.082   2.704  0.00  0.00    -0.013 C 
ATOM     10  C   UNL d   1      -0.087  -0.565   3.744  0.00  0.00     0.009 C 
ATOM     11  C   UNL d   1       2.284   0.080   3.231  0.00  0.00     0.009 C 
ATOM     12  C   UNL d   1       0.364  -2.007   4.023  0.00  0.00    -0.013 C 
ATOM     13  C   UNL d   1       0.310  -2.816   2.714  0.00  0.00     0.016 C 
ATOM     14  C   UNL d   1       1.802  -1.992   4.558  0.00  0.00     0.009 C 
ATOM     15  C   UNL d   1       2.736  -1.361   3.517  0.00  0.00    -0.013 C 
ATOM     16  C   UNL d   1       2.674  -2.171   2.210  0.00  0.00     0.016 C 
ENDBRANCH   5   7
ENDBRANCH   2   5
BRANCH   1  17
ATOM     17  C   UNL d   1       3.803  -2.438  -2.416  0.00  0.00     0.061 A 
ATOM     18  C   UNL d   1       3.122  -1.621  -3.358  0.00  0.00     0.082 A 
ATOM     19  N   UNL d   1       1.929  -1.009  -3.213  0.00  0.00    -0.310 N 
ATOM     20  C   UNL d   1       3.733  -1.368  -4.723  0.00  0.00     0.068 A 
ATOM     21  S   UNL d   1       1.624  -0.202  -4.633  0.00  0.00     0.068 SA
ATOM     22  HN  UNL d   1       1.329  -1.036  -2.389  1.00  0.00     0.176 HD
ATOM     23  N   UNL d   1       2.971  -0.598  -5.513  0.00  0.00    -0.310 N 
ATOM     24  HN  UNL d   1       3.180  -0.311  -6.470  1.00  0.00     0.176 HD
ATOM     25  C   UNL d   1       4.984  -1.923  -5.085  0.00  0.00     0.032 A 
ATOM     26  C   UNL d   1       5.631  -2.686  -4.101  0.00  0.00     0.003 A 
ATOM     27  C   UNL d   1       5.069  -2.928  -2.827  0.00  0.00     0.019 A 
ENDBRANCH   1  17
TORSDOF 3
