REMARK  4 active torsions:
REMARK  status: ('A' for Active; 'I' for Inactive)
REMARK    1  A    between atoms: C_2  and  C_1 
REMARK    2  A    between atoms: C_3  and  C_4 
REMARK       I    between atoms: C_4  and  N_6 
REMARK    3  A    between atoms: N_7  and  C_5 
REMARK    4  A    between atoms: N_6  and  N_7 
ROOT
ATOM      1  N   UNL d   1       2.739   1.925   0.260  0.00  0.00    -0.187 NA
ATOM      2  H   UNL d   1       3.548   2.553   0.168  0.00  0.00     0.154 HD
ENDROOT
BRANCH   1   3
ATOM      3  N   UNL d   1       3.048   0.865   1.130  0.00  0.00    -0.281 N 
ATOM      4  C   UNL d   1       4.349   0.751   1.581  0.00  0.00     0.272 C 
ATOM      5  O   UNL d   1       5.213   1.573   1.276  0.00  0.00    -0.266 OA
ATOM      6  H   UNL d   1       2.275   0.255   1.391  0.00  0.00     0.184 HD
BRANCH   4   7
ATOM      7  C   UNL d   1       4.660  -0.410   2.449  0.00  0.00     0.110 A 
ATOM      8  C   UNL d   1       3.885  -1.572   2.439  0.00  0.00     0.135 A 
ATOM      9  F   UNL d   1       2.808  -1.678   1.645  0.00  0.00    -0.205 F 
ATOM     10  C   UNL d   1       4.205  -2.667   3.245  0.00  0.00     0.043 A 
ATOM     11  C   UNL d   1       5.318  -2.615   4.081  0.00  0.00     0.006 A 
ATOM     12  C   UNL d   1       6.104  -1.466   4.101  0.00  0.00     0.043 A 
ATOM     13  C   UNL d   1       5.776  -0.376   3.288  0.00  0.00     0.135 A 
ATOM     14  F   UNL d   1       6.561   0.708   3.365  0.00  0.00    -0.205 F 
ENDBRANCH   4   7
ENDBRANCH   1   3
BRANCH   1  15
ATOM     15  C   UNL d   1       1.570   2.637   0.625  0.00  0.00     0.113 A 
ATOM     16  C   UNL d   1       1.134   3.719  -0.143  0.00  0.00     0.087 A 
ATOM     17  C   UNL d   1      -0.061   4.366   0.228  0.00  0.00     0.021 A 
ATOM     18  C   UNL d   1      -0.782   3.929   1.328  0.00  0.00     0.018 A 
ATOM     19  C   UNL d   1      -0.291   2.844   2.021  0.00  0.00     0.089 A 
ATOM     20  N   UNL d   1       0.844   2.187   1.686  0.00  0.00    -0.355 N 
ATOM     21  HN  UNL d   1       1.149   1.372   2.217  1.00  0.00     0.166 HD
BRANCH  16  22
ATOM     22  C   UNL d   1       1.853   4.213  -1.362  0.00  0.00     0.420 C 
ATOM     23  F   UNL d   1       3.012   3.574  -1.673  0.00  0.00    -0.166 F 
ATOM     24  F   UNL d   1       2.191   5.531  -1.248  0.00  0.00    -0.166 F 
ATOM     25  F   UNL d   1       1.075   4.139  -2.481  0.00  0.00    -0.166 F 
ENDBRANCH  16  22
ENDBRANCH   1  15
TORSDOF 4
