REMARK  4 active torsions:
REMARK  status: ('A' for Active; 'I' for Inactive)
REMARK    1  A    between atoms: C_2  and  S_1 
REMARK    2  A    between atoms: N_8  and  S_1 
REMARK    3  A    between atoms: C_3  and  C_7 
REMARK    4  A    between atoms: C_9  and  N_8 
ROOT
ATOM      1  S   UNL d   1       0.904  -0.089   0.004  0.00  0.00     0.269 S 
ATOM      2  O   UNL d   1       0.715  -0.113  -1.428  0.00  0.00    -0.200 OA
ATOM      3  O   UNL d   1       0.227  -1.020   0.878  0.00  0.00    -0.200 OA
ENDROOT
BRANCH   1   4
ATOM      4  C   UNL d   1       0.283   1.506   0.512  0.00  0.00     0.121 A 
ATOM      5  S   UNL d   1       0.959   2.890  -0.234  0.00  0.00    -0.074 SA
ATOM      6  C   UNL d   1       0.011   3.952   0.715  0.00  0.00     0.033 A 
ATOM      7  C   UNL d   1      -0.860   3.262   1.532  0.00  0.00     0.023 A 
ATOM      8  C   UNL d   1      -0.711   1.852   1.406  0.00  0.00     0.034 A 
BRANCH   6   9
ATOM      9  C   UNL d   1       0.096   5.452   0.705  0.00  0.00     0.056 A 
ATOM     10  N   UNL d   1      -0.628   6.205   1.617  0.00  0.00    -0.353 N 
ATOM     11  C   UNL d   1      -0.357   7.484   1.466  0.00  0.00     0.047 A 
ATOM     12  HN  UNL d   1      -1.276   5.823   2.306  1.00  0.00     0.166 HD
ATOM     13  C   UNL d   1      -0.922   8.573   2.311  0.00  0.00     0.076 C 
ATOM     14  S   UNL d   1       0.738   7.860   0.196  0.00  0.00    -0.087 SA
ATOM     15  C   UNL d   1       0.891   6.186  -0.151  0.00  0.00     0.082 A 
ENDBRANCH   6   9
ENDBRANCH   1   4
BRANCH   1  16
ATOM     16  N   UNL d   1       2.569  -0.169   0.259  0.00  0.00    -0.278 N 
ATOM     17  H   UNL d   1       3.086   0.257  -0.509  0.00  0.00     0.179 HD
BRANCH  16  18
ATOM     18  C   UNL d   1       3.110  -0.002   1.572  0.00  0.00     0.064 A 
ATOM     19  C   UNL d   1       3.232  -1.063   2.487  0.00  0.00     0.062 A 
ATOM     20  C   UNL d   1       3.859  -0.861   3.722  0.00  0.00     0.045 A 
ATOM     21 CL   UNL d   1       2.734  -2.671   2.099  0.00  0.00    -0.082 Cl
ATOM     22  C   UNL d   1       4.357   0.400   4.045  0.00  0.00     0.012 A 
ATOM     23  C   UNL d   1       4.219   1.464   3.158  0.00  0.00     0.021 A 
ATOM     24 BR   UNL d   1       5.272   0.660   5.679  0.00  0.00    -0.051 Br
ATOM     25  C   UNL d   1       3.597   1.262   1.923  0.00  0.00     0.033 A 
ENDBRANCH  16  18
ENDBRANCH   1  16
TORSDOF 4
