REMARK  3 active torsions:
REMARK  status: ('A' for Active; 'I' for Inactive)
REMARK    1  A    between atoms: C_15  and  N_1 
REMARK    2  A    between atoms: C_5  and  C_8 
REMARK    3  A    between atoms: C_14  and  C_15 
ROOT
ATOM      1  C   UNL d   1       4.939   3.227  -0.730  0.00  0.00     0.096 A 
ATOM      2  O   UNL d   1       4.593   1.952  -1.087  0.00  0.00    -0.314 OA
ATOM      3  C   UNL d   1       3.914   1.404  -0.038  0.00  0.00     0.071 A 
ATOM      4  C   UNL d   1       4.496   3.486   0.553  0.00  0.00     0.039 A 
ATOM      5  C   UNL d   1       3.846   2.310   1.000  0.00  0.00     0.037 A 
ENDROOT
BRANCH   1   6
ATOM      6  C   UNL d   1       5.715   4.029  -1.739  0.00  0.00     0.247 C 
ATOM      7  N   UNL d   1       4.930   5.210  -2.147  0.00  0.00    -0.328 N 
ATOM      8  C   UNL d   1       5.347   6.502  -1.907  0.00  0.00     0.049 A 
ATOM      9  C   UNL d   1       3.733   5.219  -2.818  0.00  0.00     0.094 A 
ATOM     10  C   UNL d   1       4.374   7.340  -2.419  0.00  0.00     0.032 A 
ATOM     11  C   UNL d   1       6.610   6.732  -1.211  0.00  0.00     0.017 A 
ATOM     12  C   UNL d   1       3.358   6.533  -2.989  0.00  0.00     0.020 A 
ATOM     13  C   UNL d   1       7.401   5.615  -0.857  0.00  0.00     0.042 A 
ATOM     14  C   UNL d   1       7.037   8.025  -0.880  0.00  0.00     0.016 A 
ATOM     15  N   UNL d   1       7.095   4.314  -1.291  0.00  0.00    -0.362 N 
ATOM     16  C   UNL d   1       8.614   5.835  -0.191  0.00  0.00     0.030 A 
ATOM     17  H   UNL d   1       7.463   3.587  -0.690  0.00  0.00     0.162 HD
ATOM     18  C   UNL d   1       9.025   7.126   0.148  0.00  0.00     0.002 A 
ATOM     19  C   UNL d   1       8.240   8.221  -0.203  0.00  0.00     0.001 A 
ENDBRANCH   1   6
BRANCH   3  20
ATOM     20  C   UNL d   1       3.363   0.036  -0.233  0.00  0.00     0.200 C 
BRANCH  20  21
ATOM     21  N   UNL d   1       4.302  -0.962   0.229  0.00  0.00    -0.274 N 
ATOM     22  C   UNL d   1       4.308  -1.474   1.495  0.00  0.00     0.262 A 
ATOM     23  C   UNL d   1       5.350  -2.501   1.523  0.00  0.00     0.048 A 
ATOM     24  O   UNL d   1       3.597  -1.195   2.441  0.00  0.00    -0.267 OA
ATOM     25  C   UNL d   1       5.771  -3.325   2.548  0.00  0.00     0.018 A 
ATOM     26  C   UNL d   1       5.906  -2.564   0.258  0.00  0.00     0.048 A 
ATOM     27  C   UNL d   1       6.797  -4.232   2.260  0.00  0.00     0.001 A 
ATOM     28  C   UNL d   1       7.363  -4.297   0.969  0.00  0.00     0.001 A 
ATOM     29  C   UNL d   1       6.914  -3.456  -0.054  0.00  0.00     0.018 A 
ATOM     30  C   UNL d   1       5.218  -1.579  -0.577  0.00  0.00     0.262 A 
ATOM     31  O   UNL d   1       5.442  -1.419  -1.761  0.00  0.00    -0.267 OA
ENDBRANCH  20  21
ENDBRANCH   3  20
TORSDOF 3
