REMARK  3 active torsions:
REMARK  status: ('A' for Active; 'I' for Inactive)
REMARK    1  A    between atoms: C_3  and  C_1 
REMARK    2  A    between atoms: C_10  and  C_5 
REMARK    3  A    between atoms: C_14  and  N_8 
ROOT
ATOM      1  C   UNL d   1       0.152   1.215  -0.034  0.00  0.00     0.022 A 
ATOM      2  S   UNL d   1      -0.994  -0.067   0.009  0.00  0.00    -0.088 SA
ATOM      3  C   UNL d   1       1.442   0.715  -0.009  0.00  0.00     0.021 A 
ATOM      4  C   UNL d   1       0.221  -1.265   0.012  0.00  0.00     0.021 A 
ATOM      5  C   UNL d   1       1.482  -0.710   0.026  0.00  0.00     0.021 A 
ENDROOT
BRANCH   4   6
ATOM      6  C   UNL d   1      -0.156  -2.657  -0.015  0.00  0.00     0.107 C 
ATOM      7  N   UNL d   1       0.749  -3.580   0.067  0.00  0.00    -0.365 N 
ATOM      8  HN  UNL d   1       1.729  -3.325   0.182  1.00  0.00     0.165 HD
BRANCH   7   9
ATOM      9  C   UNL d   1       0.377  -4.932  -0.004  0.00  0.00     0.032 A 
ATOM     10  C   UNL d   1       1.266  -5.812  -0.632  0.00  0.00     0.031 A 
ATOM     11  C   UNL d   1       0.988  -7.179  -0.724  0.00  0.00     0.026 A 
ATOM     12  C   UNL d   1      -0.192  -7.677  -0.181  0.00  0.00     0.034 A 
ATOM     13  C   UNL d   1      -1.085  -6.822   0.460  0.00  0.00     0.026 A 
ATOM     14 CL   UNL d   1      -0.546  -9.357  -0.291  0.00  0.00    -0.084 Cl
ATOM     15  C   UNL d   1      -0.793  -5.457   0.559  0.00  0.00     0.031 A 
ENDBRANCH   7   9
ENDBRANCH   4   6
BRANCH   1  16
ATOM     16  C   UNL d   1      -0.262   2.599  -0.109  0.00  0.00     0.021 A 
ATOM     17  S   UNL d   1       0.728   3.788  -0.861  0.00  0.00    -0.101 SA
ATOM     18  C   UNL d   1      -0.414   5.027  -0.584  0.00  0.00     0.050 A 
ATOM     19  C   UNL d   1      -1.525   4.563   0.080  0.00  0.00     0.008 A 
ATOM     20  C   UNL d   1      -1.438   3.165   0.354  0.00  0.00     0.021 A 
ENDBRANCH   1  16
TORSDOF 3
