REMARK  11 active torsions:
REMARK  status: ('A' for Active; 'I' for Inactive)
REMARK    1  A    between atoms: N_3  and  C_1 
REMARK    2  A    between atoms: C_2  and  N_5 
REMARK       I    between atoms: N_5  and  C_12 
REMARK    3  A    between atoms: S_23  and  C_6 
REMARK    4  A    between atoms: N_14  and  C_11 
REMARK    5  A    between atoms: C_12  and  C_15 
REMARK       I    between atoms: N_16  and  C_19 
REMARK    6  A    between atoms: C_17  and  N_16 
REMARK    7  A    between atoms: C_19  and  C_29 
REMARK    8  A    between atoms: C_29  and  S_23 
REMARK    9  A    between atoms: C_35  and  C_30 
REMARK   10  A    between atoms: C_36  and  C_35 
REMARK   11  A    between atoms: C_37  and  C_36 
ROOT
ATOM      1  C   UNL d   1       1.157   3.691  -0.003  0.00  0.00     0.168 A 
ATOM      2  S   UNL d   1       1.798   3.375  -1.555  0.00  0.00    -0.026 SA
ATOM      3  C   UNL d   1       3.337   3.737  -0.919  0.00  0.00     0.130 A 
ATOM      4  N   UNL d   1       2.051   4.071   0.878  0.00  0.00    -0.278 N 
ATOM      5  HN  UNL d   1       1.828   4.337   1.837  1.00  0.00     0.189 HD
ATOM      6  N   UNL d   1       3.334   4.069   0.353  0.00  0.00    -0.286 N 
ATOM      7  HN  UNL d   1       4.173   4.298   0.887  1.00  0.00     0.188 HD
ENDROOT
BRANCH   1   8
ATOM      8  N   UNL d   1      -0.197   3.626   0.281  0.00  0.00    -0.302 N 
ATOM      9  C   UNL d   1      -1.145   3.068  -0.547  0.00  0.00     0.257 C 
ATOM     10  O   UNL d   1      -0.908   2.449  -1.576  0.00  0.00    -0.267 OA
ATOM     11  H   UNL d   1      -0.418   3.955   1.207  0.00  0.00     0.171 HD
BRANCH   9  12
ATOM     12  C   UNL d   1      -2.588   3.224  -0.167  0.00  0.00     0.034 A 
ATOM     13  C   UNL d   1      -3.058   3.975   0.909  0.00  0.00     0.055 A 
ATOM     14  C   UNL d   1      -4.453   4.141   1.079  0.00  0.00     0.130 A 
ATOM     15  C   UNL d   1      -5.420   3.612   0.191  0.00  0.00     0.063 A 
ATOM     16  C   UNL d   1      -4.904   2.804  -0.834  0.00  0.00     0.033 A 
ATOM     17  C   UNL d   1      -3.528   2.618  -1.011  0.00  0.00     0.019 A 
BRANCH  14  18
ATOM     18  N   UNL d   1      -4.836   5.004   2.179  0.00  0.00    -0.113 N 
ATOM     19  O   UNL d   1      -5.232   4.457   3.219  0.00  0.00    -0.532 OA
ATOM     20  O   UNL d   1      -4.609   6.215   2.048  0.00  0.00    -0.532 OA
ENDBRANCH  14  18
BRANCH  15  21
ATOM     21  N   UNL d   1      -6.778   3.942   0.216  0.00  0.00    -0.379 N 
ATOM     22  C   UNL d   1      -7.519   3.941  -1.064  0.00  0.00     0.123 C 
ATOM     23  C   UNL d   1      -8.733   4.863  -0.949  0.00  0.00     0.020 C 
ATOM     24  C   UNL d   1      -9.601   4.518   0.260  0.00  0.00     0.003 C 
ATOM     25  C   UNL d   1      -8.763   4.391   1.534  0.00  0.00     0.020 C 
ATOM     26  C   UNL d   1      -7.598   3.421   1.324  0.00  0.00     0.123 C 
ENDBRANCH  15  21
ENDBRANCH   9  12
ENDBRANCH   1   8
BRANCH   3  27
ATOM     27  S   UNL d   1       4.830   3.674  -1.829  0.00  0.00    -0.094 SA
BRANCH  27  28
ATOM     28  C   UNL d   1       4.506   4.902  -3.126  0.00  0.00     0.184 C 
BRANCH  28  29
ATOM     29  C   UNL d   1       4.312   6.334  -2.645  0.00  0.00     0.231 C 
ATOM     30  N   UNL d   1       4.681   6.599  -1.347  0.00  0.00    -0.326 N 
ATOM     31  H   UNL d   1       5.237   5.900  -0.866  0.00  0.00     0.169 HD
ATOM     32  O   UNL d   1       3.917   7.190  -3.438  0.00  0.00    -0.272 OA
BRANCH  30  33
ATOM     33  C   UNL d   1       4.489   7.818  -0.673  0.00  0.00     0.040 A 
ATOM     34  C   UNL d   1       5.460   8.255   0.240  0.00  0.00    -0.035 A 
ATOM     35  C   UNL d   1       5.184   9.369   1.049  0.00  0.00     0.016 A 
ATOM     36  C   UNL d   1       6.816   7.615   0.357  0.00  0.00     0.050 C 
ATOM     37  C   UNL d   1       3.965  10.051   0.957  0.00  0.00    -0.058 A 
ATOM     38  C   UNL d   1       3.043   9.654  -0.018  0.00  0.00     0.009 A 
ATOM     39  C   UNL d   1       3.306   8.548  -0.832  0.00  0.00     0.030 A 
BRANCH  37  40
ATOM     40  C   UNL d   1       3.651  11.168   1.923  0.00  0.00     0.038 C 
BRANCH  40  41
ATOM     41  C   UNL d   1       2.442  10.881   2.826  0.00  0.00     0.004 C 
BRANCH  41  42
ATOM     42  C   UNL d   1       2.618   9.639   3.706  0.00  0.00    -0.004 C 
ATOM     43  C   UNL d   1       1.397   9.403   4.581  0.00  0.00     0.005 C 
ENDBRANCH  41  42
ENDBRANCH  40  41
ENDBRANCH  37  40
ENDBRANCH  30  33
ENDBRANCH  28  29
ENDBRANCH  27  28
ENDBRANCH   3  27
TORSDOF 11
