REMARK  5 active torsions:
REMARK  status: ('A' for Active; 'I' for Inactive)
REMARK    1  A    between atoms: S_12  and  C_6 
REMARK    2  A    between atoms: C_11  and  C_21 
REMARK       I    between atoms: N_17  and  C_11 
REMARK    3  A    between atoms: C_21  and  S_12 
REMARK    4  A    between atoms: N_13  and  N_17 
REMARK    5  A    between atoms: C_16  and  C_20 
ROOT
ATOM      1  S   UNL d   1       1.383  -3.284  -0.938  0.00  0.00    -0.102 SA
ENDROOT
BRANCH   1   2
ATOM      2  C   UNL d   1       1.455  -1.669  -0.154  0.00  0.00     0.084 A 
ATOM      3  C   UNL d   1       2.573  -0.807  -0.194  0.00  0.00     0.039 A 
ATOM      4  C   UNL d   1       2.422   0.344   0.581  0.00  0.00     0.089 A 
ATOM      5  C   UNL d   1       3.871  -0.773  -0.855  0.00  0.00    -0.029 A 
ATOM      6  S   UNL d   1       3.784   1.360   0.588  0.00  0.00    -0.075 SA
ATOM      7  N   UNL d   1       1.352   0.717   1.299  0.00  0.00    -0.346 N 
ATOM      8  C   UNL d   1       4.602   0.351  -0.494  0.00  0.00    -0.008 A 
ATOM      9  C   UNL d   1       5.979   0.700  -0.967  0.00  0.00     0.047 C 
ATOM     10  C   UNL d   1       6.288  -0.035  -2.271  0.00  0.00     0.005 C 
ATOM     11  C   UNL d   1       5.913  -1.521  -2.166  0.00  0.00     0.005 C 
ATOM     12  C   UNL d   1       4.415  -1.736  -1.877  0.00  0.00     0.040 C 
ATOM     13  C   UNL d   1       0.354  -0.148   1.219  0.00  0.00     0.182 A 
ATOM     14  HN  UNL d   1       1.311   1.576   1.848  1.00  0.00     0.167 HD
ATOM     15  N   UNL d   1       0.354  -1.300   0.548  0.00  0.00    -0.346 N 
ATOM     16  HN  UNL d   1      -0.470  -1.902   0.562  1.00  0.00     0.167 HD
ENDBRANCH   1   2
BRANCH   1  17
ATOM     17  C   UNL d   1      -0.330  -3.691  -0.484  0.00  0.00     0.185 C 
BRANCH  17  18
ATOM     18  C   UNL d   1      -0.892  -5.062  -0.759  0.00  0.00     0.245 C 
ATOM     19  N   UNL d   1      -0.080  -6.055  -1.266  0.00  0.00    -0.270 N 
ATOM     20  H   UNL d   1       0.893  -5.894  -1.504  0.00  0.00     0.190 HD
ATOM     21  O   UNL d   1      -2.083  -5.260  -0.477  0.00  0.00    -0.271 OA
BRANCH  19  22
ATOM     22  N   UNL d   1      -0.636  -7.297  -1.362  0.00  0.00    -0.308 N 
ATOM     23  C   UNL d   1       0.051  -8.279  -1.845  0.00  0.00     0.120 C 
ATOM     24  HN  UNL d   1      -1.596  -7.450  -1.053  1.00  0.00     0.186 HD
BRANCH  23  25
ATOM     25  C   UNL d   1      -0.563  -9.634  -1.911  0.00  0.00     0.002 A 
ATOM     26  C   UNL d   1       0.108 -10.738  -2.449  0.00  0.00     0.045 A 
ATOM     27 CL   UNL d   1       1.702 -10.634  -3.105  0.00  0.00    -0.083 Cl
ATOM     28  C   UNL d   1      -0.516 -11.994  -2.471  0.00  0.00     0.024 A 
ATOM     29  C   UNL d   1      -1.806 -12.158  -1.959  0.00  0.00     0.002 A 
ATOM     30  C   UNL d   1      -2.481 -11.062  -1.426  0.00  0.00     0.001 A 
ATOM     31  C   UNL d   1      -1.863  -9.810  -1.401  0.00  0.00     0.014 A 
ENDBRANCH  23  25
ENDBRANCH  19  22
ENDBRANCH  17  18
ENDBRANCH   1  17
TORSDOF 5
