REMARK  4 active torsions:
REMARK  status: ('A' for Active; 'I' for Inactive)
REMARK    1  A    between atoms: C_6  and  C_1 
REMARK    2  A    between atoms: C_14  and  C_4 
REMARK       I    between atoms: N_11  and  C_6 
REMARK    3  A    between atoms: C_17  and  N_11 
REMARK    4  A    between atoms: C_13  and  C_17 
ROOT
ATOM      1  C   UNL d   1       0.561  -2.603  -0.135  0.00  0.00     0.256 C 
ATOM      2  N   UNL d   1      -0.232  -3.729  -0.103  0.00  0.00    -0.354 N 
ATOM      3  O   UNL d   1       1.776  -2.689  -0.263  0.00  0.00    -0.267 OA
ATOM      4  H   UNL d   1      -1.205  -3.588  -0.328  0.00  0.00     0.162 HD
ENDROOT
BRANCH   1   5
ATOM      5  C   UNL d   1      -0.157  -1.322  -0.048  0.00  0.00     0.092 A 
ATOM      6  C   UNL d   1       0.269   0.024  -0.375  0.00  0.00     0.083 A 
ATOM      7  N   UNL d   1      -0.738   0.889  -0.143  0.00  0.00    -0.259 N 
ATOM      8  O   UNL d   1      -1.800   0.166   0.300  0.00  0.00    -0.241 OA
ATOM      9  HN  UNL d   1      -0.708   1.900  -0.275  1.00  0.00     0.195 HD
ATOM     10  C   UNL d   1      -1.475  -1.143   0.356  0.00  0.00     0.090 A 
ATOM     11  C   UNL d   1      -2.588  -2.006   0.815  0.00  0.00     0.080 C 
BRANCH   6  12
ATOM     12  C   UNL d   1       1.512   0.592  -0.926  0.00  0.00    -0.006 A 
ATOM     13  C   UNL d   1       2.788   0.125  -0.594  0.00  0.00     0.014 A 
ATOM     14  C   UNL d   1       3.934   0.738  -1.115  0.00  0.00     0.001 A 
ATOM     15  C   UNL d   1       3.827   1.847  -1.951  0.00  0.00     0.000 A 
ATOM     16  C   UNL d   1       2.572   2.343  -2.276  0.00  0.00     0.001 A 
ATOM     17  C   UNL d   1       1.428   1.718  -1.772  0.00  0.00     0.014 A 
ENDBRANCH   6  12
ENDBRANCH   1   5
BRANCH   2  18
ATOM     18  C   UNL d   1       0.242  -5.064  -0.443  0.00  0.00     0.157 C 
BRANCH  18  19
ATOM     19  C   UNL d   1       1.209  -5.767   0.536  0.00  0.00     0.171 C 
ATOM     20  O   UNL d   1       0.619  -6.045   1.827  0.00  0.00    -0.339 OA
ATOM     21  C   UNL d   1       0.105  -7.311   1.963  0.00  0.00     0.102 C 
ATOM     22  C   UNL d   1      -0.281  -7.726   3.238  0.00  0.00     0.039 C 
ATOM     23  C   UNL d   1      -0.024  -8.195   0.891  0.00  0.00     0.102 C 
ATOM     24  C   UNL d   1      -0.860  -8.986   3.414  0.00  0.00     0.003 C 
ATOM     25  C   UNL d   1      -1.107  -9.809   2.312  0.00  0.00     0.003 C 
ATOM     26  C   UNL d   1      -0.692  -9.409   1.042  0.00  0.00     0.039 C 
ATOM     27  O   UNL d   1       0.552  -7.938  -0.330  0.00  0.00    -0.346 OA
ATOM     28  C   UNL d   1       1.681  -7.071  -0.118  0.00  0.00     0.209 C 
ENDBRANCH  18  19
ENDBRANCH   2  18
TORSDOF 4
