REMARK  22 active torsions:
REMARK  status: ('A' for Active; 'I' for Inactive)
REMARK    1  A    between atoms: C_1  and  O_16 
REMARK    2  A    between atoms: C_2  and  O_17 
REMARK    3  A    between atoms: C_3  and  O_18 
REMARK    4  A    between atoms: C_4  and  O_19 
REMARK    5  A    between atoms: C_5  and  N_9 
REMARK    6  A    between atoms: C_6  and  N_10 
REMARK    7  A    between atoms: C_7  and  O_20 
REMARK    8  A    between atoms: C_8  and  O_21 
REMARK    9  A    between atoms: C_11  and  N_9 
REMARK   10  A    between atoms: N_10  and  C_11 
REMARK   11  A    between atoms: C_14  and  C_32 
REMARK   12  A    between atoms: C_15  and  C_31 
REMARK   13  A    between atoms: C_23  and  O_16 
REMARK   14  A    between atoms: C_24  and  O_17 
REMARK   15  A    between atoms: C_25  and  O_18 
REMARK   16  A    between atoms: C_26  and  O_19 
REMARK   17  A    between atoms: C_27  and  O_20 
REMARK   18  A    between atoms: C_28  and  O_21 
REMARK   19  A    between atoms: C_29  and  O_33 
REMARK   20  A    between atoms: C_30  and  O_34 
REMARK   21  A    between atoms: O_33  and  C_31 
REMARK   22  A    between atoms: O_34  and  C_32 
ROOT
ATOM      1  C   UNL d   1      -0.464  -5.270  -1.239  0.00  0.00     0.171 C 
ATOM      2  S   UNL d   1      -1.611  -6.480  -1.239  0.00  0.00    -0.041 SA
ENDROOT
BRANCH   1   3
ATOM      3  N   UNL d   1      -0.032  -4.565  -0.127  0.00  0.00    -0.339 N 
ATOM      4  H   UNL d   1       0.665  -3.864  -0.311  0.00  0.00     0.164 HD
BRANCH   3   5
ATOM      5  C   UNL d   1      -0.151  -4.854   1.315  0.00  0.00     0.255 C 
ATOM      6  C   UNL d   1      -1.573  -5.079   1.917  0.00  0.00     0.212 C 
ATOM      7  C   UNL d   1      -1.545  -5.670   3.360  0.00  0.00     0.198 C 
ATOM      8  C   UNL d   1      -0.440  -6.746   3.498  0.00  0.00     0.195 C 
ATOM      9  C   UNL d   1       0.900  -6.240   2.945  0.00  0.00     0.180 C 
ATOM     10  O   UNL d   1       0.729  -5.946   1.548  0.00  0.00    -0.354 OA
BRANCH   6  11
ATOM     11  O   UNL d   1      -2.435  -3.911   1.803  0.00  0.00    -0.309 OA
BRANCH  11  12
ATOM     12  C   UNL d   1      -2.070  -2.762   2.427  0.00  0.00     0.255 C 
ATOM     13  O   UNL d   1      -1.024  -2.608   3.042  0.00  0.00    -0.266 OA
ATOM     14  C   UNL d   1      -3.072  -1.673   2.194  0.00  0.00     0.126 C 
ENDBRANCH  11  12
ENDBRANCH   6  11
BRANCH   7  15
ATOM     15  O   UNL d   1      -2.795  -6.389   3.607  0.00  0.00    -0.311 OA
BRANCH  15  16
ATOM     16  C   UNL d   1      -3.860  -5.702   4.090  0.00  0.00     0.255 C 
ATOM     17  O   UNL d   1      -3.890  -4.504   4.325  0.00  0.00    -0.266 OA
ATOM     18  C   UNL d   1      -5.028  -6.632   4.253  0.00  0.00     0.126 C 
ENDBRANCH  15  16
ENDBRANCH   7  15
BRANCH   8  19
ATOM     19  O   UNL d   1      -0.350  -7.343   4.816  0.00  0.00    -0.311 OA
BRANCH  19  20
ATOM     20  C   UNL d   1       0.039  -6.586   5.876  0.00  0.00     0.255 C 
ATOM     21  O   UNL d   1       0.291  -5.391   5.819  0.00  0.00    -0.266 OA
ATOM     22  C   UNL d   1       0.200  -7.434   7.102  0.00  0.00     0.126 C 
ENDBRANCH  19  20
ENDBRANCH   8  19
BRANCH   9  23
ATOM     23  C   UNL d   1       1.996  -7.312   3.051  0.00  0.00     0.213 C 
BRANCH  23  24
ATOM     24  O   UNL d   1       3.244  -6.809   2.529  0.00  0.00    -0.319 OA
BRANCH  24  25
ATOM     25  C   UNL d   1       4.021  -6.124   3.407  0.00  0.00     0.254 C 
ATOM     26  O   UNL d   1       3.763  -5.949   4.589  0.00  0.00    -0.266 OA
ATOM     27  C   UNL d   1       5.262  -5.620   2.733  0.00  0.00     0.126 C 
ENDBRANCH  24  25
ENDBRANCH  23  24
ENDBRANCH   9  23
ENDBRANCH   3   5
ENDBRANCH   1   3
BRANCH   1  28
ATOM     28  N   UNL d   1       0.173  -4.811  -2.389  0.00  0.00    -0.339 N 
ATOM     29  H   UNL d   1       1.045  -4.321  -2.265  0.00  0.00     0.164 HD
BRANCH  28  30
ATOM     30  C   UNL d   1      -0.217  -5.080  -3.776  0.00  0.00     0.255 C 
ATOM     31  C   UNL d   1       0.877  -4.900  -4.857  0.00  0.00     0.212 C 
ATOM     32  C   UNL d   1       1.208  -3.416  -5.073  0.00  0.00     0.198 C 
ATOM     33  C   UNL d   1      -0.065  -2.614  -5.406  0.00  0.00     0.195 C 
ATOM     34  C   UNL d   1      -1.191  -2.903  -4.386  0.00  0.00     0.180 C 
ATOM     35  O   UNL d   1      -1.374  -4.299  -4.092  0.00  0.00    -0.354 OA
BRANCH  31  36
ATOM     36  O   UNL d   1       0.320  -5.430  -6.091  0.00  0.00    -0.309 OA
BRANCH  36  37
ATOM     37  C   UNL d   1       0.972  -6.409  -6.751  0.00  0.00     0.255 C 
ATOM     38  O   UNL d   1       2.058  -6.873  -6.432  0.00  0.00    -0.266 OA
ATOM     39  C   UNL d   1       0.141  -6.887  -7.908  0.00  0.00     0.126 C 
ENDBRANCH  36  37
ENDBRANCH  31  36
BRANCH  32  40
ATOM     40  O   UNL d   1       1.788  -2.899  -3.850  0.00  0.00    -0.311 OA
BRANCH  40  41
ATOM     41  C   UNL d   1       3.081  -2.480  -3.875  0.00  0.00     0.255 C 
ATOM     42  O   UNL d   1       3.812  -2.481  -4.850  0.00  0.00    -0.266 OA
ATOM     43  C   UNL d   1       3.508  -2.105  -2.486  0.00  0.00     0.126 C 
ENDBRANCH  40  41
ENDBRANCH  32  40
BRANCH  33  44
ATOM     44  O   UNL d   1      -0.540  -2.954  -6.739  0.00  0.00    -0.311 OA
BRANCH  44  45
ATOM     45  C   UNL d   1       0.088  -2.323  -7.771  0.00  0.00     0.255 C 
ATOM     46  O   UNL d   1       0.970  -1.486  -7.642  0.00  0.00    -0.266 OA
ATOM     47  C   UNL d   1      -0.379  -2.844  -9.098  0.00  0.00     0.126 C 
ENDBRANCH  44  45
ENDBRANCH  33  44
BRANCH  34  48
ATOM     48  C   UNL d   1      -1.020  -2.068  -3.102  0.00  0.00     0.213 C 
BRANCH  48  49
ATOM     49  O   UNL d   1      -2.139  -2.222  -2.217  0.00  0.00    -0.319 OA
BRANCH  49  50
ATOM     50  C   UNL d   1      -3.211  -1.439  -2.502  0.00  0.00     0.254 C 
ATOM     51  O   UNL d   1      -3.283  -0.659  -3.441  0.00  0.00    -0.266 OA
ATOM     52  C   UNL d   1      -4.306  -1.669  -1.510  0.00  0.00     0.126 C 
ENDBRANCH  49  50
ENDBRANCH  48  49
ENDBRANCH  34  48
ENDBRANCH  28  30
ENDBRANCH   1  28
TORSDOF 22
