REMARK  4 active torsions:
REMARK  status: ('A' for Active; 'I' for Inactive)
REMARK    1  A    between atoms: O_4  and  C_1 
REMARK    2  A    between atoms: C_5  and  O_4 
REMARK    3  A    between atoms: C_10  and  C_5 
REMARK    4  A    between atoms: C_11  and  C_10 
ROOT
ATOM      1  O   UNL d   1       0.345  -2.098  -0.308  0.00  0.00    -0.273 OA
ENDROOT
BRANCH   1   2
ATOM      2  C   UNL d   1      -0.995  -2.504  -0.262  0.00  0.00     0.114 A 
ATOM      3  C   UNL d   1      -1.586  -3.147  -1.355  0.00  0.00     0.047 A 
ATOM      4  C   UNL d   1      -2.948  -3.452  -1.329  0.00  0.00     0.041 A 
ATOM      5 BR   UNL d   1      -0.608  -3.567  -2.926  0.00  0.00    -0.048 Br
ATOM      6  C   UNL d   1      -3.716  -3.088  -0.223  0.00  0.00     0.013 A 
ATOM      7  C   UNL d   1      -3.140  -2.428   0.862  0.00  0.00     0.041 A 
ATOM      8 BR   UNL d   1      -5.570  -3.460  -0.213  0.00  0.00    -0.051 Br
ATOM      9  C   UNL d   1      -1.776  -2.135   0.841  0.00  0.00     0.047 A 
ATOM     10 BR   UNL d   1      -1.032  -1.198   2.313  0.00  0.00    -0.048 Br
ENDBRANCH   1   2
BRANCH   1  11
ATOM     11  C   UNL d   1       1.275  -3.095  -0.076  0.00  0.00     0.288 C 
ATOM     12  O   UNL d   1       1.052  -4.274   0.145  0.00  0.00    -0.260 OA
BRANCH  11  13
ATOM     13  C   UNL d   1       2.649  -2.547  -0.179  0.00  0.00     0.084 C 
BRANCH  13  14
ATOM     14  C   UNL d   1       2.907  -1.235  -0.056  0.00  0.00     0.025 C 
ATOM     15  C   UNL d   1       4.222  -0.688  -0.127  0.00  0.00     0.005 A 
ATOM     16  S   UNL d   1       4.406   1.013   0.141  0.00  0.00    -0.102 SA
ATOM     17  C   UNL d   1       5.456  -1.264  -0.382  0.00  0.00     0.019 A 
ATOM     18  C   UNL d   1       6.098   0.947  -0.065  0.00  0.00     0.050 A 
ATOM     19  C   UNL d   1       6.532  -0.327  -0.343  0.00  0.00     0.008 A 
ENDBRANCH  13  14
ENDBRANCH  11  13
ENDBRANCH   1  11
TORSDOF 4
