REMARK  7 active torsions:
REMARK  status: ('A' for Active; 'I' for Inactive)
REMARK    1  A    between atoms: N_6  and  C_1 
REMARK    2  A    between atoms: C_7  and  C_2 
REMARK    3  A    between atoms: C_10  and  C_5 
REMARK       I    between atoms: C_8  and  N_6 
REMARK    4  A    between atoms: O_15  and  C_7 
REMARK    5  A    between atoms: C_11  and  C_8 
REMARK    6  A    between atoms: N_9  and  C_11 
REMARK    7  A    between atoms: C_22  and  O_15 
ROOT
ATOM      1  C   UNL d   1       0.192   1.311   0.696  0.00  0.00     0.093 C 
ATOM      2  C   UNL d   1       1.404   0.784   1.111  0.00  0.00     0.074 C 
ATOM      3  S   UNL d   1      -1.030   0.126   0.559  0.00  0.00    -0.071 SA
ATOM      4  C   UNL d   1       1.325  -0.654   1.110  0.00  0.00     0.040 C 
ATOM      5  C   UNL d   1       0.098  -1.157   0.722  0.00  0.00     0.018 C 
ENDROOT
BRANCH   1   6
ATOM      6  N   UNL d   1      -0.233   2.572   0.316  0.00  0.00    -0.319 N 
ATOM      7  C   UNL d   1       0.610   3.385  -0.408  0.00  0.00     0.251 C 
ATOM      8  O   UNL d   1       1.734   3.051  -0.789  0.00  0.00    -0.271 OA
ATOM      9  H   UNL d   1      -1.226   2.719   0.159  0.00  0.00     0.169 HD
BRANCH   7  10
ATOM     10  C   UNL d   1       0.106   4.775  -0.787  0.00  0.00     0.375 C 
BRANCH  10  11
ATOM     11  N   UNL d   1      -1.329   5.072  -0.541  0.00  0.00     0.101 N 
ATOM     12  C   UNL d   1      -1.625   5.421   0.874  0.00  0.00     0.299 C 
ATOM     13  C   UNL d   1      -1.026   6.754   1.362  0.00  0.00     0.198 C 
ATOM     14  O   UNL d   1      -1.387   7.846   0.509  0.00  0.00    -0.388 OA
ATOM     15  C   UNL d   1      -1.030   7.581  -0.851  0.00  0.00     0.198 C 
ATOM     16  C   UNL d   1      -1.693   6.280  -1.348  0.00  0.00     0.299 C 
ENDBRANCH  10  11
ENDBRANCH   7  10
ENDBRANCH   1   6
BRANCH   2  17
ATOM     17  C   UNL d   1       2.646   1.475   1.461  0.00  0.00     0.296 C 
ATOM     18  O   UNL d   1       3.724   0.884   1.497  0.00  0.00    -0.259 OA
BRANCH  17  19
ATOM     19  O   UNL d   1       2.487   2.780   1.835  0.00  0.00    -0.318 OA
BRANCH  19  20
ATOM     20  C   UNL d   1       3.708   3.473   2.135  0.00  0.00     0.174 C 
ATOM     21  C   UNL d   1       4.427   3.905   0.866  0.00  0.00     0.034 C 
ENDBRANCH  19  20
ENDBRANCH  17  19
ENDBRANCH   2  17
BRANCH   5  22
ATOM     22  C   UNL d   1      -0.243  -2.559   0.426  0.00  0.00    -0.019 A 
ATOM     23  C   UNL d   1       0.741  -3.395  -0.135  0.00  0.00     0.013 A 
ATOM     24  C   UNL d   1       0.468  -4.726  -0.456  0.00  0.00     0.001 A 
ATOM     25  C   UNL d   1      -0.800  -5.246  -0.220  0.00  0.00     0.000 A 
ATOM     26  C   UNL d   1      -1.787  -4.437   0.340  0.00  0.00     0.001 A 
ATOM     27  C   UNL d   1      -1.511  -3.103   0.663  0.00  0.00     0.013 A 
ENDBRANCH   5  22
TORSDOF 7
