REMARK  5 active torsions:
REMARK  status: ('A' for Active; 'I' for Inactive)
REMARK    1  A    between atoms: C_3  and  C_1 
REMARK    2  A    between atoms: N_5  and  C_2 
REMARK    3  A    between atoms: O_9  and  C_3 
REMARK       I    between atoms: C_4  and  N_5 
REMARK    4  A    between atoms: O_8  and  C_4 
REMARK    5  A    between atoms: C_12  and  O_8 
ROOT
ATOM      1  C   UNL d   1       1.480  -0.216   0.029  0.00  0.00     0.066 A 
ATOM      2  C   UNL d   1       0.673  -1.374   0.060  0.00  0.00     0.053 A 
ATOM      3  C   UNL d   1       0.859   1.048   0.031  0.00  0.00     0.020 A 
ATOM      4  C   UNL d   1      -0.723  -1.239   0.094  0.00  0.00     0.030 A 
ATOM      5  C   UNL d   1      -0.531   1.166   0.057  0.00  0.00     0.001 A 
ATOM      6  C   UNL d   1      -1.320   0.023   0.090  0.00  0.00     0.002 A 
ENDROOT
BRANCH   2   7
ATOM      7  N   UNL d   1       1.250  -2.655   0.012  0.00  0.00    -0.302 N 
ATOM      8  C   UNL d   1       0.805  -3.769   0.665  0.00  0.00     0.365 C 
ATOM      9  O   UNL d   1      -0.186  -3.873   1.369  0.00  0.00    -0.238 OA
ATOM     10  H   UNL d   1       2.237  -2.716  -0.212  0.00  0.00     0.171 HD
BRANCH   8  11
ATOM     11  O   UNL d   1       1.747  -4.730   0.497  0.00  0.00    -0.304 OA
BRANCH  11  12
ATOM     12  C   UNL d   1       1.765  -5.796   1.454  0.00  0.00     0.176 C 
ATOM     13  C   UNL d   1       3.011  -5.598   2.296  0.00  0.00     0.034 C 
ENDBRANCH  11  12
ENDBRANCH   8  11
ENDBRANCH   2   7
BRANCH   1  14
ATOM     14  C   UNL d   1       2.973  -0.203   0.099  0.00  0.00     0.295 C 
ATOM     15  O   UNL d   1       3.633   0.828   0.064  0.00  0.00    -0.259 OA
BRANCH  14  16
ATOM     16  O   UNL d   1       3.491  -1.448   0.268  0.00  0.00    -0.322 OA
ATOM     17  C   UNL d   1       4.895  -1.489   0.536  0.00  0.00     0.213 C 
ENDBRANCH  14  16
ENDBRANCH   1  14
TORSDOF 5
