REMARK  5 active torsions:
REMARK  status: ('A' for Active; 'I' for Inactive)
REMARK    1  A    between atoms: C_2  and  C_1 
REMARK    2  A    between atoms: C_7  and  C_3 
REMARK    3  A    between atoms: C_10  and  C_5 
REMARK    4  A    between atoms: O_20  and  C_7 
REMARK    5  A    between atoms: N_14  and  N_8 
REMARK       I    between atoms: C_12  and  N_14 
REMARK       I    between atoms: N_19  and  C_12 
ROOT
ATOM      1  C   UNL d   1       8.384   5.000  -0.691  0.00  0.00     0.088 A 
ATOM      2  O   UNL d   1       7.770   4.045  -1.453  0.00  0.00    -0.308 OA
ATOM      3  C   UNL d   1       6.587   3.710  -0.853  0.00  0.00     0.099 A 
ATOM      4  C   UNL d   1       7.585   5.274   0.405  0.00  0.00     0.041 A 
ATOM      5  C   UNL d   1       6.439   4.450   0.301  0.00  0.00     0.042 A 
ENDROOT
BRANCH   3   6
ATOM      6  C   UNL d   1       5.741   2.700  -1.462  0.00  0.00     0.056 C 
ATOM      7  N   UNL d   1       4.659   2.362  -0.819  0.00  0.00    -0.299 N 
ATOM      8  HN  UNL d   1       4.436   2.804   0.073  1.00  0.00     0.186 HD
ATOM      9  C   UNL d   1       6.199   2.151  -2.794  0.00  0.00     0.072 C 
BRANCH   7  10
ATOM     10  N   UNL d   1       3.823   1.415  -1.339  0.00  0.00    -0.252 N 
ATOM     11  C   UNL d   1       2.694   0.998  -0.680  0.00  0.00     0.332 C 
ATOM     12  O   UNL d   1       1.920   0.173  -1.145  0.00  0.00    -0.246 OA
ATOM     13  N   UNL d   1       2.506   1.572   0.533  0.00  0.00    -0.351 N 
ATOM     14  H   UNL d   1       3.046   2.408   0.709  0.00  0.00     0.160 HD
ATOM     15  H   UNL d   1       1.623   1.426   0.995  0.00  0.00     0.160 HD
ATOM     16  H   UNL d   1       3.980   0.983  -2.240  0.00  0.00     0.191 HD
ENDBRANCH   7  10
ENDBRANCH   3   6
BRANCH   1  17
ATOM     17  C   UNL d   1       9.728   5.612  -0.974  0.00  0.00     0.021 A 
ATOM     18  C   UNL d   1      10.500   5.375  -2.102  0.00  0.00     0.093 A 
ATOM     19  S   UNL d   1      12.038   6.149  -1.976  0.00  0.00    -0.095 SA
ATOM     20  C   UNL d   1      11.650   6.851  -0.475  0.00  0.00     0.051 A 
ATOM     21  C   UNL d   1      10.391   6.494  -0.055  0.00  0.00     0.023 A 
BRANCH  18  22
ATOM     22  C   UNL d   1      10.260   4.621  -3.318  0.00  0.00     0.300 C 
ATOM     23  O   UNL d   1      11.102   3.996  -3.953  0.00  0.00    -0.259 OA
BRANCH  22  24
ATOM     24  O   UNL d   1       8.965   4.765  -3.723  0.00  0.00    -0.322 OA
ATOM     25  C   UNL d   1       8.648   4.051  -4.917  0.00  0.00     0.213 C 
ENDBRANCH  22  24
ENDBRANCH  18  22
ENDBRANCH   1  17
TORSDOF 5
