REMARK  6 active torsions:
REMARK  status: ('A' for Active; 'I' for Inactive)
REMARK    1  A    between atoms: N_2  and  S_1 
REMARK    2  A    between atoms: C_4  and  S_1 
REMARK    3  A    between atoms: C_3  and  O_10 
REMARK    4  A    between atoms: C_7  and  C_11 
REMARK    5  A    between atoms: O_10  and  C_20 
REMARK    6  A    between atoms: O_23  and  C_12 
ROOT
ATOM      1  N   UNL d   1       0.198   0.205  -1.675  0.00  0.00    -0.307 N 
ATOM      2  C   UNL d   1       0.383   1.559  -2.233  0.00  0.00     0.136 C 
ATOM      3  C   UNL d   1       0.550  -0.982  -2.487  0.00  0.00     0.136 C 
ATOM      4  C   UNL d   1       0.916   0.470  -4.544  0.00  0.00     0.024 C 
ATOM      5  C   UNL d   1       0.390   1.673  -3.753  0.00  0.00     0.030 C 
ATOM      6  C   UNL d   1       0.279  -0.799  -3.970  0.00  0.00     0.030 C 
ENDROOT
BRANCH   1   7
ATOM      7  S   UNL d   1       0.505   0.057   0.010  0.00  0.00     0.260 S 
ATOM      8  O   UNL d   1      -0.156  -1.149   0.472  0.00  0.00    -0.200 OA
ATOM      9  O   UNL d   1       0.257   1.335   0.637  0.00  0.00    -0.200 OA
BRANCH   7  10
ATOM     10  C   UNL d   1       2.269  -0.245   0.104  0.00  0.00     0.079 A 
ATOM     11  C   UNL d   1       3.180   0.806   0.020  0.00  0.00     0.028 A 
ATOM     12  C   UNL d   1       4.558   0.549   0.067  0.00  0.00     0.038 A 
ATOM     13  C   UNL d   1       5.021  -0.754   0.269  0.00  0.00     0.078 A 
ATOM     14  C   UNL d   1       4.099  -1.799   0.369  0.00  0.00     0.038 A 
ATOM     15  C   UNL d   1       2.727  -1.555   0.297  0.00  0.00     0.028 A 
BRANCH  13  16
ATOM     16  O   UNL d   1       6.321  -1.152   0.354  0.00  0.00    -0.255 OA
BRANCH  16  17
ATOM     17  C   UNL d   1       7.323  -0.236   0.759  0.00  0.00     0.530 C 
ATOM     18  F   UNL d   1       6.845   0.853   1.396  0.00  0.00    -0.144 F 
ATOM     19  F   UNL d   1       8.163  -0.872   1.609  0.00  0.00    -0.144 F 
ATOM     20  F   UNL d   1       8.036   0.162  -0.318  0.00  0.00    -0.144 F 
ENDBRANCH  16  17
ENDBRANCH  13  16
ENDBRANCH   7  10
ENDBRANCH   1   7
BRANCH   4  21
ATOM     21  C   UNL d   1       2.433   0.372  -4.725  0.00  0.00    -0.021 A 
ATOM     22  C   UNL d   1       3.005  -0.015  -5.958  0.00  0.00     0.074 A 
ATOM     23  C   UNL d   1       4.394  -0.191  -6.074  0.00  0.00     0.037 A 
ATOM     24  C   UNL d   1       5.238   0.082  -5.003  0.00  0.00     0.003 A 
ATOM     25  C   UNL d   1       4.699   0.521  -3.805  0.00  0.00     0.001 A 
ATOM     26  C   UNL d   1       3.315   0.654  -3.669  0.00  0.00     0.010 A 
BRANCH  22  27
ATOM     27  O   UNL d   1       2.154  -0.219  -7.017  0.00  0.00    -0.355 OA
ATOM     28  C   UNL d   1       2.729  -0.014  -8.309  0.00  0.00     0.210 C 
ENDBRANCH  22  27
ENDBRANCH   4  21
TORSDOF 6
