REMARK  1 active torsions:
REMARK  status: ('A' for Active; 'I' for Inactive)
REMARK    1  A    between atoms: C_11  and  C_9 
ROOT
ATOM      1  N   UNL d   1      -0.212  -0.269   0.020  0.00  0.00    -0.255 N 
ATOM      2  C   UNL d   1      -0.478   1.061   0.012  0.00  0.00     0.160 A 
ATOM      3  C   UNL d   1      -1.283  -1.139   0.029  0.00  0.00     0.271 A 
ATOM      4  C   UNL d   1      -2.522  -0.296   0.016  0.00  0.00     0.079 A 
ATOM      5  N   UNL d   1       0.580   1.820   0.002  0.00  0.00    -0.334 N 
ATOM      6  HN  UNL d   1       0.629   2.839  -0.005  1.00  0.00     0.168 HD
ATOM      7  S   UNL d   1      -2.153   1.417   0.017  0.00  0.00    -0.048 SA
ATOM      8  C   UNL d   1       1.153  -0.409   0.016  0.00  0.00     0.071 A 
ATOM      9  C   UNL d   1      -3.734  -0.870   0.030  0.00  0.00     0.061 C 
ATOM     10  C   UNL d   1       1.616   0.914   0.002  0.00  0.00     0.061 A 
ATOM     11  O   UNL d   1      -1.162  -2.349   0.038  0.00  0.00    -0.266 OA
ATOM     12  C   UNL d   1       2.012  -1.513   0.022  0.00  0.00     0.032 A 
ATOM     13  C   UNL d   1       2.996   1.159  -0.009  0.00  0.00     0.032 A 
ATOM     14  C   UNL d   1       3.385  -1.242   0.014  0.00  0.00     0.002 A 
ATOM     15  C   UNL d   1       3.872   0.068  -0.003  0.00  0.00     0.002 A 
ENDROOT
BRANCH   9  16
ATOM     16  C   UNL d   1      -4.950  -0.135  -0.029  0.00  0.00     0.077 A 
ATOM     17  O   UNL d   1      -5.088   1.065  -0.691  0.00  0.00    -0.316 OA
ATOM     18  C   UNL d   1      -6.370   1.489  -0.574  0.00  0.00     0.050 A 
ATOM     19  C   UNL d   1      -6.704   2.768  -1.232  0.00  0.00     0.076 C 
ATOM     20  C   UNL d   1      -7.099   0.580   0.152  0.00  0.00     0.035 A 
ATOM     21  C   UNL d   1      -6.196  -0.457   0.496  0.00  0.00     0.040 A 
ENDBRANCH   9  16
TORSDOF 1
