REMARK  5 active torsions:
REMARK  status: ('A' for Active; 'I' for Inactive)
REMARK    1  A    between atoms: C_2  and  C_1 
REMARK       I    between atoms: N_3  and  C_2 
REMARK       I    between atoms: C_9  and  N_3 
REMARK    2  A    between atoms: S_17  and  C_6 
REMARK    3  A    between atoms: S_19  and  C_7 
REMARK       I    between atoms: N_12  and  C_9 
REMARK    4  A    between atoms: N_15  and  N_12 
REMARK    5  A    between atoms: C_18  and  N_15 
ROOT
ATOM      1  C   UNL d   1      -2.893  -1.302  -0.233  0.00  0.00     0.264 C 
ATOM      2  N   UNL d   1      -3.625  -0.697  -1.238  0.00  0.00    -0.274 N 
ATOM      3  C   UNL d   1      -3.413   0.511  -1.846  0.00  0.00     0.337 C 
ATOM      4  N   UNL d   1      -2.513   1.368  -1.255  0.00  0.00    -0.268 N 
ATOM      5  O   UNL d   1      -2.043  -0.673   0.395  0.00  0.00    -0.267 OA
ATOM      6  O   UNL d   1      -4.005   0.780  -2.893  0.00  0.00    -0.246 OA
ATOM      7  H   UNL d   1      -4.295  -1.257  -1.746  0.00  0.00     0.173 HD
ATOM      8  H   UNL d   1      -1.820   0.940  -0.637  0.00  0.00     0.185 HD
ENDROOT
BRANCH   1   9
ATOM      9  C   UNL d   1      -3.208  -2.714   0.043  0.00  0.00     0.091 A 
ATOM     10  C   UNL d   1      -2.373  -3.556   0.781  0.00  0.00     0.076 A 
ATOM     11  S   UNL d   1      -3.083  -5.109   0.903  0.00  0.00    -0.006 SA
ATOM     12  N   UNL d   1      -4.433  -4.754   0.035  0.00  0.00    -0.319 N 
ATOM     13  C   UNL d   1      -4.367  -3.489  -0.366  0.00  0.00     0.093 A 
ATOM     14  HN  UNL d   1      -5.197  -5.399  -0.162  1.00  0.00     0.175 HD
BRANCH  10  15
ATOM     15  S   UNL d   1      -0.788  -3.246   1.479  0.00  0.00    -0.125 SA
ATOM     16  C   UNL d   1      -1.251  -2.975   3.206  0.00  0.00     0.096 C 
ENDBRANCH  10  15
BRANCH  13  17
ATOM     17  S   UNL d   1      -5.694  -2.865  -1.358  0.00  0.00    -0.115 SA
ATOM     18  C   UNL d   1      -6.731  -4.324  -1.606  0.00  0.00     0.097 C 
ENDBRANCH  13  17
ENDBRANCH   1   9
BRANCH   4  19
ATOM     19  N   UNL d   1      -2.006   2.365  -2.113  0.00  0.00    -0.202 NA
ATOM     20  H   UNL d   1      -2.603   2.489  -2.940  0.00  0.00     0.153 HD
BRANCH  19  21
ATOM     21  C   UNL d   1      -1.641   3.596  -1.523  0.00  0.00     0.029 A 
ATOM     22  C   UNL d   1      -1.418   3.768  -0.150  0.00  0.00     0.052 A 
ATOM     23  C   UNL d   1      -0.910   4.976   0.341  0.00  0.00     0.074 A 
ATOM     24 CL   UNL d   1      -0.649   5.160   2.034  0.00  0.00    -0.081 Cl
ATOM     25  C   UNL d   1      -0.598   6.012  -0.536  0.00  0.00     0.138 A 
ATOM     26  C   UNL d   1      -0.802   5.861  -1.901  0.00  0.00     0.046 A 
ATOM     27  F   UNL d   1      -0.081   7.164  -0.086  0.00  0.00    -0.204 F 
ATOM     28  C   UNL d   1      -1.317   4.657  -2.388  0.00  0.00     0.028 A 
ENDBRANCH  19  21
ENDBRANCH   4  19
TORSDOF 5
