REMARK  1 active torsions:
REMARK  status: ('A' for Active; 'I' for Inactive)
REMARK    1  A    between atoms: C_3  and  C_7 
ROOT
ATOM      1  C   UNL d   1       2.003   1.487   2.005  0.00  0.00     0.015 A 
ATOM      2  C   UNL d   1       1.853   0.544   0.902  0.00  0.00     0.054 A 
ATOM      3  N   UNL d   1       2.651  -0.549   0.979  0.00  0.00    -0.344 N 
ATOM      4  HN  UNL d   1       3.301  -0.676   1.754  1.00  0.00     0.167 HD
ATOM      5  C   UNL d   1       1.330   2.691   2.039  0.00  0.00     0.053 A 
ATOM      6  C   UNL d   1       2.554  -1.462  -0.004  0.00  0.00     0.090 A 
ATOM      7  S   UNL d   1       0.242   3.324   0.825  0.00  0.00    -0.117 SA
ATOM      8  C   UNL d   1       0.962   0.758  -0.128  0.00  0.00    -0.005 A 
ATOM      9  N   UNL d   1       1.713  -1.340  -1.046  0.00  0.00    -0.354 N 
ATOM     10  HN  UNL d   1       1.664  -2.050  -1.777  1.00  0.00     0.166 HD
ATOM     11  S   UNL d   1       1.689   3.602   3.442  0.00  0.00    -0.094 SA
ATOM     12  C   UNL d   1       2.853   1.343   3.155  0.00  0.00     0.023 A 
ATOM     13  C   UNL d   1       2.777   2.417   4.012  0.00  0.00     0.052 A 
ATOM     14  C   UNL d   1       0.011   1.901  -0.251  0.00  0.00     0.122 C 
ATOM     15  C   UNL d   1       0.941  -0.243  -1.080  0.00  0.00     0.099 A 
ENDROOT
BRANCH   6  16
ATOM     16  C   UNL d   1       3.437  -2.703   0.040  0.00  0.00     0.019 C 
ATOM     17  C   UNL d   1       4.345  -2.750   1.300  0.00  0.00     0.022 C 
ATOM     18  C   UNL d   1       5.222  -4.014   1.297  0.00  0.00    -0.013 C 
ATOM     19  C   UNL d   1       4.320  -5.258   1.283  0.00  0.00     0.009 C 
ATOM     20  C   UNL d   1       6.106  -4.014   0.040  0.00  0.00     0.009 C 
ATOM     21  C   UNL d   1       3.430  -5.248   0.030  0.00  0.00    -0.013 C 
ATOM     22  C   UNL d   1       2.556  -3.981   0.040  0.00  0.00     0.022 C 
ATOM     23  C   UNL d   1       4.320  -5.240  -1.224  0.00  0.00     0.009 C 
ATOM     24  C   UNL d   1       5.227  -3.998  -1.221  0.00  0.00    -0.013 C 
ATOM     25  C   UNL d   1       4.353  -2.733  -1.213  0.00  0.00     0.022 C 
ENDBRANCH   6  16
TORSDOF 1
