REMARK  3 active torsions:
REMARK  status: ('A' for Active; 'I' for Inactive)
REMARK    1  A    between atoms: C_2  and  N_1 
REMARK    2  A    between atoms: N_6  and  C_3 
REMARK       I    between atoms: C_4  and  N_5 
REMARK       I    between atoms: N_7  and  C_4 
REMARK    3  A    between atoms: C_15  and  N_7 
ROOT
ATOM      1  C   UNL d   1      -2.906   4.683  -0.204  0.00  0.00     0.322 C 
ATOM      2  N   UNL d   1      -2.764   3.781  -1.253  0.00  0.00    -0.333 N 
ATOM      3  N   UNL d   1      -1.240   1.259  -1.513  0.00  0.00    -0.266 NA
ATOM      4  N   UNL d   1      -2.385   5.938  -0.417  0.00  0.00    -0.309 N 
ATOM      5  O   UNL d   1      -3.495   4.346   0.823  0.00  0.00    -0.247 OA
ATOM      6  C   UNL d   1      -3.367   2.453  -1.071  0.00  0.00     0.142 C 
ATOM      7  C   UNL d   1      -2.379   1.392  -0.567  0.00  0.00     0.117 C 
ATOM      8  C   UNL d   1      -0.478   3.504  -2.268  0.00  0.00     0.035 C 
ATOM      9  C   UNL d   1      -1.939   3.918  -2.453  0.00  0.00     0.129 C 
ATOM     10  C   UNL d   1      -0.219   2.307  -1.346  0.00  0.00     0.098 C 
ATOM     11  H   UNL d   1      -1.862   6.081  -1.264  0.00  0.00     0.170 HD
ENDROOT
BRANCH   4  12
ATOM     12  C   UNL d   1      -2.586   7.091   0.377  0.00  0.00     0.036 A 
ATOM     13  C   UNL d   1      -3.337   7.111   1.556  0.00  0.00     0.029 A 
ATOM     14  C   UNL d   1      -3.576   8.310   2.236  0.00  0.00     0.002 A 
ATOM     15  C   UNL d   1      -3.058   9.505   1.748  0.00  0.00     0.000 A 
ATOM     16  C   UNL d   1      -2.279   9.497   0.593  0.00  0.00     0.002 A 
ATOM     17  C   UNL d   1      -2.040   8.296  -0.085  0.00  0.00     0.029 A 
ENDBRANCH   4  12
BRANCH   3  18
ATOM     18  C   UNL d   1      -0.772  -0.051  -1.669  0.00  0.00     0.116 A 
ATOM     19  C   UNL d   1      -0.076  -0.492  -2.797  0.00  0.00     0.141 A 
ATOM     20  C   UNL d   1       0.282  -1.837  -2.963  0.00  0.00     0.041 A 
ATOM     21  C   UNL d   1      -0.068  -2.743  -1.974  0.00  0.00     0.020 A 
ATOM     22  C   UNL d   1      -0.738  -2.256  -0.869  0.00  0.00     0.089 A 
ATOM     23  N   UNL d   1      -1.082  -0.956  -0.705  0.00  0.00    -0.355 N 
ATOM     24  HN  UNL d   1      -1.572  -0.658   0.139  1.00  0.00     0.166 HD
BRANCH  19  25
ATOM     25  N   UNL d   1       0.245   0.410  -3.870  0.00  0.00    -0.112 N 
ATOM     26  O   UNL d   1      -0.688   0.866  -4.546  0.00  0.00    -0.532 OA
ATOM     27  O   UNL d   1       1.449   0.625  -4.074  0.00  0.00    -0.532 OA
ENDBRANCH  19  25
ENDBRANCH   3  18
TORSDOF 3
