REMARK  7 active torsions:
REMARK  status: ('A' for Active; 'I' for Inactive)
REMARK    1  A    between atoms: C_2  and  C_1 
REMARK       I    between atoms: C_8  and  N_3 
REMARK    2  A    between atoms: N_4  and  C_5 
REMARK    3  A    between atoms: C_24  and  C_8 
REMARK    4  A    between atoms: C_10  and  C_26 
REMARK    5  A    between atoms: O_23  and  C_10 
REMARK    6  A    between atoms: C_25  and  C_24 
REMARK    7  A    between atoms: C_26  and  C_25 
ROOT
ATOM      1  N   UNL d   1      -1.160   0.742   8.147  0.00  0.00    -0.351 N 
ATOM      2  N   UNL d   1      -0.699  -0.653   5.572  0.00  0.00    -0.366 N 
ATOM      3  C   UNL d   1      -1.760   0.249   9.300  0.00  0.00     0.219 C 
ATOM      4  C   UNL d   1      -1.998   0.964   6.954  0.00  0.00     0.145 C 
ATOM      5  C   UNL d   1      -2.048  -0.239   5.995  0.00  0.00     0.144 C 
ATOM      6  O   UNL d   1      -2.970   0.024   9.357  0.00  0.00    -0.273 OA
ATOM      7  C   UNL d   1       0.976  -0.377   7.377  0.00  0.00     0.040 C 
ATOM      8  C   UNL d   1       0.282   0.869   7.935  0.00  0.00     0.127 C 
ATOM      9  C   UNL d   1       0.097  -1.341   6.586  0.00  0.00     0.126 C 
ENDROOT
BRANCH   2  10
ATOM     10  C   UNL d   1      -0.295  -0.455   4.269  0.00  0.00     0.102 A 
ATOM     11  C   UNL d   1       0.971  -0.820   3.806  0.00  0.00     0.049 A 
ATOM     12  C   UNL d   1       1.327  -0.636   2.466  0.00  0.00     0.021 A 
ATOM     13  C   UNL d   1       0.411  -0.078   1.578  0.00  0.00     0.063 A 
ATOM     14  C   UNL d   1      -0.816   0.276   2.101  0.00  0.00     0.106 A 
ATOM     15  N   UNL d   1      -1.169   0.107   3.400  0.00  0.00    -0.352 N 
ATOM     16  HN  UNL d   1      -2.091   0.403   3.722  1.00  0.00     0.166 HD
BRANCH  13  17
ATOM     17  C   UNL d   1       0.738   0.135   0.134  0.00  0.00     0.418 C 
ATOM     18  F   UNL d   1      -0.277   0.698  -0.580  0.00  0.00    -0.166 F 
ATOM     19  F   UNL d   1       1.045  -1.026  -0.509  0.00  0.00    -0.166 F 
ATOM     20  F   UNL d   1       1.813   0.952  -0.043  0.00  0.00    -0.166 F 
ENDBRANCH  13  17
ENDBRANCH   2  10
BRANCH   3  21
ATOM     21  C   UNL d   1      -0.852  -0.014  10.495  0.00  0.00     0.103 C 
BRANCH  21  22
ATOM     22  C   UNL d   1      -1.577  -0.468  11.772  0.00  0.00     0.019 C 
BRANCH  22  23
ATOM     23  C   UNL d   1      -2.328  -1.798  11.677  0.00  0.00     0.110 C 
BRANCH  23  24
ATOM     24  C   UNL d   1      -1.447  -2.942  11.239  0.00  0.00     0.139 C 
ATOM     25  O   UNL d   1      -0.265  -3.056  11.527  0.00  0.00    -0.650 OA
BRANCH  24  26
ATOM     26  O   UNL d   1      -2.101  -3.865  10.500  0.00  0.00    -0.776 OA
ATOM     27  H   UNL d   1      -3.040  -3.648  10.338  0.00  0.00     0.167 HD
ENDBRANCH  24  26
ENDBRANCH  23  24
ENDBRANCH  22  23
ENDBRANCH  21  22
ENDBRANCH   3  21
TORSDOF 7
