REMARK  4 active torsions:
REMARK  status: ('A' for Active; 'I' for Inactive)
REMARK    1  A    between atoms: S_8  and  C_1 
REMARK    2  A    between atoms: C_3  and  C_2 
REMARK    3  A    between atoms: C_5  and  C_3 
REMARK    4  A    between atoms: C_4  and  S_8 
ROOT
ATOM      1  C   UNL d   1      -1.987   4.376   0.026  0.00  0.00     0.062 C 
ATOM      2  C   UNL d   1      -1.526   3.175  -0.352  0.00  0.00     0.054 C 
ENDROOT
BRANCH   1   3
ATOM      3  C   UNL d   1      -3.377   4.872  -0.141  0.00  0.00     0.182 C 
ATOM      4  O   UNL d   1      -3.563   6.068  -0.340  0.00  0.00    -0.288 OA
BRANCH   3   5
ATOM      5  C   UNL d   1      -4.539   3.954  -0.038  0.00  0.00     0.014 A 
ATOM      6  C   UNL d   1      -4.513   2.793   0.746  0.00  0.00     0.018 A 
ATOM      7  C   UNL d   1      -5.641   1.973   0.817  0.00  0.00     0.043 A 
ATOM      8  C   UNL d   1      -6.796   2.329   0.129  0.00  0.00     0.116 A 
ATOM      9  C   UNL d   1      -6.852   3.496  -0.622  0.00  0.00     0.043 A 
ATOM     10  F   UNL d   1      -7.875   1.541   0.209  0.00  0.00    -0.206 F 
ATOM     11  C   UNL d   1      -5.722   4.312  -0.706  0.00  0.00     0.018 A 
ENDBRANCH   3   5
ENDBRANCH   1   3
BRANCH   2  12
ATOM     12  S   UNL d   1       0.146   2.799  -0.109  0.00  0.00    -0.099 SA
BRANCH  12  13
ATOM     13  C   UNL d   1       0.608   1.871  -1.586  0.00  0.00     0.048 A 
ATOM     14  C   UNL d   1       0.365   2.318  -2.903  0.00  0.00     0.052 A 
ATOM     15 CL   UNL d   1      -0.532   3.751  -3.287  0.00  0.00    -0.083 Cl
ATOM     16  C   UNL d   1       0.890   1.633  -4.010  0.00  0.00     0.025 A 
ATOM     17  C   UNL d   1       1.687   0.507  -3.836  0.00  0.00     0.003 A 
ATOM     18  C   UNL d   1       1.939   0.043  -2.552  0.00  0.00     0.025 A 
ATOM     19  C   UNL d   1       1.402   0.709  -1.439  0.00  0.00     0.052 A 
ATOM     20 CL   UNL d   1       1.798   0.023   0.108  0.00  0.00    -0.083 Cl
ENDBRANCH  12  13
ENDBRANCH   2  12
TORSDOF 4
