REMARK  3 active torsions:
REMARK  status: ('A' for Active; 'I' for Inactive)
REMARK    1  A    between atoms: N_11  and  N_6 
REMARK    2  A    between atoms: C_17  and  C_9 
REMARK    3  A    between atoms: C_14  and  C_13 
ROOT
ATOM      1  C   UNL d   1      -0.267   0.642  -0.024  0.00  0.00     0.069 A 
ATOM      2  C   UNL d   1      -0.121  -0.724  -0.044  0.00  0.00     0.091 A 
ATOM      3  C   UNL d   1       0.921   1.471   0.002  0.00  0.00     0.280 C 
ATOM      4  N   UNL d   1       1.050  -1.411  -0.043  0.00  0.00    -0.344 N 
ATOM      5  HN  UNL d   1       1.098  -2.427  -0.110  1.00  0.00     0.167 HD
ATOM      6  N   UNL d   1       2.109   0.731   0.144  0.00  0.00    -0.215 N 
ATOM      7  C   UNL d   1      -1.633   1.048  -0.024  0.00  0.00     0.040 A 
ATOM      8  S   UNL d   1      -1.631  -1.512  -0.071  0.00  0.00    -0.071 SA
ATOM      9  C   UNL d   1      -2.504  -0.028  -0.012  0.00  0.00     0.018 A 
ATOM     10  C   UNL d   1       2.102  -0.657   0.050  0.00  0.00     0.211 C 
ATOM     11  O   UNL d   1       0.844   2.692  -0.109  0.00  0.00    -0.265 OA
ENDROOT
BRANCH   6  12
ATOM     12  N   UNL d   1       3.367   1.320   0.213  0.00  0.00    -0.300 N 
ATOM     13  C   UNL d   1       3.460   2.480   0.785  0.00  0.00     0.126 C 
ATOM     14  HN  UNL d   1       4.189   0.855  -0.173  1.00  0.00     0.186 HD
BRANCH  13  15
ATOM     15  C   UNL d   1       4.721   3.179   0.836  0.00  0.00     0.021 A 
ATOM     16  S   UNL d   1       4.791   4.695   1.626  0.00  0.00    -0.101 SA
ATOM     17  C   UNL d   1       6.460   4.861   1.293  0.00  0.00     0.050 A 
ATOM     18  C   UNL d   1       6.956   3.785   0.592  0.00  0.00     0.008 A 
ATOM     19  C   UNL d   1       5.948   2.811   0.324  0.00  0.00     0.021 A 
ENDBRANCH  13  15
ENDBRANCH   6  12
BRANCH   9  20
ATOM     20  C   UNL d   1      -3.975  -0.009   0.029  0.00  0.00    -0.019 A 
ATOM     21  C   UNL d   1      -4.684   1.021  -0.611  0.00  0.00     0.013 A 
ATOM     22  C   UNL d   1      -6.079   1.079  -0.552  0.00  0.00     0.001 A 
ATOM     23  C   UNL d   1      -6.788   0.106   0.149  0.00  0.00     0.000 A 
ATOM     24  C   UNL d   1      -6.103  -0.922   0.790  0.00  0.00     0.001 A 
ATOM     25  C   UNL d   1      -4.708  -0.978   0.732  0.00  0.00     0.013 A 
ENDBRANCH   9  20
TORSDOF 3
