REMARK  2 active torsions:
REMARK  status: ('A' for Active; 'I' for Inactive)
REMARK    1  A    between atoms: C_6  and  C_1 
REMARK    2  A    between atoms: C_3  and  C_2 
ROOT
ATOM      1  C   UNL d   1       0.739  -0.169  -0.630  0.00  0.00     0.072 C 
ATOM      2  C   UNL d   1       0.317  -1.226   0.100  0.00  0.00     0.037 C 
ATOM      3  C   UNL d   1       1.897  -0.283  -1.466  0.00  0.00     0.102 C 
ATOM      4  N   UNL d   1       2.841  -0.324  -2.144  0.00  0.00    -0.191 NA
ENDROOT
BRANCH   1   5
ATOM      5  C   UNL d   1       0.010   1.136  -0.583  0.00  0.00     0.052 A 
ATOM      6  N   UNL d   1      -1.070   1.214   0.239  0.00  0.00    -0.365 N 
ATOM      7  C   UNL d   1      -1.740   2.392   0.307  0.00  0.00     0.088 A 
ATOM      8  HN  UNL d   1      -1.368   0.410   0.790  1.00  0.00     0.165 HD
ATOM      9  C   UNL d   1      -1.393   3.523  -0.411  0.00  0.00     0.017 A 
ATOM     10  C   UNL d   1      -0.296   3.439  -1.253  0.00  0.00     0.004 A 
ATOM     11  C   UNL d   1       0.411   2.238  -1.343  0.00  0.00     0.031 A 
ENDBRANCH   1   5
BRANCH   2  12
ATOM     12  C   UNL d   1       0.963  -2.556   0.096  0.00  0.00    -0.024 A 
ATOM     13  C   UNL d   1       0.565  -3.585  -0.802  0.00  0.00    -0.016 A 
ATOM     14  C   UNL d   1       1.304  -4.795  -0.817  0.00  0.00    -0.025 A 
ATOM     15  C   UNL d   1      -0.533  -3.475  -1.687  0.00  0.00     0.013 A 
ATOM     16  C   UNL d   1       0.936  -5.833  -1.689  0.00  0.00     0.012 A 
ATOM     17  C   UNL d   1       2.402  -4.955   0.040  0.00  0.00     0.012 A 
ATOM     18  C   UNL d   1      -0.159  -5.701  -2.540  0.00  0.00     0.001 A 
ATOM     19  C   UNL d   1      -0.893  -4.522  -2.540  0.00  0.00     0.001 A 
ATOM     20  C   UNL d   1       2.753  -3.957   0.945  0.00  0.00     0.002 A 
ATOM     21  C   UNL d   1       2.030  -2.768   0.983  0.00  0.00     0.012 A 
ENDBRANCH   2  12
TORSDOF 2
