REMARK  4 active torsions:
REMARK  status: ('A' for Active; 'I' for Inactive)
REMARK    1  A    between atoms: N_2  and  C_1 
REMARK       I    between atoms: C_3  and  N_2 
REMARK    2  A    between atoms: C_12  and  C_3 
REMARK    3  A    between atoms: O_10  and  C_6 
REMARK    4  A    between atoms: O_11  and  C_7 
ROOT
ATOM      1  C   UNL d   1       1.306  -0.487   0.076  0.00  0.00     0.040 A 
ATOM      2  C   UNL d   1       0.349  -1.493  -0.076  0.00  0.00     0.066 A 
ATOM      3  C   UNL d   1       0.872   0.840   0.179  0.00  0.00     0.066 A 
ATOM      4  C   UNL d   1      -0.494   1.155   0.138  0.00  0.00     0.073 A 
ATOM      5  C   UNL d   1      -1.013  -1.196  -0.105  0.00  0.00     0.073 A 
ATOM      6  C   UNL d   1      -1.430   0.132  -0.004  0.00  0.00     0.073 A 
ENDROOT
BRANCH   1   7
ATOM      7  N   UNL d   1       2.695  -0.750   0.154  0.00  0.00    -0.327 N 
ATOM      8  C   UNL d   1       3.304  -1.995   0.086  0.00  0.00     0.221 C 
ATOM      9  O   UNL d   1       2.746  -3.068  -0.111  0.00  0.00    -0.273 OA
ATOM     10  H   UNL d   1       3.296   0.054   0.290  0.00  0.00     0.169 HD
BRANCH   8  11
ATOM     11  C   UNL d   1       4.806  -1.922   0.292  0.00  0.00     0.098 C 
ATOM     12  C   UNL d   1       5.432  -3.311   0.275  0.00  0.00     0.014 C 
ENDBRANCH   8  11
ENDBRANCH   1   7
BRANCH   5  13
ATOM     13  O   UNL d   1      -2.021  -2.117  -0.221  0.00  0.00    -0.356 OA
ATOM     14  C   UNL d   1      -1.627  -3.487  -0.229  0.00  0.00     0.210 C 
ENDBRANCH   5  13
BRANCH   4  15
ATOM     15  O   UNL d   1      -0.784   2.490   0.256  0.00  0.00    -0.356 OA
ATOM     16  C   UNL d   1      -2.163   2.846   0.228  0.00  0.00     0.210 C 
ENDBRANCH   4  15
TORSDOF 4
