REMARK  4 active torsions:
REMARK  status: ('A' for Active; 'I' for Inactive)
REMARK    1  A    between atoms: C_15  and  C_3 
REMARK    2  A    between atoms: N_4  and  C_14 
REMARK    3  A    between atoms: C_17  and  C_5 
REMARK    4  A    between atoms: C_8  and  C_18 
ROOT
ATOM      1  N   UNL d   1       1.417  -0.585  -0.036  0.00  0.00    -0.349 N 
ATOM      2  HN  UNL d   1       2.301  -1.094  -0.047  1.00  0.00     0.166 HD
ATOM      3  C   UNL d   1       0.222  -1.150  -0.054  0.00  0.00     0.084 A 
ATOM      4  C   UNL d   1       1.299   0.797   0.002  0.00  0.00     0.050 A 
ATOM      5  S   UNL d   1      -1.098  -0.039   0.001  0.00  0.00    -0.081 SA
ATOM      6  C   UNL d   1       0.001   1.268   0.007  0.00  0.00     0.082 A 
ENDROOT
BRANCH   3   7
ATOM      7  C   UNL d   1      -0.025  -2.603  -0.070  0.00  0.00    -0.002 A 
ATOM      8  C   UNL d   1       0.890  -3.472   0.544  0.00  0.00     0.015 A 
ATOM      9  C   UNL d   1       0.677  -4.859   0.552  0.00  0.00     0.014 A 
ATOM     10  C   UNL d   1      -0.453  -5.410  -0.067  0.00  0.00    -0.008 A 
ATOM     11  C   UNL d   1      -1.359  -4.547  -0.695  0.00  0.00     0.014 A 
ATOM     12  C   UNL d   1      -1.149  -3.164  -0.695  0.00  0.00     0.015 A 
BRANCH  10  13
ATOM     13  C   UNL d   1      -0.695  -6.845  -0.104  0.00  0.00     0.063 A 
ATOM     14  N   UNL d   1      -1.369  -7.429  -1.173  0.00  0.00    -0.292 N 
ATOM     15  N   UNL d   1      -1.493  -8.738  -1.026  0.00  0.00    -0.061 NA
ATOM     16  HN  UNL d   1      -1.726  -6.909  -1.974  1.00  0.00     0.183 HD
ATOM     17  S   UNL d   1      -0.825  -9.296   0.400  0.00  0.00    -0.010 SA
ATOM     18  C   UNL d   1      -0.319  -7.731   0.891  0.00  0.00     0.096 A 
ENDBRANCH  10  13
ENDBRANCH   3   7
BRANCH   4  19
ATOM     19  C   UNL d   1       2.469   1.669   0.017  0.00  0.00    -0.009 A 
ATOM     20  C   UNL d   1       3.645   1.277  -0.639  0.00  0.00     0.016 A 
ATOM     21  C   UNL d   1       4.773   2.109  -0.645  0.00  0.00     0.037 A 
ATOM     22  C   UNL d   1       4.727   3.340   0.022  0.00  0.00     0.102 A 
ATOM     23  C   UNL d   1       3.564   3.742   0.688  0.00  0.00     0.037 A 
ATOM     24  C   UNL d   1       2.443   2.906   0.684  0.00  0.00     0.016 A 
BRANCH  22  25
ATOM     25  N   UNL d   1       5.906   4.217   0.029  0.00  0.00    -0.116 N 
ATOM     26  O   UNL d   1       5.819   5.294   0.634  0.00  0.00    -0.532 OA
ATOM     27  O   UNL d   1       6.917   3.829  -0.573  0.00  0.00    -0.532 OA
ENDBRANCH  22  25
ENDBRANCH   4  19
TORSDOF 4
