REMARK  7 active torsions:
REMARK  status: ('A' for Active; 'I' for Inactive)
REMARK    1  A    between atoms: C_3  and  N_1 
REMARK    2  A    between atoms: C_7  and  C_3 
REMARK    3  A    between atoms: C_8  and  C_3 
REMARK    4  A    between atoms: C_11  and  C_4 
REMARK    5  A    between atoms: N_6  and  C_5 
REMARK    6  A    between atoms: C_14  and  N_6 
REMARK    7  A    between atoms: C_15  and  N_6 
ROOT
ATOM      1  N   UNL d   1       0.876  -0.009  -0.316  0.00  0.00    -0.385 N 
ATOM      2  HN  UNL d   1       0.401  -0.513  -1.065  1.00  0.00     0.160 HD
ATOM      3  C   UNL d   1       2.091  -0.271   0.008  0.00  0.00     0.095 C 
ENDROOT
BRANCH   1   4
ATOM      4  C   UNL d   1       0.202   1.057   0.451  0.00  0.00     0.147 C 
BRANCH   4   5
ATOM      5  C   UNL d   1      -0.256   2.148  -0.514  0.00  0.00    -0.031 A 
ATOM      6  C   UNL d   1      -1.076   1.840  -1.613  0.00  0.00     0.009 A 
ATOM      7  C   UNL d   1      -1.428   2.821  -2.541  0.00  0.00     0.001 A 
ATOM      8  C   UNL d   1      -0.966   4.125  -2.384  0.00  0.00     0.000 A 
ATOM      9  C   UNL d   1      -0.160   4.451  -1.295  0.00  0.00     0.001 A 
ATOM     10  C   UNL d   1       0.192   3.470  -0.364  0.00  0.00     0.009 A 
ENDBRANCH   4   5
BRANCH   4  11
ATOM     11  C   UNL d   1      -0.930   0.496   1.308  0.00  0.00    -0.031 A 
ATOM     12  C   UNL d   1      -1.284   1.125   2.513  0.00  0.00     0.009 A 
ATOM     13  C   UNL d   1      -2.304   0.606   3.315  0.00  0.00     0.001 A 
ATOM     14  C   UNL d   1      -2.992  -0.540   2.919  0.00  0.00     0.000 A 
ATOM     15  C   UNL d   1      -2.663  -1.167   1.722  0.00  0.00     0.001 A 
ATOM     16  C   UNL d   1      -1.641  -0.653   0.922  0.00  0.00     0.009 A 
ENDBRANCH   4  11
ENDBRANCH   1   4
BRANCH   3  17
ATOM     17  C   UNL d   1       2.865  -1.284  -0.733  0.00  0.00    -0.021 A 
ATOM     18  C   UNL d   1       2.292  -1.968  -1.800  0.00  0.00     0.015 A 
ATOM     19  C   UNL d   1       3.049  -2.895  -2.524  0.00  0.00     0.030 A 
ATOM     20  C   UNL d   1       4.396  -3.148  -2.221  0.00  0.00     0.030 A 
ATOM     21  C   UNL d   1       4.940  -2.452  -1.126  0.00  0.00     0.030 A 
ATOM     22  C   UNL d   1       4.189  -1.534  -0.380  0.00  0.00     0.015 A 
BRANCH  20  23
ATOM     23  N   UNL d   1       5.156  -4.021  -2.987  0.00  0.00    -0.382 N 
BRANCH  23  24
ATOM     24  C   UNL d   1       4.562  -5.244  -3.532  0.00  0.00     0.118 C 
ATOM     25  C   UNL d   1       4.266  -5.116  -5.019  0.00  0.00     0.026 C 
ENDBRANCH  23  24
BRANCH  23  26
ATOM     26  C   UNL d   1       6.585  -3.787  -3.218  0.00  0.00     0.118 C 
ATOM     27  C   UNL d   1       6.811  -2.528  -4.049  0.00  0.00     0.026 C 
ENDBRANCH  23  26
ENDBRANCH  20  23
ENDBRANCH   3  17
TORSDOF 7
