REMARK  3 active torsions:
REMARK  status: ('A' for Active; 'I' for Inactive)
REMARK       I    between atoms: N_3  and  C_1 
REMARK    1  A    between atoms: C_4  and  C_1 
REMARK       I    between atoms: C_2  and  N_3 
REMARK    2  A    between atoms: C_5  and  C_2 
REMARK    3  A    between atoms: O_11  and  C_7 
ROOT
ATOM      1  C   UNL d   1      -0.958  -0.677  -0.675  0.00  0.00     0.261 C 
ATOM      2  C   UNL d   1       0.816  -2.372  -0.520  0.00  0.00     0.259 C 
ATOM      3  N   UNL d   1       0.139  -1.246  -0.051  0.00  0.00    -0.289 N 
ATOM      4  O   UNL d   1      -1.669  -1.211  -1.520  0.00  0.00    -0.267 OA
ATOM      5  O   UNL d   1       0.546  -2.964  -1.552  0.00  0.00    -0.267 OA
ATOM      6  H   UNL d   1       0.453  -0.827   0.809  0.00  0.00     0.172 HD
ENDROOT
BRANCH   2   7
ATOM      7  C   UNL d   1       1.993  -2.809   0.303  0.00  0.00     0.038 A 
ATOM      8  C   UNL d   1       2.328  -4.175   0.512  0.00  0.00    -0.040 A 
ATOM      9  C   UNL d   1       3.486  -4.484   1.277  0.00  0.00    -0.055 A 
ATOM     10  C   UNL d   1       1.502  -5.317  -0.032  0.00  0.00     0.050 C 
ATOM     11  C   UNL d   1       3.926  -5.893   1.596  0.00  0.00     0.049 C 
ATOM     12  C   UNL d   1       4.290  -3.448   1.780  0.00  0.00     0.007 A 
ATOM     13  C   UNL d   1       3.967  -2.117   1.551  0.00  0.00     0.002 A 
ATOM     14  C   UNL d   1       2.829  -1.800   0.816  0.00  0.00     0.017 A 
ENDBRANCH   2   7
BRANCH   1  15
ATOM     15  C   UNL d   1      -1.385   0.658  -0.174  0.00  0.00     0.065 A 
ATOM     16  C   UNL d   1      -2.752   0.974  -0.144  0.00  0.00     0.081 A 
ATOM     17  C   UNL d   1      -3.187   2.213   0.320  0.00  0.00     0.037 A 
ATOM     18  C   UNL d   1      -2.255   3.168   0.724  0.00  0.00     0.003 A 
ATOM     19  C   UNL d   1      -0.890   2.882   0.663  0.00  0.00     0.001 A 
ATOM     20  C   UNL d   1      -0.451   1.629   0.216  0.00  0.00     0.020 A 
BRANCH  16  21
ATOM     21  O   UNL d   1      -3.724   0.106  -0.566  0.00  0.00    -0.360 OA
ATOM     22  H   UNL d   1      -3.288  -0.601  -1.096  0.00  0.00     0.217 HD
ENDBRANCH  16  21
ENDBRANCH   1  15
TORSDOF 3
