REMARK  4 active torsions:
REMARK  status: ('A' for Active; 'I' for Inactive)
REMARK    1  A    between atoms: C_2  and  S_1 
REMARK    2  A    between atoms: N_3  and  S_1 
REMARK    3  A    between atoms: C_4  and  N_3 
REMARK    4  A    between atoms: N_5  and  C_6 
ROOT
ATOM      1  C   UNL d   1       0.938  -2.366   0.970  0.00  0.00     0.069 A 
ATOM      2  C   UNL d   1       2.243  -2.787   0.607  0.00  0.00     0.057 A 
ATOM      3  C   UNL d   1      -0.093  -3.304   1.173  0.00  0.00     0.032 A 
ATOM      4  C   UNL d   1       2.431  -4.186   0.507  0.00  0.00     0.031 A 
ATOM      5  C   UNL d   1       0.139  -4.670   1.042  0.00  0.00     0.002 A 
ATOM      6  C   UNL d   1       1.407  -5.113   0.714  0.00  0.00     0.002 A 
ENDROOT
BRANCH   1   7
ATOM      7  N   UNL d   1       0.581  -0.991   1.157  0.00  0.00    -0.278 N 
ATOM      8  H   UNL d   1      -0.046  -0.812   1.940  0.00  0.00     0.179 HD
BRANCH   7   9
ATOM      9  S   UNL d   1       0.154  -0.055  -0.175  0.00  0.00     0.269 S 
ATOM     10  O   UNL d   1      -0.122   1.272   0.339  0.00  0.00    -0.200 OA
ATOM     11  O   UNL d   1       1.082  -0.253  -1.267  0.00  0.00    -0.200 OA
BRANCH   9  12
ATOM     12  C   UNL d   1      -1.413  -0.598  -0.828  0.00  0.00     0.120 A 
ATOM     13  S   UNL d   1      -2.717  -0.706   0.275  0.00  0.00    -0.088 SA
ATOM     14  C   UNL d   1      -3.801  -1.198  -0.958  0.00  0.00     0.051 A 
ATOM     15  C   UNL d   1      -3.189  -1.254  -2.190  0.00  0.00     0.009 A 
ATOM     16  C   UNL d   1      -1.811  -0.907  -2.114  0.00  0.00     0.033 A 
ENDBRANCH   9  12
ENDBRANCH   7   9
ENDBRANCH   1   7
BRANCH   2  17
ATOM     17  N   UNL d   1       3.362  -1.973   0.445  0.00  0.00    -0.379 N 
ATOM     18  C   UNL d   1       3.481  -0.627   1.009  0.00  0.00     0.123 C 
ATOM     19  C   UNL d   1       4.917  -0.414   1.504  0.00  0.00     0.020 C 
ATOM     20  C   UNL d   1       5.963  -0.752   0.443  0.00  0.00     0.003 C 
ATOM     21  C   UNL d   1       5.712  -2.133  -0.158  0.00  0.00     0.020 C 
ATOM     22  C   UNL d   1       4.278  -2.233  -0.676  0.00  0.00     0.123 C 
ENDBRANCH   2  17
TORSDOF 4
