REMARK  4 active torsions:
REMARK  status: ('A' for Active; 'I' for Inactive)
REMARK    1  A    between atoms: C_12  and  C_2 
REMARK    2  A    between atoms: S_11  and  C_5 
REMARK       I    between atoms: N_8  and  C_10 
REMARK       I    between atoms: C_9  and  N_8 
REMARK       I    between atoms: N_17  and  C_9 
REMARK    3  A    between atoms: C_10  and  C_18 
REMARK    4  A    between atoms: C_18  and  S_11 
ROOT
ATOM      1  N   UNL d   1       0.275  -1.017   0.895  0.00  0.00    -0.320 N 
ATOM      2  C   UNL d   1       0.183   0.142   1.630  0.00  0.00     0.132 A 
ATOM      3  N   UNL d   1      -0.677   0.944   1.027  0.00  0.00    -0.283 N 
ATOM      4  HN  UNL d   1      -0.915   1.891   1.322  1.00  0.00     0.188 HD
ATOM      5  C   UNL d   1      -0.655  -0.898  -0.086  0.00  0.00     0.161 A 
ATOM      6  N   UNL d   1      -1.196   0.290  -0.061  0.00  0.00    -0.278 N 
ATOM      7  HN  UNL d   1      -1.876   0.661  -0.726  1.00  0.00     0.189 HD
ATOM      8  H   UNL d   1       0.804  -1.843   1.128  0.00  0.00     0.169 HD
ENDROOT
BRANCH   5   9
ATOM      9  S   UNL d   1      -1.183  -2.219  -1.044  0.00  0.00    -0.083 SA
BRANCH   9  10
ATOM     10  C   UNL d   1      -2.559  -2.812  -0.024  0.00  0.00     0.185 C 
BRANCH  10  11
ATOM     11  C   UNL d   1      -3.839  -1.986  -0.013  0.00  0.00     0.235 C 
ATOM     12  N   UNL d   1      -3.813  -0.721  -0.558  0.00  0.00    -0.279 N 
ATOM     13  C   UNL d   1      -4.779   0.256  -0.519  0.00  0.00     0.322 C 
ATOM     14  H   UNL d   1      -2.940  -0.357  -0.922  0.00  0.00     0.173 HD
ATOM     15  O   UNL d   1      -4.567   1.355  -1.022  0.00  0.00    -0.247 OA
ATOM     16  N   UNL d   1      -5.938  -0.074   0.115  0.00  0.00    -0.347 N 
ATOM     17  C   UNL d   1      -7.047   0.832   0.239  0.00  0.00     0.151 C 
ATOM     18  H   UNL d   1      -6.051  -1.046   0.394  0.00  0.00     0.163 HD
ATOM     19  O   UNL d   1      -4.856  -2.474   0.492  0.00  0.00    -0.272 OA
ENDBRANCH  10  11
ENDBRANCH   9  10
ENDBRANCH   5   9
BRANCH   2  20
ATOM     20  C   UNL d   1       0.825   0.370   2.916  0.00  0.00     0.012 A 
ATOM     21  C   UNL d   1       2.071  -0.170   3.234  0.00  0.00     0.032 A 
ATOM     22  C   UNL d   1       2.582   0.064   4.500  0.00  0.00     0.088 A 
ATOM     23  N   UNL d   1       1.943   0.777   5.451  0.00  0.00    -0.375 N 
ATOM     24  C   UNL d   1       0.746   1.303   5.117  0.00  0.00     0.088 A 
ATOM     25  HN  UNL d   1       2.345   0.911   6.379  1.00  0.00     0.164 HD
ATOM     26  C   UNL d   1       0.159   1.135   3.877  0.00  0.00     0.032 A 
ENDBRANCH   2  20
TORSDOF 4
