REMARK  6 active torsions:
REMARK  status: ('A' for Active; 'I' for Inactive)
REMARK    1  A    between atoms: C_2  and  C_1 
REMARK    2  A    between atoms: O_10  and  C_2 
REMARK    3  A    between atoms: N_6  and  C_3 
REMARK    4  A    between atoms: C_9  and  N_6 
REMARK    5  A    between atoms: C_16  and  O_10 
REMARK    6  A    between atoms: O_12  and  C_11 
ROOT
ATOM      1  C   UNL d   1       0.875  -0.162   0.241  0.00  0.00     0.135 C 
ATOM      2  C   UNL d   1       0.153   0.951   0.467  0.00  0.00     0.117 C 
ATOM      3  C   UNL d   1       0.267  -1.434   0.100  0.00  0.00     0.107 C 
ATOM      4  N   UNL d   1      -0.277  -2.454  -0.017  0.00  0.00    -0.191 NA
ENDROOT
BRANCH   1   5
ATOM      5  C   UNL d   1       2.336   0.001   0.069  0.00  0.00     0.305 C 
ATOM      6  O   UNL d   1       2.922   1.073   0.113  0.00  0.00    -0.258 OA
BRANCH   5   7
ATOM      7  O   UNL d   1       2.906  -1.193  -0.234  0.00  0.00    -0.317 OA
BRANCH   7   8
ATOM      8  C   UNL d   1       4.222  -1.125  -0.800  0.00  0.00     0.174 C 
ATOM      9  C   UNL d   1       4.080  -0.956  -2.301  0.00  0.00     0.034 C 
ENDBRANCH   7   8
ENDBRANCH   5   7
ENDBRANCH   1   5
BRANCH   2  10
ATOM     10  N   UNL d   1      -1.206   1.084   0.641  0.00  0.00    -0.364 N 
ATOM     11  H   UNL d   1      -1.764   0.234   0.682  0.00  0.00     0.165 HD
BRANCH  10  12
ATOM     12  C   UNL d   1      -1.924   2.277   0.835  0.00  0.00     0.034 A 
ATOM     13  C   UNL d   1      -1.477   3.521   0.361  0.00  0.00     0.066 A 
ATOM     14  C   UNL d   1      -2.187   4.694   0.636  0.00  0.00     0.070 A 
ATOM     15  C   UNL d   1      -3.333   4.628   1.430  0.00  0.00     0.037 A 
ATOM     16  C   UNL d   1      -3.782   3.404   1.922  0.00  0.00     0.005 A 
ATOM     17  C   UNL d   1      -3.084   2.237   1.619  0.00  0.00     0.029 A 
BRANCH  14  18
ATOM     18  O   UNL d   1      -1.869   5.949   0.195  0.00  0.00    -0.356 OA
ATOM     19  C   UNL d   1      -0.750   6.064  -0.675  0.00  0.00     0.210 C 
ENDBRANCH  14  18
ENDBRANCH  10  12
ENDBRANCH   2  10
TORSDOF 6
