REMARK  6 active torsions:
REMARK  status: ('A' for Active; 'I' for Inactive)
REMARK    1  A    between atoms: C_13  and  N_1 
REMARK    2  A    between atoms: C_2  and  C_14 
REMARK    3  A    between atoms: S_15  and  C_3 
REMARK    4  A    between atoms: O_22  and  C_6 
REMARK    5  A    between atoms: C_14  and  C_19 
REMARK    6  A    between atoms: C_19  and  S_15 
ROOT
ATOM      1  C   UNL d   1       2.320  -3.208  -0.085  0.00  0.00     0.166 C 
ENDROOT
BRANCH   1   2
ATOM      2  C   UNL d   1       3.754  -3.706  -0.249  0.00  0.00     0.176 C 
ATOM      3  O   UNL d   1       3.972  -4.721  -0.919  0.00  0.00    -0.291 OA
BRANCH   2   4
ATOM      4  C   UNL d   1       4.827  -2.931   0.370  0.00  0.00     0.059 C 
ATOM      5  S   UNL d   1       4.576  -2.178   1.886  0.00  0.00    -0.085 SA
ATOM      6  C   UNL d   1       5.887  -1.106   1.637  0.00  0.00     0.016 A 
ATOM      7  C   UNL d   1       6.198   0.034   2.400  0.00  0.00     0.021 A 
ATOM      8  C   UNL d   1       6.647  -1.494   0.531  0.00  0.00    -0.010 A 
ATOM      9  C   UNL d   1       7.256   0.845   1.988  0.00  0.00     0.025 A 
ATOM     10  C   UNL d   1       8.013   0.496   0.879  0.00  0.00     0.035 A 
ATOM     11  C   UNL d   1       7.750  -0.679   0.170  0.00  0.00     0.037 A 
ATOM     12 CL   UNL d   1       9.267   1.546   0.341  0.00  0.00    -0.084 Cl
ATOM     13  C   UNL d   1       6.115  -2.692  -0.091  0.00  0.00    -0.029 C 
ATOM     14  C   UNL d   1       6.801  -3.410  -1.212  0.00  0.00     0.050 C 
ENDBRANCH   2   4
ENDBRANCH   1   2
BRANCH   1  15
ATOM     15  S   UNL d   1       2.154  -1.463  -0.632  0.00  0.00    -0.084 SA
BRANCH  15  16
ATOM     16  C   UNL d   1       0.642  -1.056   0.103  0.00  0.00     0.165 A 
ATOM     17  N   UNL d   1       0.168   0.202   0.411  0.00  0.00    -0.286 N 
ATOM     18  C   UNL d   1      -1.067  -0.026   0.988  0.00  0.00     0.240 A 
ATOM     19  N   UNL d   1      -1.328  -1.312   0.994  0.00  0.00    -0.263 N 
ATOM     20  N   UNL d   1      -0.250  -1.959   0.448  0.00  0.00    -0.277 N 
ATOM     21  HN  UNL d   1      -2.180  -1.751   1.343  1.00  0.00     0.190 HD
ATOM     22  HN  UNL d   1      -0.156  -2.968   0.329  1.00  0.00     0.189 HD
BRANCH  17  23
ATOM     23  C   UNL d   1       0.733   1.532   0.228  0.00  0.00     0.096 A 
ATOM     24  C   UNL d   1       1.674   1.931  -0.889  0.00  0.00     0.028 A 
ATOM     25  C   UNL d   1       2.187   1.859   0.508  0.00  0.00     0.028 A 
ENDBRANCH  17  23
BRANCH  18  26
ATOM     26  O   UNL d   1      -1.902   0.870   1.496  0.00  0.00    -0.331 OA
ATOM     27  H   UNL d   1      -1.439   1.704   1.649  0.00  0.00     0.221 HD
ENDBRANCH  18  26
ENDBRANCH  15  16
ENDBRANCH   1  15
TORSDOF 6
