REMARK  4 active torsions:
REMARK  status: ('A' for Active; 'I' for Inactive)
REMARK    1  A    between atoms: C_8  and  C_1 
REMARK    2  A    between atoms: C_7  and  C_9 
REMARK    3  A    between atoms: O_16  and  C_7 
REMARK    4  A    between atoms: C_19  and  O_16 
ROOT
ATOM      1  C   UNL d   1      -1.856  -1.554  -0.034  0.00  0.00     0.090 A 
ATOM      2  C   UNL d   1      -1.514  -1.073   1.173  0.00  0.00     0.093 A 
ATOM      3  O   UNL d   1      -1.488  -0.965  -1.234  0.00  0.00    -0.309 OA
ATOM      4  C   UNL d   1      -0.684   0.139   1.260  0.00  0.00     0.187 A 
ATOM      5  C   UNL d   1      -0.332   0.785  -0.010  0.00  0.00     0.048 A 
ATOM      6  C   UNL d   1      -0.757   0.195  -1.198  0.00  0.00     0.090 A 
ATOM      7  O   UNL d   1      -0.322   0.576   2.345  0.00  0.00    -0.287 OA
ATOM      8  C   UNL d   1       0.407   1.971  -0.031  0.00  0.00     0.018 A 
ATOM      9  C   UNL d   1      -0.444   0.789  -2.420  0.00  0.00     0.038 A 
ATOM     10  C   UNL d   1       0.716   2.566  -1.254  0.00  0.00     0.001 A 
ATOM     11  C   UNL d   1       0.291   1.976  -2.446  0.00  0.00     0.003 A 
ENDROOT
BRANCH   1  12
ATOM     12  C   UNL d   1      -2.700  -2.761  -0.185  0.00  0.00    -0.002 A 
ATOM     13  C   UNL d   1      -3.575  -2.880  -1.279  0.00  0.00     0.015 A 
ATOM     14  C   UNL d   1      -4.402  -3.999  -1.424  0.00  0.00     0.018 A 
ATOM     15  C   UNL d   1      -4.366  -5.027  -0.476  0.00  0.00     0.039 A 
ATOM     16  C   UNL d   1      -3.476  -4.934   0.600  0.00  0.00     0.018 A 
ATOM     17  C   UNL d   1      -2.650  -3.815   0.739  0.00  0.00     0.015 A 
BRANCH  15  18
ATOM     18  C   UNL d   1      -5.339  -6.144  -0.601  0.00  0.00     0.293 C 
ATOM     19  O   UNL d   1      -6.194  -6.207  -1.470  0.00  0.00    -0.259 OA
BRANCH  18  20
ATOM     20  O   UNL d   1      -5.196  -6.989   0.449  0.00  0.00    -0.318 OA
BRANCH  20  21
ATOM     21  C   UNL d   1      -6.313  -7.846   0.718  0.00  0.00     0.174 C 
ATOM     22  C   UNL d   1      -7.263  -7.101   1.639  0.00  0.00     0.034 C 
ENDBRANCH  20  21
ENDBRANCH  18  20
ENDBRANCH  15  18
ENDBRANCH   1  12
TORSDOF 4
