REMARK  3 active torsions:
REMARK  status: ('A' for Active; 'I' for Inactive)
REMARK    1  A    between atoms: N_2  and  C_1 
REMARK    2  A    between atoms: N_4  and  C_1 
REMARK    3  A    between atoms: C_5  and  N_2 
ROOT
ATOM      1  C   UNL d   1       1.030   2.241  -1.346  0.00  0.00     0.034 A 
ATOM      2  C   UNL d   1       2.520   4.331  -2.512  0.00  0.00    -0.062 A 
ATOM      3  C   UNL d   1       0.814   3.568  -0.962  0.00  0.00     0.030 A 
ATOM      4  C   UNL d   1       1.984   1.969  -2.329  0.00  0.00     0.030 A 
ATOM      5  C   UNL d   1       1.543   4.607  -1.550  0.00  0.00     0.009 A 
ATOM      6  C   UNL d   1       2.719   3.007  -2.912  0.00  0.00     0.009 A 
ATOM      7  C   UNL d   1       3.345   5.444  -3.087  0.00  0.00     0.048 C 
ENDROOT
BRANCH   1   8
ATOM      8  N   UNL d   1       0.344   1.228  -0.637  0.00  0.00    -0.333 N 
ATOM      9  H   UNL d   1      -0.161   1.536   0.182  0.00  0.00     0.168 HD
BRANCH   8  10
ATOM     10  C   UNL d   1       0.091  -0.081  -1.007  0.00  0.00     0.173 C 
ATOM     11  S   UNL d   1      -0.322  -0.509  -2.585  0.00  0.00    -0.041 SA
BRANCH  10  12
ATOM     12  N   UNL d   1       0.120  -0.985   0.076  0.00  0.00    -0.367 N 
ATOM     13  C   UNL d   1      -0.290  -2.386  -0.055  0.00  0.00     0.151 C 
ATOM     14  C   UNL d   1       0.513  -0.615   1.437  0.00  0.00     0.151 C 
ENDBRANCH  10  12
ENDBRANCH   8  10
ENDBRANCH   1   8
TORSDOF 3
