REMARK  4 active torsions:
REMARK  status: ('A' for Active; 'I' for Inactive)
REMARK       I    between atoms: N_2  and  C_1 
REMARK    1  A    between atoms: C_3  and  C_1 
REMARK    2  A    between atoms: C_5  and  N_2 
REMARK    3  A    between atoms: O_7  and  C_4 
REMARK    4  A    between atoms: C_12  and  O_7 
ROOT
ATOM      1  C   UNL d   1       1.465   2.850   1.851  0.00  0.00     0.175 A 
ATOM      2  C   UNL d   1       1.061   1.508   1.889  0.00  0.00     0.087 A 
ATOM      3  N   UNL d   1       2.184   3.434   2.848  0.00  0.00    -0.345 N 
ATOM      4  HN  UNL d   1       2.484   4.407   2.786  1.00  0.00     0.167 HD
ATOM      5  C   UNL d   1       1.349   0.769   3.038  0.00  0.00     0.035 A 
ATOM      6  C   UNL d   1       2.483   2.673   3.920  0.00  0.00     0.090 A 
ATOM      7  C   UNL d   1       2.083   1.356   4.066  0.00  0.00     0.019 A 
ENDROOT
BRANCH   2   8
ATOM      8  N   UNL d   1       0.329   0.866   0.861  0.00  0.00    -0.319 N 
ATOM      9  C   UNL d   1       0.993   0.424  -0.283  0.00  0.00     0.257 C 
ATOM     10  O   UNL d   1       2.168   0.647  -0.542  0.00  0.00    -0.267 OA
ATOM     11  H   UNL d   1      -0.371   0.204   1.175  0.00  0.00     0.169 HD
BRANCH   9  12
ATOM     12  C   UNL d   1       0.151  -0.425  -1.188  0.00  0.00     0.043 A 
ATOM     13  C   UNL d   1       0.622  -1.632  -1.788  0.00  0.00    -0.010 A 
ATOM     14  C   UNL d   1      -0.262  -2.326  -2.660  0.00  0.00    -0.025 A 
ATOM     15  C   UNL d   1       1.900  -2.210  -1.576  0.00  0.00     0.013 A 
ATOM     16  C   UNL d   1       0.146  -3.512  -3.295  0.00  0.00     0.012 A 
ATOM     17  C   UNL d   1      -1.551  -1.833  -2.899  0.00  0.00     0.012 A 
ATOM     18  C   UNL d   1       1.415  -4.042  -3.075  0.00  0.00     0.001 A 
ATOM     19  C   UNL d   1       2.288  -3.399  -2.213  0.00  0.00     0.001 A 
ATOM     20  C   UNL d   1      -1.994  -0.657  -2.299  0.00  0.00     0.002 A 
ATOM     21  C   UNL d   1      -1.148   0.046  -1.453  0.00  0.00     0.018 A 
ENDBRANCH   9  12
ENDBRANCH   2   8
BRANCH   1  22
ATOM     22  O   UNL d   1       1.037   3.643   0.790  0.00  0.00    -0.292 OA
BRANCH  22  23
ATOM     23  C   UNL d   1       0.827   4.990   1.022  0.00  0.00     0.078 A 
ATOM     24  C   UNL d   1       1.190   5.868  -0.005  0.00  0.00     0.039 A 
ATOM     25  C   UNL d   1       0.971   7.245   0.130  0.00  0.00     0.026 A 
ATOM     26  C   UNL d   1       0.378   7.742   1.288  0.00  0.00     0.034 A 
ATOM     27  C   UNL d   1      -0.009   6.874   2.308  0.00  0.00     0.026 A 
ATOM     28 CL   UNL d   1       0.114   9.434   1.458  0.00  0.00    -0.084 Cl
ATOM     29  C   UNL d   1       0.202   5.497   2.167  0.00  0.00     0.039 A 
ENDBRANCH  22  23
ENDBRANCH   1  22
TORSDOF 4
