REMARK  2 active torsions:
REMARK  status: ('A' for Active; 'I' for Inactive)
REMARK    1  A    between atoms: C_6  and  C_1 
REMARK    2  A    between atoms: O_10  and  C_2 
REMARK       I    between atoms: N_11  and  C_6 
ROOT
ATOM      1  C   UNL d   1       1.344  -1.011  -0.003  0.00  0.00     0.088 A 
ATOM      2  C   UNL d   1       0.088  -1.631   0.021  0.00  0.00     0.158 A 
ATOM      3  N   UNL d   1      -1.092  -0.959  -0.004  0.00  0.00    -0.340 N 
ATOM      4  HN  UNL d   1      -1.981  -1.458   0.006  1.00  0.00     0.167 HD
ATOM      5  C   UNL d   1       1.364   0.398  -0.092  0.00  0.00    -0.040 A 
ATOM      6  C   UNL d   1       0.142   1.092  -0.094  0.00  0.00     0.032 A 
ATOM      7  C   UNL d   1      -1.052   0.388  -0.044  0.00  0.00     0.008 A 
ATOM      8  C   UNL d   1       2.623   1.222  -0.141  0.00  0.00     0.049 C 
ATOM      9  C   UNL d   1      -2.371   1.100  -0.035  0.00  0.00     0.068 C 
ENDROOT
BRANCH   1  10
ATOM     10  C   UNL d   1       2.616  -1.793   0.100  0.00  0.00     0.254 C 
ATOM     11  O   UNL d   1       3.658  -1.296   0.517  0.00  0.00    -0.268 OA
ATOM     12  N   UNL d   1       2.611  -3.107  -0.276  0.00  0.00    -0.366 N 
ATOM     13  H   UNL d   1       1.742  -3.608  -0.407  0.00  0.00     0.159 HD
ATOM     14  H   UNL d   1       3.448  -3.641  -0.084  0.00  0.00     0.159 HD
ENDBRANCH   1  10
BRANCH   2  15
ATOM     15  O   UNL d   1       0.021  -3.013   0.083  0.00  0.00    -0.340 OA
ATOM     16  C   UNL d   1      -1.309  -3.525   0.069  0.00  0.00     0.211 C 
ENDBRANCH   2  15
TORSDOF 2
