REMARK  2 active torsions:
REMARK  status: ('A' for Active; 'I' for Inactive)
REMARK    1  A    between atoms: C_8  and  C_4 
REMARK    2  A    between atoms: C_9  and  C_5 
ROOT
ATOM      1  C   UNL d   1      -0.595  -1.367   1.399  0.00  0.00     0.017 C 
ATOM      2  C   UNL d   1      -0.763   1.099   1.664  0.00  0.00     0.017 C 
ATOM      3  C   UNL d   1      -0.249  -0.179   2.226  0.00  0.00     0.188 C 
ATOM      4  C   UNL d   1      -0.959  -2.470   2.074  0.00  0.00     0.024 C 
ATOM      5  C   UNL d   1      -1.316   1.953   2.541  0.00  0.00     0.024 C 
ATOM      6  O   UNL d   1      -1.301   0.046  -0.406  0.00  0.00    -0.382 OA
ATOM      7  O   UNL d   1       0.343  -0.251   3.294  0.00  0.00    -0.287 OA
ATOM      8  C   UNL d   1      -0.698   1.200   0.177  0.00  0.00     0.210 C 
ATOM      9  C   UNL d   1      -0.588  -1.147  -0.080  0.00  0.00     0.210 C 
ENDROOT
BRANCH   4  10
ATOM     10  C   UNL d   1      -1.482  -3.684   1.449  0.00  0.00    -0.035 A 
ATOM     11  C   UNL d   1      -0.621  -4.691   1.007  0.00  0.00     0.013 A 
ATOM     12  C   UNL d   1      -1.142  -5.857   0.440  0.00  0.00     0.024 A 
ATOM     13  C   UNL d   1      -2.522  -6.012   0.314  0.00  0.00     0.034 A 
ATOM     14  C   UNL d   1      -3.388  -5.005   0.737  0.00  0.00     0.024 A 
ATOM     15 CL   UNL d   1      -3.162  -7.459  -0.361  0.00  0.00    -0.084 Cl
ATOM     16  C   UNL d   1      -2.867  -3.840   1.304  0.00  0.00     0.013 A 
ENDBRANCH   4  10
BRANCH   5  17
ATOM     17  C   UNL d   1      -2.063   3.147   2.150  0.00  0.00    -0.035 A 
ATOM     18  C   UNL d   1      -3.444   3.045   1.932  0.00  0.00     0.013 A 
ATOM     19  C   UNL d   1      -4.185   4.171   1.569  0.00  0.00     0.024 A 
ATOM     20  C   UNL d   1      -3.543   5.399   1.422  0.00  0.00     0.034 A 
ATOM     21  C   UNL d   1      -2.167   5.506   1.626  0.00  0.00     0.024 A 
ATOM     22 CL   UNL d   1      -4.456   6.792   0.993  0.00  0.00    -0.084 Cl
ATOM     23  C   UNL d   1      -1.425   4.379   1.989  0.00  0.00     0.013 A 
ENDBRANCH   5  17
TORSDOF 2
