REMARK  3 active torsions:
REMARK  status: ('A' for Active; 'I' for Inactive)
REMARK    1  A    between atoms: S_13  and  C_9 
REMARK    2  A    between atoms: C_14  and  S_13 
REMARK    3  A    between atoms: C_16  and  C_14 
ROOT
ATOM      1  C   UNL d   1       1.225  -0.857   0.055  0.00  0.00     0.137 A 
ATOM      2  C   UNL d   1       0.845   0.472   0.068  0.00  0.00     0.104 A 
ATOM      3  N   UNL d   1       2.482  -1.325   0.045  0.00  0.00    -0.320 N 
ATOM      4  HN  UNL d   1       2.730  -2.315   0.039  1.00  0.00     0.169 HD
ATOM      5  N   UNL d   1       0.096  -1.622   0.038  0.00  0.00    -0.340 N 
ATOM      6  N   UNL d   1       1.800   1.438   0.091  0.00  0.00    -0.294 N 
ATOM      7  HN  UNL d   1       1.563   2.430   0.122  1.00  0.00     0.187 HD
ATOM      8  C   UNL d   1      -0.580   0.512   0.043  0.00  0.00     0.022 A 
ATOM      9  C   UNL d   1       3.376  -0.315   0.043  0.00  0.00     0.161 A 
ATOM     10  C   UNL d   1      -1.022  -0.818   0.028  0.00  0.00     0.046 A 
ATOM     11  N   UNL d   1       3.077   1.012   0.072  0.00  0.00    -0.279 N 
ATOM     12  HN  UNL d   1       3.833   1.696   0.079  1.00  0.00     0.189 HD
ATOM     13  C   UNL d   1      -1.549   1.538   0.026  0.00  0.00     0.016 A 
ATOM     14  C   UNL d   1      -2.377  -1.169   0.003  0.00  0.00     0.030 A 
ATOM     15  C   UNL d   1      -2.909   1.200   0.001  0.00  0.00     0.001 A 
ATOM     16  C   UNL d   1      -3.314  -0.133  -0.009  0.00  0.00     0.002 A 
ATOM     17  H   UNL d   1       0.097  -2.630   0.023  0.00  0.00     0.167 HD
ENDROOT
BRANCH   9  18
ATOM     18  S   UNL d   1       5.068  -0.830  -0.142  0.00  0.00    -0.088 SA
BRANCH  18  19
ATOM     19  C   UNL d   1       5.941   0.454   0.807  0.00  0.00     0.121 C 
BRANCH  19  20
ATOM     20  C   UNL d   1       7.421   0.129   0.865  0.00  0.00    -0.048 A 
ATOM     21  C   UNL d   1       8.283   0.546  -0.165  0.00  0.00     0.011 A 
ATOM     22  C   UNL d   1       9.632   0.183  -0.154  0.00  0.00     0.043 A 
ATOM     23  C   UNL d   1      10.124  -0.598   0.884  0.00  0.00     0.116 A 
ATOM     24  C   UNL d   1       9.293  -1.019   1.916  0.00  0.00     0.043 A 
ATOM     25  F   UNL d   1      11.414  -0.958   0.886  0.00  0.00    -0.206 F 
ATOM     26  C   UNL d   1       7.943  -0.658   1.907  0.00  0.00     0.011 A 
ENDBRANCH  19  20
ENDBRANCH  18  19
ENDBRANCH   9  18
TORSDOF 3
