REMARK  5 active torsions:
REMARK  status: ('A' for Active; 'I' for Inactive)
REMARK    1  A    between atoms: O_6  and  C_1 
REMARK    2  A    between atoms: C_3  and  C_9 
REMARK       I    between atoms: C_4  and  N_18 
REMARK       I    between atoms: N_13  and  C_4 
REMARK    3  A    between atoms: C_12  and  O_6 
REMARK    4  A    between atoms: C_22  and  N_13 
REMARK    5  A    between atoms: N_18  and  C_27 
ROOT
ATOM      1  N   UNL d   1       3.651   2.597  -0.306  0.00  0.00    -0.344 N 
ATOM      2  HN  UNL d   1       3.494   1.772  -0.884  1.00  0.00     0.167 HD
ATOM      3  C   UNL d   1       2.708   3.066   0.543  0.00  0.00     0.149 A 
ATOM      4  C   UNL d   1       5.077   4.463   0.363  0.00  0.00     0.051 A 
ATOM      5  C   UNL d   1       4.820   3.288  -0.344  0.00  0.00     0.119 A 
ATOM      6  C   UNL d   1       2.868   4.207   1.308  0.00  0.00     0.059 A 
ATOM      7  C   UNL d   1       4.069   4.906   1.218  0.00  0.00     0.035 A 
ENDROOT
BRANCH   4   8
ATOM      8  N   UNL d   1       6.292   5.159   0.135  0.00  0.00    -0.307 N 
ATOM      9  C   UNL d   1       6.599   6.420   0.623  0.00  0.00     0.325 C 
ATOM     10  N   UNL d   1       7.742   6.942   0.037  0.00  0.00    -0.309 N 
ATOM     11  O   UNL d   1       5.908   7.022   1.435  0.00  0.00    -0.247 OA
ATOM     12  H   UNL d   1       8.255   6.348  -0.596  0.00  0.00     0.170 HD
ATOM     13  H   UNL d   1       6.937   4.741  -0.517  0.00  0.00     0.170 HD
BRANCH  10  14
ATOM     14  C   UNL d   1       8.204   8.276   0.157  0.00  0.00     0.037 A 
ATOM     15  C   UNL d   1       7.595   9.235   0.975  0.00  0.00     0.045 A 
ATOM     16  C   UNL d   1       8.024  10.572   0.991  0.00  0.00     0.050 A 
ATOM     17  C   UNL d   1       9.107  10.941   0.186  0.00  0.00     0.016 A 
ATOM     18  C   UNL d   1       9.747   9.990  -0.609  0.00  0.00     0.003 A 
ATOM     19  C   UNL d   1       9.298   8.665  -0.622  0.00  0.00     0.029 A 
BRANCH  16  20
ATOM     20  C   UNL d   1       7.309  11.595   1.839  0.00  0.00     0.417 C 
ATOM     21  F   UNL d   1       6.294  11.083   2.590  0.00  0.00    -0.166 F 
ATOM     22  F   UNL d   1       8.142  12.218   2.718  0.00  0.00    -0.166 F 
ATOM     23  F   UNL d   1       6.750  12.586   1.089  0.00  0.00    -0.166 F 
ENDBRANCH  16  20
ENDBRANCH  10  14
ENDBRANCH   4   8
BRANCH   3  24
ATOM     24  O   UNL d   1       1.440   2.513   0.557  0.00  0.00    -0.276 OA
BRANCH  24  25
ATOM     25  C   UNL d   1       1.337   1.142   0.410  0.00  0.00     0.163 A 
ATOM     26  C   UNL d   1       0.179   0.661  -0.209  0.00  0.00     0.042 A 
ATOM     27  C   UNL d   1       0.065  -0.733  -0.229  0.00  0.00     0.049 A 
ATOM     28  C   UNL d   1      -0.841   1.467  -0.775  0.00  0.00     0.020 A 
ATOM     29  C   UNL d   1      -1.067  -1.298  -0.802  0.00  0.00     0.054 A 
ATOM     30  N   UNL d   1       0.997  -1.538   0.296  0.00  0.00    -0.351 N 
ATOM     31  C   UNL d   1      -2.076  -0.505  -1.348  0.00  0.00     0.036 A 
ATOM     32  C   UNL d   1      -1.968   0.880  -1.342  0.00  0.00     0.025 A 
ATOM     33 CL   UNL d   1      -3.472  -1.248  -2.027  0.00  0.00    -0.084 Cl
ATOM     34  C   UNL d   1       2.053  -0.952   0.880  0.00  0.00     0.182 A 
ATOM     35  HN  UNL d   1       0.909  -2.554   0.253  1.00  0.00     0.166 HD
ATOM     36  N   UNL d   1       2.262   0.359   0.998  0.00  0.00    -0.332 N 
ATOM     37  HN  UNL d   1       3.064   0.742   1.498  1.00  0.00     0.168 HD
ENDBRANCH  24  25
ENDBRANCH   3  24
TORSDOF 5
