REMARK  4 active torsions:
REMARK  status: ('A' for Active; 'I' for Inactive)
REMARK    1  A    between atoms: C_16  and  C_8 
REMARK    2  A    between atoms: C_20  and  C_14 
REMARK    3  A    between atoms: C_17  and  O_18 
REMARK    4  A    between atoms: O_18  and  C_20 
ROOT
ATOM      1  O   UNL d   1      -1.026  -3.105   1.041  0.00  0.00    -0.348 OA
ENDROOT
BRANCH   1   2
ATOM      2  C   UNL d   1      -1.522  -3.934   2.010  0.00  0.00     0.071 A 
ATOM      3  C   UNL d   1      -2.691  -3.718   2.731  0.00  0.00     0.075 A 
ATOM      4  C   UNL d   1      -3.093  -4.656   3.685  0.00  0.00     0.092 A 
ATOM      5  O   UNL d   1      -4.292  -4.349   4.361  0.00  0.00    -0.275 OA
ATOM      6  C   UNL d   1      -2.371  -5.820   3.958  0.00  0.00     0.004 A 
ATOM      7  C   UNL d   1      -4.798  -5.191   5.330  0.00  0.00     0.288 A 
ATOM      8  O   UNL d   1      -5.842  -4.955   5.929  0.00  0.00    -0.260 OA
ATOM      9  C   UNL d   1      -4.020  -6.402   5.624  0.00  0.00     0.090 A 
ATOM     10  C   UNL d   1      -2.878  -6.728   4.998  0.00  0.00    -0.043 A 
ATOM     11  C   UNL d   1      -2.169  -7.990   5.393  0.00  0.00     0.049 C 
ATOM     12  C   UNL d   1      -1.208  -6.032   3.208  0.00  0.00     0.017 A 
ATOM     13  C   UNL d   1      -0.794  -5.102   2.240  0.00  0.00     0.038 A 
ENDBRANCH   1   2
BRANCH   1  14
ATOM     14  C   UNL d   1      -1.419  -1.733   1.141  0.00  0.00     0.210 C 
BRANCH  14  15
ATOM     15  C   UNL d   1      -0.809  -0.937  -0.009  0.00  0.00     0.182 C 
ATOM     16  O   UNL d   1      -1.178   0.439   0.148  0.00  0.00    -0.272 OA
ATOM     17  N   UNL d   1      -1.711   0.920  -1.065  0.00  0.00    -0.270 N 
ATOM     18  C   UNL d   1      -1.788  -0.071  -1.893  0.00  0.00     0.045 C 
ATOM     19  HN  UNL d   1      -1.988   1.883  -1.257  1.00  0.00     0.194 HD
ATOM     20  C   UNL d   1      -1.325  -1.379  -1.361  0.00  0.00     0.096 C 
BRANCH  18  21
ATOM     21  C   UNL d   1      -2.313   0.066  -3.273  0.00  0.00    -0.012 A 
ATOM     22  C   UNL d   1      -2.754   1.321  -3.711  0.00  0.00     0.013 A 
ATOM     23  C   UNL d   1      -3.238   1.482  -5.011  0.00  0.00     0.001 A 
ATOM     24  C   UNL d   1      -3.285   0.391  -5.877  0.00  0.00     0.000 A 
ATOM     25  C   UNL d   1      -2.854  -0.862  -5.444  0.00  0.00     0.001 A 
ATOM     26  C   UNL d   1      -2.371  -1.028  -4.144  0.00  0.00     0.013 A 
ENDBRANCH  18  21
ENDBRANCH  14  15
ENDBRANCH   1  14
TORSDOF 4
