REMARK  3 active torsions:
REMARK  status: ('A' for Active; 'I' for Inactive)
REMARK    1  A    between atoms: C_4  and  N_1 
REMARK    2  A    between atoms: N_8  and  C_5 
REMARK    3  A    between atoms: C_11  and  C_6 
ROOT
ATOM      1  N   UNL d   1       2.630   0.696   1.094  0.00  0.00    -0.365 N 
ATOM      2  HN  UNL d   1       3.577   0.601   1.461  1.00  0.00     0.165 HD
ATOM      3  C   UNL d   1       2.195  -0.114   0.182  0.00  0.00     0.099 C 
ENDROOT
BRANCH   1   4
ATOM      4  C   UNL d   1       1.775   1.710   1.574  0.00  0.00     0.039 A 
ATOM      5  C   UNL d   1       1.718   1.986   2.958  0.00  0.00    -0.014 A 
ATOM      6  C   UNL d   1       0.888   3.037   3.404  0.00  0.00     0.042 A 
ATOM      7  C   UNL d   1       2.529   1.190   3.944  0.00  0.00     0.052 C 
ATOM      8 CL   UNL d   1       0.766   3.446   5.082  0.00  0.00    -0.084 Cl
ATOM      9  C   UNL d   1       0.138   3.797   2.506  0.00  0.00     0.024 A 
ATOM     10  C   UNL d   1       0.211   3.535   1.144  0.00  0.00     0.004 A 
ATOM     11  C   UNL d   1       1.034   2.508   0.686  0.00  0.00     0.030 A 
ENDBRANCH   1   4
BRANCH   3  12
ATOM     12  C   UNL d   1       3.034  -1.198  -0.369  0.00  0.00    -0.021 A 
ATOM     13  C   UNL d   1       4.252  -1.539   0.213  0.00  0.00     0.015 A 
ATOM     14  C   UNL d   1       5.001  -2.609  -0.303  0.00  0.00     0.030 A 
ATOM     15  C   UNL d   1       4.567  -3.361  -1.409  0.00  0.00     0.029 A 
ATOM     16  C   UNL d   1       3.340  -2.974  -1.979  0.00  0.00     0.030 A 
ATOM     17  C   UNL d   1       2.579  -1.910  -1.474  0.00  0.00     0.015 A 
BRANCH  15  18
ATOM     18  N   UNL d   1       5.248  -4.483  -1.878  0.00  0.00    -0.390 N 
ATOM     19  C   UNL d   1       5.359  -4.701  -3.321  0.00  0.00     0.149 C 
ATOM     20  C   UNL d   1       6.348  -5.052  -1.101  0.00  0.00     0.149 C 
ENDBRANCH  15  18
ENDBRANCH   3  12
TORSDOF 3
