REMARK  5 active torsions:
REMARK  status: ('A' for Active; 'I' for Inactive)
REMARK    1  A    between atoms: C_10  and  N_1 
REMARK    2  A    between atoms: O_16  and  C_6 
REMARK    3  A    between atoms: N_7  and  C_9 
REMARK    4  A    between atoms: C_17  and  C_10 
REMARK    5  A    between atoms: C_18  and  C_17 
ROOT
ATOM      1  N   UNL d   1       1.308   1.278  -0.047  0.00  0.00    -0.313 N 
ATOM      2  C   UNL d   1       2.495   0.558   0.089  0.00  0.00     0.250 A 
ATOM      3  C   UNL d   1       2.420  -0.911   0.066  0.00  0.00     0.112 A 
ATOM      4  C   UNL d   1      -0.005  -0.826   0.012  0.00  0.00     0.026 A 
ATOM      5  C   UNL d   1       0.032   0.593  -0.028  0.00  0.00     0.050 A 
ATOM      6  C   UNL d   1       1.263  -1.566   0.034  0.00  0.00     0.083 A 
ATOM      7  C   UNL d   1      -1.244  -1.495   0.057  0.00  0.00     0.052 A 
ATOM      8  C   UNL d   1      -2.443  -0.775   0.024  0.00  0.00     0.103 A 
ATOM      9  C   UNL d   1      -1.194   1.289  -0.032  0.00  0.00     0.033 A 
ATOM     10  O   UNL d   1       3.614   1.048   0.224  0.00  0.00    -0.268 OA
ATOM     11  C   UNL d   1      -2.422   0.617  -0.020  0.00  0.00     0.038 A 
ENDROOT
BRANCH   1  12
ATOM     12  C   UNL d   1       1.363   2.757   0.050  0.00  0.00     0.137 C 
BRANCH  12  13
ATOM     13  C   UNL d   1       2.546   3.468  -0.638  0.00  0.00     0.059 C 
BRANCH  13  14
ATOM     14  C   UNL d   1       2.423   4.976  -0.596  0.00  0.00    -0.057 A 
ATOM     15  C   UNL d   1       2.949   5.695   0.488  0.00  0.00     0.007 A 
ATOM     16  C   UNL d   1       2.884   7.089   0.514  0.00  0.00     0.001 A 
ATOM     17  C   UNL d   1       2.283   7.777  -0.538  0.00  0.00     0.000 A 
ATOM     18  C   UNL d   1       1.741   7.072  -1.611  0.00  0.00     0.001 A 
ATOM     19  C   UNL d   1       1.808   5.677  -1.640  0.00  0.00     0.007 A 
ENDBRANCH  13  14
ENDBRANCH  12  13
ENDBRANCH   1  12
BRANCH   6  20
ATOM     20  O   UNL d   1       1.280  -2.947   0.035  0.00  0.00    -0.360 OA
ATOM     21  H   UNL d   1       0.472  -3.300  -0.366  0.00  0.00     0.217 HD
ENDBRANCH   6  20
BRANCH   8  22
ATOM     22  N   UNL d   1      -3.726  -1.491   0.029  0.00  0.00    -0.116 N 
ATOM     23  O   UNL d   1      -3.692  -2.727   0.068  0.00  0.00    -0.532 OA
ATOM     24  O   UNL d   1      -4.763  -0.814  -0.020  0.00  0.00    -0.532 OA
ENDBRANCH   8  22
TORSDOF 5
