REMARK  5 active torsions:
REMARK  status: ('A' for Active; 'I' for Inactive)
REMARK    1  A    between atoms: C_10  and  C_3 
REMARK    2  A    between atoms: C_7  and  C_4 
REMARK    3  A    between atoms: C_11  and  C_6 
REMARK    4  A    between atoms: O_15  and  C_9 
REMARK    5  A    between atoms: O_16  and  C_12 
ROOT
ATOM      1  N   UNL d   1      -1.153  -0.003   0.086  0.00  0.00    -0.339 N 
ATOM      2  HN  UNL d   1      -2.170   0.037   0.151  1.00  0.00     0.167 HD
ATOM      3  C   UNL d   1      -0.373  -1.138   0.070  0.00  0.00     0.072 A 
ATOM      4  C   UNL d   1      -0.329   1.023  -0.000  0.00  0.00     0.116 A 
ATOM      5  N   UNL d   1       0.966   0.569  -0.056  0.00  0.00    -0.339 N 
ATOM      6  C   UNL d   1       0.975  -0.808  -0.031  0.00  0.00     0.072 A 
ATOM      7  H   UNL d   1       1.785   1.156  -0.112  0.00  0.00     0.167 HD
ENDROOT
BRANCH   4   8
ATOM      8  C   UNL d   1      -0.703   2.438   0.006  0.00  0.00     0.011 A 
ATOM      9  C   UNL d   1      -1.880   2.828   0.668  0.00  0.00     0.054 A 
ATOM     10  C   UNL d   1      -2.276   4.168   0.721  0.00  0.00     0.102 A 
ATOM     11  C   UNL d   1      -1.480   5.126   0.078  0.00  0.00     0.099 A 
ATOM     12  C   UNL d   1      -0.317   4.758  -0.601  0.00  0.00     0.040 A 
ATOM     13  C   UNL d   1       0.070   3.417  -0.634  0.00  0.00     0.018 A 
BRANCH  10  14
ATOM     14  O   UNL d   1      -3.395   4.633   1.357  0.00  0.00    -0.353 OA
ATOM     15  C   UNL d   1      -4.198   3.679   2.038  0.00  0.00     0.210 C 
ENDBRANCH  10  14
BRANCH  11  16
ATOM     16  O   UNL d   1      -1.857   6.442   0.118  0.00  0.00    -0.358 OA
ATOM     17  H   UNL d   1      -1.238   6.969  -0.410  0.00  0.00     0.217 HD
ENDBRANCH  11  16
ENDBRANCH   4   8
BRANCH   3  18
ATOM     18  C   UNL d   1      -0.952  -2.477   0.086  0.00  0.00    -0.007 A 
ATOM     19  C   UNL d   1      -2.132  -2.723  -0.625  0.00  0.00     0.014 A 
ATOM     20  C   UNL d   1      -2.623  -4.027  -0.757  0.00  0.00     0.001 A 
ATOM     21  C   UNL d   1      -1.940  -5.093  -0.178  0.00  0.00     0.000 A 
ATOM     22  C   UNL d   1      -0.798  -4.855   0.583  0.00  0.00     0.001 A 
ATOM     23  C   UNL d   1      -0.326  -3.549   0.740  0.00  0.00     0.014 A 
ENDBRANCH   3  18
BRANCH   6  24
ATOM     24  C   UNL d   1       2.209  -1.592  -0.120  0.00  0.00    -0.007 A 
ATOM     25  C   UNL d   1       2.258  -2.768  -0.882  0.00  0.00     0.014 A 
ATOM     26  C   UNL d   1       3.384  -3.592  -0.856  0.00  0.00     0.001 A 
ATOM     27  C   UNL d   1       4.499  -3.221  -0.111  0.00  0.00     0.000 A 
ATOM     28  C   UNL d   1       4.492  -2.023   0.600  0.00  0.00     0.001 A 
ATOM     29  C   UNL d   1       3.350  -1.215   0.601  0.00  0.00     0.014 A 
ENDBRANCH   6  24
TORSDOF 5
