REMARK  5 active torsions:
REMARK  status: ('A' for Active; 'I' for Inactive)
REMARK    1  A    between atoms: N_2  and  C_1 
REMARK    2  A    between atoms: N_6  and  C_1 
REMARK    3  A    between atoms: C_4  and  N_2 
REMARK    4  A    between atoms: N_8  and  N_6 
REMARK    5  A    between atoms: S_9  and  C_7 
ROOT
ATOM      1  N   UNL d   1       0.542   1.033  -0.328  0.00  0.00    -0.332 N 
ATOM      2  H   UNL d   1      -0.389   1.065   0.074  0.00  0.00     0.168 HD
ENDROOT
BRANCH   1   3
ATOM      3  C   UNL d   1       1.180  -0.158  -0.044  0.00  0.00     0.186 C 
ATOM      4  S   UNL d   1       2.808  -0.439   0.206  0.00  0.00    -0.040 SA
BRANCH   3   5
ATOM      5  N   UNL d   1       0.314  -1.230   0.079  0.00  0.00    -0.298 N 
ATOM      6  H   UNL d   1       0.745  -2.130   0.291  0.00  0.00     0.183 HD
BRANCH   5   7
ATOM      7  N   UNL d   1      -1.008  -1.172  -0.418  0.00  0.00    -0.242 NA
ATOM      8  C   UNL d   1      -1.546  -2.520  -0.598  0.00  0.00     0.133 C 
ATOM      9  H   UNL d   1      -0.969  -0.723  -1.341  0.00  0.00     0.146 HD
ENDBRANCH   5   7
ENDBRANCH   3   5
ENDBRANCH   1   3
BRANCH   1  10
ATOM     10  C   UNL d   1       1.093   2.237  -0.807  0.00  0.00     0.035 A 
ATOM     11  C   UNL d   1       2.153   2.252  -1.721  0.00  0.00     0.048 A 
ATOM     12  C   UNL d   1       2.678   3.455  -2.201  0.00  0.00     0.002 A 
ATOM     13  C   UNL d   1       2.106   4.657  -1.769  0.00  0.00     0.018 A 
ATOM     14  C   UNL d   1       1.026   4.652  -0.884  0.00  0.00     0.004 A 
ATOM     15  C   UNL d   1       0.507   3.443  -0.418  0.00  0.00     0.029 A 
BRANCH  12  16
ATOM     16  S   UNL d   1       4.013   3.548  -3.390  0.00  0.00    -0.134 SA
ATOM     17  C   UNL d   1       4.855   1.956  -3.160  0.00  0.00     0.095 C 
ENDBRANCH  12  16
ENDBRANCH   1  10
TORSDOF 5
