REMARK  9 active torsions:
REMARK  status: ('A' for Active; 'I' for Inactive)
REMARK    1  A    between atoms: N_9  and  C_1 
REMARK    2  A    between atoms: C_16  and  N_2 
REMARK    3  A    between atoms: C_13  and  C_5 
REMARK    4  A    between atoms: S_21  and  C_6 
REMARK    5  A    between atoms: N_8  and  C_7 
REMARK       I    between atoms: C_12  and  N_9 
REMARK    6  A    between atoms: C_11  and  C_12 
REMARK    7  A    between atoms: O_27  and  C_13 
REMARK    8  A    between atoms: C_17  and  C_16 
REMARK    9  A    between atoms: C_29  and  O_27 
ROOT
ATOM      1  C   UNL d   1      -0.194  -1.147  -0.046  0.00  0.00     0.143 A 
ATOM      2  N   UNL d   1      -0.316   1.036   0.125  0.00  0.00    -0.315 N 
ATOM      3  N   UNL d   1       1.071  -0.679   0.106  0.00  0.00    -0.321 N 
ATOM      4  HN  UNL d   1       1.927  -1.234   0.121  1.00  0.00     0.169 HD
ATOM      5  C   UNL d   1      -1.113  -0.108   0.028  0.00  0.00     0.157 A 
ATOM      6  C   UNL d   1       0.983   0.613   0.231  0.00  0.00     0.148 A 
ENDROOT
BRANCH   1   7
ATOM      7  N   UNL d   1      -0.426  -2.500  -0.202  0.00  0.00    -0.305 N 
ATOM      8  C   UNL d   1       0.612  -3.424  -0.247  0.00  0.00     0.281 C 
ATOM      9  O   UNL d   1       1.810  -3.158  -0.190  0.00  0.00    -0.265 OA
ATOM     10  H   UNL d   1      -1.385  -2.816  -0.292  0.00  0.00     0.170 HD
BRANCH   8  11
ATOM     11  C   UNL d   1       0.209  -4.814  -0.364  0.00  0.00     0.146 A 
ATOM     12  O   UNL d   1      -1.110  -5.185  -0.436  0.00  0.00    -0.283 OA
ATOM     13  C   UNL d   1      -1.105  -6.550  -0.528  0.00  0.00     0.215 A 
ATOM     14  C   UNL d   1       0.166  -7.064  -0.514  0.00  0.00     0.066 A 
ATOM     15  C   UNL d   1       1.017  -5.943  -0.410  0.00  0.00     0.047 A 
BRANCH  13  16
ATOM     16  N   UNL d   1      -2.378  -7.193  -0.616  0.00  0.00    -0.090 N 
ATOM     17  O   UNL d   1      -2.360  -8.429  -0.732  0.00  0.00    -0.530 OA
ATOM     18  O   UNL d   1      -3.390  -6.484  -0.568  0.00  0.00    -0.530 OA
ENDBRANCH  13  16
ENDBRANCH   8  11
ENDBRANCH   1   7
BRANCH   5  19
ATOM     19  C   UNL d   1      -2.550  -0.198   0.014  0.00  0.00     0.314 C 
ATOM     20  O   UNL d   1      -3.184  -1.181  -0.344  0.00  0.00    -0.257 OA
BRANCH  19  21
ATOM     21  O   UNL d   1      -3.094   0.943   0.510  0.00  0.00    -0.317 OA
BRANCH  21  22
ATOM     22  C   UNL d   1      -4.523   1.010   0.622  0.00  0.00     0.175 C 
ATOM     23  C   UNL d   1      -5.101   1.635  -0.633  0.00  0.00     0.034 C 
ENDBRANCH  21  22
ENDBRANCH  19  21
ENDBRANCH   5  19
BRANCH   6  24
ATOM     24  S   UNL d   1       2.351   1.641   0.490  0.00  0.00    -0.098 SA
ATOM     25  C   UNL d   1       3.594   0.396   0.946  0.00  0.00     0.099 C 
ENDBRANCH   6  24
BRANCH   2  26
ATOM     26  C   UNL d   1      -0.743   2.429   0.030  0.00  0.00     0.177 C 
BRANCH  26  27
ATOM     27  C   UNL d   1      -0.952   3.076   1.369  0.00  0.00     0.001 A 
ATOM     28  S   UNL d   1      -1.403   4.734   1.410  0.00  0.00    -0.105 SA
ATOM     29  C   UNL d   1      -1.376   4.771   3.117  0.00  0.00     0.050 A 
ATOM     30  C   UNL d   1      -1.062   3.545   3.655  0.00  0.00     0.008 A 
ATOM     31  C   UNL d   1      -0.831   2.563   2.648  0.00  0.00     0.017 A 
ENDBRANCH  26  27
ENDBRANCH   2  26
TORSDOF 9
