REMARK  0 active torsions:
REMARK  status: ('A' for Active; 'I' for Inactive)
REMARK       I    between atoms: C_9  and  N_1 
ROOT
ATOM      1  N   UNL d   1       2.520   0.062  -0.004  0.00  0.00    -0.214 N 
ATOM      2  C   UNL d   1       1.613   1.137  -0.006  0.00  0.00     0.274 A 
ATOM      3  C   UNL d   1       0.209   0.675  -0.002  0.00  0.00     0.074 A 
ATOM      4  S   UNL d   1       1.720  -1.481  -0.004  0.00  0.00     0.018 SA
ATOM      5  C   UNL d   1       0.132  -0.706  -0.002  0.00  0.00     0.108 A 
ATOM      6  N   UNL d   1      -1.009  -1.421   0.001  0.00  0.00    -0.352 N 
ATOM      7  HN  UNL d   1      -1.006  -2.441   0.001  1.00  0.00     0.166 HD
ATOM      8  C   UNL d   1      -0.972   1.417   0.003  0.00  0.00    -0.042 A 
ATOM      9  C   UNL d   1       3.920   0.067  -0.000  0.00  0.00     0.233 C 
ATOM     10  O   UNL d   1       1.879   2.329  -0.013  0.00  0.00    -0.266 OA
ATOM     11  C   UNL d   1      -2.176   0.690   0.005  0.00  0.00     0.032 A 
ATOM     12  C   UNL d   1      -2.157  -0.708   0.004  0.00  0.00     0.006 A 
ATOM     13  O   UNL d   1       4.600  -0.966   0.000  0.00  0.00    -0.273 OA
ATOM     14  C   UNL d   1      -1.055   2.914   0.007  0.00  0.00     0.049 C 
ATOM     15  C   UNL d   1       4.654   1.386   0.005  0.00  0.00     0.119 C 
ATOM     16  C   UNL d   1      -3.444  -1.478   0.009  0.00  0.00     0.068 C 
ENDROOT
TORSDOF 0
