REMARK  3 active torsions:
REMARK  status: ('A' for Active; 'I' for Inactive)
REMARK    1  A    between atoms: C_2  and  N_1 
REMARK    2  A    between atoms: C_5  and  C_3 
REMARK    3  A    between atoms: C_10  and  C_5 
ROOT
ATOM      1  N   UNL d   1       0.550   2.734   4.358  0.00  0.00    -0.197 NA
ATOM      2  C   UNL d   1       1.324   1.890   4.161  0.00  0.00     0.067 C 
ATOM      3  C   UNL d   1       2.270   0.799   3.945  0.00  0.00     0.207 C 
ENDROOT
BRANCH   3   4
ATOM      4  C   UNL d   1       2.025   0.100   2.628  0.00  0.00     0.174 C 
ATOM      5  O   UNL d   1       2.929  -0.063   1.813  0.00  0.00    -0.291 OA
BRANCH   4   6
ATOM      6  C   UNL d   1       0.696  -0.511   2.341  0.00  0.00     0.044 A 
ATOM      7  C   UNL d   1       0.205  -0.638   1.035  0.00  0.00     0.116 A 
ATOM      8  C   UNL d   1      -1.008  -1.290   0.764  0.00  0.00     0.037 A 
ATOM      9  C   UNL d   1      -1.746  -1.824   1.818  0.00  0.00     0.002 A 
ATOM     10  C   UNL d   1      -1.274  -1.708   3.125  0.00  0.00     0.001 A 
ATOM     11  C   UNL d   1      -0.060  -1.063   3.388  0.00  0.00     0.018 A 
BRANCH   7  12
ATOM     12  N   UNL d   1       0.891  -0.030  -0.089  0.00  0.00    -0.115 N 
ATOM     13  O   UNL d   1       1.015   1.202  -0.064  0.00  0.00    -0.532 OA
ATOM     14  O   UNL d   1       1.210  -0.778  -1.025  0.00  0.00    -0.532 OA
ENDBRANCH   7  12
ENDBRANCH   4   6
ENDBRANCH   3   4
TORSDOF 3
