REMARK  4 active torsions:
REMARK  status: ('A' for Active; 'I' for Inactive)
REMARK    1  A    between atoms: C_4  and  C_1 
REMARK    2  A    between atoms: C_12  and  C_2 
REMARK    3  A    between atoms: C_14  and  N_3 
REMARK    4  A    between atoms: C_15  and  N_5 
ROOT
ATOM      1  C   UNL d   1      -0.224   1.271  -0.026  0.00  0.00     0.061 A 
ATOM      2  C   UNL d   1       1.095   0.854  -0.117  0.00  0.00     0.155 A 
ATOM      3  N   UNL d   1       1.059  -0.539  -0.099  0.00  0.00    -0.249 N 
ATOM      4  N   UNL d   1      -0.226  -0.979  -0.099  0.00  0.00    -0.303 N 
ATOM      5  HN  UNL d   1      -0.541  -1.948  -0.140  1.00  0.00     0.186 HD
ATOM      6  C   UNL d   1      -0.986   0.102  -0.035  0.00  0.00     0.125 A 
ENDROOT
BRANCH   1   7
ATOM      7  C   UNL d   1      -0.742   2.659   0.063  0.00  0.00     0.152 C 
ATOM      8  N   UNL d   1      -1.893   3.091   0.706  0.00  0.00    -0.224 N 
ATOM      9  N   UNL d   1      -2.203   4.316   0.223  0.00  0.00     0.001 NA
ATOM     10  N   UNL d   1      -1.155   4.692  -0.498  0.00  0.00    -0.007 NA
ATOM     11  N   UNL d   1      -0.229   3.683  -0.589  0.00  0.00    -0.269 N 
ATOM     12  HN  UNL d   1       0.673   3.719  -1.065  1.00  0.00     0.185 HD
BRANCH   8  13
ATOM     13  C   UNL d   1      -2.617   2.507   1.776  0.00  0.00     0.056 A 
ATOM     14  C   UNL d   1      -1.992   1.607   2.657  0.00  0.00     0.034 A 
ATOM     15  C   UNL d   1      -2.713   1.039   3.708  0.00  0.00     0.044 A 
ATOM     16  C   UNL d   1      -4.049   1.375   3.883  0.00  0.00     0.116 A 
ATOM     17  C   UNL d   1      -4.674   2.284   3.035  0.00  0.00     0.044 A 
ATOM     18  F   UNL d   1      -4.740   0.825   4.889  0.00  0.00    -0.206 F 
ATOM     19  C   UNL d   1      -3.956   2.867   1.987  0.00  0.00     0.034 A 
ENDBRANCH   8  13
ENDBRANCH   1   7
BRANCH   2  20
ATOM     20  C   UNL d   1       2.332   1.647  -0.049  0.00  0.00     0.435 C 
ATOM     21  F   UNL d   1       2.133   2.889   0.457  0.00  0.00    -0.165 F 
ATOM     22  F   UNL d   1       3.263   1.079   0.758  0.00  0.00    -0.165 F 
ATOM     23  F   UNL d   1       2.898   1.806  -1.269  0.00  0.00    -0.165 F 
ENDBRANCH   2  20
BRANCH   3  24
ATOM     24  C   UNL d   1       2.104  -1.517  -0.118  0.00  0.00     0.078 A 
ATOM     25  C   UNL d   1       1.947  -2.783   0.491  0.00  0.00     0.062 A 
ATOM     26 CL   UNL d   1       0.597  -3.264   1.471  0.00  0.00    -0.082 Cl
ATOM     27  C   UNL d   1       2.981  -3.730   0.427  0.00  0.00     0.026 A 
ATOM     28  C   UNL d   1       4.177  -3.435  -0.219  0.00  0.00     0.002 A 
ATOM     29  C   UNL d   1       4.343  -2.193  -0.820  0.00  0.00     0.002 A 
ATOM     30  C   UNL d   1       3.312  -1.248  -0.785  0.00  0.00     0.033 A 
ENDBRANCH   3  24
TORSDOF 4
