REMARK  0 active torsions:
REMARK  status: ('A' for Active; 'I' for Inactive)
ROOT
ATOM      1  N   UNL d   1      -0.556   1.646  -0.390  0.00  0.00    -0.358 N 
ATOM      2  C   UNL d   1       0.597   0.904  -0.481  0.00  0.00     0.017 A 
ATOM      3  C   UNL d   1       0.241  -0.438  -0.435  0.00  0.00    -0.023 A 
ATOM      4  C   UNL d   1      -1.177  -0.476  -0.205  0.00  0.00    -0.001 A 
ATOM      5  C   UNL d   1      -1.642   0.836  -0.178  0.00  0.00     0.043 A 
ATOM      6  C   UNL d   1       1.107  -1.668  -0.513  0.00  0.00     0.041 C 
ATOM      7  C   UNL d   1       1.923   1.582  -0.560  0.00  0.00     0.057 C 
ATOM      8  C   UNL d   1      -2.106  -1.518   0.008  0.00  0.00     0.014 A 
ATOM      9  C   UNL d   1      -2.983   1.166   0.045  0.00  0.00     0.030 A 
ATOM     10  C   UNL d   1       2.603  -1.470  -0.747  0.00  0.00     0.005 C 
ATOM     11  C   UNL d   1       2.705   1.471   0.750  0.00  0.00     0.006 C 
ATOM     12  C   UNL d   1      -3.449  -1.207   0.253  0.00  0.00     0.001 A 
ATOM     13  C   UNL d   1      -3.879   0.117   0.269  0.00  0.00     0.002 A 
ATOM     14  C   UNL d   1       3.421  -1.011   0.468  0.00  0.00     0.000 C 
ATOM     15  C   UNL d   1       2.831   0.075   1.367  0.00  0.00     0.000 C 
ATOM     16  H   UNL d   1      -0.598   2.655  -0.411  0.00  0.00     0.166 HD
ENDROOT
TORSDOF 0
