REMARK  1 active torsions:
REMARK  status: ('A' for Active; 'I' for Inactive)
REMARK    1  A    between atoms: N_7  and  C_3 
REMARK       I    between atoms: C_13  and  N_7 
REMARK       I    between atoms: C_14  and  N_7 
ROOT
ATOM      1  N   UNL d   1       0.516   0.440  -0.066  0.00  0.00    -0.279 N 
ATOM      2  C   UNL d   1       0.927  -0.928  -0.028  0.00  0.00     0.136 A 
ATOM      3  C   UNL d   1       1.526   1.503   0.055  0.00  0.00     0.126 C 
ATOM      4  C   UNL d   1       2.304  -1.282   0.005  0.00  0.00     0.095 C 
ATOM      5  N   UNL d   1      -0.062  -1.780  -0.019  0.00  0.00    -0.339 N 
ATOM      6  HN  UNL d   1       0.001  -2.797   0.019  1.00  0.00     0.167 HD
ATOM      7  C   UNL d   1       2.792   1.060   0.285  0.00  0.00     0.058 C 
ATOM      8  C   UNL d   1       3.219  -0.314   0.161  0.00  0.00    -0.034 C 
ATOM      9  C   UNL d   1      -0.899   0.339  -0.179  0.00  0.00     0.069 A 
ATOM     10  C   UNL d   1      -1.181  -1.037  -0.071  0.00  0.00     0.061 A 
ATOM     11  C   UNL d   1       2.685  -2.656  -0.124  0.00  0.00     0.104 C 
ATOM     12  N   UNL d   1       3.064  -3.744  -0.237  0.00  0.00    -0.191 NA
ATOM     13  C   UNL d   1       4.705  -0.569   0.132  0.00  0.00     0.050 C 
ATOM     14  C   UNL d   1      -1.998   1.210  -0.324  0.00  0.00     0.032 A 
ATOM     15  C   UNL d   1      -2.491  -1.542  -0.042  0.00  0.00     0.032 A 
ATOM     16  C   UNL d   1      -3.311   0.693  -0.245  0.00  0.00     0.002 A 
ATOM     17  C   UNL d   1      -3.562  -0.665  -0.102  0.00  0.00     0.002 A 
ENDROOT
BRANCH   3  18
ATOM     18  N   UNL d   1       1.356   2.925  -0.024  0.00  0.00    -0.237 N 
ATOM     19  C   UNL d   1       2.439   3.809   0.005  0.00  0.00     0.228 C 
ATOM     20  O   UNL d   1       2.510   4.756   0.796  0.00  0.00    -0.273 OA
ATOM     21  C   UNL d   1       3.579   3.618  -0.977  0.00  0.00     0.118 C 
ATOM     22  C   UNL d   1       0.179   3.586   0.249  0.00  0.00     0.228 C 
ATOM     23  O   UNL d   1      -0.618   3.233   1.120  0.00  0.00    -0.273 OA
ATOM     24  C   UNL d   1      -0.052   4.887  -0.525  0.00  0.00     0.118 C 
ENDBRANCH   3  18
TORSDOF 1
