REMARK  4 active torsions:
REMARK  status: ('A' for Active; 'I' for Inactive)
REMARK    1  A    between atoms: C_7  and  C_1 
REMARK       I    between atoms: C_2  and  N_6 
REMARK    2  A    between atoms: O_5  and  C_2 
REMARK    3  A    between atoms: C_4  and  O_5 
REMARK    4  A    between atoms: N_6  and  C_20 
ROOT
ATOM      1  C   UNL d   1      -0.238  -4.005  -5.974  0.00  0.00     0.365 C 
ATOM      2  N   UNL d   1      -0.468  -3.839  -7.311  0.00  0.00    -0.303 N 
ATOM      3  O   UNL d   1       0.388  -4.985  -5.575  0.00  0.00    -0.238 OA
ATOM      4  H   UNL d   1      -0.168  -4.654  -7.829  0.00  0.00     0.171 HD
ENDROOT
BRANCH   2   5
ATOM      5  C   UNL d   1      -0.837  -2.718  -8.077  0.00  0.00     0.036 A 
ATOM      6  C   UNL d   1      -1.002  -1.428  -7.575  0.00  0.00     0.030 A 
ATOM      7  C   UNL d   1      -1.168  -0.343  -8.450  0.00  0.00     0.018 A 
ATOM      8  C   UNL d   1      -1.177  -0.530  -9.841  0.00  0.00     0.048 A 
ATOM      9  C   UNL d   1      -1.104  -1.835 -10.337  0.00  0.00     0.018 A 
ATOM     10  C   UNL d   1      -0.933  -2.915  -9.463  0.00  0.00     0.030 A 
BRANCH   8  11
ATOM     11  C   UNL d   1      -1.202   0.660 -10.770  0.00  0.00     0.417 C 
ATOM     12  F   UNL d   1      -1.100   0.325 -12.087  0.00  0.00    -0.166 F 
ATOM     13  F   UNL d   1      -0.171   1.520 -10.529  0.00  0.00    -0.166 F 
ATOM     14  F   UNL d   1      -2.339   1.399 -10.657  0.00  0.00    -0.166 F 
ENDBRANCH   8  11
ENDBRANCH   2   5
BRANCH   1  15
ATOM     15  O   UNL d   1      -0.777  -3.068  -5.155  0.00  0.00    -0.296 OA
BRANCH  15  16
ATOM     16  C   UNL d   1      -0.499  -3.222  -3.747  0.00  0.00     0.166 C 
ATOM     17  C   UNL d   1      -1.084  -4.523  -3.127  0.00  0.00     0.305 C 
ATOM     18  N   UNL d   1      -1.973  -4.256  -1.963  0.00  0.00     0.090 N 
ATOM     19  C   UNL d   1      -3.126  -3.458  -2.430  0.00  0.00     0.273 C 
ATOM     20  C   UNL d   1      -1.233  -3.467  -0.957  0.00  0.00     0.273 C 
ATOM     21  C   UNL d   1      -2.674  -2.163  -3.122  0.00  0.00     0.037 C 
ATOM     22  C   UNL d   1      -1.142  -2.026  -3.012  0.00  0.00     0.020 C 
ATOM     23  C   UNL d   1      -0.764  -2.119  -1.525  0.00  0.00     0.037 C 
ENDBRANCH  15  16
ENDBRANCH   1  15
TORSDOF 4
