REMARK  6 active torsions:
REMARK  status: ('A' for Active; 'I' for Inactive)
REMARK    1  A    between atoms: C_3  and  S_1 
REMARK    2  A    between atoms: N_11  and  S_1 
REMARK    3  A    between atoms: C_4  and  C_9 
REMARK    4  A    between atoms: C_5  and  C_10 
REMARK    5  A    between atoms: C_6  and  C_19 
REMARK    6  A    between atoms: C_26  and  N_11 
ROOT
ATOM      1  S   UNL d   1       1.090   0.064   0.083  0.00  0.00     0.263 S 
ATOM      2  O   UNL d   1       0.489  -0.349  -1.170  0.00  0.00    -0.200 OA
ATOM      3  O   UNL d   1       2.517   0.267   0.194  0.00  0.00    -0.200 OA
ENDROOT
BRANCH   1   4
ATOM      4  C   UNL d   1       0.589  -1.126   1.312  0.00  0.00     0.081 A 
ATOM      5  C   UNL d   1      -0.645  -1.775   1.177  0.00  0.00     0.041 A 
ATOM      6  C   UNL d   1      -1.011  -2.784   2.081  0.00  0.00     0.050 A 
ATOM      7  C   UNL d   1      -0.118  -3.127   3.113  0.00  0.00     0.032 A 
ATOM      8  C   UNL d   1       1.129  -2.487   3.246  0.00  0.00     0.050 A 
ATOM      9  C   UNL d   1       1.474  -1.476   2.337  0.00  0.00     0.041 A 
BRANCH   6  10
ATOM     10  C   UNL d   1      -2.324  -3.523   1.945  0.00  0.00     0.417 C 
ATOM     11  F   UNL d   1      -3.076  -3.105   0.891  0.00  0.00    -0.166 F 
ATOM     12  F   UNL d   1      -2.148  -4.862   1.776  0.00  0.00    -0.166 F 
ATOM     13  F   UNL d   1      -3.112  -3.383   3.046  0.00  0.00    -0.166 F 
ENDBRANCH   6  10
BRANCH   8  14
ATOM     14  C   UNL d   1       2.086  -2.923   4.334  0.00  0.00     0.417 C 
ATOM     15  F   UNL d   1       3.262  -2.240   4.331  0.00  0.00    -0.166 F 
ATOM     16  F   UNL d   1       1.560  -2.766   5.579  0.00  0.00    -0.166 F 
ATOM     17  F   UNL d   1       2.415  -4.239   4.229  0.00  0.00    -0.166 F 
ENDBRANCH   8  14
ENDBRANCH   1   4
BRANCH   1  18
ATOM     18  N   UNL d   1       0.273   1.444   0.558  0.00  0.00    -0.281 N 
ATOM     19  H   UNL d   1      -0.251   1.897  -0.189  0.00  0.00     0.179 HD
BRANCH  18  20
ATOM     20  C   UNL d   1       0.755   2.241   1.623  0.00  0.00     0.042 A 
ATOM     21  C   UNL d   1       1.865   3.069   1.465  0.00  0.00     0.031 A 
ATOM     22  C   UNL d   1       2.236   3.946   2.492  0.00  0.00     0.016 A 
ATOM     23  C   UNL d   1       1.490   4.011   3.678  0.00  0.00    -0.008 A 
ATOM     24  C   UNL d   1       0.385   3.159   3.825  0.00  0.00     0.016 A 
ATOM     25  C   UNL d   1       0.012   2.288   2.798  0.00  0.00     0.031 A 
BRANCH  23  26
ATOM     26  C   UNL d   1       1.814   4.945   4.749  0.00  0.00     0.063 A 
ATOM     27  N   UNL d   1       1.491   4.658   6.073  0.00  0.00    -0.292 N 
ATOM     28  N   UNL d   1       1.832   5.640   6.891  0.00  0.00    -0.061 NA
ATOM     29  HN  UNL d   1       1.045   3.793   6.376  1.00  0.00     0.183 HD
ATOM     30  S   UNL d   1       2.529   6.934   6.096  0.00  0.00    -0.010 SA
ATOM     31  C   UNL d   1       2.399   6.185   4.557  0.00  0.00     0.096 A 
ENDBRANCH  23  26
ENDBRANCH  18  20
ENDBRANCH   1  18
TORSDOF 6
