REMARK  3 active torsions:
REMARK  status: ('A' for Active; 'I' for Inactive)
REMARK    1  A    between atoms: C_5  and  C_2 
REMARK    2  A    between atoms: C_8  and  N_3 
REMARK    3  A    between atoms: C_6  and  C_5 
ROOT
ATOM      1  C   UNL d   1      -1.403  -0.030  -0.049  0.00  0.00     0.106 C 
ATOM      2  C   UNL d   1      -2.703  -0.013  -0.457  0.00  0.00     0.129 C 
ATOM      3  N   UNL d   1      -0.504  -1.091   0.234  0.00  0.00    -0.306 N 
ATOM      4  S   UNL d   1      -0.631   1.575   0.364  0.00  0.00    -0.080 SA
ATOM      5  C   UNL d   1       0.625  -0.622   0.948  0.00  0.00     0.021 C 
ATOM      6  C   UNL d   1      -3.438   1.208  -0.531  0.00  0.00     0.106 C 
ATOM      7  C   UNL d   1       0.691   0.714   1.086  0.00  0.00     0.077 C 
ATOM      8  N   UNL d   1      -4.080   2.177  -0.591  0.00  0.00    -0.191 NA
ATOM      9  C   UNL d   1       1.675  -1.506   1.550  0.00  0.00     0.069 C 
ENDROOT
BRANCH   2  10
ATOM     10  C   UNL d   1      -3.506  -1.265  -0.633  0.00  0.00     0.207 C 
ATOM     11  O   UNL d   1      -3.258  -2.278   0.022  0.00  0.00    -0.286 OA
BRANCH  10  12
ATOM     12  C   UNL d   1      -4.768  -1.289  -1.432  0.00  0.00     0.037 A 
ATOM     13  C   UNL d   1      -5.001  -0.635  -2.649  0.00  0.00     0.048 A 
ATOM     14 CL   UNL d   1      -3.774   0.176  -3.551  0.00  0.00    -0.083 Cl
ATOM     15  C   UNL d   1      -6.275  -0.687  -3.237  0.00  0.00     0.025 A 
ATOM     16  C   UNL d   1      -7.299  -1.440  -2.659  0.00  0.00     0.002 A 
ATOM     17  C   UNL d   1      -7.053  -2.159  -1.497  0.00  0.00     0.001 A 
ATOM     18  C   UNL d   1      -5.801  -2.078  -0.887  0.00  0.00     0.017 A 
ENDBRANCH  10  12
ENDBRANCH   2  10
BRANCH   3  19
ATOM     19  C   UNL d   1      -0.513  -2.380  -0.386  0.00  0.00     0.062 A 
ATOM     20  C   UNL d   1      -0.543  -2.577  -1.783  0.00  0.00     0.061 A 
ATOM     21 CL   UNL d   1      -0.469  -1.264  -2.907  0.00  0.00    -0.082 Cl
ATOM     22  C   UNL d   1      -0.575  -3.869  -2.328  0.00  0.00     0.026 A 
ATOM     23  C   UNL d   1      -0.550  -4.987  -1.497  0.00  0.00     0.002 A 
ATOM     24  C   UNL d   1      -0.497  -4.818  -0.118  0.00  0.00     0.002 A 
ATOM     25  C   UNL d   1      -0.487  -3.532   0.429  0.00  0.00     0.032 A 
ENDBRANCH   3  19
TORSDOF 3
