REMARK  7 active torsions:
REMARK  status: ('A' for Active; 'I' for Inactive)
REMARK    1  A    between atoms: C_12  and  C_2 
REMARK    2  A    between atoms: C_5  and  O_10 
REMARK    3  A    between atoms: C_13  and  C_5 
REMARK    4  A    between atoms: O_10  and  N_8 
REMARK    5  A    between atoms: C_11  and  C_17 
REMARK    6  A    between atoms: N_18  and  C_11 
REMARK    7  A    between atoms: C_17  and  C_19 
ROOT
ATOM      1  N   UNL d   1       4.711  -4.977  -2.142  0.00  0.00    -0.246 N 
ATOM      2  HN  UNL d   1       4.683  -5.460  -3.041  1.00  0.00     0.196 HD
ATOM      3  C   UNL d   1       5.626  -5.180  -1.244  0.00  0.00     0.100 C 
ENDROOT
BRANCH   3   4
ATOM      4  C   UNL d   1       6.740  -6.164  -1.612  0.00  0.00     0.116 C 
BRANCH   4   5
ATOM      5  C   UNL d   1       7.047  -7.250  -0.602  0.00  0.00    -0.051 A 
ATOM      6  C   UNL d   1       6.046  -7.906   0.123  0.00  0.00     0.008 A 
ATOM      7  C   UNL d   1       6.366  -8.935   1.024  0.00  0.00     0.014 A 
ATOM      8  C   UNL d   1       7.695  -9.343   1.207  0.00  0.00    -0.008 A 
ATOM      9  C   UNL d   1       8.690  -8.714   0.449  0.00  0.00     0.014 A 
ATOM     10  C   UNL d   1       8.370  -7.688  -0.448  0.00  0.00     0.008 A 
BRANCH   8  11
ATOM     11  C   UNL d   1       8.075 -10.372   2.173  0.00  0.00     0.063 A 
ATOM     12  N   UNL d   1       9.382 -10.451   2.654  0.00  0.00    -0.292 N 
ATOM     13  N   UNL d   1       9.534 -11.428   3.533  0.00  0.00    -0.061 NA
ATOM     14  HN  UNL d   1      10.135  -9.828   2.361  1.00  0.00     0.183 HD
ATOM     15  S   UNL d   1       8.124 -12.283   3.800  0.00  0.00    -0.010 SA
ATOM     16  C   UNL d   1       7.221 -11.330   2.693  0.00  0.00     0.096 A 
ENDBRANCH   8  11
ENDBRANCH   4   5
ENDBRANCH   3   4
BRANCH   3  17
ATOM     17  N   UNL d   1       5.700  -4.526  -0.038  0.00  0.00    -0.387 N 
ATOM     18  H   UNL d   1       5.172  -3.663   0.009  0.00  0.00     0.157 HD
ATOM     19  H   UNL d   1       6.605  -4.496   0.419  0.00  0.00     0.157 HD
ENDBRANCH   3  17
BRANCH   1  20
ATOM     20  O   UNL d   1       3.758  -4.015  -1.738  0.00  0.00    -0.197 OA
BRANCH  20  21
ATOM     21  C   UNL d   1       2.895  -3.758  -2.782  0.00  0.00     0.288 C 
ATOM     22  O   UNL d   1       2.962  -4.254  -3.903  0.00  0.00    -0.262 OA
BRANCH  21  23
ATOM     23  C   UNL d   1       1.791  -2.761  -2.397  0.00  0.00     0.039 C 
ATOM     24  C   UNL d   1       1.925  -2.203  -0.974  0.00  0.00     0.025 C 
ATOM     25  C   UNL d   1       1.835  -1.591  -3.393  0.00  0.00     0.025 C 
ATOM     26  C   UNL d   1       0.443  -3.488  -2.524  0.00  0.00     0.025 C 
ENDBRANCH  21  23
ENDBRANCH  20  21
ENDBRANCH   1  20
TORSDOF 7
