REMARK  7 active torsions:
REMARK  status: ('A' for Active; 'I' for Inactive)
REMARK       I    between atoms: N_2  and  C_1 
REMARK    1  A    between atoms: C_3  and  C_1 
REMARK    2  A    between atoms: C_7  and  N_2 
REMARK    3  A    between atoms: C_10  and  N_2 
REMARK    4  A    between atoms: C_6  and  C_4 
REMARK    5  A    between atoms: C_5  and  C_7 
REMARK    6  A    between atoms: O_19  and  C_6 
REMARK    7  A    between atoms: C_16  and  C_10 
ROOT
ATOM      1  C   UNL d   1       0.881   0.298   0.318  0.00  0.00     0.255 C 
ATOM      2  N   UNL d   1       0.173  -0.650   1.092  0.00  0.00    -0.339 N 
ATOM      3  O   UNL d   1       0.353   0.875  -0.630  0.00  0.00    -0.267 OA
ENDROOT
BRANCH   2   4
ATOM      4  C   UNL d   1      -1.214  -0.950   0.671  0.00  0.00     0.166 C 
BRANCH   4   5
ATOM      5  C   UNL d   1      -2.305   0.010   1.123  0.00  0.00    -0.018 A 
ATOM      6  C   UNL d   1      -3.666  -0.320   0.952  0.00  0.00     0.043 A 
ATOM      7  C   UNL d   1      -4.683   0.565   1.328  0.00  0.00     0.048 A 
ATOM      8 CL   UNL d   1      -4.157  -1.835   0.271  0.00  0.00    -0.084 Cl
ATOM      9  C   UNL d   1      -4.355   1.790   1.897  0.00  0.00     0.035 A 
ATOM     10  C   UNL d   1      -3.025   2.134   2.096  0.00  0.00     0.024 A 
ATOM     11 CL   UNL d   1      -5.598   2.892   2.344  0.00  0.00    -0.084 Cl
ATOM     12  C   UNL d   1      -2.013   1.260   1.692  0.00  0.00     0.012 A 
ENDBRANCH   4   5
ENDBRANCH   2   4
BRANCH   2  13
ATOM     13  C   UNL d   1       0.821  -1.696   1.893  0.00  0.00     0.166 C 
BRANCH  13  14
ATOM     14  C   UNL d   1       0.225  -1.945   3.259  0.00  0.00    -0.025 A 
ATOM     15  C   UNL d   1       0.455  -3.161   3.897  0.00  0.00     0.096 A 
ATOM     16  N   UNL d   1       0.009  -3.478   5.135  0.00  0.00    -0.375 N 
ATOM     17  C   UNL d   1      -0.712  -2.537   5.782  0.00  0.00     0.087 A 
ATOM     18  HN  UNL d   1       0.208  -4.384   5.559  1.00  0.00     0.164 HD
ATOM     19  C   UNL d   1      -0.991  -1.294   5.252  0.00  0.00     0.018 A 
ATOM     20  C   UNL d   1      -0.497  -0.996   3.986  0.00  0.00     0.011 A 
ENDBRANCH  13  14
ENDBRANCH   2  13
BRANCH   1  21
ATOM     21  C   UNL d   1       2.332   0.602   0.551  0.00  0.00     0.049 A 
ATOM     22  C   UNL d   1       2.936   0.806   1.800  0.00  0.00     0.053 A 
ATOM     23  C   UNL d   1       4.325   1.020   1.902  0.00  0.00     0.019 A 
ATOM     24  C   UNL d   1       5.111   1.107   0.756  0.00  0.00     0.001 A 
ATOM     25  C   UNL d   1       4.510   1.013  -0.494  0.00  0.00     0.001 A 
ATOM     26  C   UNL d   1       3.136   0.755  -0.597  0.00  0.00     0.018 A 
BRANCH  22  27
ATOM     27  C   UNL d   1       2.148   0.976   3.027  0.00  0.00     0.177 C 
ATOM     28  O   UNL d   1       1.174   1.702   3.098  0.00  0.00    -0.646 OA
BRANCH  27  29
ATOM     29  O   UNL d   1       2.633   0.271   4.074  0.00  0.00    -0.773 OA
ATOM     30  H   UNL d   1       3.365  -0.346   3.882  0.00  0.00     0.167 HD
ENDBRANCH  27  29
ENDBRANCH  22  27
ENDBRANCH   1  21
TORSDOF 7
