REMARK  2 active torsions:
REMARK  status: ('A' for Active; 'I' for Inactive)
REMARK    1  A    between atoms: C_2  and  C_1 
REMARK    2  A    between atoms: O_15  and  C_7 
ROOT
ATOM      1  C   UNL d   1       2.609  -0.137   0.482  0.00  0.00     0.173 C 
ATOM      2  N   UNL d   1       2.069   1.028  -0.204  0.00  0.00    -0.271 NA
ATOM      3  N   UNL d   1       1.981  -1.362  -0.051  0.00  0.00    -0.271 NA
ATOM      4  C   UNL d   1       0.664   1.123  -0.128  0.00  0.00     0.022 A 
ATOM      5  C   UNL d   1       0.551  -1.290  -0.028  0.00  0.00     0.022 A 
ATOM      6  C   UNL d   1      -0.104  -0.051  -0.076  0.00  0.00     0.017 A 
ATOM      7  C   UNL d   1      -1.514   0.010  -0.082  0.00  0.00    -0.022 A 
ATOM      8  C   UNL d   1       0.023   2.360  -0.220  0.00  0.00     0.024 A 
ATOM      9  C   UNL d   1      -0.191  -2.471  -0.087  0.00  0.00     0.024 A 
ATOM     10  C   UNL d   1      -1.585  -2.422  -0.094  0.00  0.00     0.003 A 
ATOM     11  C   UNL d   1      -1.371   2.433  -0.182  0.00  0.00     0.003 A 
ATOM     12  C   UNL d   1      -2.135   1.267  -0.111  0.00  0.00     0.012 A 
ATOM     13  C   UNL d   1      -2.244  -1.190  -0.076  0.00  0.00     0.012 A 
ATOM     14  H   UNL d   1       2.542   1.894   0.019  0.00  0.00     0.129 HD
ATOM     15  H   UNL d   1       2.215  -1.365  -1.047  0.00  0.00     0.129 HD
ENDROOT
BRANCH   1  16
ATOM     16  C   UNL d   1       2.546  -0.063   2.012  0.00  0.00     0.010 A 
ATOM     17  C   UNL d   1       2.562  -1.217   2.824  0.00  0.00     0.096 A 
ATOM     18  C   UNL d   1       2.516  -1.123   4.224  0.00  0.00     0.069 A 
ATOM     19 CL   UNL d   1       2.495  -2.532   5.223  0.00  0.00    -0.081 Cl
ATOM     20  C   UNL d   1       2.474   0.122   4.847  0.00  0.00     0.050 A 
ATOM     21  C   UNL d   1       2.496   1.270   4.067  0.00  0.00     0.036 A 
ATOM     22  C   UNL d   1       2.543   1.185   2.674  0.00  0.00     0.036 A 
ATOM     23 CL   UNL d   1       2.471   2.817   4.821  0.00  0.00    -0.084 Cl
BRANCH  17  24
ATOM     24  O   UNL d   1       2.627  -2.470   2.267  0.00  0.00    -0.358 OA
ATOM     25  H   UNL d   1       2.333  -2.396   1.332  0.00  0.00     0.217 HD
ENDBRANCH  17  24
ENDBRANCH   1  16
TORSDOF 2
