REMARK  4 active torsions:
REMARK  status: ('A' for Active; 'I' for Inactive)
REMARK    1  A    between atoms: C_11  and  C_2 
REMARK       I    between atoms: C_4  and  N_8 
REMARK       I    between atoms: N_7  and  C_4 
REMARK    2  A    between atoms: C_15  and  N_7 
REMARK    3  A    between atoms: N_8  and  C_11 
REMARK    4  A    between atoms: C_9  and  C_10 
ROOT
ATOM      1  C   UNL d   1      -2.759  -3.898   0.336  0.00  0.00     0.321 C 
ATOM      2  N   UNL d   1      -2.133  -5.072  -0.028  0.00  0.00    -0.309 N 
ATOM      3  N   UNL d   1      -4.099  -3.914   0.020  0.00  0.00    -0.337 N 
ATOM      4  O   UNL d   1      -2.195  -2.925   0.820  0.00  0.00    -0.247 OA
ATOM      5  H   UNL d   1      -2.546  -5.560  -0.807  0.00  0.00     0.170 HD
ATOM      6  H   UNL d   1      -4.531  -4.761  -0.310  0.00  0.00     0.164 HD
ENDROOT
BRANCH   3   7
ATOM      7  C   UNL d   1      -4.906  -2.721   0.103  0.00  0.00     0.181 C 
BRANCH   7   8
ATOM      8  C   UNL d   1      -5.991  -2.823   1.128  0.00  0.00     0.029 A 
ATOM      9  N   UNL d   1      -6.897  -1.794   1.335  0.00  0.00    -0.357 N 
ATOM     10  C   UNL d   1      -7.726  -2.095   2.397  0.00  0.00     0.007 A 
ATOM     11  C   UNL d   1      -6.959  -0.553   0.586  0.00  0.00     0.156 C 
ATOM     12  C   UNL d   1      -7.375  -3.358   2.839  0.00  0.00     0.027 A 
ATOM     13  C   UNL d   1      -8.768  -1.179   2.943  0.00  0.00     0.068 C 
ATOM     14  C   UNL d   1      -6.306  -3.818   2.049  0.00  0.00     0.029 A 
ENDBRANCH   7   8
ENDBRANCH   3   7
BRANCH   2  15
ATOM     15  C   UNL d   1      -0.789  -5.383   0.269  0.00  0.00     0.036 A 
ATOM     16  C   UNL d   1      -0.201  -5.084   1.496  0.00  0.00     0.030 A 
ATOM     17  C   UNL d   1       1.071  -5.592   1.813  0.00  0.00     0.010 A 
ATOM     18  C   UNL d   1       1.803  -6.376   0.899  0.00  0.00    -0.051 A 
ATOM     19  C   UNL d   1       1.234  -6.558  -0.373  0.00  0.00     0.010 A 
ATOM     20  C   UNL d   1      -0.053  -6.097  -0.673  0.00  0.00     0.030 A 
BRANCH  18  21
ATOM     21  C   UNL d   1       3.125  -7.054   1.311  0.00  0.00    -0.024 C 
ATOM     22  C   UNL d   1       3.777  -7.862   0.165  0.00  0.00     0.019 C 
ATOM     23  C   UNL d   1       4.160  -6.017   1.791  0.00  0.00     0.019 C 
ATOM     24  C   UNL d   1       2.856  -8.050   2.463  0.00  0.00     0.019 C 
ENDBRANCH  18  21
ENDBRANCH   2  15
TORSDOF 4
