REMARK  2 active torsions:
REMARK  status: ('A' for Active; 'I' for Inactive)
REMARK    1  A    between atoms: N_2  and  C_1 
REMARK    2  A    between atoms: C_4  and  C_5 
ROOT
ATOM      1  C   UNL d   1      -0.622  -2.710  -0.016  0.00  0.00     0.246 C 
ATOM      2  N   UNL d   1      -0.835  -3.253  -1.374  0.00  0.00    -0.259 NA
ATOM      3  O   UNL d   1       0.218  -3.597   0.773  0.00  0.00    -0.324 OA
ATOM      4  C   UNL d   1      -0.601  -4.619  -1.087  0.00  0.00     0.044 A 
ATOM      5  C   UNL d   1      -0.002  -4.797   0.149  0.00  0.00     0.092 A 
ATOM      6  C   UNL d   1      -0.835  -5.690  -1.924  0.00  0.00     0.026 A 
ATOM      7  C   UNL d   1       0.318  -6.045   0.639  0.00  0.00     0.039 A 
ATOM      8  C   UNL d   1      -0.538  -6.970  -1.446  0.00  0.00     0.002 A 
ATOM      9  C   UNL d   1       0.021  -7.147  -0.167  0.00  0.00     0.003 A 
ATOM     10  H   UNL d   1      -0.093  -2.934  -1.993  0.00  0.00     0.130 HD
ENDROOT
BRANCH   1  11
ATOM     11  C   UNL d   1      -0.038  -1.320   0.013  0.00  0.00     0.029 A 
ATOM     12  S   UNL d   1      -1.119   0.016   0.114  0.00  0.00    -0.067 SA
ATOM     13  C   UNL d   1       0.149   1.138   0.056  0.00  0.00     0.144 A 
ATOM     14  C   UNL d   1       1.387   0.537  -0.039  0.00  0.00     0.045 A 
ATOM     15  C   UNL d   1       1.278  -0.892  -0.065  0.00  0.00     0.021 A 
BRANCH  13  16
ATOM     16  N   UNL d   1      -0.126   2.553   0.103  0.00  0.00    -0.108 N 
ATOM     17  O   UNL d   1       0.856   3.303   0.061  0.00  0.00    -0.531 OA
ATOM     18  O   UNL d   1      -1.307   2.918   0.182  0.00  0.00    -0.531 OA
ENDBRANCH  13  16
ENDBRANCH   1  11
TORSDOF 2
