REMARK  2 active torsions:
REMARK  status: ('A' for Active; 'I' for Inactive)
REMARK    1  A    between atoms: C_2  and  S_1 
REMARK    2  A    between atoms: N_3  and  S_1 
ROOT
ATOM      1  S   UNL d   1       0.940   0.086   0.189  0.00  0.00     0.267 S 
ATOM      2  O   UNL d   1       0.870   0.072   1.641  0.00  0.00    -0.200 OA
ATOM      3  O   UNL d   1       0.247  -0.953  -0.550  0.00  0.00    -0.200 OA
ENDROOT
BRANCH   1   4
ATOM      4  C   UNL d   1       2.649  -0.130  -0.184  0.00  0.00     0.109 A 
ATOM      5  C   UNL d   1       3.522   0.792  -0.803  0.00  0.00     0.090 A 
ATOM      6  N   UNL d   1       3.288   2.058  -1.175  0.00  0.00    -0.309 N 
ATOM      7  C   UNL d   1       4.952   0.384  -1.119  0.00  0.00     0.068 A 
ATOM      8  S   UNL d   1       4.645   2.636  -1.917  0.00  0.00     0.068 SA
ATOM      9  HN  UNL d   1       2.421   2.575  -1.025  1.00  0.00     0.176 HD
ATOM     10  N   UNL d   1       5.659   1.339  -1.743  0.00  0.00    -0.310 N 
ATOM     11  HN  UNL d   1       6.629   1.277  -2.049  1.00  0.00     0.176 HD
ATOM     12  C   UNL d   1       5.448  -0.895  -0.775  0.00  0.00     0.032 A 
ATOM     13  C   UNL d   1       4.550  -1.754  -0.129  0.00  0.00     0.004 A 
ATOM     14  C   UNL d   1       3.213  -1.391   0.147  0.00  0.00     0.028 A 
ENDBRANCH   1   4
BRANCH   1  15
ATOM     15  N   UNL d   1       0.431   1.608  -0.359  0.00  0.00    -0.271 N 
ATOM     16  C   UNL d   1       0.355   1.970  -1.765  0.00  0.00     0.051 A 
ATOM     17  C   UNL d   1       0.290   3.333  -2.123  0.00  0.00    -0.031 A 
ATOM     18  C   UNL d   1       0.333   1.023  -2.798  0.00  0.00     0.031 A 
ATOM     19  C   UNL d   1       0.241   3.712  -3.477  0.00  0.00     0.009 A 
ATOM     20  C   UNL d   1       0.231   4.423  -1.086  0.00  0.00     0.042 C 
ATOM     21  C   UNL d   1       0.258   2.754  -4.483  0.00  0.00     0.001 A 
ATOM     22  C   UNL d   1       0.294   1.409  -4.143  0.00  0.00     0.002 A 
ATOM     23  C   UNL d   1       0.851   3.991   0.226  0.00  0.00     0.026 C 
ATOM     24  C   UNL d   1       0.273   2.663   0.671  0.00  0.00     0.142 C 
ENDBRANCH   1  15
TORSDOF 2
