REMARK  3 active torsions:
REMARK  status: ('A' for Active; 'I' for Inactive)
REMARK    1  A    between atoms: S_3  and  C_1 
REMARK    2  A    between atoms: C_7  and  C_4 
REMARK    3  A    between atoms: N_15  and  C_5 
ROOT
ATOM      1  C   UNL d   1      -3.269   2.175   0.389  0.00  0.00     0.110 A 
ATOM      2  C   UNL d   1      -4.060   1.041   0.696  0.00  0.00     0.053 A 
ATOM      3  C   UNL d   1      -1.867   2.087   0.349  0.00  0.00     0.149 A 
ATOM      4  C   UNL d   1      -1.194   0.895   0.624  0.00  0.00     0.006 A 
ATOM      5  C   UNL d   1      -3.822   3.476   0.155  0.00  0.00     0.105 C 
ATOM      6  N   UNL d   1      -4.260   4.530  -0.064  0.00  0.00    -0.191 NA
ATOM      7  C   UNL d   1      -3.345  -0.149   0.973  0.00  0.00     0.032 A 
ATOM      8  C   UNL d   1      -1.945  -0.227   0.948  0.00  0.00     0.017 A 
ATOM      9  F   UNL d   1      -1.138   3.174   0.041  0.00  0.00    -0.203 F 
ENDROOT
BRANCH   2  10
ATOM     10  N   UNL d   1      -5.448   1.032   0.753  0.00  0.00    -0.388 N 
ATOM     11  C   UNL d   1      -6.181   0.119   1.631  0.00  0.00     0.149 C 
ATOM     12  C   UNL d   1      -6.295   1.801  -0.161  0.00  0.00     0.149 C 
ENDBRANCH   2  10
BRANCH   4  13
ATOM     13  C   UNL d   1       0.269   0.814   0.558  0.00  0.00     0.049 C 
ATOM     14  C   UNL d   1       1.103   1.103   1.573  0.00  0.00     0.139 C 
ATOM     15  C   UNL d   1       0.683   1.529   2.859  0.00  0.00     0.111 C 
ATOM     16  N   UNL d   1       0.302   1.899   3.889  0.00  0.00    -0.191 NA
BRANCH  14  17
ATOM     17  S   UNL d   1       2.818   0.963   1.304  0.00  0.00     0.181 S 
ATOM     18  O   UNL d   1       3.492   0.683   2.556  0.00  0.00    -0.222 OA
ATOM     19  O   UNL d   1       3.065   0.113   0.151  0.00  0.00    -0.222 OA
ATOM     20  C   UNL d   1       3.260   2.615   0.826  0.00  0.00     0.168 C 
ENDBRANCH  14  17
ENDBRANCH   4  13
TORSDOF 3
