REMARK  5 active torsions:
REMARK  status: ('A' for Active; 'I' for Inactive)
REMARK       I    between atoms: N_2  and  C_1 
REMARK    1  A    between atoms: C_9  and  C_1 
REMARK    2  A    between atoms: C_10  and  N_2 
REMARK    3  A    between atoms: C_3  and  C_4 
REMARK    4  A    between atoms: S_5  and  C_9 
REMARK    5  A    between atoms: C_11  and  S_5 
ROOT
ATOM      1  C   UNL d   1      -0.797  -1.197  -0.183  0.00  0.00     0.231 C 
ATOM      2  N   UNL d   1       0.263  -0.982   0.674  0.00  0.00    -0.327 N 
ATOM      3  O   UNL d   1      -1.446  -2.244  -0.262  0.00  0.00    -0.272 OA
ATOM      4  H   UNL d   1       0.632  -0.036   0.711  0.00  0.00     0.169 HD
ENDROOT
BRANCH   2   5
ATOM      5  C   UNL d   1       0.928  -1.955   1.457  0.00  0.00     0.034 A 
ATOM      6  C   UNL d   1       0.673  -3.321   1.367  0.00  0.00     0.030 A 
ATOM      7  C   UNL d   1       1.428  -4.246   2.100  0.00  0.00     0.010 A 
ATOM      8  C   UNL d   1       2.466  -3.841   2.955  0.00  0.00    -0.051 A 
ATOM      9  C   UNL d   1       2.679  -2.459   3.080  0.00  0.00     0.010 A 
ATOM     10  C   UNL d   1       1.928  -1.531   2.336  0.00  0.00     0.030 A 
BRANCH   8  11
ATOM     11  C   UNL d   1       3.336  -4.899   3.656  0.00  0.00    -0.024 C 
ATOM     12  C   UNL d   1       4.448  -4.301   4.546  0.00  0.00     0.019 C 
ATOM     13  C   UNL d   1       2.468  -5.808   4.553  0.00  0.00     0.019 C 
ATOM     14  C   UNL d   1       4.032  -5.773   2.586  0.00  0.00     0.019 C 
ENDBRANCH   8  11
ENDBRANCH   2   5
BRANCH   1  15
ATOM     15  C   UNL d   1      -1.258  -0.006  -1.009  0.00  0.00     0.182 C 
BRANCH  15  16
ATOM     16  S   UNL d   1       0.064   1.150  -1.485  0.00  0.00    -0.121 SA
BRANCH  16  17
ATOM     17  C   UNL d   1      -0.734   2.136  -2.758  0.00  0.00     0.001 A 
ATOM     18  C   UNL d   1      -2.117   2.161  -2.987  0.00  0.00     0.020 A 
ATOM     19  C   UNL d   1      -2.660   2.942  -4.015  0.00  0.00     0.025 A 
ATOM     20  C   UNL d   1      -1.826   3.717  -4.814  0.00  0.00     0.034 A 
ATOM     21  C   UNL d   1      -0.452   3.721  -4.593  0.00  0.00     0.025 A 
ATOM     22 CL   UNL d   1      -2.497   4.671  -6.078  0.00  0.00    -0.084 Cl
ATOM     23  C   UNL d   1       0.089   2.934  -3.569  0.00  0.00     0.020 A 
ENDBRANCH  16  17
ENDBRANCH  15  16
ENDBRANCH   1  15
TORSDOF 5
