REMARK  10 active torsions:
REMARK  status: ('A' for Active; 'I' for Inactive)
REMARK    1  A    between atoms: C_4  and  C_1 
REMARK    2  A    between atoms: C_5  and  C_1 
REMARK    3  A    between atoms: N_6  and  C_2 
REMARK    4  A    between atoms: C_3  and  O_7 
REMARK    5  A    between atoms: O_15  and  C_4 
REMARK    6  A    between atoms: O_16  and  C_5 
REMARK    7  A    between atoms: C_9  and  N_6 
REMARK    8  A    between atoms: O_7  and  C_8 
REMARK    9  A    between atoms: C_20  and  O_15 
REMARK   10  A    between atoms: C_19  and  O_16 
ROOT
ATOM      1  N   UNL d   1       0.980   2.371  -0.408  0.00  0.00    -0.266 NA
ATOM      2  H   UNL d   1       0.257   3.021  -0.088  0.00  0.00     0.133 HD
ENDROOT
BRANCH   1   3
ATOM      3  C   UNL d   1       0.517   1.069  -0.384  0.00  0.00     0.086 C 
ATOM      4  C   UNL d   1       1.186  -0.091  -0.253  0.00  0.00     0.124 C 
BRANCH   4   5
ATOM      5  C   UNL d   1       0.467  -1.382  -0.300  0.00  0.00     0.300 C 
ATOM      6  O   UNL d   1       0.849  -2.397   0.261  0.00  0.00    -0.259 OA
BRANCH   5   7
ATOM      7  O   UNL d   1      -0.630  -1.288  -1.100  0.00  0.00    -0.318 OA
BRANCH   7   8
ATOM      8  C   UNL d   1      -1.305  -2.520  -1.394  0.00  0.00     0.174 C 
ATOM      9  C   UNL d   1      -0.821  -3.031  -2.739  0.00  0.00     0.034 C 
ENDBRANCH   7   8
ENDBRANCH   5   7
ENDBRANCH   4   5
BRANCH   4  10
ATOM     10  C   UNL d   1       2.652  -0.085  -0.063  0.00  0.00     0.300 C 
ATOM     11  O   UNL d   1       3.282   0.720   0.599  0.00  0.00    -0.259 OA
BRANCH  10  12
ATOM     12  O   UNL d   1       3.171  -1.080  -0.823  0.00  0.00    -0.318 OA
BRANCH  12  13
ATOM     13  C   UNL d   1       4.595  -1.091  -0.987  0.00  0.00     0.174 C 
ATOM     14  C   UNL d   1       4.868  -0.780  -2.446  0.00  0.00     0.034 C 
ENDBRANCH  12  13
ENDBRANCH  10  12
ENDBRANCH   4  10
ENDBRANCH   1   3
BRANCH   1  15
ATOM     15  C   UNL d   1       1.617   2.984  -1.528  0.00  0.00     0.046 A 
ATOM     16  C   UNL d   1       2.180   4.273  -1.397  0.00  0.00     0.099 A 
ATOM     17  C   UNL d   1       2.791   4.903  -2.487  0.00  0.00     0.039 A 
ATOM     18  C   UNL d   1       2.849   4.263  -3.725  0.00  0.00     0.003 A 
ATOM     19  C   UNL d   1       2.325   2.982  -3.864  0.00  0.00     0.002 A 
ATOM     20  C   UNL d   1       1.716   2.347  -2.775  0.00  0.00     0.026 A 
BRANCH  16  21
ATOM     21  O   UNL d   1       2.361   4.878  -0.180  0.00  0.00    -0.254 OA
BRANCH  21  22
ATOM     22  C   UNL d   1       1.191   5.354   0.460  0.00  0.00     0.530 C 
ATOM     23  F   UNL d   1       0.069   4.671   0.130  0.00  0.00    -0.144 F 
ATOM     24  F   UNL d   1       1.356   5.253   1.798  0.00  0.00    -0.144 F 
ATOM     25  F   UNL d   1       1.001   6.656   0.157  0.00  0.00    -0.144 F 
ENDBRANCH  21  22
ENDBRANCH  16  21
ENDBRANCH   1  15
TORSDOF 10
