REMARK  10 active torsions:
REMARK  status: ('A' for Active; 'I' for Inactive)
REMARK    1  A    between atoms: C_3  and  C_1 
REMARK    2  A    between atoms: C_6  and  C_2 
REMARK       I    between atoms: N_9  and  C_3 
REMARK    3  A    between atoms: C_7  and  C_12 
REMARK    4  A    between atoms: C_11  and  N_9 
REMARK    5  A    between atoms: O_30  and  C_14 
REMARK    6  A    between atoms: N_26  and  C_16 
REMARK    7  A    between atoms: O_32  and  C_18 
REMARK    8  A    between atoms: C_33  and  N_26 
REMARK    9  A    between atoms: C_27  and  C_35 
REMARK   10  A    between atoms: C_35  and  C_33 
ROOT
ATOM      1  C   UNL d   1      -1.724  -3.718  -0.366  0.00  0.00     0.062 A 
ATOM      2  C   UNL d   1      -3.472  -2.844  -1.824  0.00  0.00     0.050 A 
ATOM      3  C   UNL d   1      -2.122  -2.908  -1.440  0.00  0.00     0.048 A 
ATOM      4  C   UNL d   1      -2.645  -4.567   0.279  0.00  0.00     0.055 A 
ATOM      5  C   UNL d   1      -4.398  -3.652  -1.157  0.00  0.00     0.018 A 
ATOM      6  C   UNL d   1      -3.985  -4.503  -0.130  0.00  0.00     0.032 A 
ENDROOT
BRANCH   1   7
ATOM      7  N   UNL d   1      -0.349  -3.761  -0.040  0.00  0.00    -0.321 N 
ATOM      8  C   UNL d   1       0.167  -3.249   1.144  0.00  0.00     0.261 C 
ATOM      9  O   UNL d   1      -0.519  -2.792   2.060  0.00  0.00    -0.267 OA
ATOM     10  H   UNL d   1       0.271  -3.831  -0.831  0.00  0.00     0.169 HD
BRANCH   8  11
ATOM     11  C   UNL d   1       1.628  -3.257   1.237  0.00  0.00     0.093 A 
ATOM     12  C   UNL d   1       2.489  -3.373   2.396  0.00  0.00     0.085 A 
ATOM     13  N   UNL d   1       3.776  -3.275   2.011  0.00  0.00    -0.259 N 
ATOM     14  O   UNL d   1       3.786  -3.098   0.659  0.00  0.00    -0.241 OA
ATOM     15  HN  UNL d   1       4.593  -3.325   2.619  1.00  0.00     0.195 HD
ATOM     16  C   UNL d   1       2.518  -3.084   0.186  0.00  0.00     0.090 A 
ATOM     17  C   UNL d   1       2.417  -2.851  -1.270  0.00  0.00     0.080 C 
BRANCH  12  18
ATOM     18  C   UNL d   1       2.221  -3.542   3.839  0.00  0.00     0.015 A 
ATOM     19  C   UNL d   1       1.225  -4.367   4.378  0.00  0.00     0.046 A 
ATOM     20 CL   UNL d   1       0.319  -5.482   3.427  0.00  0.00    -0.083 Cl
ATOM     21  C   UNL d   1       1.021  -4.438   5.768  0.00  0.00     0.025 A 
ATOM     22  C   UNL d   1       1.868  -3.763   6.645  0.00  0.00     0.002 A 
ATOM     23  C   UNL d   1       2.921  -3.019   6.139  0.00  0.00     0.001 A 
ATOM     24  C   UNL d   1       3.084  -2.896   4.754  0.00  0.00     0.015 A 
ENDBRANCH  12  18
ENDBRANCH   8  11
ENDBRANCH   1   7
BRANCH   4  25
ATOM     25  N   UNL d   1      -2.219  -5.485   1.232  0.00  0.00    -0.388 N 
ATOM     26  H   UNL d   1      -1.231  -5.469   1.468  0.00  0.00     0.159 HD
BRANCH  25  27
ATOM     27  C   UNL d   1      -2.984  -6.681   1.529  0.00  0.00     0.124 C 
BRANCH  27  28
ATOM     28  C   UNL d   1      -2.151  -7.714   2.288  0.00  0.00     0.058 C 
BRANCH  28  29
ATOM     29  C   UNL d   1      -2.978  -8.951   2.531  0.00  0.00    -0.054 A 
ATOM     30  C   UNL d   1      -3.748  -9.054   3.700  0.00  0.00     0.046 A 
ATOM     31  C   UNL d   1      -4.611 -10.136   3.909  0.00  0.00     0.102 A 
ATOM     32  C   UNL d   1      -4.716 -11.117   2.907  0.00  0.00     0.101 A 
ATOM     33  C   UNL d   1      -3.921 -11.029   1.757  0.00  0.00     0.040 A 
ATOM     34  C   UNL d   1      -3.059  -9.952   1.563  0.00  0.00     0.010 A 
BRANCH  31  35
ATOM     35  O   UNL d   1      -5.349 -10.295   5.050  0.00  0.00    -0.353 OA
ATOM     36  C   UNL d   1      -5.200  -9.328   6.082  0.00  0.00     0.210 C 
ENDBRANCH  31  35
BRANCH  32  37
ATOM     37  O   UNL d   1      -5.507 -12.238   2.932  0.00  0.00    -0.353 OA
ATOM     38  C   UNL d   1      -6.775 -12.096   3.561  0.00  0.00     0.210 C 
ENDBRANCH  32  37
ENDBRANCH  28  29
ENDBRANCH  27  28
ENDBRANCH  25  27
ENDBRANCH   4  25
BRANCH   2  39
ATOM     39  C   UNL d   1      -3.951  -1.915  -2.911  0.00  0.00     0.417 C 
ATOM     40  F   UNL d   1      -2.963  -1.145  -3.445  0.00  0.00    -0.166 F 
ATOM     41  F   UNL d   1      -4.510  -2.583  -3.958  0.00  0.00    -0.166 F 
ATOM     42  F   UNL d   1      -4.904  -1.048  -2.471  0.00  0.00    -0.166 F 
ENDBRANCH   2  39
TORSDOF 10
