REMARK  4 active torsions:
REMARK  status: ('A' for Active; 'I' for Inactive)
REMARK    1  A    between atoms: C_2  and  S_1 
REMARK    2  A    between atoms: N_3  and  S_1 
REMARK    3  A    between atoms: C_13  and  N_3 
REMARK    4  A    between atoms: C_11  and  C_13 
ROOT
ATOM      1  C   UNL d   1       0.988   1.175  -2.453  0.00  0.00     0.139 C 
ENDROOT
BRANCH   1   2
ATOM      2  C   UNL d   1       0.458   1.071  -3.897  0.00  0.00     0.167 C 
ATOM      3  O   UNL d   1       1.050  -0.068  -4.554  0.00  0.00    -0.340 OA
ATOM      4  C   UNL d   1       0.392  -1.238  -4.275  0.00  0.00     0.102 A 
ATOM      5  C   UNL d   1       1.054  -2.418  -4.605  0.00  0.00     0.039 A 
ATOM      6  C   UNL d   1      -0.865  -1.287  -3.665  0.00  0.00     0.102 A 
ATOM      7  C   UNL d   1       0.479  -3.650  -4.289  0.00  0.00     0.003 A 
ATOM      8  C   UNL d   1      -0.764  -3.698  -3.654  0.00  0.00     0.003 A 
ATOM      9  C   UNL d   1      -1.439  -2.516  -3.346  0.00  0.00     0.039 A 
ATOM     10  O   UNL d   1      -1.572  -0.167  -3.311  0.00  0.00    -0.346 OA
ATOM     11  C   UNL d   1      -1.065   0.999  -3.968  0.00  0.00     0.209 C 
ENDBRANCH   1   2
BRANCH   1  12
ATOM     12  N   UNL d   1       2.449   1.419  -2.493  0.00  0.00    -0.213 NA
ATOM     13  H   UNL d   1       2.960   0.776  -3.103  0.00  0.00     0.140 HD
BRANCH  12  14
ATOM     14  S   UNL d   1       3.235   1.607  -1.015  0.00  0.00     0.248 S 
ATOM     15  O   UNL d   1       4.626   1.870  -1.299  0.00  0.00    -0.205 OA
ATOM     16  O   UNL d   1       2.435   2.486  -0.192  0.00  0.00    -0.205 OA
BRANCH  14  17
ATOM     17  C   UNL d   1       3.216   0.044  -0.160  0.00  0.00     0.115 A 
ATOM     18  S   UNL d   1       3.960  -1.272  -0.964  0.00  0.00    -0.089 SA
ATOM     19  C   UNL d   1       3.662  -2.326   0.352  0.00  0.00     0.051 A 
ATOM     20  C   UNL d   1       2.973  -1.702   1.369  0.00  0.00     0.009 A 
ATOM     21  C   UNL d   1       2.711  -0.333   1.070  0.00  0.00     0.033 A 
ENDBRANCH  14  17
ENDBRANCH  12  14
ENDBRANCH   1  12
TORSDOF 4
