REMARK  4 active torsions:
REMARK  status: ('A' for Active; 'I' for Inactive)
REMARK    1  A    between atoms: C_2  and  S_1 
REMARK    2  A    between atoms: N_3  and  S_1 
REMARK    3  A    between atoms: C_11  and  N_3 
REMARK    4  A    between atoms: C_4  and  C_6 
ROOT
ATOM      1  S   UNL d   1       0.904   0.066   0.005  0.00  0.00     0.248 S 
ATOM      2  O   UNL d   1       0.277   1.333  -0.308  0.00  0.00    -0.205 OA
ATOM      3  O   UNL d   1       2.352  -0.027  -0.009  0.00  0.00    -0.205 OA
ENDROOT
BRANCH   1   4
ATOM      4  C   UNL d   1       0.311  -1.198  -1.100  0.00  0.00     0.096 A 
ATOM      5  C   UNL d   1      -0.914  -1.124  -1.764  0.00  0.00     0.057 A 
ATOM      6  C   UNL d   1      -1.227  -2.077  -2.752  0.00  0.00     0.041 A 
ATOM      7 CL   UNL d   1      -2.132   0.060  -1.461  0.00  0.00    -0.083 Cl
ATOM      8  C   UNL d   1      -0.331  -3.104  -3.094  0.00  0.00     0.049 A 
ATOM      9  C   UNL d   1       0.887  -3.184  -2.404  0.00  0.00     0.018 A 
ATOM     10  C   UNL d   1       1.205  -2.238  -1.429  0.00  0.00     0.027 A 
BRANCH   8  11
ATOM     11  C   UNL d   1      -0.654  -4.096  -4.186  0.00  0.00     0.417 C 
ATOM     12  F   UNL d   1      -1.852  -3.870  -4.791  0.00  0.00    -0.166 F 
ATOM     13  F   UNL d   1       0.274  -4.091  -5.179  0.00  0.00    -0.166 F 
ATOM     14  F   UNL d   1      -0.703  -5.377  -3.726  0.00  0.00    -0.166 F 
ENDBRANCH   8  11
ENDBRANCH   1   4
BRANCH   1  15
ATOM     15  N   UNL d   1       0.460  -0.409   1.548  0.00  0.00    -0.166 NA
ATOM     16  H   UNL d   1       1.030  -1.176   1.897  0.00  0.00     0.147 HD
BRANCH  15  17
ATOM     17  C   UNL d   1      -0.905  -0.562   1.828  0.00  0.00     0.093 A 
ATOM     18  N   UNL d   1      -1.338  -1.828   1.707  0.00  0.00    -0.356 N 
ATOM     19  C   UNL d   1      -2.635  -2.039   2.033  0.00  0.00     0.089 A 
ATOM     20  HN  UNL d   1      -0.729  -2.582   1.389  1.00  0.00     0.166 HD
ATOM     21  C   UNL d   1      -3.490  -1.049   2.490  0.00  0.00     0.017 A 
ATOM     22  C   UNL d   1      -3.001   0.248   2.598  0.00  0.00     0.005 A 
ATOM     23  C   UNL d   1      -1.680   0.507   2.244  0.00  0.00     0.043 A 
ENDBRANCH  15  17
ENDBRANCH   1  15
TORSDOF 4
