REMARK  3 active torsions:
REMARK  status: ('A' for Active; 'I' for Inactive)
REMARK    1  A    between atoms: C_4  and  C_1 
REMARK    2  A    between atoms: N_6  and  C_2 
REMARK       I    between atoms: C_3  and  N_5 
REMARK       I    between atoms: N_7  and  C_3 
REMARK    3  A    between atoms: C_8  and  N_7 
ROOT
ATOM      1  C   UNL d   1      -3.209   6.180  -0.440  0.00  0.00     0.323 C 
ATOM      2  N   UNL d   1      -2.589   4.956  -0.241  0.00  0.00    -0.332 N 
ATOM      3  N   UNL d   1      -1.083   2.533  -0.011  0.00  0.00    -0.266 NA
ATOM      4  N   UNL d   1      -4.071   6.590   0.555  0.00  0.00    -0.308 N 
ATOM      5  O   UNL d   1      -2.954   6.849  -1.444  0.00  0.00    -0.247 OA
ATOM      6  C   UNL d   1      -1.376   4.719  -1.041  0.00  0.00     0.142 C 
ATOM      7  C   UNL d   1      -2.771   4.071   0.924  0.00  0.00     0.142 C 
ATOM      8  C   UNL d   1      -2.410   2.592   0.637  0.00  0.00     0.117 C 
ATOM      9  C   UNL d   1      -1.115   3.234  -1.311  0.00  0.00     0.117 C 
ATOM     10  H   UNL d   1      -3.815   6.277   1.475  0.00  0.00     0.170 HD
ENDROOT
BRANCH   4  11
ATOM     11  C   UNL d   1      -4.805   7.811   0.481  0.00  0.00     0.047 A 
ATOM     12  C   UNL d   1      -5.052   8.593   1.648  0.00  0.00     0.001 A 
ATOM     13  C   UNL d   1      -5.647   9.874   1.479  0.00  0.00    -0.024 A 
ATOM     14  C   UNL d   1      -4.717   8.211   2.973  0.00  0.00     0.014 A 
ATOM     15  C   UNL d   1      -5.837  10.721   2.583  0.00  0.00     0.012 A 
ATOM     16  C   UNL d   1      -6.037  10.312   0.206  0.00  0.00     0.012 A 
ATOM     17  C   UNL d   1      -5.478  10.321   3.865  0.00  0.00     0.001 A 
ATOM     18  C   UNL d   1      -4.931   9.061   4.063  0.00  0.00     0.001 A 
ATOM     19  C   UNL d   1      -5.866   9.504  -0.908  0.00  0.00     0.003 A 
ATOM     20  C   UNL d   1      -5.261   8.261  -0.768  0.00  0.00     0.030 A 
ENDBRANCH   4  11
BRANCH   3  21
ATOM     21  C   UNL d   1      -0.477   1.281  -0.052  0.00  0.00     0.097 A 
ATOM     22  C   UNL d   1       0.909   1.147  -0.177  0.00  0.00     0.086 A 
ATOM     23  C   UNL d   1       1.460  -0.147  -0.207  0.00  0.00     0.021 A 
ATOM     24  C   UNL d   1       0.643  -1.259  -0.081  0.00  0.00     0.018 A 
ATOM     25  C   UNL d   1      -0.711  -1.038   0.067  0.00  0.00     0.089 A 
ATOM     26  N   UNL d   1      -1.271   0.191   0.085  0.00  0.00    -0.356 N 
ATOM     27  HN  UNL d   1      -2.279   0.297   0.199  1.00  0.00     0.166 HD
BRANCH  22  28
ATOM     28  C   UNL d   1       1.853   2.313  -0.281  0.00  0.00     0.420 C 
ATOM     29  F   UNL d   1       1.388   3.520   0.140  0.00  0.00    -0.166 F 
ATOM     30  F   UNL d   1       3.001   2.112   0.434  0.00  0.00    -0.166 F 
ATOM     31  F   UNL d   1       2.269   2.510  -1.568  0.00  0.00    -0.166 F 
ENDBRANCH  22  28
ENDBRANCH   3  21
TORSDOF 3
