REMARK  4 active torsions:
REMARK  status: ('A' for Active; 'I' for Inactive)
REMARK    1  A    between atoms: C_9  and  C_2 
REMARK    2  A    between atoms: N_7  and  C_16 
REMARK    3  A    between atoms: C_10  and  N_7 
REMARK    4  A    between atoms: C_13  and  C_10 
ROOT
ATOM      1  C   UNL d   1       2.430  -1.660   0.000  0.00  0.00    -0.008 A 
ATOM      2  C   UNL d   1       2.568  -2.567  -1.059  0.00  0.00     0.016 A 
ATOM      3  C   UNL d   1       3.423  -1.629   0.987  0.00  0.00     0.016 A 
ATOM      4  C   UNL d   1       4.650  -3.415  -0.129  0.00  0.00     0.031 A 
ATOM      5  C   UNL d   1       4.519  -2.498   0.916  0.00  0.00     0.030 A 
ATOM      6  C   UNL d   1       3.675  -3.423  -1.132  0.00  0.00     0.030 A 
ENDROOT
BRANCH   4   7
ATOM      7  N   UNL d   1       5.780  -4.250  -0.126  0.00  0.00    -0.365 N 
ATOM      8  HN  UNL d   1       6.691  -3.884   0.149  1.00  0.00     0.165 HD
BRANCH   7   9
ATOM      9  C   UNL d   1       5.650  -5.488  -0.477  0.00  0.00     0.101 C 
BRANCH   9  10
ATOM     10  C   UNL d   1       6.785  -6.424  -0.441  0.00  0.00    -0.005 A 
ATOM     11  C   UNL d   1       6.642  -7.694  -0.979  0.00  0.00     0.100 A 
ATOM     12  N   UNL d   1       7.618  -8.633  -0.958  0.00  0.00    -0.374 N 
ATOM     13  C   UNL d   1       8.783  -8.281  -0.368  0.00  0.00     0.087 A 
ATOM     14  HN  UNL d   1       7.481  -9.558  -1.366  1.00  0.00     0.164 HD
ATOM     15  C   UNL d   1       9.020  -7.036   0.195  0.00  0.00     0.018 A 
ATOM     16  C   UNL d   1       8.000  -6.087   0.153  0.00  0.00     0.015 A 
ENDBRANCH   9  10
ENDBRANCH   7   9
ENDBRANCH   4   7
BRANCH   1  17
ATOM     17  C   UNL d   1       1.262  -0.792   0.057  0.00  0.00     0.063 A 
ATOM     18  N   UNL d   1       0.045  -1.188  -0.491  0.00  0.00    -0.292 N 
ATOM     19  N   UNL d   1      -0.891  -0.268  -0.338  0.00  0.00    -0.061 NA
ATOM     20  HN  UNL d   1      -0.106  -2.084  -0.956  1.00  0.00     0.183 HD
ATOM     21  S   UNL d   1      -0.335   1.100   0.445  0.00  0.00    -0.010 SA
ATOM     22  C   UNL d   1       1.253   0.473   0.620  0.00  0.00     0.096 A 
ENDBRANCH   1  17
TORSDOF 4
