REMARK  3 active torsions:
REMARK  status: ('A' for Active; 'I' for Inactive)
REMARK       I    between atoms: N_3  and  C_1 
REMARK       I    between atoms: N_4  and  C_1 
REMARK    1  A    between atoms: C_2  and  C_5 
REMARK    2  A    between atoms: C_10  and  N_4 
REMARK    3  A    between atoms: C_7  and  N_6 
ROOT
ATOM      1  C   UNL d   1       0.809  -0.076   0.289  0.00  0.00     0.323 C 
ATOM      2  N   UNL d   1       0.107  -1.193  -0.147  0.00  0.00    -0.332 N 
ATOM      3  N   UNL d   1       1.247  -0.157   1.597  0.00  0.00    -0.306 N 
ATOM      4  N   UNL d   1      -2.086  -2.971  -0.887  0.00  0.00    -0.366 N 
ATOM      5  O   UNL d   1       0.965   0.920  -0.417  0.00  0.00    -0.247 OA
ATOM      6  C   UNL d   1      -0.567  -1.115  -1.458  0.00  0.00     0.147 C 
ATOM      7  C   UNL d   1      -2.022  -1.626  -1.470  0.00  0.00     0.144 C 
ATOM      8  C   UNL d   1      -0.805  -3.099   1.215  0.00  0.00     0.040 C 
ATOM      9  C   UNL d   1       0.345  -2.537   0.384  0.00  0.00     0.129 C 
ATOM     10  C   UNL d   1      -2.185  -3.021   0.569  0.00  0.00     0.126 C 
ATOM     11  H   UNL d   1       0.571  -0.609   2.201  0.00  0.00     0.171 HD
ENDROOT
BRANCH   3  12
ATOM     12  C   UNL d   1       1.937   0.925   2.189  0.00  0.00     0.075 A 
ATOM     13  C   UNL d   1       1.482   1.426   3.411  0.00  0.00     0.146 A 
ATOM     14  C   UNL d   1       2.045   2.564   3.973  0.00  0.00     0.086 A 
ATOM     15  F   UNL d   1       0.436   0.843   4.019  0.00  0.00    -0.204 F 
ATOM     16  C   UNL d   1       3.112   3.171   3.323  0.00  0.00     0.119 A 
ATOM     17  C   UNL d   1       3.627   2.652   2.138  0.00  0.00     0.044 A 
ATOM     18  F   UNL d   1       3.651   4.282   3.842  0.00  0.00    -0.206 F 
ATOM     19  C   UNL d   1       3.034   1.526   1.563  0.00  0.00     0.036 A 
ENDBRANCH   3  12
BRANCH   4  20
ATOM     20  C   UNL d   1      -2.679  -3.990  -1.613  0.00  0.00     0.102 A 
ATOM     21  N   UNL d   1      -3.559  -3.700  -2.593  0.00  0.00    -0.352 N 
ATOM     22  C   UNL d   1      -4.120  -4.724  -3.282  0.00  0.00     0.106 A 
ATOM     23  HN  UNL d   1      -3.797  -2.733  -2.810  1.00  0.00     0.166 HD
ATOM     24  C   UNL d   1      -3.832  -6.059  -3.066  0.00  0.00     0.063 A 
ATOM     25  C   UNL d   1      -2.894  -6.352  -2.079  0.00  0.00     0.021 A 
ATOM     26  C   UNL d   1      -2.323  -5.314  -1.348  0.00  0.00     0.049 A 
BRANCH  24  27
ATOM     27  C   UNL d   1      -4.497  -7.140  -3.856  0.00  0.00     0.418 C 
ATOM     28  F   UNL d   1      -5.411  -6.680  -4.754  0.00  0.00    -0.166 F 
ATOM     29  F   UNL d   1      -3.612  -7.886  -4.574  0.00  0.00    -0.166 F 
ATOM     30  F   UNL d   1      -5.167  -8.023  -3.064  0.00  0.00    -0.166 F 
ENDBRANCH  24  27
ENDBRANCH   4  20
TORSDOF 3
