REMARK  2 active torsions:
REMARK  status: ('A' for Active; 'I' for Inactive)
REMARK    1  A    between atoms: C_10  and  N_4 
REMARK    2  A    between atoms: C_13  and  C_10 
ROOT
ATOM      1  N   UNL d   1      -0.935   0.458  -0.041  0.00  0.00    -0.248 N 
ATOM      2  C   UNL d   1      -1.773  -0.595   0.091  0.00  0.00     0.117 A 
ATOM      3  C   UNL d   1      -1.752   1.570  -0.160  0.00  0.00     0.349 A 
ATOM      4  N   UNL d   1      -3.058   1.060  -0.108  0.00  0.00    -0.236 N 
ATOM      5  N   UNL d   1      -3.043  -0.302   0.060  0.00  0.00    -0.281 N 
ATOM      6  HN  UNL d   1      -3.838  -0.936   0.142  1.00  0.00     0.188 HD
ATOM      7  C   UNL d   1       0.476   0.395  -0.034  0.00  0.00     0.062 A 
ATOM      8  S   UNL d   1       0.234  -2.363  -0.502  0.00  0.00    -0.120 SA
ATOM      9  C   UNL d   1      -1.281  -1.976   0.389  0.00  0.00     0.158 C 
ATOM     10  C   UNL d   1       1.127  -0.848  -0.182  0.00  0.00     0.028 A 
ATOM     11  O   UNL d   1      -1.451   2.749  -0.273  0.00  0.00    -0.244 OA
ATOM     12  C   UNL d   1       1.265   1.545   0.114  0.00  0.00     0.031 A 
ATOM     13  C   UNL d   1       2.527  -0.923  -0.157  0.00  0.00     0.021 A 
ATOM     14  C   UNL d   1       2.661   1.459   0.150  0.00  0.00     0.002 A 
ATOM     15  C   UNL d   1       3.292   0.227   0.020  0.00  0.00     0.002 A 
ENDROOT
BRANCH   4  16
ATOM     16  C   UNL d   1      -4.280   1.828  -0.189  0.00  0.00     0.192 C 
BRANCH  16  17
ATOM     17  C   UNL d   1      -4.755   1.998  -1.610  0.00  0.00    -0.038 A 
ATOM     18  C   UNL d   1      -5.596   1.044  -2.201  0.00  0.00     0.009 A 
ATOM     19  C   UNL d   1      -5.995   1.180  -3.532  0.00  0.00     0.001 A 
ATOM     20  C   UNL d   1      -5.555   2.266  -4.286  0.00  0.00     0.000 A 
ATOM     21  C   UNL d   1      -4.722   3.222  -3.708  0.00  0.00     0.001 A 
ATOM     22  C   UNL d   1      -4.322   3.089  -2.377  0.00  0.00     0.009 A 
ENDBRANCH  16  17
ENDBRANCH   4  16
TORSDOF 2
