REMARK  2 active torsions:
REMARK  status: ('A' for Active; 'I' for Inactive)
REMARK    1  A    between atoms: N_2  and  C_1 
REMARK    2  A    between atoms: C_4  and  N_2 
ROOT
ATOM      1  N   UNL d   1       0.353   0.576   0.954  0.00  0.00    -0.329 N 
ATOM      2  C   UNL d   1       1.038   1.530   1.841  0.00  0.00     0.159 C 
ENDROOT
BRANCH   1   3
ATOM      3  C   UNL d   1       1.086  -0.313   0.162  0.00  0.00     0.171 C 
ATOM      4  S   UNL d   1       2.687  -0.763   0.346  0.00  0.00    -0.041 SA
ATOM      5  N   UNL d   1       0.439  -0.835  -0.919  0.00  0.00    -0.376 N 
ATOM      6  H   UNL d   1      -0.387  -0.377  -1.279  0.00  0.00     0.158 HD
ATOM      7  H   UNL d   1       0.991  -1.373  -1.575  0.00  0.00     0.158 HD
ENDBRANCH   1   3
BRANCH   1   8
ATOM      8  C   UNL d   1      -1.090   0.556   1.055  0.00  0.00     0.036 A 
ATOM      9  C   UNL d   1      -1.816  -0.630   0.869  0.00  0.00     0.029 A 
ATOM     10  C   UNL d   1      -3.211  -0.657   0.982  0.00  0.00     0.002 A 
ATOM     11  C   UNL d   1      -3.906   0.503   1.304  0.00  0.00     0.000 A 
ATOM     12  C   UNL d   1      -3.206   1.687   1.519  0.00  0.00     0.002 A 
ATOM     13  C   UNL d   1      -1.811   1.710   1.403  0.00  0.00     0.029 A 
ENDBRANCH   1   8
TORSDOF 2
