REMARK  5 active torsions:
REMARK  status: ('A' for Active; 'I' for Inactive)
REMARK    1  A    between atoms: C_9  and  C_1 
REMARK    2  A    between atoms: N_17  and  C_2 
REMARK    3  A    between atoms: C_8  and  C_4 
REMARK    4  A    between atoms: O_22  and  C_9 
REMARK    5  A    between atoms: C_26  and  O_22 
ROOT
ATOM      1  C   UNL d   1      -2.742   0.923  -0.176  0.00  0.00     0.075 A 
ATOM      2  C   UNL d   1      -2.760  -0.423  -0.098  0.00  0.00     0.133 A 
ATOM      3  C   UNL d   1      -0.222   0.794  -0.022  0.00  0.00     0.031 A 
ATOM      4  C   UNL d   1      -1.423   1.699  -0.224  0.00  0.00     0.102 A 
ATOM      5  C   UNL d   1      -0.358  -0.539   0.092  0.00  0.00     0.066 A 
ATOM      6  O   UNL d   1      -1.587  -1.163   0.006  0.00  0.00    -0.302 OA
ATOM      7  C   UNL d   1       1.152   1.375   0.070  0.00  0.00     0.159 C 
ATOM      8  C   UNL d   1       0.776  -1.502   0.308  0.00  0.00     0.075 C 
ATOM      9  C   UNL d   1       2.151  -0.932  -0.085  0.00  0.00    -0.035 C 
ATOM     10  C   UNL d   1       2.286   0.474   0.516  0.00  0.00     0.092 C 
ATOM     11  O   UNL d   1       1.359   2.560  -0.180  0.00  0.00    -0.293 OA
ATOM     12  C   UNL d   1       2.302  -0.872  -1.620  0.00  0.00     0.015 C 
ATOM     13  C   UNL d   1       3.258  -1.841   0.472  0.00  0.00     0.015 C 
ENDROOT
BRANCH   4  14
ATOM     14  C   UNL d   1      -1.384   2.930   0.693  0.00  0.00    -0.023 A 
ATOM     15  C   UNL d   1      -1.362   2.879   2.097  0.00  0.00     0.043 A 
ATOM     16  C   UNL d   1      -1.270   4.054   2.852  0.00  0.00     0.048 A 
ATOM     17 CL   UNL d   1      -1.433   1.391   2.973  0.00  0.00    -0.084 Cl
ATOM     18  C   UNL d   1      -1.202   5.291   2.215  0.00  0.00     0.035 A 
ATOM     19  C   UNL d   1      -1.228   5.371   0.830  0.00  0.00     0.024 A 
ATOM     20 CL   UNL d   1      -1.086   6.729   3.152  0.00  0.00    -0.084 Cl
ATOM     21  C   UNL d   1      -1.317   4.201   0.076  0.00  0.00     0.011 A 
ENDBRANCH   4  14
BRANCH   1  22
ATOM     22  C   UNL d   1      -3.980   1.743  -0.242  0.00  0.00     0.294 C 
ATOM     23  O   UNL d   1      -4.014   2.896  -0.638  0.00  0.00    -0.259 OA
BRANCH  22  24
ATOM     24  O   UNL d   1      -5.022   1.102   0.365  0.00  0.00    -0.318 OA
BRANCH  24  25
ATOM     25  C   UNL d   1      -6.005   1.954   0.963  0.00  0.00     0.174 C 
ATOM     26  C   UNL d   1      -5.534   2.249   2.375  0.00  0.00     0.034 C 
ENDBRANCH  24  25
ENDBRANCH  22  24
ENDBRANCH   1  22
BRANCH   2  27
ATOM     27  N   UNL d   1      -3.870  -1.237  -0.104  0.00  0.00    -0.282 NA
ATOM     28  H   UNL d   1      -4.710  -0.762   0.228  0.00  0.00     0.126 HD
ATOM     29  H   UNL d   1      -3.695  -2.114   0.378  0.00  0.00     0.126 HD
ENDBRANCH   2  27
TORSDOF 5
