REMARK  4 active torsions:
REMARK  status: ('A' for Active; 'I' for Inactive)
REMARK    1  A    between atoms: C_4  and  C_1 
REMARK    2  A    between atoms: N_2  and  C_3 
REMARK    3  A    between atoms: O_8  and  C_4 
REMARK    4  A    between atoms: C_14  and  O_8 
ROOT
ATOM      1  N   UNL d   1      10.585  -3.368  -2.014  0.00  0.00    -0.191 NA
ATOM      2  C   UNL d   1       9.548  -2.997  -1.653  0.00  0.00     0.099 C 
ATOM      3  C   UNL d   1       5.712  -1.681  -0.452  0.00  0.00     0.079 A 
ATOM      4  C   UNL d   1       8.256  -2.542  -1.223  0.00  0.00     0.044 A 
ATOM      5  C   UNL d   1       7.810  -1.259  -1.566  0.00  0.00     0.025 A 
ATOM      6  C   UNL d   1       6.147  -2.959  -0.098  0.00  0.00     0.039 A 
ATOM      7  C   UNL d   1       6.534  -0.829  -1.187  0.00  0.00     0.039 A 
ATOM      8  C   UNL d   1       7.422  -3.388  -0.480  0.00  0.00     0.025 A 
ENDROOT
BRANCH   3   9
ATOM      9  O   UNL d   1       4.368  -1.375  -0.146  0.00  0.00    -0.275 OA
BRANCH   9  10
ATOM     10  C   UNL d   1       3.992  -0.094   0.225  0.00  0.00     0.301 C 
ATOM     11  O   UNL d   1       4.704   0.882   0.387  0.00  0.00    -0.259 OA
BRANCH  10  12
ATOM     12  C   UNL d   1       2.512  -0.018   0.195  0.00  0.00     0.072 A 
ATOM     13  C   UNL d   1       1.648  -0.974   0.745  0.00  0.00     0.120 A 
ATOM     14  C   UNL d   1       0.257  -0.885   0.564  0.00  0.00     0.060 A 
ATOM     15  C   UNL d   1      -0.269   0.194  -0.143  0.00  0.00     0.036 A 
ATOM     16  C   UNL d   1       0.571   1.184  -0.651  0.00  0.00     0.025 A 
ATOM     17 CL   UNL d   1      -1.968   0.314  -0.377  0.00  0.00    -0.084 Cl
ATOM     18  C   UNL d   1       1.956   1.079  -0.484  0.00  0.00     0.022 A 
BRANCH  13  19
ATOM     19  N   UNL d   1       2.150  -2.043   1.594  0.00  0.00    -0.115 N 
ATOM     20  O   UNL d   1       3.065  -1.766   2.378  0.00  0.00    -0.532 OA
ATOM     21  O   UNL d   1       1.595  -3.146   1.503  0.00  0.00    -0.532 OA
ENDBRANCH  13  19
ENDBRANCH  10  12
ENDBRANCH   9  10
ENDBRANCH   3   9
TORSDOF 4
