REMARK  8 active torsions:
REMARK  status: ('A' for Active; 'I' for Inactive)
REMARK    1  A    between atoms: C_3  and  C_1 
REMARK    2  A    between atoms: C_2  and  C_4 
REMARK    3  A    between atoms: C_6  and  C_5 
REMARK    4  A    between atoms: O_22  and  C_6 
REMARK    5  A    between atoms: C_11  and  C_10 
REMARK    6  A    between atoms: C_13  and  C_11 
REMARK    7  A    between atoms: C_12  and  O_22 
REMARK    8  A    between atoms: O_28  and  C_25 
ROOT
ATOM      1  C   UNL d   1      -2.342  -3.279   1.428  0.00  0.00     0.297 C 
ATOM      2  O   UNL d   1      -2.983  -2.338   1.879  0.00  0.00    -0.259 OA
ENDROOT
BRANCH   1   3
ATOM      3  C   UNL d   1      -1.021  -3.089   0.759  0.00  0.00     0.041 A 
ATOM      4  C   UNL d   1      -0.490  -1.790   0.714  0.00  0.00     0.034 A 
ATOM      5  C   UNL d   1       0.775  -1.539   0.157  0.00  0.00     0.049 A 
ATOM      6  C   UNL d   1       1.503  -2.614  -0.377  0.00  0.00     0.032 A 
ATOM      7  C   UNL d   1       0.989  -3.922  -0.350  0.00  0.00     0.049 A 
ATOM      8  C   UNL d   1      -0.281  -4.149   0.216  0.00  0.00     0.034 A 
BRANCH   5   9
ATOM      9  C   UNL d   1       1.341  -0.137   0.165  0.00  0.00     0.417 C 
ATOM     10  F   UNL d   1       2.594  -0.058  -0.364  0.00  0.00    -0.166 F 
ATOM     11  F   UNL d   1       1.435   0.373   1.423  0.00  0.00    -0.166 F 
ATOM     12  F   UNL d   1       0.579   0.738  -0.544  0.00  0.00    -0.166 F 
ENDBRANCH   5   9
BRANCH   7  13
ATOM     13  C   UNL d   1       1.792  -5.084  -0.894  0.00  0.00     0.417 C 
ATOM     14  F   UNL d   1       3.017  -4.723  -1.366  0.00  0.00    -0.166 F 
ATOM     15  F   UNL d   1       2.019  -6.035   0.051  0.00  0.00    -0.166 F 
ATOM     16  F   UNL d   1       1.162  -5.714  -1.921  0.00  0.00    -0.166 F 
ENDBRANCH   7  13
ENDBRANCH   1   3
BRANCH   1  17
ATOM     17  O   UNL d   1      -2.675  -4.603   1.483  0.00  0.00    -0.287 OA
BRANCH  17  18
ATOM     18  C   UNL d   1      -3.854  -4.913   2.174  0.00  0.00     0.150 C 
ATOM     19  C   UNL d   1      -4.256  -6.179   2.345  0.00  0.00     0.080 C 
BRANCH  19  20
ATOM     20  C   UNL d   1      -5.507  -6.462   3.097  0.00  0.00     0.183 C 
ATOM     21  O   UNL d   1      -6.341  -5.591   3.322  0.00  0.00    -0.288 OA
BRANCH  20  22
ATOM     22  C   UNL d   1      -5.747  -7.866   3.540  0.00  0.00     0.014 A 
ATOM     23  C   UNL d   1      -4.697  -8.740   3.852  0.00  0.00     0.018 A 
ATOM     24  C   UNL d   1      -4.966 -10.054   4.258  0.00  0.00     0.037 A 
ATOM     25  C   UNL d   1      -6.284 -10.500   4.364  0.00  0.00     0.068 A 
ATOM     26  C   UNL d   1      -7.331  -9.615   4.101  0.00  0.00     0.037 A 
ATOM     27  C   UNL d   1      -7.068  -8.305   3.688  0.00  0.00     0.018 A 
BRANCH  25  28
ATOM     28  O   UNL d   1      -6.659 -11.752   4.766  0.00  0.00    -0.356 OA
ATOM     29  C   UNL d   1      -5.756 -12.802   4.431  0.00  0.00     0.210 C 
ENDBRANCH  25  28
ENDBRANCH  20  22
ENDBRANCH  19  20
ENDBRANCH  17  18
ENDBRANCH   1  17
TORSDOF 8
