REMARK  4 active torsions:
REMARK  status: ('A' for Active; 'I' for Inactive)
REMARK    1  A    between atoms: N_2  and  C_1 
REMARK    2  A    between atoms: N_4  and  C_1 
REMARK    3  A    between atoms: C_3  and  N_2 
REMARK    4  A    between atoms: C_6  and  N_4 
ROOT
ATOM      1  C   UNL d   1       1.381   0.974   1.324  0.00  0.00     0.172 C 
ATOM      2  S   UNL d   1       2.811   1.595   0.717  0.00  0.00    -0.041 SA
ENDROOT
BRANCH   1   3
ATOM      3  N   UNL d   1       1.119   0.566   2.608  0.00  0.00    -0.333 N 
ATOM      4  H   UNL d   1       0.612  -0.308   2.648  0.00  0.00     0.168 HD
BRANCH   3   5
ATOM      5  C   UNL d   1       1.795   0.957   3.786  0.00  0.00     0.040 A 
ATOM      6  C   UNL d   1       2.033   0.035   4.823  0.00  0.00    -0.035 A 
ATOM      7  C   UNL d   1       2.611   0.497   6.021  0.00  0.00     0.009 A 
ATOM      8  C   UNL d   1       1.717  -1.430   4.722  0.00  0.00     0.050 C 
ATOM      9  C   UNL d   1       2.968   1.835   6.180  0.00  0.00     0.007 A 
ATOM     10  C   UNL d   1       2.751   2.749   5.149  0.00  0.00    -0.060 A 
ATOM     11  C   UNL d   1       2.149   2.303   3.966  0.00  0.00     0.037 A 
ATOM     12  C   UNL d   1       3.109   4.193   5.326  0.00  0.00     0.048 C 
ENDBRANCH   3   5
ENDBRANCH   1   3
BRANCH   1  13
ATOM     13  N   UNL d   1       0.369   0.772   0.426  0.00  0.00    -0.362 N 
ATOM     14  H   UNL d   1       0.638   1.084  -0.502  0.00  0.00     0.162 HD
BRANCH  13  15
ATOM     15  C   UNL d   1      -1.074   0.813   0.696  0.00  0.00     0.085 C 
ATOM     16  C   UNL d   1      -1.799   0.009  -0.392  0.00  0.00     0.034 C 
ATOM     17  C   UNL d   1      -3.336   0.125  -0.354  0.00  0.00    -0.045 C 
ATOM     18  C   UNL d   1      -3.914  -0.535  -1.621  0.00  0.00     0.015 C 
ATOM     19  C   UNL d   1      -3.913  -0.613   0.869  0.00  0.00     0.015 C 
ATOM     20  C   UNL d   1      -3.745   1.614  -0.336  0.00  0.00     0.013 C 
ATOM     21  C   UNL d   1      -3.073   2.414   0.790  0.00  0.00    -0.016 C 
ATOM     22  C   UNL d   1      -1.547   2.275   0.727  0.00  0.00     0.029 C 
ATOM     23  C   UNL d   1      -3.483   3.886   0.707  0.00  0.00     0.010 C 
ENDBRANCH  13  15
ENDBRANCH   1  13
TORSDOF 4
