REMARK  1 active torsions:
REMARK  status: ('A' for Active; 'I' for Inactive)
REMARK    1  A    between atoms: C_12  and  C_10 
ROOT
ATOM      1  N   UNL d   1      -0.203  -0.263   0.021  0.00  0.00    -0.255 N 
ATOM      2  C   UNL d   1      -0.479   1.066   0.025  0.00  0.00     0.160 A 
ATOM      3  C   UNL d   1      -1.272  -1.132   0.022  0.00  0.00     0.271 A 
ATOM      4  C   UNL d   1      -2.509  -0.299   0.020  0.00  0.00     0.077 A 
ATOM      5  N   UNL d   1       0.581   1.826   0.011  0.00  0.00    -0.334 N 
ATOM      6  HN  UNL d   1       0.628   2.845   0.007  1.00  0.00     0.168 HD
ATOM      7  S   UNL d   1      -2.163   1.413   0.039  0.00  0.00    -0.048 SA
ATOM      8  C   UNL d   1       1.161  -0.403   0.015  0.00  0.00     0.071 A 
ATOM      9  C   UNL d   1       1.622   0.920   0.005  0.00  0.00     0.061 A 
ATOM     10  C   UNL d   1      -3.720  -0.873  -0.004  0.00  0.00     0.036 C 
ATOM     11  O   UNL d   1      -1.143  -2.343   0.017  0.00  0.00    -0.266 OA
ATOM     12  C   UNL d   1       2.018  -1.508   0.016  0.00  0.00     0.032 A 
ATOM     13  C   UNL d   1       3.003   1.161  -0.009  0.00  0.00     0.032 A 
ATOM     14  C   UNL d   1       3.392  -1.241   0.008  0.00  0.00     0.002 A 
ATOM     15  C   UNL d   1       3.879   0.069  -0.005  0.00  0.00     0.002 A 
ENDROOT
BRANCH  10  16
ATOM     16  C   UNL d   1      -4.994  -0.152  -0.024  0.00  0.00    -0.035 A 
ATOM     17  C   UNL d   1      -5.580   0.209  -1.240  0.00  0.00     0.012 A 
ATOM     18  C   UNL d   1      -6.818   0.859  -1.259  0.00  0.00     0.007 A 
ATOM     19  C   UNL d   1      -7.484   1.153  -0.063  0.00  0.00    -0.062 A 
ATOM     20  C   UNL d   1      -6.881   0.811   1.153  0.00  0.00     0.007 A 
ATOM     21  C   UNL d   1      -8.832   1.811  -0.096  0.00  0.00     0.048 C 
ATOM     22  C   UNL d   1      -5.642   0.165   1.173  0.00  0.00     0.012 A 
ENDBRANCH  10  16
TORSDOF 1
