REMARK  6 active torsions:
REMARK  status: ('A' for Active; 'I' for Inactive)
REMARK    1  A    between atoms: N_3  and  C_1 
REMARK    2  A    between atoms: C_7  and  C_1 
REMARK       I    between atoms: C_2  and  N_4 
REMARK       I    between atoms: N_11  and  C_2 
REMARK    3  A    between atoms: N_4  and  N_3 
REMARK    4  A    between atoms: C_14  and  N_11 
REMARK    5  A    between atoms: C_15  and  C_14 
REMARK    6  A    between atoms: C_16  and  C_15 
ROOT
ATOM      1  N   UNL d   1       0.340  -1.225   0.010  0.00  0.00    -0.297 N 
ATOM      2  H   UNL d   1      -0.677  -1.231   0.152  0.00  0.00     0.183 HD
ENDROOT
BRANCH   1   3
ATOM      3  C   UNL d   1       0.867  -0.140  -0.667  0.00  0.00     0.137 C 
ATOM      4  N   UNL d   1       1.998  -0.214  -1.309  0.00  0.00    -0.383 N 
ATOM      5  H   UNL d   1       2.301  -1.192  -1.240  0.00  0.00     0.157 HD
ATOM      6  HN  UNL d   1       2.484   0.546  -1.784  1.00  0.00     0.157 HD
BRANCH   3   7
ATOM      7  C   UNL d   1       0.123   1.170  -0.637  0.00  0.00     0.077 A 
ATOM      8  N   UNL d   1      -1.083   1.169  -0.010  0.00  0.00    -0.363 N 
ATOM      9  C   UNL d   1      -1.742   2.352   0.017  0.00  0.00     0.088 A 
ATOM     10  HN  UNL d   1      -1.469   0.326   0.416  1.00  0.00     0.165 HD
ATOM     11  C   UNL d   1      -1.259   3.530  -0.542  0.00  0.00     0.017 A 
ATOM     12  C   UNL d   1      -0.023   3.498  -1.176  0.00  0.00     0.004 A 
ATOM     13  C   UNL d   1       0.683   2.301  -1.227  0.00  0.00     0.033 A 
ENDBRANCH   3   7
ENDBRANCH   1   3
BRANCH   1  14
ATOM     14  N   UNL d   1       0.948  -2.486  -0.196  0.00  0.00    -0.153 NA
ATOM     15  C   UNL d   1       0.112  -3.591  -0.118  0.00  0.00     0.312 C 
ATOM     16  O   UNL d   1      -1.109  -3.525  -0.078  0.00  0.00    -0.252 OA
ATOM     17  N   UNL d   1       0.835  -4.763  -0.085  0.00  0.00    -0.346 N 
ATOM     18  H   UNL d   1       1.821  -4.717  -0.289  0.00  0.00     0.163 HD
ATOM     19  H   UNL d   1       1.825  -2.576   0.304  0.00  0.00     0.157 HD
BRANCH  17  20
ATOM     20  C   UNL d   1       0.210  -6.073  -0.069  0.00  0.00     0.124 C 
BRANCH  20  21
ATOM     21  C   UNL d   1      -0.074  -6.624  -1.468  0.00  0.00     0.019 C 
BRANCH  21  22
ATOM     22  C   UNL d   1       1.199  -6.867  -2.285  0.00  0.00    -0.003 C 
ATOM     23  C   UNL d   1       0.883  -7.439  -3.660  0.00  0.00     0.005 C 
ENDBRANCH  21  22
ENDBRANCH  20  21
ENDBRANCH  17  20
ENDBRANCH   1  14
TORSDOF 6
