REMARK  8 active torsions:
REMARK  status: ('A' for Active; 'I' for Inactive)
REMARK    1  A    between atoms: C_2  and  C_1 
REMARK       I    between atoms: N_6  and  C_2 
REMARK    2  A    between atoms: C_5  and  C_3 
REMARK    3  A    between atoms: C_4  and  C_7 
REMARK    4  A    between atoms: C_7  and  N_6 
REMARK    5  A    between atoms: O_19  and  C_12 
REMARK    6  A    between atoms: O_21  and  C_13 
REMARK    7  A    between atoms: O_20  and  C_14 
REMARK    8  A    between atoms: C_26  and  O_19 
ROOT
ATOM      1  C   UNL d   1       0.911   2.552   1.068  0.00  0.00     0.255 C 
ATOM      2  N   UNL d   1       0.375   3.700   0.474  0.00  0.00    -0.348 N 
ATOM      3  O   UNL d   1       1.997   2.550   1.642  0.00  0.00    -0.267 OA
ATOM      4  C   UNL d   1      -1.060   3.954   0.420  0.00  0.00     0.153 C 
ENDROOT
BRANCH   1   5
ATOM      5  C   UNL d   1       0.167   1.263   1.092  0.00  0.00     0.062 A 
ATOM      6  C   UNL d   1      -0.580   0.668   0.066  0.00  0.00     0.069 A 
ATOM      7  C   UNL d   1      -1.206  -0.571   0.338  0.00  0.00     0.073 A 
ATOM      8  C   UNL d   1      -1.044  -1.176   1.571  0.00  0.00     0.142 A 
ATOM      9  N   UNL d   1      -0.284  -0.654   2.546  0.00  0.00    -0.346 N 
ATOM     10  C   UNL d   1       0.310   0.536   2.279  0.00  0.00     0.108 A 
ATOM     11  HN  UNL d   1      -0.159  -1.128   3.440  1.00  0.00     0.167 HD
BRANCH   6  12
ATOM     12  C   UNL d   1      -0.788   1.222  -1.315  0.00  0.00     0.418 C 
ATOM     13  F   UNL d   1       0.004   2.249  -1.690  0.00  0.00    -0.166 F 
ATOM     14  F   UNL d   1      -0.612   0.265  -2.273  0.00  0.00    -0.166 F 
ATOM     15  F   UNL d   1      -2.073   1.658  -1.482  0.00  0.00    -0.166 F 
ENDBRANCH   6  12
BRANCH   8  16
ATOM     16  O   UNL d   1      -1.673  -2.389   1.756  0.00  0.00    -0.336 OA
BRANCH  16  17
ATOM     17  C   UNL d   1      -1.748  -2.776   3.130  0.00  0.00     0.173 C 
ATOM     18  C   UNL d   1      -2.414  -4.140   3.204  0.00  0.00     0.034 C 
ENDBRANCH  16  17
ENDBRANCH   8  16
ENDBRANCH   1   5
BRANCH   2  19
ATOM     19  C   UNL d   1       1.222   4.904   0.455  0.00  0.00     0.169 C 
BRANCH  19  20
ATOM     20  C   UNL d   1       2.187   5.156  -0.708  0.00  0.00     0.026 A 
ATOM     21  C   UNL d   1       2.431   6.509  -1.078  0.00  0.00     0.078 A 
ATOM     22  C   UNL d   1       3.499   6.839  -1.921  0.00  0.00     0.037 A 
ATOM     23  C   UNL d   1       4.352   5.851  -2.394  0.00  0.00     0.005 A 
ATOM     24  C   UNL d   1       4.102   4.520  -2.085  0.00  0.00     0.037 A 
ATOM     25  C   UNL d   1       3.022   4.160  -1.264  0.00  0.00     0.078 A 
BRANCH  21  26
ATOM     26  O   UNL d   1       1.572   7.450  -0.558  0.00  0.00    -0.355 OA
ATOM     27  C   UNL d   1       1.905   8.821  -0.744  0.00  0.00     0.210 C 
ENDBRANCH  21  26
BRANCH  25  28
ATOM     28  O   UNL d   1       2.722   2.853  -0.998  0.00  0.00    -0.355 OA
ATOM     29  C   UNL d   1       3.724   1.874  -1.230  0.00  0.00     0.210 C 
ENDBRANCH  25  28
ENDBRANCH  19  20
ENDBRANCH   2  19
TORSDOF 8
