REMARK  3 active torsions:
REMARK  status: ('A' for Active; 'I' for Inactive)
REMARK    1  A    between atoms: C_8  and  C_1 
REMARK    2  A    between atoms: C_11  and  C_4 
REMARK    3  A    between atoms: N_5  and  C_10 
ROOT
ATOM      1  C   UNL d   1       0.344  -0.928  -0.595  0.00  0.00     0.256 A 
ATOM      2  N   UNL d   1       0.790   0.249  -0.986  0.00  0.00    -0.315 N 
ATOM      3  HN  UNL d   1       1.362   0.473  -1.801  1.00  0.00     0.169 HD
ATOM      4  C   UNL d   1       0.295   1.101  -0.025  0.00  0.00     0.138 A 
ATOM      5  N   UNL d   1      -0.448   0.489   0.910  0.00  0.00    -0.242 N 
ATOM      6  HN  UNL d   1      -0.925   0.909   1.708  1.00  0.00     0.196 HD
ATOM      7  O   UNL d   1      -0.417  -0.853   0.537  0.00  0.00    -0.213 OA
ENDROOT
BRANCH   4   8
ATOM      8  C   UNL d   1       0.617   2.524  -0.028  0.00  0.00     0.012 A 
ATOM      9  C   UNL d   1       1.405   3.055  -1.060  0.00  0.00     0.051 A 
ATOM     10  C   UNL d   1       1.765   4.409  -1.043  0.00  0.00     0.103 A 
ATOM     11  C   UNL d   1       1.340   5.247  -0.005  0.00  0.00     0.036 A 
ATOM     12  C   UNL d   1       0.545   4.725   1.016  0.00  0.00     0.003 A 
ATOM     13  C   UNL d   1       0.184   3.373   1.003  0.00  0.00     0.015 A 
BRANCH  10  14
ATOM     14  N   UNL d   1       2.607   4.947  -2.119  0.00  0.00    -0.116 N 
ATOM     15  O   UNL d   1       2.964   4.172  -3.016  0.00  0.00    -0.532 OA
ATOM     16  O   UNL d   1       2.912   6.147  -2.064  0.00  0.00    -0.532 OA
ENDBRANCH  10  14
ENDBRANCH   4   8
BRANCH   1  17
ATOM     17  C   UNL d   1       0.550  -2.288  -1.151  0.00  0.00     0.458 C 
ATOM     18  F   UNL d   1       1.331  -2.284  -2.264  0.00  0.00    -0.163 F 
ATOM     19  F   UNL d   1       1.157  -3.118  -0.259  0.00  0.00    -0.163 F 
ATOM     20  F   UNL d   1      -0.620  -2.884  -1.502  0.00  0.00    -0.163 F 
ENDBRANCH   1  17
TORSDOF 3
