REMARK  5 active torsions:
REMARK  status: ('A' for Active; 'I' for Inactive)
REMARK    1  A    between atoms: C_7  and  N_1 
REMARK    2  A    between atoms: S_8  and  C_2 
REMARK    3  A    between atoms: C_9  and  C_6 
REMARK    4  A    between atoms: C_13  and  S_8 
REMARK    5  A    between atoms: C_10  and  C_13 
REMARK       I    between atoms: N_16  and  C_10 
ROOT
ATOM      1  N   UNL d   1      -0.343  -1.120   0.162  0.00  0.00    -0.300 N 
ATOM      2  C   UNL d   1       0.969  -0.644   0.118  0.00  0.00     0.152 A 
ATOM      3  N   UNL d   1       1.031   0.673   0.170  0.00  0.00    -0.335 N 
ATOM      4  HN  UNL d   1       1.871   1.252   0.161  1.00  0.00     0.168 HD
ATOM      5  C   UNL d   1      -1.113   0.017   0.338  0.00  0.00     0.130 A 
ATOM      6  C   UNL d   1      -0.271   1.101   0.238  0.00  0.00     0.060 A 
ENDROOT
BRANCH   1   7
ATOM      7  C   UNL d   1      -0.858  -2.456   0.080  0.00  0.00     0.047 A 
ATOM      8  C   UNL d   1      -2.095  -2.759  -0.544  0.00  0.00    -0.035 A 
ATOM      9  C   UNL d   1      -3.011  -1.773  -1.222  0.00  0.00     0.050 C 
ATOM     10  C   UNL d   1      -2.532  -4.101  -0.566  0.00  0.00     0.009 A 
ATOM     11  C   UNL d   1      -1.764  -5.127  -0.022  0.00  0.00     0.001 A 
ATOM     12  C   UNL d   1      -0.556  -4.827   0.588  0.00  0.00     0.002 A 
ATOM     13  C   UNL d   1      -0.115  -3.504   0.653  0.00  0.00     0.030 A 
ENDBRANCH   1   7
BRANCH   2  14
ATOM     14  S   UNL d   1       2.383  -1.616  -0.177  0.00  0.00    -0.084 SA
BRANCH  14  15
ATOM     15  C   UNL d   1       3.677  -0.636   0.626  0.00  0.00     0.184 C 
BRANCH  15  16
ATOM     16  C   UNL d   1       3.397  -0.460   2.106  0.00  0.00     0.225 C 
ATOM     17  O   UNL d   1       3.588  -1.329   2.949  0.00  0.00    -0.273 OA
ATOM     18  N   UNL d   1       2.900   0.765   2.461  0.00  0.00    -0.369 N 
ATOM     19  H   UNL d   1       2.327   1.249   1.772  0.00  0.00     0.159 HD
ATOM     20  H   UNL d   1       2.598   0.849   3.423  0.00  0.00     0.159 HD
ENDBRANCH  15  16
ENDBRANCH  14  15
ENDBRANCH   2  14
BRANCH   6  21
ATOM     21  C   UNL d   1      -0.674   2.500   0.195  0.00  0.00    -0.008 A 
ATOM     22  C   UNL d   1      -2.026   2.881   0.206  0.00  0.00     0.015 A 
ATOM     23  C   UNL d   1      -2.393   4.229   0.134  0.00  0.00     0.020 A 
ATOM     24  C   UNL d   1      -1.410   5.209   0.048  0.00  0.00     0.011 A 
ATOM     25  C   UNL d   1      -0.064   4.854   0.023  0.00  0.00     0.020 A 
ATOM     26 BR   UNL d   1      -1.907   7.030  -0.043  0.00  0.00    -0.051 Br
ATOM     27  C   UNL d   1       0.301   3.504   0.094  0.00  0.00     0.015 A 
ENDBRANCH   6  21
TORSDOF 5
