REMARK  3 active torsions:
REMARK  status: ('A' for Active; 'I' for Inactive)
REMARK    1  A    between atoms: C_6  and  C_1 
REMARK    2  A    between atoms: N_12  and  C_2 
REMARK    3  A    between atoms: C_14  and  C_6 
ROOT
ATOM      1  C   UNL d   1       2.482   0.149  -0.015  0.00  0.00     0.085 A 
ATOM      2  C   UNL d   1       1.592   1.213  -0.083  0.00  0.00     0.060 A 
ATOM      3  C   UNL d   1       0.199   0.801  -0.013  0.00  0.00     0.031 A 
ATOM      4  S   UNL d   1       1.653  -1.347   0.026  0.00  0.00    -0.065 SA
ATOM      5  C   UNL d   1       0.135  -0.593   0.019  0.00  0.00     0.088 A 
ATOM      6  N   UNL d   1      -0.967  -1.368   0.044  0.00  0.00    -0.354 N 
ATOM      7  HN  UNL d   1      -0.919  -2.387   0.071  1.00  0.00     0.166 HD
ATOM      8  C   UNL d   1      -1.060   1.479   0.010  0.00  0.00    -0.045 A 
ATOM      9  C   UNL d   1      -2.221   0.679   0.021  0.00  0.00     0.032 A 
ATOM     10  C   UNL d   1      -2.131  -0.704   0.032  0.00  0.00     0.006 A 
ATOM     11  C   UNL d   1      -1.295   2.966   0.023  0.00  0.00     0.049 C 
ATOM     12  C   UNL d   1      -3.386  -1.529   0.028  0.00  0.00     0.068 C 
ENDROOT
BRANCH   1  13
ATOM     13  C   UNL d   1       3.939   0.092  -0.018  0.00  0.00     0.201 C 
ATOM     14  O   UNL d   1       4.582  -0.817  -0.547  0.00  0.00    -0.286 OA
BRANCH  13  15
ATOM     15  C   UNL d   1       4.742   1.167   0.638  0.00  0.00     0.015 A 
ATOM     16  C   UNL d   1       6.005   1.471   0.114  0.00  0.00     0.015 A 
ATOM     17  C   UNL d   1       6.787   2.476   0.693  0.00  0.00     0.001 A 
ATOM     18  C   UNL d   1       6.311   3.176   1.800  0.00  0.00     0.000 A 
ATOM     19  C   UNL d   1       5.062   2.867   2.339  0.00  0.00     0.001 A 
ATOM     20  C   UNL d   1       4.284   1.855   1.770  0.00  0.00     0.015 A 
ENDBRANCH  13  15
ENDBRANCH   1  13
BRANCH   2  21
ATOM     21  N   UNL d   1       1.996   2.500  -0.218  0.00  0.00    -0.397 N 
ATOM     22  H   UNL d   1       2.946   2.741  -0.495  0.00  0.00     0.156 HD
ATOM     23  H   UNL d   1       1.355   3.247  -0.453  0.00  0.00     0.156 HD
ENDBRANCH   2  21
TORSDOF 3
