REMARK  3 active torsions:
REMARK  status: ('A' for Active; 'I' for Inactive)
REMARK    1  A    between atoms: N_7  and  C_6 
REMARK    2  A    between atoms: N_11  and  N_7 
REMARK    3  A    between atoms: C_13  and  N_11 
ROOT
ATOM      1  N   UNL d   1      -2.214   1.304   0.852  0.00  0.00    -0.344 N 
ATOM      2  C   UNL d   1      -3.354   0.827   0.271  0.00  0.00     0.065 A 
ATOM      3  C   UNL d   1      -4.285   1.846   0.298  0.00  0.00    -0.021 A 
ATOM      4  C   UNL d   1      -2.316   2.588   1.261  0.00  0.00     0.045 A 
ATOM      5  C   UNL d   1      -3.618   2.978   0.920  0.00  0.00    -0.001 A 
ATOM      6  C   UNL d   1      -3.161  -0.530  -0.139  0.00  0.00     0.050 C 
ATOM      7  C   UNL d   1      -1.159   0.312   0.926  0.00  0.00     0.136 C 
ATOM      8  C   UNL d   1      -1.671  -0.830   0.035  0.00  0.00     0.080 C 
ATOM      9  C   UNL d   1      -5.676   1.836  -0.216  0.00  0.00     0.052 C 
ATOM     10  C   UNL d   1      -1.402   3.437   1.892  0.00  0.00     0.030 A 
ATOM     11  C   UNL d   1      -4.012   4.297   1.224  0.00  0.00     0.014 A 
ATOM     12  C   UNL d   1      -1.821   4.739   2.177  0.00  0.00     0.002 A 
ATOM     13  C   UNL d   1      -3.104   5.166   1.847  0.00  0.00     0.001 A 
ENDROOT
BRANCH   6  14
ATOM     14  N   UNL d   1      -4.078  -1.328  -0.585  0.00  0.00    -0.319 N 
ATOM     15  HN  UNL d   1      -5.041  -1.024  -0.727  1.00  0.00     0.181 HD
BRANCH  14  16
ATOM     16  N   UNL d   1      -3.667  -2.612  -0.854  0.00  0.00    -0.206 NA
ATOM     17  H   UNL d   1      -3.055  -3.050  -0.167  0.00  0.00     0.153 HD
BRANCH  16  18
ATOM     18  C   UNL d   1      -4.652  -3.534  -1.287  0.00  0.00     0.027 A 
ATOM     19  C   UNL d   1      -5.767  -3.129  -2.030  0.00  0.00     0.025 A 
ATOM     20  C   UNL d   1      -6.698  -4.064  -2.491  0.00  0.00     0.002 A 
ATOM     21  C   UNL d   1      -6.520  -5.420  -2.225  0.00  0.00     0.000 A 
ATOM     22  C   UNL d   1      -5.402  -5.845  -1.513  0.00  0.00     0.002 A 
ATOM     23  C   UNL d   1      -4.466  -4.907  -1.062  0.00  0.00     0.025 A 
ENDBRANCH  16  18
ENDBRANCH  14  16
ENDBRANCH   6  14
TORSDOF 3
