REMARK  2 active torsions:
REMARK  status: ('A' for Active; 'I' for Inactive)
REMARK    1  A    between atoms: C_15  and  C_8 
REMARK    2  A    between atoms: O_24  and  C_21 
ROOT
ATOM      1  C   UNL d   1      -1.259   0.646  -0.059  0.00  0.00     0.120 C 
ATOM      2  C   UNL d   1      -1.311  -0.701  -0.053  0.00  0.00     0.067 C 
ATOM      3  C   UNL d   1      -2.629  -1.373  -0.125  0.00  0.00     0.258 C 
ATOM      4  C   UNL d   1       1.214  -0.725  -0.092  0.00  0.00     0.024 C 
ATOM      5  N   UNL d   1      -2.421   1.366  -0.074  0.00  0.00    -0.319 N 
ATOM      6  N   UNL d   1      -3.720  -0.552  -0.029  0.00  0.00    -0.299 N 
ATOM      7  C   UNL d   1       1.178   0.624  -0.088  0.00  0.00     0.022 C 
ATOM      8  C   UNL d   1      -0.058  -1.560   0.035  0.00  0.00     0.099 C 
ATOM      9  N   UNL d   1      -0.038   1.283  -0.034  0.00  0.00    -0.345 N 
ATOM     10  C   UNL d   1      -3.663   0.808  -0.035  0.00  0.00     0.180 C 
ATOM     11  C   UNL d   1       2.517  -1.434  -0.239  0.00  0.00     0.159 C 
ATOM     12  C   UNL d   1       2.426   1.474  -0.097  0.00  0.00     0.067 C 
ATOM     13  C   UNL d   1       3.659   0.732   0.461  0.00  0.00    -0.036 C 
ATOM     14  C   UNL d   1       3.793  -0.614  -0.268  0.00  0.00     0.092 C 
ATOM     15  S   UNL d   1      -5.034   1.746   0.002  0.00  0.00    -0.040 SA
ATOM     16  O   UNL d   1      -2.749  -2.582  -0.285  0.00  0.00    -0.267 OA
ATOM     17  O   UNL d   1       2.552  -2.649  -0.422  0.00  0.00    -0.293 OA
ATOM     18  C   UNL d   1       3.531   0.516   1.985  0.00  0.00     0.015 C 
ATOM     19  C   UNL d   1       4.921   1.575   0.210  0.00  0.00     0.015 C 
ATOM     20  H   UNL d   1      -2.376   2.377  -0.071  0.00  0.00     0.170 HD
ATOM     21  H   UNL d   1      -4.624  -1.001  -0.048  0.00  0.00     0.171 HD
ATOM     22  H   UNL d   1      -0.035   2.294  -0.096  0.00  0.00     0.167 HD
ENDROOT
BRANCH   8  23
ATOM     23  C   UNL d   1      -0.048  -2.355   1.345  0.00  0.00    -0.044 A 
ATOM     24  C   UNL d   1      -0.030  -3.757   1.317  0.00  0.00     0.011 A 
ATOM     25  C   UNL d   1      -0.031  -4.497   2.504  0.00  0.00     0.037 A 
ATOM     26  C   UNL d   1      -0.050  -3.846   3.735  0.00  0.00     0.068 A 
ATOM     27  C   UNL d   1      -0.044  -2.450   3.774  0.00  0.00     0.037 A 
ATOM     28  C   UNL d   1      -0.053  -1.708   2.592  0.00  0.00     0.011 A 
BRANCH  26  29
ATOM     29  O   UNL d   1      -0.027  -4.460   4.957  0.00  0.00    -0.356 OA
ATOM     30  C   UNL d   1      -0.643  -5.742   5.005  0.00  0.00     0.210 C 
ENDBRANCH  26  29
ENDBRANCH   8  23
TORSDOF 2
