REMARK  4 active torsions:
REMARK  status: ('A' for Active; 'I' for Inactive)
REMARK    1  A    between atoms: C_2  and  C_1 
REMARK       I    between atoms: N_5  and  C_1 
REMARK    2  A    between atoms: C_3  and  C_4 
REMARK    3  A    between atoms: O_10  and  C_3 
REMARK    4  A    between atoms: C_8  and  N_5 
ROOT
ATOM      1  C   UNL d   1       1.055  -0.016   0.083  0.00  0.00     0.245 C 
ATOM      2  N   UNL d   1       0.292   0.946  -0.546  0.00  0.00    -0.324 N 
ATOM      3  O   UNL d   1       0.651  -0.963   0.745  0.00  0.00    -0.268 OA
ATOM      4  H   UNL d   1       0.760   1.585  -1.175  0.00  0.00     0.169 HD
ENDROOT
BRANCH   2   5
ATOM      5  C   UNL d   1      -1.103   1.123  -0.410  0.00  0.00     0.035 A 
ATOM      6  C   UNL d   1      -1.875   0.454   0.546  0.00  0.00     0.032 A 
ATOM      7  C   UNL d   1      -3.246   0.703   0.655  0.00  0.00     0.044 A 
ATOM      8  C   UNL d   1      -3.847   1.616  -0.197  0.00  0.00     0.116 A 
ATOM      9  C   UNL d   1      -3.102   2.289  -1.157  0.00  0.00     0.044 A 
ATOM     10  F   UNL d   1      -5.160   1.856  -0.090  0.00  0.00    -0.206 F 
ATOM     11  C   UNL d   1      -1.728   2.049  -1.259  0.00  0.00     0.032 A 
ENDBRANCH   2   5
BRANCH   1  12
ATOM     12  C   UNL d   1       2.512   0.182  -0.124  0.00  0.00     0.081 C 
ATOM     13  C   UNL d   1       3.357  -0.687   0.452  0.00  0.00     0.086 C 
BRANCH  13  14
ATOM     14  C   UNL d   1       4.804  -0.483   0.311  0.00  0.00     0.165 C 
ATOM     15  O   UNL d   1       5.308   0.428  -0.325  0.00  0.00    -0.647 OA
BRANCH  14  16
ATOM     16  O   UNL d   1       5.516  -1.414   0.973  0.00  0.00    -0.773 OA
ATOM     17  H   UNL d   1       4.996  -2.086   1.451  0.00  0.00     0.167 HD
ENDBRANCH  14  16
ENDBRANCH  13  14
ENDBRANCH   1  12
TORSDOF 4
