REMARK  2 active torsions:
REMARK  status: ('A' for Active; 'I' for Inactive)
REMARK    1  A    between atoms: C_2  and  C_1 
REMARK       I    between atoms: N_3  and  C_1 
REMARK    2  A    between atoms: C_7  and  N_3 
ROOT
ATOM      1  C   UNL d   1       0.878  -0.188   0.026  0.00  0.00     0.258 C 
ATOM      2  N   UNL d   1       0.220  -0.764  -1.080  0.00  0.00    -0.347 N 
ATOM      3  O   UNL d   1       2.033  -0.477   0.336  0.00  0.00    -0.267 OA
ATOM      4  C   UNL d   1      -1.161  -0.456  -1.442  0.00  0.00     0.153 C 
ENDROOT
BRANCH   1   5
ATOM      5  C   UNL d   1       0.203   0.812   0.879  0.00  0.00     0.092 A 
ATOM      6  C   UNL d   1       0.776   2.069   1.114  0.00  0.00     0.052 A 
ATOM      7 CL   UNL d   1       2.249   2.590   0.372  0.00  0.00    -0.083 Cl
ATOM      8  C   UNL d   1       0.136   2.986   1.959  0.00  0.00     0.025 A 
ATOM      9  C   UNL d   1      -1.077   2.662   2.566  0.00  0.00     0.005 A 
ATOM     10  C   UNL d   1      -1.638   1.406   2.354  0.00  0.00     0.043 A 
ATOM     11  C   UNL d   1      -0.984   0.483   1.538  0.00  0.00     0.133 A 
ATOM     12  F   UNL d   1      -1.544  -0.727   1.387  0.00  0.00    -0.205 F 
ENDBRANCH   1   5
BRANCH   2  13
ATOM     13  C   UNL d   1       0.973  -1.801  -1.835  0.00  0.00     0.087 C 
ATOM     14  C   UNL d   1       0.448  -2.156  -3.244  0.00  0.00     0.025 C 
ATOM     15  C   UNL d   1      -0.725  -3.139  -3.259  0.00  0.00     0.002 C 
ATOM     16  C   UNL d   1      -0.462  -4.372  -2.403  0.00  0.00     0.000 C 
ATOM     17  C   UNL d   1      -0.026  -3.998  -0.993  0.00  0.00     0.002 C 
ATOM     18  C   UNL d   1       1.197  -3.089  -1.018  0.00  0.00     0.025 C 
ENDBRANCH   2  13
TORSDOF 2
