REMARK  5 active torsions:
REMARK  status: ('A' for Active; 'I' for Inactive)
REMARK    1  A    between atoms: N_4  and  C_1 
REMARK    2  A    between atoms: N_6  and  C_1 
REMARK    3  A    between atoms: N_2  and  N_6 
REMARK    4  A    between atoms: C_8  and  N_4 
REMARK    5  A    between atoms: C_9  and  C_7 
ROOT
ATOM      1  N   UNL d   1       2.490  -0.179   0.083  0.00  0.00    -0.276 N 
ATOM      2  H   UNL d   1       3.000  -0.111  -0.793  0.00  0.00     0.189 HD
ENDROOT
BRANCH   1   3
ATOM      3  N   UNL d   1       3.167  -0.190   1.270  0.00  0.00    -0.309 N 
ATOM      4  C   UNL d   1       4.455  -0.143   1.133  0.00  0.00     0.118 C 
ATOM      5  HN  UNL d   1       2.702  -0.231   2.177  1.00  0.00     0.186 HD
BRANCH   4   6
ATOM      6  C   UNL d   1       5.378  -0.060   2.280  0.00  0.00    -0.019 A 
ATOM      7  C   UNL d   1       4.895  -0.042   3.591  0.00  0.00     0.013 A 
ATOM      8  C   UNL d   1       5.789   0.079   4.655  0.00  0.00     0.001 A 
ATOM      9  C   UNL d   1       7.159   0.184   4.409  0.00  0.00     0.000 A 
ATOM     10  C   UNL d   1       7.641   0.164   3.100  0.00  0.00     0.001 A 
ATOM     11  C   UNL d   1       6.751   0.041   2.032  0.00  0.00     0.013 A 
ENDBRANCH   4   6
ENDBRANCH   1   3
BRANCH   1  12
ATOM     12  C   UNL d   1       1.130   0.030   0.008  0.00  0.00     0.191 C 
ATOM     13  S   UNL d   1       0.479   0.268  -1.516  0.00  0.00    -0.039 SA
BRANCH  12  14
ATOM     14  N   UNL d   1       0.481  -0.034   1.220  0.00  0.00    -0.332 N 
ATOM     15  H   UNL d   1       0.993  -0.591   1.897  0.00  0.00     0.168 HD
BRANCH  14  16
ATOM     16  C   UNL d   1      -0.836   0.350   1.533  0.00  0.00     0.034 A 
ATOM     17  C   UNL d   1      -1.551  -0.395   2.475  0.00  0.00     0.029 A 
ATOM     18  C   UNL d   1      -2.872  -0.054   2.784  0.00  0.00     0.002 A 
ATOM     19  C   UNL d   1      -3.466   1.061   2.195  0.00  0.00     0.000 A 
ATOM     20  C   UNL d   1      -2.737   1.842   1.303  0.00  0.00     0.002 A 
ATOM     21  C   UNL d   1      -1.428   1.486   0.974  0.00  0.00     0.029 A 
ENDBRANCH  14  16
ENDBRANCH  12  14
ENDBRANCH   1  12
TORSDOF 5
