REMARK  3 active torsions:
REMARK  status: ('A' for Active; 'I' for Inactive)
REMARK    1  A    between atoms: C_3  and  C_1 
REMARK    2  A    between atoms: C_6  and  C_2 
REMARK    3  A    between atoms: O_8  and  N_4 
ROOT
ATOM      1  C   UNL d   1      -1.334  -0.906   1.123  0.00  0.00    -0.037 C 
ATOM      2  C   UNL d   1      -2.018  -0.159   0.234  0.00  0.00     0.020 C 
ATOM      3  C   UNL d   1      -1.951  -1.763   2.194  0.00  0.00     0.050 C 
ENDROOT
BRANCH   1   4
ATOM      4  C   UNL d   1       0.175  -0.892   1.122  0.00  0.00     0.034 C 
ATOM      5  N   UNL d   1       0.796  -1.105   2.251  0.00  0.00    -0.273 N 
ATOM      6  HN  UNL d   1       0.324  -1.287   3.137  1.00  0.00     0.193 HD
ATOM      7  C   UNL d   1       0.927  -0.646  -0.174  0.00  0.00     0.070 C 
BRANCH   5   8
ATOM      8  O   UNL d   1       2.186  -1.053   2.100  0.00  0.00    -0.290 OA
ATOM      9  H   UNL d   1       2.499  -1.211   3.011  0.00  0.00     0.244 HD
ENDBRANCH   5   8
ENDBRANCH   1   4
BRANCH   2  10
ATOM     10  C   UNL d   1      -3.479  -0.067   0.177  0.00  0.00    -0.036 A 
ATOM     11  C   UNL d   1      -4.141   0.935   0.896  0.00  0.00     0.013 A 
ATOM     12  C   UNL d   1      -5.534   1.038   0.839  0.00  0.00     0.024 A 
ATOM     13  C   UNL d   1      -6.264   0.140   0.064  0.00  0.00     0.034 A 
ATOM     14  C   UNL d   1      -5.614  -0.866  -0.653  0.00  0.00     0.024 A 
ATOM     15 CL   UNL d   1      -7.977   0.273  -0.013  0.00  0.00    -0.084 Cl
ATOM     16  C   UNL d   1      -4.221  -0.970  -0.594  0.00  0.00     0.013 A 
ENDBRANCH   2  10
TORSDOF 3
