REMARK  2 active torsions:
REMARK  status: ('A' for Active; 'I' for Inactive)
REMARK    1  A    between atoms: C_14  and  N_3 
REMARK    2  A    between atoms: N_8  and  C_6 
ROOT
ATOM      1  C   UNL d   1      -0.375   0.747  -0.011  0.00  0.00     0.071 A 
ATOM      2  C   UNL d   1      -0.258  -0.637  -0.005  0.00  0.00     0.143 A 
ATOM      3  N   UNL d   1      -1.558  -1.147  -0.043  0.00  0.00    -0.239 N 
ATOM      4  N   UNL d   1      -2.481  -0.140  -0.124  0.00  0.00    -0.302 N 
ATOM      5  HN  UNL d   1      -3.496  -0.225  -0.181  1.00  0.00     0.186 HD
ATOM      6  C   UNL d   1       0.800   1.522   0.027  0.00  0.00     0.119 A 
ATOM      7  C   UNL d   1      -1.757   0.975  -0.114  0.00  0.00     0.127 A 
ATOM      8  N   UNL d   1       0.907  -1.317   0.022  0.00  0.00    -0.336 N 
ATOM      9  HN  UNL d   1       0.972  -2.335   0.042  1.00  0.00     0.168 HD
ATOM     10  N   UNL d   1       1.978   0.845   0.013  0.00  0.00    -0.338 N 
ATOM     11  HN  UNL d   1       2.862   1.353  -0.004  1.00  0.00     0.168 HD
ATOM     12  C   UNL d   1       1.968  -0.499   0.019  0.00  0.00     0.183 A 
ENDROOT
BRANCH   3  13
ATOM     13  C   UNL d   1      -2.012  -2.501  -0.009  0.00  0.00     0.058 A 
ATOM     14  C   UNL d   1      -1.130  -3.580   0.111  0.00  0.00     0.031 A 
ATOM     15  C   UNL d   1      -1.620  -4.889   0.149  0.00  0.00     0.002 A 
ATOM     16  C   UNL d   1      -2.992  -5.131   0.068  0.00  0.00     0.000 A 
ATOM     17  C   UNL d   1      -3.878  -4.065  -0.053  0.00  0.00     0.002 A 
ATOM     18  C   UNL d   1      -3.393  -2.757  -0.092  0.00  0.00     0.031 A 
ENDBRANCH   3  13
BRANCH   6  19
ATOM     19  N   UNL d   1       0.826   2.898   0.035  0.00  0.00    -0.366 N 
ATOM     20  C   UNL d   1       1.926   3.612  -0.599  0.00  0.00     0.124 C 
ATOM     21  C   UNL d   1       1.331   4.575  -1.635  0.00  0.00     0.020 C 
ATOM     22  C   UNL d   1       0.242   5.467  -1.032  0.00  0.00     0.003 C 
ATOM     23  C   UNL d   1      -0.812   4.648  -0.282  0.00  0.00     0.020 C 
ATOM     24  C   UNL d   1      -0.152   3.718   0.733  0.00  0.00     0.124 C 
ENDBRANCH   6  19
TORSDOF 2
