REMARK  3 active torsions:
REMARK  status: ('A' for Active; 'I' for Inactive)
REMARK    1  A    between atoms: C_2  and  S_1 
REMARK    2  A    between atoms: N_8  and  S_1 
REMARK    3  A    between atoms: C_3  and  C_7 
ROOT
ATOM      1  C   UNL d   1       0.465   0.563   1.725  0.00  0.00     0.121 A 
ATOM      2  S   UNL d   1      -1.214   0.397   1.990  0.00  0.00    -0.074 SA
ATOM      3  C   UNL d   1      -1.122   1.050   3.563  0.00  0.00     0.033 A 
ATOM      4  C   UNL d   1       1.095   1.067   2.847  0.00  0.00     0.034 A 
ATOM      5  C   UNL d   1       0.178   1.353   3.910  0.00  0.00     0.023 A 
ENDROOT
BRANCH   1   6
ATOM      6  S   UNL d   1       1.069   0.034   0.127  0.00  0.00     0.267 S 
ATOM      7  O   UNL d   1       0.546  -1.307  -0.054  0.00  0.00    -0.200 OA
ATOM      8  O   UNL d   1       2.494   0.280   0.189  0.00  0.00    -0.200 OA
BRANCH   6   9
ATOM      9  N   UNL d   1       0.412   1.047  -1.089  0.00  0.00    -0.306 N 
ATOM     10  C   UNL d   1      -1.029   0.915  -1.384  0.00  0.00     0.135 C 
ATOM     11  C   UNL d   1      -1.295   0.947  -2.887  0.00  0.00     0.021 C 
ATOM     12  C   UNL d   1      -1.381   2.348  -3.481  0.00  0.00     0.002 C 
ATOM     13  C   UNL d   1      -0.103   3.164  -3.345  0.00  0.00     0.002 C 
ATOM     14  C   UNL d   1       0.256   3.465  -1.893  0.00  0.00     0.021 C 
ATOM     15  C   UNL d   1       1.069   2.367  -1.218  0.00  0.00     0.135 C 
ENDBRANCH   6   9
ENDBRANCH   1   6
BRANCH   3  16
ATOM     16  C   UNL d   1      -2.312   1.276   4.450  0.00  0.00     0.056 A 
ATOM     17  N   UNL d   1      -2.191   1.862   5.700  0.00  0.00    -0.353 N 
ATOM     18  C   UNL d   1      -3.383   2.002   6.244  0.00  0.00     0.047 A 
ATOM     19  HN  UNL d   1      -1.311   2.142   6.134  1.00  0.00     0.166 HD
ATOM     20  C   UNL d   1      -3.652   2.654   7.555  0.00  0.00     0.076 C 
ATOM     21  S   UNL d   1      -4.699   1.397   5.320  0.00  0.00    -0.087 SA
ATOM     22  C   UNL d   1      -3.605   0.954   4.083  0.00  0.00     0.082 A 
ENDBRANCH   3  16
TORSDOF 3
