REMARK  7 active torsions:
REMARK  status: ('A' for Active; 'I' for Inactive)
REMARK    1  A    between atoms: C_3  and  N_1 
REMARK       I    between atoms: C_5  and  N_1 
REMARK       I    between atoms: C_6  and  N_2 
REMARK    2  A    between atoms: N_7  and  C_3 
REMARK    3  A    between atoms: C_4  and  N_8 
REMARK    4  A    between atoms: C_16  and  C_5 
REMARK    5  A    between atoms: C_15  and  C_6 
REMARK    6  A    between atoms: C_9  and  N_7 
REMARK    7  A    between atoms: N_8  and  C_10 
ROOT
ATOM      1  C   UNL d   1       2.582   1.268  -1.505  0.00  0.00     0.061 C 
ATOM      2  C   UNL d   1       3.229   0.850  -2.703  0.00  0.00     0.061 C 
ATOM      3  C   UNL d   1       3.277   1.996  -0.540  0.00  0.00     0.032 C 
ATOM      4  C   UNL d   1       4.612   0.957  -2.784  0.00  0.00     0.032 C 
ATOM      5  C   UNL d   1       4.649   2.193  -0.691  0.00  0.00     0.002 C 
ATOM      6  C   UNL d   1       5.320   1.633  -1.780  0.00  0.00     0.002 C 
ENDROOT
BRANCH   1   7
ATOM      7  N   UNL d   1       1.303   0.692  -1.286  0.00  0.00    -0.331 N 
ATOM      8  H   UNL d   1       1.234  -0.216  -1.755  0.00  0.00     0.168 HD
BRANCH   7   9
ATOM      9  C   UNL d   1       0.435   0.774  -0.231  0.00  0.00     0.179 C 
ATOM     10  S   UNL d   1      -0.071   2.158   0.549  0.00  0.00    -0.040 SA
BRANCH   9  11
ATOM     11  N   UNL d   1      -0.067  -0.453   0.184  0.00  0.00    -0.299 N 
ATOM     12  C   UNL d   1       0.412  -1.677  -0.257  0.00  0.00     0.257 C 
ATOM     13  O   UNL d   1       0.823  -1.870  -1.400  0.00  0.00    -0.267 OA
ATOM     14  H   UNL d   1      -0.551  -0.401   1.070  0.00  0.00     0.171 HD
BRANCH  12  15
ATOM     15  C   UNL d   1       0.466  -2.782   0.727  0.00  0.00     0.032 A 
ATOM     16  C   UNL d   1      -0.554  -3.025   1.645  0.00  0.00     0.017 A 
ATOM     17  C   UNL d   1      -0.414  -4.077   2.554  0.00  0.00     0.001 A 
ATOM     18  C   UNL d   1       0.736  -4.872   2.544  0.00  0.00     0.000 A 
ATOM     19  C   UNL d   1       1.750  -4.628   1.620  0.00  0.00     0.001 A 
ATOM     20  C   UNL d   1       1.613  -3.587   0.706  0.00  0.00     0.017 A 
ENDBRANCH  12  15
ENDBRANCH   9  11
ENDBRANCH   7   9
ENDBRANCH   1   7
BRANCH   2  21
ATOM     21  N   UNL d   1       2.363   0.326  -3.693  0.00  0.00    -0.331 N 
ATOM     22  H   UNL d   1       1.388   0.384  -3.416  0.00  0.00     0.168 HD
BRANCH  21  23
ATOM     23  C   UNL d   1       2.427  -0.227  -4.903  0.00  0.00     0.179 C 
ATOM     24  N   UNL d   1       3.477  -0.231  -5.742  0.00  0.00    -0.299 N 
ATOM     25  C   UNL d   1       4.299   0.836  -6.073  0.00  0.00     0.257 C 
ATOM     26  H   UNL d   1       3.262  -0.825  -6.529  0.00  0.00     0.171 HD
ATOM     27  O   UNL d   1       4.305   1.923  -5.506  0.00  0.00    -0.267 OA
ATOM     28  S   UNL d   1       1.044  -1.023  -5.438  0.00  0.00    -0.040 SA
BRANCH  25  29
ATOM     29  C   UNL d   1       5.213   0.621  -7.238  0.00  0.00     0.032 A 
ATOM     30  C   UNL d   1       5.969   1.719  -7.673  0.00  0.00     0.017 A 
ATOM     31  C   UNL d   1       6.861   1.594  -8.737  0.00  0.00     0.001 A 
ATOM     32  C   UNL d   1       7.004   0.370  -9.385  0.00  0.00     0.000 A 
ATOM     33  C   UNL d   1       6.254  -0.729  -8.971  0.00  0.00     0.001 A 
ATOM     34  C   UNL d   1       5.365  -0.611  -7.897  0.00  0.00     0.017 A 
ENDBRANCH  25  29
ENDBRANCH  21  23
ENDBRANCH   2  21
TORSDOF 7
