REMARK  3 active torsions:
REMARK  status: ('A' for Active; 'I' for Inactive)
REMARK    1  A    between atoms: C_6  and  C_1 
REMARK       I    between atoms: N_9  and  C_6 
REMARK    2  A    between atoms: C_13  and  N_9 
REMARK    3  A    between atoms: C_14  and  C_13 
ROOT
ATOM      1  C   UNL d   1      -3.492  -1.152  -0.009  0.00  0.00     0.260 C 
ATOM      2  N   UNL d   1      -4.661  -0.439  -0.175  0.00  0.00    -0.352 N 
ATOM      3  O   UNL d   1      -2.425  -0.570   0.172  0.00  0.00    -0.267 OA
ATOM      4  H   UNL d   1      -5.537  -0.942  -0.221  0.00  0.00     0.163 HD
ENDROOT
BRANCH   1   5
ATOM      5  C   UNL d   1      -3.619  -2.604  -0.061  0.00  0.00     0.096 A 
ATOM      6  S   UNL d   1      -5.194  -3.354  -0.195  0.00  0.00    -0.075 SA
ATOM      7  C   UNL d   1      -4.507  -4.872  -0.182  0.00  0.00     0.058 A 
ATOM      8  S   UNL d   1      -5.144  -6.415  -0.265  0.00  0.00    -0.094 SA
ATOM      9  C   UNL d   1      -3.172  -4.849  -0.085  0.00  0.00     0.012 A 
ATOM     10  C   UNL d   1      -3.547  -7.092  -0.168  0.00  0.00     0.052 A 
ATOM     11  C   UNL d   1      -2.566  -6.115  -0.075  0.00  0.00     0.022 A 
ATOM     12  C   UNL d   1      -2.608  -3.566  -0.013  0.00  0.00     0.068 A 
ATOM     13 CL   UNL d   1      -0.924  -3.282   0.109  0.00  0.00    -0.082 Cl
ENDBRANCH   1   5
BRANCH   2  14
ATOM     14  C   UNL d   1      -4.703   1.000  -0.060  0.00  0.00     0.161 C 
BRANCH  14  15
ATOM     15  C   UNL d   1      -5.844   1.578  -0.855  0.00  0.00    -0.041 A 
ATOM     16  C   UNL d   1      -6.850   2.327  -0.230  0.00  0.00     0.009 A 
ATOM     17  C   UNL d   1      -7.886   2.887  -0.982  0.00  0.00     0.001 A 
ATOM     18  C   UNL d   1      -7.927   2.703  -2.362  0.00  0.00     0.000 A 
ATOM     19  C   UNL d   1      -6.934   1.958  -2.995  0.00  0.00     0.001 A 
ATOM     20  C   UNL d   1      -5.897   1.400  -2.246  0.00  0.00     0.009 A 
ENDBRANCH  14  15
ENDBRANCH   2  14
TORSDOF 3
