REMARK  6 active torsions:
REMARK  status: ('A' for Active; 'I' for Inactive)
REMARK    1  A    between atoms: C_8  and  N_1 
REMARK    2  A    between atoms: S_9  and  C_2 
REMARK    3  A    between atoms: O_23  and  C_3 
REMARK    4  A    between atoms: C_18  and  S_9 
REMARK    5  A    between atoms: C_13  and  C_15 
REMARK    6  A    between atoms: C_15  and  C_18 
ROOT
ATOM      1  S   UNL d   1       0.927  -4.311   0.008  0.00  0.00    -0.085 SA
ENDROOT
BRANCH   1   2
ATOM      2  C   UNL d   1      -0.303  -3.092  -0.060  0.00  0.00     0.165 A 
ATOM      3  N   UNL d   1      -1.662  -3.274  -0.197  0.00  0.00    -0.286 N 
ATOM      4  C   UNL d   1      -2.173  -1.996  -0.306  0.00  0.00     0.240 A 
ATOM      5  N   UNL d   1      -1.215  -1.113  -0.148  0.00  0.00    -0.263 N 
ATOM      6  N   UNL d   1      -0.039  -1.803  -0.006  0.00  0.00    -0.277 N 
ATOM      7  HN  UNL d   1      -1.326  -0.099  -0.134  1.00  0.00     0.190 HD
ATOM      8  HN  UNL d   1       0.884  -1.388   0.121  1.00  0.00     0.189 HD
BRANCH   3   9
ATOM      9  C   UNL d   1      -2.501  -4.463  -0.196  0.00  0.00     0.096 A 
ATOM     10  C   UNL d   1      -2.199  -5.719   0.597  0.00  0.00     0.028 A 
ATOM     11  C   UNL d   1      -2.131  -5.756  -0.892  0.00  0.00     0.028 A 
ENDBRANCH   3   9
BRANCH   4  12
ATOM     12  O   UNL d   1      -3.431  -1.654  -0.549  0.00  0.00    -0.331 OA
ATOM     13  H   UNL d   1      -3.869  -2.380  -1.017  0.00  0.00     0.221 HD
ENDBRANCH   4  12
ENDBRANCH   1   2
BRANCH   1  14
ATOM     14  C   UNL d   1       2.405  -3.245   0.100  0.00  0.00     0.166 C 
BRANCH  14  15
ATOM     15  C   UNL d   1       3.709  -4.023   0.039  0.00  0.00     0.169 C 
ATOM     16  O   UNL d   1       3.773  -5.249  -0.029  0.00  0.00    -0.291 OA
BRANCH  15  17
ATOM     17  C   UNL d   1       4.992  -3.240   0.055  0.00  0.00     0.013 A 
ATOM     18  C   UNL d   1       5.023  -1.844   0.172  0.00  0.00     0.054 A 
ATOM     19  C   UNL d   1       6.247  -1.167   0.159  0.00  0.00     0.103 A 
ATOM     20  O   UNL d   1       6.192   0.201   0.251  0.00  0.00    -0.346 OA
ATOM     21  C   UNL d   1       7.448  -1.874   0.064  0.00  0.00     0.102 A 
ATOM     22  C   UNL d   1       7.434   0.801  -0.138  0.00  0.00     0.202 C 
ATOM     23  C   UNL d   1       8.605   0.086   0.514  0.00  0.00     0.202 C 
ATOM     24  O   UNL d   1       8.680  -1.275   0.071  0.00  0.00    -0.346 OA
ATOM     25  C   UNL d   1       7.426  -3.260  -0.059  0.00  0.00     0.040 A 
ATOM     26  C   UNL d   1       6.204  -3.941  -0.063  0.00  0.00     0.018 A 
ENDBRANCH  15  17
ENDBRANCH  14  15
ENDBRANCH   1  14
TORSDOF 6
