REMARK  5 active torsions:
REMARK  status: ('A' for Active; 'I' for Inactive)
REMARK    1  A    between atoms: C_2  and  S_1 
REMARK    2  A    between atoms: N_7  and  S_1 
REMARK    3  A    between atoms: C_8  and  C_3 
REMARK    4  A    between atoms: O_20  and  C_8 
REMARK    5  A    between atoms: C_9  and  C_14 
REMARK       I    between atoms: N_19  and  C_9 
ROOT
ATOM      1  S   UNL d   1       1.058  -0.078  -0.038  0.00  0.00     0.266 S 
ATOM      2  O   UNL d   1       0.336   0.649   0.984  0.00  0.00    -0.204 OA
ATOM      3  O   UNL d   1       2.506  -0.110  -0.059  0.00  0.00    -0.204 OA
ENDROOT
BRANCH   1   4
ATOM      4  C   UNL d   1       0.614   0.766  -1.567  0.00  0.00     0.186 A 
ATOM      5  C   UNL d   1       0.906   2.055  -1.993  0.00  0.00     0.071 A 
ATOM      6  C   UNL d   1       0.309   2.254  -3.272  0.00  0.00     0.072 A 
ATOM      7  C   UNL d   1      -0.317   1.057  -3.565  0.00  0.00     0.067 A 
ATOM      8  O   UNL d   1      -0.141   0.165  -2.551  0.00  0.00    -0.301 OA
ATOM      9  C   UNL d   1      -1.116   0.582  -4.718  0.00  0.00     0.078 C 
BRANCH   6  10
ATOM     10  C   UNL d   1       0.325   3.442  -4.112  0.00  0.00     0.295 C 
ATOM     11  O   UNL d   1      -0.223   3.512  -5.204  0.00  0.00    -0.259 OA
BRANCH  10  12
ATOM     12  O   UNL d   1       1.017   4.464  -3.527  0.00  0.00    -0.322 OA
ATOM     13  C   UNL d   1       1.056   5.668  -4.294  0.00  0.00     0.213 C 
ENDBRANCH  10  12
ENDBRANCH   6  10
ENDBRANCH   1   4
BRANCH   1  14
ATOM     14  N   UNL d   1       0.473  -1.688  -0.076  0.00  0.00    -0.205 NA
ATOM     15  C   UNL d   1      -1.004  -1.804  -0.046  0.00  0.00     0.108 C 
ATOM     16  C   UNL d   1      -1.409  -3.258   0.188  0.00  0.00     0.029 C 
ATOM     17  C   UNL d   1      -0.817  -4.178  -0.883  0.00  0.00     0.080 C 
ATOM     18  C   UNL d   1       0.707  -4.015  -0.896  0.00  0.00     0.029 C 
ATOM     19  C   UNL d   1       1.133  -2.558  -1.084  0.00  0.00     0.108 C 
BRANCH  17  20
ATOM     20  C   UNL d   1      -1.419  -3.921  -2.262  0.00  0.00     0.219 C 
ATOM     21  O   UNL d   1      -0.766  -3.647  -3.262  0.00  0.00    -0.273 OA
ATOM     22  N   UNL d   1      -2.775  -4.031  -2.344  0.00  0.00    -0.370 N 
ATOM     23  H   UNL d   1      -3.325  -4.500  -1.638  0.00  0.00     0.159 HD
ATOM     24  H   UNL d   1      -3.178  -3.937  -3.269  0.00  0.00     0.159 HD
ENDBRANCH  17  20
ENDBRANCH   1  14
TORSDOF 5
