REMARK  5 active torsions:
REMARK  status: ('A' for Active; 'I' for Inactive)
REMARK    1  A    between atoms: C_8  and  N_1 
REMARK    2  A    between atoms: C_9  and  C_6 
REMARK    3  A    between atoms: N_11  and  C_9 
REMARK       I    between atoms: C_10  and  N_11 
REMARK    4  A    between atoms: C_14  and  C_10 
REMARK    5  A    between atoms: O_15  and  C_14 
ROOT
ATOM      1  N   UNL d   1      -0.070  -1.157   0.030  0.00  0.00    -0.197 N 
ATOM      2  N   UNL d   1       1.212  -0.725   0.174  0.00  0.00    -0.280 N 
ATOM      3  HN  UNL d   1       2.057  -1.275   0.331  1.00  0.00     0.189 HD
ATOM      4  N   UNL d   1      -1.009  -0.182  -0.118  0.00  0.00    -0.282 N 
ATOM      5  HN  UNL d   1      -2.018  -0.281  -0.232  1.00  0.00     0.189 HD
ATOM      6  C   UNL d   1       1.087   0.603   0.057  0.00  0.00     0.069 A 
ATOM      7  C   UNL d   1      -0.278   0.937  -0.076  0.00  0.00     0.049 A 
ATOM      8  C   UNL d   1      -0.902   2.275  -0.173  0.00  0.00     0.072 C 
ENDROOT
BRANCH   6   9
ATOM      9  C   UNL d   1       2.271   1.501   0.066  0.00  0.00     0.183 C 
BRANCH   9  10
ATOM     10  N   UNL d   1       2.492   2.004   1.401  0.00  0.00    -0.354 N 
ATOM     11  C   UNL d   1       2.352   3.333   1.719  0.00  0.00     0.241 C 
ATOM     12  O   UNL d   1       1.938   4.180   0.933  0.00  0.00    -0.271 OA
ATOM     13  H   UNL d   1       2.846   1.366   2.105  0.00  0.00     0.162 HD
BRANCH  11  14
ATOM     14  C   UNL d   1       2.759   3.666   3.155  0.00  0.00     0.269 C 
BRANCH  14  15
ATOM     15  O   UNL d   1       4.035   3.147   3.518  0.00  0.00    -0.387 OA
ATOM     16  C   UNL d   1       5.095   3.820   2.842  0.00  0.00     0.202 C 
ENDBRANCH  14  15
ENDBRANCH  11  14
ENDBRANCH   9  10
ENDBRANCH   6   9
BRANCH   1  17
ATOM     17  C   UNL d   1      -0.399  -2.537   0.013  0.00  0.00     0.074 A 
ATOM     18  C   UNL d   1       0.591  -3.496   0.279  0.00  0.00     0.033 A 
ATOM     19  C   UNL d   1       0.272  -4.853   0.262  0.00  0.00     0.002 A 
ATOM     20  C   UNL d   1      -1.030  -5.260  -0.035  0.00  0.00     0.000 A 
ATOM     21  C   UNL d   1      -2.016  -4.311  -0.307  0.00  0.00     0.002 A 
ATOM     22  C   UNL d   1      -1.707  -2.949  -0.277  0.00  0.00     0.033 A 
ENDBRANCH   1  17
TORSDOF 5
