REMARK  5 active torsions:
REMARK  status: ('A' for Active; 'I' for Inactive)
REMARK    1  A    between atoms: S_2  and  C_1 
REMARK    2  A    between atoms: N_15  and  S_2 
REMARK    3  A    between atoms: C_19  and  N_3 
REMARK    4  A    between atoms: C_9  and  C_16 
REMARK    5  A    between atoms: C_16  and  N_15 
ROOT
ATOM      1  N   UNL d   1      -3.569  -2.410   5.750  0.00  0.00    -0.197 N 
ATOM      2  N   UNL d   1      -2.667  -1.927   4.853  0.00  0.00    -0.280 N 
ATOM      3  HN  UNL d   1      -2.140  -1.054   4.888  1.00  0.00     0.189 HD
ATOM      4  N   UNL d   1      -4.095  -3.635   5.456  0.00  0.00    -0.282 N 
ATOM      5  HN  UNL d   1      -4.725  -4.211   6.013  1.00  0.00     0.189 HD
ATOM      6  C   UNL d   1      -2.640  -2.878   3.917  0.00  0.00     0.065 A 
ATOM      7  C   UNL d   1      -3.572  -3.885   4.248  0.00  0.00     0.049 A 
ATOM      8  C   UNL d   1      -3.980  -5.045   3.423  0.00  0.00     0.072 C 
ENDROOT
BRANCH   6   9
ATOM      9  C   UNL d   1      -1.735  -2.788   2.737  0.00  0.00     0.165 C 
BRANCH   9  10
ATOM     10  N   UNL d   1      -2.546  -2.819   1.508  0.00  0.00    -0.209 NA
ATOM     11  H   UNL d   1      -3.160  -3.621   1.445  0.00  0.00     0.140 HD
BRANCH  10  12
ATOM     12  S   UNL d   1      -1.672  -2.725   0.073  0.00  0.00     0.250 S 
ATOM     13  O   UNL d   1      -2.525  -3.270  -0.949  0.00  0.00    -0.205 OA
ATOM     14  O   UNL d   1      -0.355  -3.273   0.343  0.00  0.00    -0.205 OA
BRANCH  12  15
ATOM     15  C   UNL d   1      -1.497  -1.017  -0.306  0.00  0.00     0.139 A 
ATOM     16  S   UNL d   1       0.084  -0.376  -0.428  0.00  0.00    -0.062 SA
ATOM     17  C   UNL d   1      -0.571   1.180  -0.726  0.00  0.00     0.048 A 
ATOM     18  C   UNL d   1       0.318   2.357  -0.934  0.00  0.00     0.076 C 
ATOM     19  N   UNL d   1      -1.885   1.242  -0.748  0.00  0.00    -0.356 N 
ATOM     20  C   UNL d   1      -2.426  -0.015  -0.525  0.00  0.00     0.036 A 
ATOM     21  HN  UNL d   1      -2.426   2.092  -0.906  1.00  0.00     0.166 HD
ATOM     22  C   UNL d   1      -3.906  -0.144  -0.525  0.00  0.00     0.070 C 
ENDBRANCH  12  15
ENDBRANCH  10  12
ENDBRANCH   9  10
ENDBRANCH   6   9
BRANCH   1  23
ATOM     23  C   UNL d   1      -3.952  -1.646   6.881  0.00  0.00     0.074 A 
ATOM     24  C   UNL d   1      -3.434  -0.350   7.032  0.00  0.00     0.033 A 
ATOM     25  C   UNL d   1      -3.816   0.437   8.117  0.00  0.00     0.002 A 
ATOM     26  C   UNL d   1      -4.689  -0.077   9.072  0.00  0.00     0.000 A 
ATOM     27  C   UNL d   1      -5.193  -1.373   8.937  0.00  0.00     0.002 A 
ATOM     28  C   UNL d   1      -4.841  -2.157   7.833  0.00  0.00     0.033 A 
ENDBRANCH   1  23
TORSDOF 5
