REMARK  1 active torsions:
REMARK  status: ('A' for Active; 'I' for Inactive)
REMARK    1  A    between atoms: O_16  and  C_11 
ROOT
ATOM      1  C   UNL d   1       2.304   2.087  -1.166  0.00  0.00    -0.014 C 
ATOM      2  C   UNL d   1       0.935   2.518  -0.600  0.00  0.00     0.001 C 
ATOM      3  C   UNL d   1      -0.063   1.364  -0.618  0.00  0.00    -0.005 C 
ATOM      4  C   UNL d   1       0.474   0.138   0.175  0.00  0.00    -0.002 C 
ATOM      5  C   UNL d   1      -0.433  -1.079  -0.164  0.00  0.00     0.019 C 
ATOM      6  C   UNL d   1      -1.920  -0.781   0.019  0.00  0.00    -0.079 C 
ATOM      7  C   UNL d   1       2.885   1.063  -0.184  0.00  0.00     0.012 C 
ATOM      8  C   UNL d   1       1.976  -0.171  -0.063  0.00  0.00     0.006 C 
ATOM      9  C   UNL d   1      -1.434   1.732  -0.041  0.00  0.00     0.009 C 
ATOM     10  C   UNL d   1       0.585   3.764  -1.411  0.00  0.00     0.008 C 
ATOM     11  C   UNL d   1       3.030   3.444  -1.265  0.00  0.00     0.126 C 
ATOM     12  C   UNL d   1      -2.432   0.604  -0.306  0.00  0.00     0.034 C 
ATOM     13  C   UNL d   1       1.938   4.428  -1.728  0.00  0.00     0.033 C 
ATOM     14  C   UNL d   1      -2.784  -1.749   0.380  0.00  0.00    -0.024 C 
ATOM     15  C   UNL d   1       2.244   1.478  -2.594  0.00  0.00     0.018 C 
ATOM     16  C   UNL d   1      -0.025  -2.351   0.606  0.00  0.00     0.010 C 
ATOM     17  C   UNL d   1      -2.407  -3.184   0.609  0.00  0.00     0.027 C 
ATOM     18  C   UNL d   1      -0.958  -3.505   0.251  0.00  0.00     0.004 C 
ENDROOT
BRANCH  11  19
ATOM     19  O   UNL d   1       3.564   3.869  -0.016  0.00  0.00    -0.395 OA
ATOM     20  H   UNL d   1       2.832   4.052   0.591  0.00  0.00     0.210 HD
ENDBRANCH  11  19
TORSDOF 1
