REMARK  7 active torsions:
REMARK  status: ('A' for Active; 'I' for Inactive)
REMARK    1  A    between atoms: O_5  and  C_1 
REMARK    2  A    between atoms: C_3  and  C_2 
REMARK    3  A    between atoms: C_6  and  C_3 
REMARK    4  A    between atoms: C_4  and  N_8 
REMARK    5  A    between atoms: C_14  and  O_5 
REMARK    6  A    between atoms: N_8  and  C_15 
REMARK    7  A    between atoms: C_23  and  C_18 
ROOT
ATOM      1  N   UNL d   1       3.762  -2.166  -5.204  0.00  0.00    -0.366 N 
ATOM      2  H   UNL d   1       4.752  -2.089  -5.446  0.00  0.00     0.165 HD
ENDROOT
BRANCH   1   3
ATOM      3  C   UNL d   1       3.007  -2.896  -6.079  0.00  0.00     0.092 C 
ATOM      4  C   UNL d   1       3.349  -3.419  -7.264  0.00  0.00     0.072 C 
BRANCH   4   5
ATOM      5  C   UNL d   1       4.691  -3.251  -7.895  0.00  0.00     0.183 C 
ATOM      6  O   UNL d   1       5.665  -2.857  -7.273  0.00  0.00    -0.288 OA
BRANCH   5   7
ATOM      7  C   UNL d   1       4.793  -3.649  -9.330  0.00  0.00     0.014 A 
ATOM      8  C   UNL d   1       3.732  -3.445 -10.221  0.00  0.00     0.016 A 
ATOM      9  C   UNL d   1       3.825  -3.888 -11.542  0.00  0.00     0.008 A 
ATOM     10  C   UNL d   1       4.985  -4.524 -11.997  0.00  0.00    -0.059 A 
ATOM     11  C   UNL d   1       6.061  -4.693 -11.113  0.00  0.00     0.008 A 
ATOM     12  C   UNL d   1       5.970  -4.250  -9.788  0.00  0.00     0.016 A 
BRANCH  10  13
ATOM     13  C   UNL d   1       5.056  -5.049 -13.410  0.00  0.00     0.034 C 
ATOM     14  C   UNL d   1       4.548  -6.481 -13.506  0.00  0.00     0.010 C 
ENDBRANCH  10  13
ENDBRANCH   5   7
ENDBRANCH   4   5
ENDBRANCH   1   3
BRANCH   1  15
ATOM     15  C   UNL d   1       3.343  -1.553  -4.012  0.00  0.00     0.032 A 
ATOM     16  C   UNL d   1       4.280  -1.301  -3.007  0.00  0.00     0.032 A 
ATOM     17  C   UNL d   1       3.884  -0.797  -1.761  0.00  0.00     0.039 A 
ATOM     18  C   UNL d   1       2.539  -0.540  -1.484  0.00  0.00     0.078 A 
ATOM     19  C   UNL d   1       1.601  -0.732  -2.493  0.00  0.00     0.039 A 
ATOM     20  C   UNL d   1       2.001  -1.257  -3.733  0.00  0.00     0.032 A 
BRANCH  18  21
ATOM     21  O   UNL d   1       2.299  -0.116  -0.213  0.00  0.00    -0.255 OA
BRANCH  21  22
ATOM     22  C   UNL d   1       0.981  -0.173   0.308  0.00  0.00     0.530 C 
ATOM     23  F   UNL d   1       0.239  -1.172  -0.214  0.00  0.00    -0.144 F 
ATOM     24  F   UNL d   1       0.351   1.004   0.104  0.00  0.00    -0.144 F 
ATOM     25  F   UNL d   1       1.061  -0.381   1.643  0.00  0.00    -0.144 F 
ENDBRANCH  21  22
ENDBRANCH  18  21
ENDBRANCH   1  15
TORSDOF 7
