REMARK  2 active torsions:
REMARK  status: ('A' for Active; 'I' for Inactive)
REMARK    1  A    between atoms: C_11  and  C_2 
REMARK    2  A    between atoms: C_3  and  C_10 
ROOT
ATOM      1  C   UNL d   1      -0.249   0.533   0.558  0.00  0.00     0.150 A 
ATOM      2  C   UNL d   1       1.037   0.555   0.058  0.00  0.00     0.124 A 
ATOM      3  N   UNL d   1      -0.821  -0.706   0.374  0.00  0.00    -0.336 N 
ATOM      4  HN  UNL d   1      -1.755  -1.019   0.640  1.00  0.00     0.168 HD
ATOM      5  C   UNL d   1      -0.959   1.600   1.182  0.00  0.00     0.120 C 
ATOM      6  C   UNL d   1       0.129  -1.387  -0.226  0.00  0.00     0.235 A 
ATOM      7  N   UNL d   1      -1.498   2.493   1.696  0.00  0.00    -0.190 NA
ATOM      8  O   UNL d   1       1.277  -0.695  -0.463  0.00  0.00    -0.302 OA
ENDROOT
BRANCH   2   9
ATOM      9  C   UNL d   1       2.137   1.505  -0.014  0.00  0.00     0.001 A 
ATOM     10  C   UNL d   1       2.311   2.486   0.971  0.00  0.00     0.015 A 
ATOM     11  C   UNL d   1       3.395   3.369   0.919  0.00  0.00     0.017 A 
ATOM     12  C   UNL d   1       4.330   3.294  -0.122  0.00  0.00     0.048 A 
ATOM     13  C   UNL d   1       4.147   2.329  -1.121  0.00  0.00     0.017 A 
ATOM     14  C   UNL d   1       3.064   1.445  -1.065  0.00  0.00     0.015 A 
BRANCH  12  15
ATOM     15  C   UNL d   1       5.515   4.229  -0.141  0.00  0.00     0.417 C 
ATOM     16  F   UNL d   1       6.352   4.027  -1.196  0.00  0.00    -0.166 F 
ATOM     17  F   UNL d   1       5.146   5.538  -0.200  0.00  0.00    -0.166 F 
ATOM     18  F   UNL d   1       6.287   4.107   0.975  0.00  0.00    -0.166 F 
ENDBRANCH  12  15
ENDBRANCH   2   9
TORSDOF 2
