REMARK  7 active torsions:
REMARK  status: ('A' for Active; 'I' for Inactive)
REMARK    1  A    between atoms: O_9  and  C_3 
REMARK    2  A    between atoms: O_10  and  C_4 
REMARK    3  A    between atoms: C_11  and  C_5 
REMARK    4  A    between atoms: C_12  and  C_8 
REMARK    5  A    between atoms: C_15  and  C_11 
REMARK    6  A    between atoms: O_13  and  C_12 
REMARK    7  A    between atoms: C_16  and  C_15 
ROOT
ATOM      1  N   UNL d   1      -0.570   1.312   0.053  0.00  0.00    -0.302 N 
ATOM      2  HN  UNL d   1      -1.018   2.228   0.059  1.00  0.00     0.171 HD
ATOM      3  C   UNL d   1      -1.254   0.160   0.038  0.00  0.00     0.151 A 
ATOM      4  C   UNL d   1       0.747   1.149   0.061  0.00  0.00     0.223 A 
ATOM      5  C   UNL d   1      -0.720  -1.116  -0.005  0.00  0.00     0.018 A 
ATOM      6  N   UNL d   1       1.419   0.005   0.071  0.00  0.00    -0.323 N 
ATOM      7  HN  UNL d   1       2.438  -0.019   0.098  1.00  0.00     0.169 HD
ATOM      8  C   UNL d   1       0.675  -1.131   0.043  0.00  0.00     0.046 A 
ENDROOT
BRANCH   5   9
ATOM      9  C   UNL d   1      -1.534  -2.387  -0.011  0.00  0.00     0.045 C 
BRANCH   9  10
ATOM     10  C   UNL d   1      -2.918  -2.398  -0.678  0.00  0.00     0.004 C 
BRANCH  10  11
ATOM     11  C   UNL d   1      -2.875  -2.063  -2.170  0.00  0.00    -0.004 C 
ATOM     12  C   UNL d   1      -4.270  -2.066  -2.776  0.00  0.00     0.005 C 
ENDBRANCH  10  11
ENDBRANCH   9  10
ENDBRANCH   5   9
BRANCH   3  13
ATOM     13  O   UNL d   1      -2.592   0.376   0.080  0.00  0.00    -0.346 OA
ATOM     14  H   UNL d   1      -2.623   1.348   0.069  0.00  0.00     0.219 HD
ENDBRANCH   3  13
BRANCH   8  15
ATOM     15  C   UNL d   1       1.492  -2.404   0.009  0.00  0.00     0.224 C 
BRANCH  15  16
ATOM     16  O   UNL d   1       1.677  -2.899  -1.322  0.00  0.00    -0.390 OA
ATOM     17  C   UNL d   1       2.547  -2.073  -2.092  0.00  0.00     0.201 C 
ENDBRANCH  15  16
ENDBRANCH   8  15
BRANCH   4  18
ATOM     18  O   UNL d   1       1.469   2.299   0.044  0.00  0.00    -0.332 OA
ATOM     19  H   UNL d   1       0.743   2.941   0.018  0.00  0.00     0.221 HD
ENDBRANCH   4  18
TORSDOF 7
