REMARK  4 active torsions:
REMARK  status: ('A' for Active; 'I' for Inactive)
REMARK    1  A    between atoms: C_2  and  C_1 
REMARK       I    between atoms: N_3  and  C_1 
REMARK       I    between atoms: C_4  and  N_3 
REMARK       I    between atoms: N_8  and  C_4 
REMARK    2  A    between atoms: C_5  and  C_6 
REMARK    3  A    between atoms: C_7  and  N_8 
REMARK    4  A    between atoms: O_21  and  C_9 
ROOT
ATOM      1  C   UNL d   1       0.735  -0.158  -0.439  0.00  0.00     0.264 C 
ATOM      2  N   UNL d   1      -0.293   0.271  -1.266  0.00  0.00    -0.275 N 
ATOM      3  C   UNL d   1      -0.242   0.972  -2.440  0.00  0.00     0.327 C 
ATOM      4  N   UNL d   1       0.826   0.752  -3.266  0.00  0.00    -0.303 N 
ATOM      5  O   UNL d   1       1.878  -0.409  -0.792  0.00  0.00    -0.267 OA
ATOM      6  O   UNL d   1      -1.207   1.696  -2.685  0.00  0.00    -0.247 OA
ATOM      7  H   UNL d   1      -1.190   0.455  -0.839  0.00  0.00     0.173 HD
ATOM      8  H   UNL d   1       1.254  -0.161  -3.131  0.00  0.00     0.171 HD
ENDROOT
BRANCH   1   9
ATOM      9  C   UNL d   1       0.261  -0.401   0.955  0.00  0.00     0.098 A 
ATOM     10  C   UNL d   1      -0.355   0.621   1.704  0.00  0.00     0.069 A 
ATOM     11  C   UNL d   1      -1.045   0.275   2.875  0.00  0.00     0.034 A 
ATOM     12  C   UNL d   1      -1.046  -1.044   3.281  0.00  0.00     0.091 A 
ATOM     13  N   UNL d   1      -0.390  -2.019   2.624  0.00  0.00    -0.346 N 
ATOM     14  C   UNL d   1       0.262  -1.689   1.480  0.00  0.00     0.158 A 
ATOM     15  HN  UNL d   1      -0.383  -2.977   2.975  1.00  0.00     0.167 HD
BRANCH  10  16
ATOM     16  C   UNL d   1      -0.327   2.059   1.265  0.00  0.00     0.418 C 
ATOM     17  F   UNL d   1       0.854   2.431   0.714  0.00  0.00    -0.166 F 
ATOM     18  F   UNL d   1      -1.289   2.306   0.339  0.00  0.00    -0.166 F 
ATOM     19  F   UNL d   1      -0.557   2.928   2.285  0.00  0.00    -0.166 F 
ENDBRANCH  10  16
BRANCH  14  20
ATOM     20  O   UNL d   1       0.881  -2.701   0.781  0.00  0.00    -0.340 OA
ATOM     21  C   UNL d   1       1.131  -3.853   1.586  0.00  0.00     0.211 C 
ENDBRANCH  14  20
ENDBRANCH   1   9
BRANCH   4  22
ATOM     22  C   UNL d   1       0.715   1.208  -4.607  0.00  0.00     0.114 A 
ATOM     23  C   UNL d   1       0.426   2.542  -4.921  0.00  0.00     0.146 A 
ATOM     24  F   UNL d   1       0.464   3.489  -3.972  0.00  0.00    -0.204 F 
ATOM     25  C   UNL d   1       0.105   2.922  -6.223  0.00  0.00     0.045 A 
ATOM     26  C   UNL d   1       0.075   1.965  -7.237  0.00  0.00     0.006 A 
ATOM     27  C   UNL d   1       0.417   0.642  -6.950  0.00  0.00     0.045 A 
ATOM     28  C   UNL d   1       0.756   0.278  -5.646  0.00  0.00     0.146 A 
ATOM     29  F   UNL d   1       1.023  -1.009  -5.379  0.00  0.00    -0.204 F 
ENDBRANCH   4  22
TORSDOF 4
