REMARK  4 active torsions:
REMARK  status: ('A' for Active; 'I' for Inactive)
REMARK    1  A    between atoms: C_6  and  C_1 
REMARK    2  A    between atoms: C_16  and  C_5 
REMARK       I    between atoms: C_7  and  N_10 
REMARK    3  A    between atoms: C_14  and  C_7 
REMARK    4  A    between atoms: N_10  and  C_16 
ROOT
ATOM      1  C   UNL d   1       0.242  -1.176  -0.079  0.00  0.00     0.091 A 
ATOM      2  N   UNL d   1       1.446  -0.626  -0.070  0.00  0.00    -0.351 N 
ATOM      3  HN  UNL d   1       2.324  -1.144  -0.099  1.00  0.00     0.166 HD
ATOM      4  S   UNL d   1      -1.063  -0.051  -0.012  0.00  0.00    -0.081 SA
ATOM      5  C   UNL d   1       1.342   0.767  -0.014  0.00  0.00     0.034 A 
ATOM      6  C   UNL d   1       0.045   1.242   0.032  0.00  0.00     0.078 A 
ENDROOT
BRANCH   5   7
ATOM      7  C   UNL d   1       2.558   1.639  -0.004  0.00  0.00     0.180 C 
BRANCH   7   8
ATOM      8  N   UNL d   1       3.764   0.855  -0.064  0.00  0.00    -0.351 N 
ATOM      9  C   UNL d   1       4.985   1.490  -0.049  0.00  0.00     0.251 C 
ATOM     10  O   UNL d   1       5.094   2.710   0.026  0.00  0.00    -0.268 OA
ATOM     11  H   UNL d   1       3.668  -0.149   0.028  0.00  0.00     0.163 HD
BRANCH   9  12
ATOM     12  C   UNL d   1       6.201   0.637  -0.112  0.00  0.00     0.032 A 
ATOM     13  C   UNL d   1       6.202  -0.615  -0.737  0.00  0.00     0.017 A 
ATOM     14  C   UNL d   1       7.388  -1.350  -0.821  0.00  0.00     0.001 A 
ATOM     15  C   UNL d   1       8.570  -0.839  -0.284  0.00  0.00     0.000 A 
ATOM     16  C   UNL d   1       8.574   0.408   0.339  0.00  0.00     0.001 A 
ATOM     17  C   UNL d   1       7.393   1.147   0.421  0.00  0.00     0.017 A 
ENDBRANCH   9  12
ENDBRANCH   7   8
ENDBRANCH   5   7
BRANCH   1  18
ATOM     18  C   UNL d   1       0.051  -2.610  -0.136  0.00  0.00     0.038 A 
ATOM     19  S   UNL d   1      -1.499  -3.357  -0.205  0.00  0.00    -0.099 SA
ATOM     20  C   UNL d   1      -0.835  -4.928  -0.241  0.00  0.00     0.050 A 
ATOM     21  C   UNL d   1       0.541  -4.904  -0.205  0.00  0.00     0.008 A 
ATOM     22  C   UNL d   1       1.049  -3.572  -0.147  0.00  0.00     0.022 A 
ENDBRANCH   1  18
TORSDOF 4
