REMARK  0 active torsions:
REMARK  status: ('A' for Active; 'I' for Inactive)
ROOT
ATOM      1  N   UNL d   1      -0.914   0.474  -0.027  0.00  0.00    -0.248 N 
ATOM      2  C   UNL d   1      -1.767  -0.567   0.111  0.00  0.00     0.117 A 
ATOM      3  C   UNL d   1      -1.717   1.592  -0.173  0.00  0.00     0.349 A 
ATOM      4  N   UNL d   1      -3.032  -0.258   0.060  0.00  0.00    -0.282 N 
ATOM      5  HN  UNL d   1      -3.836  -0.880   0.145  1.00  0.00     0.188 HD
ATOM      6  N   UNL d   1      -3.029   1.097  -0.135  0.00  0.00    -0.245 N 
ATOM      7  C   UNL d   1       0.494   0.395  -0.015  0.00  0.00     0.062 A 
ATOM      8  S   UNL d   1       0.217  -2.362  -0.468  0.00  0.00    -0.120 SA
ATOM      9  C   UNL d   1      -1.292  -1.950   0.424  0.00  0.00     0.158 C 
ATOM     10  C   UNL d   1       1.130  -0.856  -0.156  0.00  0.00     0.028 A 
ATOM     11  O   UNL d   1      -1.400   2.762  -0.318  0.00  0.00    -0.244 OA
ATOM     12  C   UNL d   1      -4.244   1.859  -0.233  0.00  0.00     0.183 C 
ATOM     13  C   UNL d   1       1.295   1.538   0.126  0.00  0.00     0.031 A 
ATOM     14  C   UNL d   1       2.528  -0.947  -0.134  0.00  0.00     0.021 A 
ATOM     15  C   UNL d   1       2.689   1.437   0.160  0.00  0.00     0.002 A 
ATOM     16  C   UNL d   1       3.305   0.196   0.037  0.00  0.00     0.002 A 
ENDROOT
TORSDOF 0
