REMARK  2 active torsions:
REMARK  status: ('A' for Active; 'I' for Inactive)
REMARK    1  A    between atoms: C_8  and  N_1 
REMARK    2  A    between atoms: N_6  and  C_9 
ROOT
ATOM      1  C   UNL d   1       2.110  -1.399  -0.012  0.00  0.00     0.056 A 
ATOM      2  C   UNL d   1       4.450  -2.974  -0.145  0.00  0.00     0.038 A 
ATOM      3  C   UNL d   1       2.280  -2.330  -1.044  0.00  0.00     0.034 A 
ATOM      4  C   UNL d   1       3.098  -1.279   0.968  0.00  0.00     0.034 A 
ATOM      5  C   UNL d   1       3.450  -3.097  -1.122  0.00  0.00     0.032 A 
ATOM      6  C   UNL d   1       4.256  -2.064   0.904  0.00  0.00     0.032 A 
ENDROOT
BRANCH   1   7
ATOM      7  N   UNL d   1       0.910  -0.638   0.051  0.00  0.00    -0.261 N 
ATOM      8  N   UNL d   1      -0.234  -1.155  -0.473  0.00  0.00    -0.298 N 
ATOM      9  C   UNL d   1      -1.209  -0.358  -0.031  0.00  0.00     0.024 C 
ATOM     10  HN  UNL d   1      -0.326  -1.974  -1.074  1.00  0.00     0.187 HD
ATOM     11  C   UNL d   1      -2.632  -0.682  -0.293  0.00  0.00     0.070 C 
ATOM     12  C   UNL d   1      -0.695   0.765   0.639  0.00  0.00     0.052 C 
ATOM     13  C   UNL d   1       0.676   0.608   0.620  0.00  0.00     0.032 C 
ATOM     14  C   UNL d   1       1.715   1.586   1.034  0.00  0.00     0.070 C 
ENDBRANCH   1   7
BRANCH   2  15
ATOM     15  N   UNL d   1       5.636  -3.773  -0.208  0.00  0.00    -0.333 N 
ATOM     16  C   UNL d   1       6.643  -3.831   0.740  0.00  0.00     0.096 A 
ATOM     17  C   UNL d   1       7.611  -4.724   0.332  0.00  0.00     0.019 A 
ATOM     18  C   UNL d   1       7.202  -5.235  -0.912  0.00  0.00     0.019 A 
ATOM     19  C   UNL d   1       5.998  -4.641  -1.223  0.00  0.00     0.096 A 
ENDBRANCH   2  15
TORSDOF 2
