REMARK  4 active torsions:
REMARK  status: ('A' for Active; 'I' for Inactive)
REMARK    1  A    between atoms: N_6  and  C_1 
REMARK    2  A    between atoms: C_10  and  C_1 
REMARK    3  A    between atoms: C_9  and  C_3 
REMARK    4  A    between atoms: C_13  and  N_6 
ROOT
ATOM      1  C   UNL d   1       3.338  -3.596  -0.826  0.00  0.00     0.124 C 
ATOM      2  N   UNL d   1       5.925  -3.568  -0.817  0.00  0.00    -0.191 NA
ATOM      3  N   UNL d   1       2.130  -5.807  -1.393  0.00  0.00    -0.191 NA
ATOM      4  C   UNL d   1       4.765  -3.592  -0.828  0.00  0.00     0.110 C 
ATOM      5  C   UNL d   1       2.677  -4.819  -1.127  0.00  0.00     0.110 C 
ATOM      6  C   UNL d   1       2.606  -2.493  -0.557  0.00  0.00     0.036 C 
ENDROOT
BRANCH   6   7
ATOM      7  C   UNL d   1       3.145  -1.166  -0.305  0.00  0.00     0.027 C 
ATOM      8  C   UNL d   1       2.449  -0.060   0.038  0.00  0.00     0.023 C 
BRANCH   8   9
ATOM      9  N   UNL d   1       1.064   0.022   0.147  0.00  0.00    -0.259 NA
ATOM     10  H   UNL d   1       0.607  -0.415  -0.650  0.00  0.00     0.134 HD
BRANCH   9  11
ATOM     11  C   UNL d   1       0.332  -0.329   1.315  0.00  0.00     0.012 A 
ATOM     12  C   UNL d   1       0.927  -0.539   2.564  0.00  0.00     0.024 A 
ATOM     13  C   UNL d   1       0.151  -0.889   3.676  0.00  0.00     0.002 A 
ATOM     14  C   UNL d   1      -1.235  -0.988   3.563  0.00  0.00     0.000 A 
ATOM     15  C   UNL d   1      -1.849  -0.708   2.346  0.00  0.00     0.002 A 
ATOM     16  C   UNL d   1      -1.071  -0.370   1.235  0.00  0.00     0.024 A 
ENDBRANCH   9  11
ENDBRANCH   8   9
BRANCH   8  17
ATOM     17  C   UNL d   1       3.190   1.242   0.141  0.00  0.00    -0.015 A 
ATOM     18  C   UNL d   1       2.556   2.444  -0.215  0.00  0.00     0.014 A 
ATOM     19  C   UNL d   1       3.244   3.663  -0.202  0.00  0.00     0.007 A 
ATOM     20  C   UNL d   1       4.590   3.715   0.169  0.00  0.00    -0.062 A 
ATOM     21  C   UNL d   1       5.229   2.533   0.547  0.00  0.00     0.007 A 
ATOM     22  C   UNL d   1       5.324   5.023   0.164  0.00  0.00     0.048 C 
ATOM     23  C   UNL d   1       4.533   1.318   0.549  0.00  0.00     0.014 A 
ENDBRANCH   8  17
ENDBRANCH   6   7
TORSDOF 4
