REMARK  4 active torsions:
REMARK  status: ('A' for Active; 'I' for Inactive)
REMARK    1  A    between atoms: C_7  and  C_1 
REMARK       I    between atoms: C_8  and  N_4 
REMARK    2  A    between atoms: N_17  and  C_7 
REMARK       I    between atoms: N_16  and  C_8 
REMARK    3  A    between atoms: O_12  and  N_9 
REMARK    4  A    between atoms: C_11  and  O_12 
REMARK       I    between atoms: N_18  and  C_11 
ROOT
ATOM      1  C   UNL d   1       1.965  -3.014   0.117  0.00  0.00     0.107 A 
ATOM      2  N   UNL d   1       2.990  -3.890   0.281  0.00  0.00    -0.286 N 
ATOM      3  HN  UNL d   1       3.963  -3.679   0.500  1.00  0.00     0.188 HD
ATOM      4  N   UNL d   1       2.421  -5.126   0.086  0.00  0.00    -0.215 N 
ATOM      5  C   UNL d   1       0.761  -3.710  -0.159  0.00  0.00     0.060 A 
ATOM      6  C   UNL d   1       1.082  -5.038  -0.209  0.00  0.00     0.143 A 
ATOM      7  C   UNL d   1       3.169  -6.320   0.214  0.00  0.00     0.340 C 
ATOM      8  O   UNL d   1       2.661  -7.399  -0.065  0.00  0.00    -0.245 OA
ATOM      9 BR   UNL d   1      -0.957  -3.018  -0.434  0.00  0.00    -0.047 Br
ATOM     10  N   UNL d   1       4.429  -6.088   0.718  0.00  0.00    -0.346 N 
ATOM     11  C   UNL d   1       5.256  -7.188   1.133  0.00  0.00     0.151 C 
ATOM     12  H   UNL d   1       4.624  -5.143   1.040  0.00  0.00     0.163 HD
ENDROOT
BRANCH   1  13
ATOM     13  C   UNL d   1       2.202  -1.562   0.202  0.00  0.00     0.128 C 
ATOM     14  N   UNL d   1       1.200  -0.756   0.067  0.00  0.00    -0.243 N 
ATOM     15  HN  UNL d   1       0.234  -1.052  -0.070  1.00  0.00     0.196 HD
BRANCH  14  16
ATOM     16  O   UNL d   1       1.626   0.595   0.136  0.00  0.00    -0.180 OA
BRANCH  16  17
ATOM     17  C   UNL d   1       0.556   1.472   0.087  0.00  0.00     0.382 C 
ATOM     18  O   UNL d   1       0.721   2.687   0.093  0.00  0.00    -0.236 OA
ATOM     19  N   UNL d   1      -0.667   0.858   0.040  0.00  0.00    -0.340 N 
ATOM     20  C   UNL d   1      -1.927   1.542   0.014  0.00  0.00     0.151 C 
ATOM     21  H   UNL d   1      -0.612  -0.155   0.047  0.00  0.00     0.164 HD
ENDBRANCH  16  17
ENDBRANCH  14  16
BRANCH  13  22
ATOM     22  N   UNL d   1       3.518  -1.231   0.383  0.00  0.00    -0.285 NA
ATOM     23  H   UNL d   1       4.173  -1.964   0.123  0.00  0.00     0.125 HD
ATOM     24  H   UNL d   1       3.762  -0.304   0.055  0.00  0.00     0.125 HD
ENDBRANCH  13  22
ENDBRANCH   1  13
TORSDOF 4
