REMARK  4 active torsions:
REMARK  status: ('A' for Active; 'I' for Inactive)
REMARK    1  A    between atoms: C_6  and  N_2 
REMARK    2  A    between atoms: C_7  and  C_6 
REMARK       I    between atoms: N_11  and  C_7 
REMARK    3  A    between atoms: C_16  and  N_11 
REMARK    4  A    between atoms: C_18  and  C_12 
ROOT
ATOM      1  C   UNL d   1       2.879  -4.145   0.533  0.00  0.00     0.248 C 
ENDROOT
BRANCH   1   2
ATOM      2  N   UNL d   1       2.631  -5.103   1.605  0.00  0.00    -0.228 N 
ATOM      3  S   UNL d   1       2.295  -4.521   3.150  0.00  0.00     0.269 S 
ATOM      4  C   UNL d   1       2.265  -6.125   3.829  0.00  0.00     0.095 A 
ATOM      5  O   UNL d   1       3.455  -3.831   3.660  0.00  0.00    -0.200 OA
ATOM      6  O   UNL d   1       0.958  -3.995   3.181  0.00  0.00    -0.200 OA
ATOM      7  C   UNL d   1       2.701  -7.059   2.898  0.00  0.00     0.056 A 
ATOM      8  C   UNL d   1       1.773  -6.489   5.067  0.00  0.00     0.026 A 
ATOM      9  C   UNL d   1       2.752  -8.406   3.213  0.00  0.00     0.018 A 
ATOM     10  C   UNL d   1       2.961  -6.472   1.573  0.00  0.00     0.269 C 
ATOM     11  C   UNL d   1       2.289  -8.799   4.472  0.00  0.00     0.001 A 
ATOM     12  C   UNL d   1       1.782  -7.851   5.382  0.00  0.00     0.002 A 
ATOM     13  O   UNL d   1       3.324  -7.085   0.589  0.00  0.00    -0.266 OA
ENDBRANCH   1   2
BRANCH   1  14
ATOM     14  C   UNL d   1       1.712  -3.215   0.260  0.00  0.00     0.241 C 
ATOM     15  N   UNL d   1       0.517  -3.884   0.027  0.00  0.00    -0.326 N 
ATOM     16  H   UNL d   1       0.505  -4.875   0.235  0.00  0.00     0.169 HD
ATOM     17  O   UNL d   1       1.902  -2.002   0.174  0.00  0.00    -0.271 OA
BRANCH  15  18
ATOM     18  C   UNL d   1      -0.660  -3.346  -0.542  0.00  0.00     0.034 A 
ATOM     19  C   UNL d   1      -0.777  -2.017  -0.936  0.00  0.00     0.030 A 
ATOM     20  C   UNL d   1      -1.892  -1.583  -1.658  0.00  0.00     0.010 A 
ATOM     21  C   UNL d   1      -2.922  -2.469  -1.997  0.00  0.00    -0.055 A 
ATOM     22  C   UNL d   1      -2.845  -3.784  -1.519  0.00  0.00     0.010 A 
ATOM     23  C   UNL d   1      -1.725  -4.217  -0.794  0.00  0.00     0.030 A 
BRANCH  21  24
ATOM     24  C   UNL d   1      -4.027  -2.056  -2.954  0.00  0.00     0.010 C 
ATOM     25  C   UNL d   1      -4.763  -0.786  -2.520  0.00  0.00     0.015 C 
ATOM     26  C   UNL d   1      -3.445  -1.891  -4.364  0.00  0.00     0.015 C 
ENDBRANCH  21  24
ENDBRANCH  15  18
ENDBRANCH   1  14
TORSDOF 4
