REMARK  7 active torsions:
REMARK  status: ('A' for Active; 'I' for Inactive)
REMARK    1  A    between atoms: C_2  and  C_1 
REMARK    2  A    between atoms: C_6  and  C_1 
REMARK    3  A    between atoms: C_7  and  C_1 
REMARK    4  A    between atoms: C_3  and  C_6 
REMARK    5  A    between atoms: C_11  and  C_3 
REMARK    6  A    between atoms: C_4  and  C_7 
REMARK    7  A    between atoms: C_10  and  C_4 
ROOT
ATOM      1  C   UNL d   1       0.993   0.169  -0.007  0.00  0.00     0.034 C 
ENDROOT
BRANCH   1   2
ATOM      2  C   UNL d   1       0.594   0.751  -1.374  0.00  0.00    -0.042 A 
ATOM      3  C   UNL d   1      -0.517   1.643  -1.534  0.00  0.00    -0.019 A 
ATOM      4  C   UNL d   1      -0.780   2.180  -2.825  0.00  0.00    -0.025 A 
ATOM      5  C   UNL d   1      -1.391   2.040  -0.492  0.00  0.00     0.013 A 
ATOM      6  C   UNL d   1      -1.838   3.082  -3.023  0.00  0.00     0.012 A 
ATOM      7  C   UNL d   1       0.013   1.817  -3.918  0.00  0.00     0.012 A 
ATOM      8  C   UNL d   1      -2.665   3.462  -1.971  0.00  0.00     0.001 A 
ATOM      9  C   UNL d   1      -2.446   2.935  -0.708  0.00  0.00     0.001 A 
ATOM     10  C   UNL d   1       1.063   0.923  -3.768  0.00  0.00     0.001 A 
ATOM     11  C   UNL d   1       1.347   0.397  -2.513  0.00  0.00     0.008 A 
ENDBRANCH   1   2
BRANCH   1  12
ATOM     12  C   UNL d   1       0.326  -1.188   0.301  0.00  0.00     0.093 C 
BRANCH  12  13
ATOM     13  C   UNL d   1       0.650  -2.276  -0.704  0.00  0.00     0.160 C 
ATOM     14  O   UNL d   1       1.700  -2.919  -0.605  0.00  0.00    -0.292 OA
BRANCH  13  15
ATOM     15  C   UNL d   1      -0.271  -2.542  -1.855  0.00  0.00     0.010 A 
ATOM     16  C   UNL d   1      -1.474  -1.848  -2.035  0.00  0.00     0.015 A 
ATOM     17  C   UNL d   1      -2.244  -2.054  -3.181  0.00  0.00     0.001 A 
ATOM     18  C   UNL d   1      -1.831  -2.969  -4.145  0.00  0.00     0.000 A 
ATOM     19  C   UNL d   1      -0.653  -3.689  -3.961  0.00  0.00     0.001 A 
ATOM     20  C   UNL d   1       0.125  -3.477  -2.820  0.00  0.00     0.015 A 
ENDBRANCH  13  15
ENDBRANCH  12  13
ENDBRANCH   1  12
BRANCH   1  21
ATOM     21  C   UNL d   1       2.524   0.089   0.219  0.00  0.00     0.093 C 
BRANCH  21  22
ATOM     22  C   UNL d   1       3.161   1.469   0.227  0.00  0.00     0.160 C 
ATOM     23  O   UNL d   1       2.578   2.434   0.724  0.00  0.00    -0.292 OA
BRANCH  22  24
ATOM     24  C   UNL d   1       4.546   1.660  -0.306  0.00  0.00     0.010 A 
ATOM     25  C   UNL d   1       5.362   0.602  -0.725  0.00  0.00     0.015 A 
ATOM     26  C   UNL d   1       6.662   0.853  -1.177  0.00  0.00     0.001 A 
ATOM     27  C   UNL d   1       7.158   2.155  -1.205  0.00  0.00     0.000 A 
ATOM     28  C   UNL d   1       6.353   3.214  -0.794  0.00  0.00     0.001 A 
ATOM     29  C   UNL d   1       5.052   2.968  -0.351  0.00  0.00     0.015 A 
ENDBRANCH  22  24
ENDBRANCH  21  22
ENDBRANCH   1  21
TORSDOF 7
