REMARK  6 active torsions:
REMARK  status: ('A' for Active; 'I' for Inactive)
REMARK    1  A    between atoms: C_4  and  C_1 
REMARK       I    between atoms: C_2  and  N_3 
REMARK    2  A    between atoms: C_7  and  C_2 
REMARK    3  A    between atoms: N_3  and  C_17 
REMARK    4  A    between atoms: C_8  and  O_11 
REMARK    5  A    between atoms: O_11  and  C_13 
REMARK    6  A    between atoms: O_22  and  C_19 
ROOT
ATOM      1  N   UNL d   1      -2.389   0.135  -5.094  0.00  0.00    -0.344 N 
ATOM      2  HN  UNL d   1      -2.032   0.586  -5.937  1.00  0.00     0.167 HD
ATOM      3  C   UNL d   1      -2.296   0.724  -3.881  0.00  0.00     0.148 A 
ATOM      4  C   UNL d   1      -3.469  -1.767  -4.023  0.00  0.00     0.050 A 
ATOM      5  C   UNL d   1      -2.981  -1.081  -5.134  0.00  0.00     0.119 A 
ATOM      6  C   UNL d   1      -2.721   0.116  -2.710  0.00  0.00     0.059 A 
ATOM      7  C   UNL d   1      -3.317  -1.146  -2.786  0.00  0.00     0.035 A 
ENDROOT
BRANCH   4   8
ATOM      8  N   UNL d   1      -4.067  -3.031  -4.224  0.00  0.00    -0.322 N 
ATOM      9  C   UNL d   1      -4.617  -3.858  -3.263  0.00  0.00     0.256 C 
ATOM     10  O   UNL d   1      -4.691  -3.628  -2.060  0.00  0.00    -0.267 OA
ATOM     11  H   UNL d   1      -4.032  -3.381  -5.173  0.00  0.00     0.169 HD
BRANCH   9  12
ATOM     12  C   UNL d   1      -5.104  -5.179  -3.764  0.00  0.00     0.035 A 
ATOM     13  C   UNL d   1      -4.989  -6.287  -2.910  0.00  0.00     0.053 A 
ATOM     14  C   UNL d   1      -5.344  -7.559  -3.360  0.00  0.00     0.069 A 
ATOM     15  C   UNL d   1      -5.847  -7.710  -4.654  0.00  0.00     0.037 A 
ATOM     16  C   UNL d   1      -6.006  -6.607  -5.493  0.00  0.00     0.004 A 
ATOM     17  C   UNL d   1      -5.638  -5.338  -5.050  0.00  0.00     0.017 A 
BRANCH  14  18
ATOM     18  O   UNL d   1      -5.237  -8.722  -2.648  0.00  0.00    -0.356 OA
ATOM     19  C   UNL d   1      -4.649  -8.635  -1.355  0.00  0.00     0.210 C 
ENDBRANCH  14  18
ENDBRANCH   9  12
ENDBRANCH   4   8
BRANCH   3  20
ATOM     20  O   UNL d   1      -1.727   1.987  -3.752  0.00  0.00    -0.294 OA
BRANCH  20  21
ATOM     21  C   UNL d   1      -1.654   2.794  -4.866  0.00  0.00     0.078 A 
ATOM     22  C   UNL d   1      -2.678   2.900  -5.811  0.00  0.00     0.053 A 
ATOM     23  C   UNL d   1      -2.530   3.720  -6.938  0.00  0.00     0.050 A 
ATOM     24  C   UNL d   1      -1.371   4.501  -7.061  0.00  0.00     0.016 A 
ATOM     25  C   UNL d   1      -0.373   4.443  -6.086  0.00  0.00     0.004 A 
ATOM     26  C   UNL d   1      -0.513   3.587  -4.992  0.00  0.00     0.037 A 
BRANCH  23  27
ATOM     27  C   UNL d   1      -3.583   3.737  -8.016  0.00  0.00     0.417 C 
ATOM     28  F   UNL d   1      -4.631   2.899  -7.776  0.00  0.00    -0.166 F 
ATOM     29  F   UNL d   1      -3.088   3.369  -9.231  0.00  0.00    -0.166 F 
ATOM     30  F   UNL d   1      -4.130   4.971  -8.196  0.00  0.00    -0.166 F 
ENDBRANCH  23  27
ENDBRANCH  20  21
ENDBRANCH   3  20
TORSDOF 6
