REMARK  5 active torsions:
REMARK  status: ('A' for Active; 'I' for Inactive)
REMARK    1  A    between atoms: C_2  and  S_1 
REMARK    2  A    between atoms: N_6  and  S_1 
REMARK    3  A    between atoms: C_18  and  N_6 
REMARK    4  A    between atoms: C_15  and  O_17 
REMARK    5  A    between atoms: O_17  and  C_19 
ROOT
ATOM      1  S   UNL d   1       0.980  -0.079  -0.129  0.00  0.00     0.252 S 
ATOM      2  O   UNL d   1       0.451   0.862   0.835  0.00  0.00    -0.205 OA
ATOM      3  O   UNL d   1       2.396  -0.151  -0.423  0.00  0.00    -0.205 OA
ENDROOT
BRANCH   1   4
ATOM      4  C   UNL d   1       0.216   0.380  -1.675  0.00  0.00     0.116 A 
ATOM      5  S   UNL d   1      -1.495   0.391  -1.712  0.00  0.00    -0.074 SA
ATOM      6  C   UNL d   1      -1.537   0.794  -3.378  0.00  0.00     0.042 A 
ATOM      7  C   UNL d   1      -2.763   0.895  -4.125  0.00  0.00     0.117 A 
ATOM      8  C   UNL d   1      -0.262   0.993  -3.872  0.00  0.00     0.024 A 
ATOM      9  O   UNL d   1      -2.781   1.233  -5.456  0.00  0.00    -0.237 OA
ATOM     10  C   UNL d   1      -4.072   0.676  -3.738  0.00  0.00     0.059 A 
ATOM     11  N   UNL d   1      -4.078   1.229  -5.937  0.00  0.00    -0.272 N 
ATOM     12  C   UNL d   1      -4.838   0.892  -4.896  0.00  0.00     0.117 A 
ATOM     13  HN  UNL d   1      -4.387   1.439  -6.886  1.00  0.00     0.194 HD
ATOM     14  C   UNL d   1       0.747   0.753  -2.894  0.00  0.00     0.034 A 
ENDBRANCH   1   4
BRANCH   1  15
ATOM     15  N   UNL d   1       0.420  -1.612   0.330  0.00  0.00    -0.181 NA
ATOM     16  H   UNL d   1      -0.546  -1.554   0.649  0.00  0.00     0.146 HD
BRANCH  15  17
ATOM     17  C   UNL d   1       0.722  -2.712  -0.524  0.00  0.00     0.023 A 
ATOM     18  C   UNL d   1       1.935  -3.387  -0.391  0.00  0.00     0.027 A 
ATOM     19  C   UNL d   1       2.229  -4.479  -1.218  0.00  0.00     0.039 A 
ATOM     20  C   UNL d   1       1.320  -4.875  -2.200  0.00  0.00     0.075 A 
ATOM     21  C   UNL d   1       0.129  -4.163  -2.358  0.00  0.00     0.039 A 
ATOM     22  C   UNL d   1      -0.180  -3.098  -1.512  0.00  0.00     0.027 A 
BRANCH  20  23
ATOM     23  O   UNL d   1       1.488  -5.902  -3.085  0.00  0.00    -0.290 OA
BRANCH  23  24
ATOM     24  C   UNL d   1       2.296  -6.981  -2.648  0.00  0.00     0.505 C 
ATOM     25  F   UNL d   1       1.750  -7.529  -1.535  0.00  0.00    -0.184 F 
ATOM     26  F   UNL d   1       2.246  -7.936  -3.613  0.00  0.00    -0.184 F 
ENDBRANCH  23  24
ENDBRANCH  20  23
ENDBRANCH  15  17
ENDBRANCH   1  15
TORSDOF 5
