REMARK  7 active torsions:
REMARK  status: ('A' for Active; 'I' for Inactive)
REMARK    1  A    between atoms: N_2  and  S_1 
REMARK    2  A    between atoms: C_5  and  S_1 
REMARK    3  A    between atoms: C_3  and  N_2 
REMARK    4  A    between atoms: O_8  and  C_4 
REMARK    5  A    between atoms: C_7  and  O_8 
REMARK    6  A    between atoms: O_22  and  C_13 
REMARK    7  A    between atoms: O_23  and  C_17 
ROOT
ATOM      1  C   UNL d   1       0.763  -2.111  -1.114  0.00  0.00     0.094 A 
ATOM      2  C   UNL d   1      -0.383  -2.506  -1.823  0.00  0.00     0.175 A 
ATOM      3  N   UNL d   1      -0.359  -3.417  -2.825  0.00  0.00    -0.345 N 
ATOM      4  HN  UNL d   1      -1.206  -3.680  -3.330  1.00  0.00     0.167 HD
ATOM      5  C   UNL d   1       1.987  -2.687  -1.480  0.00  0.00     0.036 A 
ATOM      6  C   UNL d   1       0.845  -3.961  -3.122  0.00  0.00     0.090 A 
ATOM      7  C   UNL d   1       2.022  -3.623  -2.502  0.00  0.00     0.019 A 
ENDROOT
BRANCH   1   8
ATOM      8  N   UNL d   1       0.771  -1.234   0.022  0.00  0.00    -0.276 N 
ATOM      9  H   UNL d   1       1.506  -0.533   0.035  0.00  0.00     0.179 HD
BRANCH   8  10
ATOM     10  S   UNL d   1       0.589  -1.881   1.565  0.00  0.00     0.263 S 
ATOM     11  O   UNL d   1      -0.818  -2.041   1.842  0.00  0.00    -0.200 OA
ATOM     12  O   UNL d   1       1.426  -1.084   2.429  0.00  0.00    -0.200 OA
BRANCH  10  13
ATOM     13  C   UNL d   1       1.295  -3.525   1.515  0.00  0.00     0.082 A 
ATOM     14  C   UNL d   1       0.466  -4.596   1.155  0.00  0.00     0.065 A 
ATOM     15  C   UNL d   1       0.970  -5.903   1.087  0.00  0.00     0.102 A 
ATOM     16  C   UNL d   1       2.320  -6.127   1.414  0.00  0.00     0.101 A 
ATOM     17  C   UNL d   1       3.128  -5.041   1.798  0.00  0.00     0.041 A 
ATOM     18  C   UNL d   1       2.623  -3.742   1.860  0.00  0.00     0.028 A 
BRANCH  15  19
ATOM     19  O   UNL d   1       0.206  -6.974   0.714  0.00  0.00    -0.353 OA
ATOM     20  C   UNL d   1      -1.157  -6.757   0.378  0.00  0.00     0.210 C 
ENDBRANCH  15  19
BRANCH  16  21
ATOM     21  O   UNL d   1       3.010  -7.313   1.421  0.00  0.00    -0.353 OA
ATOM     22  C   UNL d   1       2.311  -8.522   1.152  0.00  0.00     0.210 C 
ENDBRANCH  16  21
ENDBRANCH  10  13
ENDBRANCH   8  10
ENDBRANCH   1   8
BRANCH   2  23
ATOM     23  O   UNL d   1      -1.535  -1.774  -1.657  0.00  0.00    -0.291 OA
BRANCH  23  24
ATOM     24  C   UNL d   1      -2.756  -2.388  -1.814  0.00  0.00     0.084 C 
ATOM     25  C   UNL d   1      -3.800  -1.568  -2.182  0.00  0.00    -0.017 C 
ATOM     26  C   UNL d   1      -5.090  -1.854  -1.719  0.00  0.00    -0.043 C 
ATOM     27  C   UNL d   1      -3.776  -0.179  -2.739  0.00  0.00     0.042 C 
ATOM     28  C   UNL d   1      -5.822  -0.551  -1.510  0.00  0.00     0.040 C 
ATOM     29  C   UNL d   1      -5.450  -3.118  -1.272  0.00  0.00    -0.055 C 
ATOM     30  C   UNL d   1      -4.656   0.454  -1.673  0.00  0.00     0.009 C 
ATOM     31  C   UNL d   1      -4.409  -4.034  -1.090  0.00  0.00     0.010 C 
ATOM     32  C   UNL d   1      -6.860  -3.431  -0.884  0.00  0.00     0.049 C 
ATOM     33  C   UNL d   1      -3.069  -3.645  -1.291  0.00  0.00     0.038 C 
ENDBRANCH  23  24
ENDBRANCH   2  23
TORSDOF 7
