REMARK  4 active torsions:
REMARK  status: ('A' for Active; 'I' for Inactive)
REMARK    1  A    between atoms: C_2  and  S_1 
REMARK    2  A    between atoms: C_13  and  S_1 
REMARK    3  A    between atoms: N_3  and  C_2 
REMARK    4  A    between atoms: C_17  and  N_8 
ROOT
ATOM      1  C   UNL d   1       0.365  -0.635  -1.538  0.00  0.00     0.332 C 
ATOM      2  C   UNL d   1       0.897  -1.336  -2.712  0.00  0.00     0.102 C 
ATOM      3  N   UNL d   1       1.302  -1.944  -3.616  0.00  0.00    -0.194 NA
ENDROOT
BRANCH   1   4
ATOM      4  S   UNL d   1       1.113   0.991  -1.585  0.00  0.00     0.211 S 
ATOM      5  O   UNL d   1       0.790   1.661  -2.833  0.00  0.00    -0.219 OA
ATOM      6  O   UNL d   1       2.494   0.889  -1.143  0.00  0.00    -0.219 OA
BRANCH   4   7
ATOM      7  C   UNL d   1       0.247   1.879  -0.299  0.00  0.00     0.062 A 
ATOM      8  C   UNL d   1       0.735   1.857   1.011  0.00  0.00     0.023 A 
ATOM      9  C   UNL d   1       0.064   2.575   2.003  0.00  0.00     0.002 A 
ATOM     10  C   UNL d   1      -1.074   3.317   1.682  0.00  0.00     0.000 A 
ATOM     11  C   UNL d   1      -1.540   3.357   0.367  0.00  0.00     0.002 A 
ATOM     12  C   UNL d   1      -0.877   2.642  -0.630  0.00  0.00     0.023 A 
ENDBRANCH   4   7
ENDBRANCH   1   4
BRANCH   1  13
ATOM     13  N   UNL d   1      -1.108  -0.657  -1.634  0.00  0.00    -0.303 N 
ATOM     14  N   UNL d   1      -1.637  -1.200  -0.641  0.00  0.00    -0.303 N 
ATOM     15  HN  UNL d   1      -1.105  -1.598   0.132  1.00  0.00     0.186 HD
ATOM     16  HN  UNL d   1      -1.633  -0.274  -2.421  1.00  0.00     0.182 HD
BRANCH  14  17
ATOM     17  C   UNL d   1      -3.048  -1.206  -0.698  0.00  0.00     0.048 A 
ATOM     18  C   UNL d   1      -3.747  -1.183   0.518  0.00  0.00     0.043 A 
ATOM     19  C   UNL d   1      -5.150  -1.220   0.553  0.00  0.00     0.001 A 
ATOM     20  C   UNL d   1      -5.897  -1.202   1.850  0.00  0.00     0.212 C 
ATOM     21  C   UNL d   1      -5.858  -1.312  -0.644  0.00  0.00     0.080 A 
ATOM     22  O   UNL d   1      -7.253  -0.823   1.638  0.00  0.00    -0.362 OA
ATOM     23  C   UNL d   1      -7.815  -1.607   0.592  0.00  0.00     0.345 C 
ATOM     24  O   UNL d   1      -7.223  -1.373  -0.688  0.00  0.00    -0.326 OA
ATOM     25  C   UNL d   1      -5.183  -1.329  -1.862  0.00  0.00     0.040 A 
ATOM     26  C   UNL d   1      -3.786  -1.283  -1.888  0.00  0.00     0.034 A 
ENDBRANCH  14  17
ENDBRANCH   1  13
TORSDOF 4
