REMARK  5 active torsions:
REMARK  status: ('A' for Active; 'I' for Inactive)
REMARK    1  A    between atoms: C_8  and  C_1 
REMARK    2  A    between atoms: C_6  and  N_2 
REMARK    3  A    between atoms: C_9  and  C_3 
REMARK    4  A    between atoms: O_13  and  C_8 
REMARK    5  A    between atoms: C_21  and  O_13 
ROOT
ATOM      1  C   UNL d   1      -0.376   1.191  -0.095  0.00  0.00     0.069 A 
ATOM      2  N   UNL d   1       0.922  -0.652   0.082  0.00  0.00    -0.312 N 
ATOM      3  C   UNL d   1       0.949   0.748  -0.073  0.00  0.00     0.066 A 
ATOM      4  C   UNL d   1      -0.410  -1.067   0.117  0.00  0.00     0.015 A 
ATOM      5  C   UNL d   1      -1.208   0.052   0.038  0.00  0.00     0.045 A 
ATOM      6  C   UNL d   1      -0.866  -2.475   0.302  0.00  0.00     0.068 C 
ENDROOT
BRANCH   2   7
ATOM      7  C   UNL d   1       2.046  -1.536   0.115  0.00  0.00     0.063 A 
ATOM      8  C   UNL d   1       3.131  -1.360   0.995  0.00  0.00     0.083 A 
ATOM      9  C   UNL d   1       4.258  -2.190   0.857  0.00  0.00     0.058 A 
ATOM     10 CL   UNL d   1       3.035  -0.274   2.348  0.00  0.00    -0.080 Cl
ATOM     11 CL   UNL d   1       5.684  -1.996   1.821  0.00  0.00    -0.082 Cl
ATOM     12  C   UNL d   1       4.272  -3.226  -0.085  0.00  0.00     0.026 A 
ATOM     13  C   UNL d   1       3.166  -3.443  -0.902  0.00  0.00     0.004 A 
ATOM     14  C   UNL d   1       2.066  -2.592  -0.817  0.00  0.00     0.032 A 
ENDBRANCH   2   7
BRANCH   3  15
ATOM     15  C   UNL d   1       2.171   1.575  -0.184  0.00  0.00    -0.008 A 
ATOM     16  C   UNL d   1       3.208   1.258  -1.072  0.00  0.00     0.014 A 
ATOM     17  C   UNL d   1       4.364   2.043  -1.128  0.00  0.00     0.001 A 
ATOM     18  C   UNL d   1       4.484   3.177  -0.327  0.00  0.00     0.000 A 
ATOM     19  C   UNL d   1       3.452   3.524   0.539  0.00  0.00     0.001 A 
ATOM     20  C   UNL d   1       2.312   2.722   0.618  0.00  0.00     0.014 A 
ENDBRANCH   3  15
BRANCH   1  21
ATOM     21  C   UNL d   1      -0.842   2.570  -0.240  0.00  0.00     0.295 C 
ATOM     22  O   UNL d   1      -0.249   3.437  -0.869  0.00  0.00    -0.259 OA
BRANCH  21  23
ATOM     23  O   UNL d   1      -2.005   2.784   0.443  0.00  0.00    -0.318 OA
BRANCH  23  24
ATOM     24  C   UNL d   1      -2.456   4.147   0.479  0.00  0.00     0.174 C 
ATOM     25  C   UNL d   1      -1.742   4.907   1.584  0.00  0.00     0.034 C 
ENDBRANCH  23  24
ENDBRANCH  21  23
ENDBRANCH   1  21
TORSDOF 5
