REMARK  5 active torsions:
REMARK  status: ('A' for Active; 'I' for Inactive)
REMARK    1  A    between atoms: N_2  and  C_1 
REMARK    2  A    between atoms: C_4  and  N_2 
REMARK    3  A    between atoms: C_14  and  N_7 
REMARK    4  A    between atoms: O_11  and  C_16 
REMARK    5  A    between atoms: C_16  and  C_14 
ROOT
ATOM      1  N   UNL d   1       0.384  -1.081   0.538  0.00  0.00    -0.363 N 
ATOM      2  H   UNL d   1      -0.622  -0.991   0.460  0.00  0.00     0.162 HD
ENDROOT
BRANCH   1   3
ATOM      3  C   UNL d   1       1.109  -0.127  -0.117  0.00  0.00     0.168 C 
ATOM      4  S   UNL d   1       2.650   0.395   0.262  0.00  0.00    -0.041 SA
ATOM      5  N   UNL d   1       0.532   0.400  -1.232  0.00  0.00    -0.365 N 
ATOM      6  H   UNL d   1       1.114   1.086  -1.699  0.00  0.00     0.161 HD
BRANCH   5   7
ATOM      7  C   UNL d   1      -0.693  -0.009  -1.911  0.00  0.00     0.148 C 
BRANCH   7   8
ATOM      8  C   UNL d   1      -1.868   0.891  -1.543  0.00  0.00     0.183 C 
BRANCH   8   9
ATOM      9  O   UNL d   1      -2.276   0.643  -0.200  0.00  0.00    -0.399 OA
ATOM     10  H   UNL d   1      -2.837   1.395   0.062  0.00  0.00     0.209 HD
ENDBRANCH   8   9
ENDBRANCH   7   8
ENDBRANCH   5   7
ENDBRANCH   1   3
BRANCH   1  11
ATOM     11  C   UNL d   1       0.903  -2.041   1.513  0.00  0.00     0.085 C 
ATOM     12  C   UNL d   1       0.356  -3.443   1.216  0.00  0.00     0.034 C 
ATOM     13  C   UNL d   1       0.956  -4.518   2.153  0.00  0.00    -0.045 C 
ATOM     14  C   UNL d   1       0.240  -5.858   1.905  0.00  0.00     0.015 C 
ATOM     15  C   UNL d   1       2.454  -4.729   1.851  0.00  0.00     0.015 C 
ATOM     16  C   UNL d   1       0.749  -4.095   3.627  0.00  0.00     0.013 C 
ATOM     17  C   UNL d   1       1.227  -2.663   3.935  0.00  0.00    -0.016 C 
ATOM     18  C   UNL d   1       0.602  -1.646   2.963  0.00  0.00     0.029 C 
ATOM     19  C   UNL d   1       0.923  -2.301   5.389  0.00  0.00     0.010 C 
ENDBRANCH   1  11
TORSDOF 5
