REMARK  6 active torsions:
REMARK  status: ('A' for Active; 'I' for Inactive)
REMARK    1  A    between atoms: C_3  and  C_1 
REMARK    2  A    between atoms: C_2  and  C_4 
REMARK    3  A    between atoms: C_6  and  C_5 
REMARK       I    between atoms: N_10  and  C_6 
REMARK    4  A    between atoms: C_20  and  N_10 
REMARK    5  A    between atoms: C_11  and  C_20 
REMARK    6  A    between atoms: O_21  and  C_11 
ROOT
ATOM      1  C   UNL d   1       0.563   1.097   0.624  0.00  0.00     0.049 A 
ATOM      2  C   UNL d   1      -0.199   2.425   2.526  0.00  0.00     0.049 A 
ATOM      3  C   UNL d   1       0.737   3.531   0.549  0.00  0.00     0.033 A 
ATOM      4  C   UNL d   1       0.003   1.182   1.909  0.00  0.00     0.032 A 
ATOM      5  C   UNL d   1       0.905   2.280  -0.057  0.00  0.00     0.033 A 
ATOM      6  C   UNL d   1       0.175   3.591   1.836  0.00  0.00     0.033 A 
ENDROOT
BRANCH   3   7
ATOM      7  C   UNL d   1       1.184   4.815  -0.075  0.00  0.00     0.252 C 
ATOM      8  N   UNL d   1       1.807   4.764  -1.300  0.00  0.00    -0.347 N 
ATOM      9  H   UNL d   1       1.960   3.904  -1.813  0.00  0.00     0.163 HD
ATOM     10  O   UNL d   1       1.026   5.877   0.521  0.00  0.00    -0.268 OA
BRANCH   8  11
ATOM     11  C   UNL d   1       2.405   5.959  -1.869  0.00  0.00     0.232 C 
BRANCH  11  12
ATOM     12  C   UNL d   1       3.035   5.651  -3.218  0.00  0.00     0.158 C 
ATOM     13  O   UNL d   1       3.038   4.540  -3.733  0.00  0.00    -0.649 OA
BRANCH  12  14
ATOM     14  O   UNL d   1       3.609   6.728  -3.800  0.00  0.00    -0.775 OA
ATOM     15  H   UNL d   1       3.539   7.551  -3.280  0.00  0.00     0.167 HD
ENDBRANCH  12  14
ENDBRANCH  11  12
ENDBRANCH   8  11
ENDBRANCH   3   7
BRANCH   1  16
ATOM     16  C   UNL d   1       0.830  -0.242  -0.027  0.00  0.00     0.417 C 
ATOM     17  F   UNL d   1       0.641  -1.299   0.808  0.00  0.00    -0.166 F 
ATOM     18  F   UNL d   1       2.111  -0.344  -0.477  0.00  0.00    -0.166 F 
ATOM     19  F   UNL d   1       0.032  -0.462  -1.106  0.00  0.00    -0.166 F 
ENDBRANCH   1  16
BRANCH   2  20
ATOM     20  C   UNL d   1      -0.783   2.525   3.917  0.00  0.00     0.417 C 
ATOM     21  F   UNL d   1      -1.042   1.312   4.479  0.00  0.00    -0.166 F 
ATOM     22  F   UNL d   1       0.046   3.168   4.783  0.00  0.00    -0.166 F 
ATOM     23  F   UNL d   1      -1.960   3.206   3.940  0.00  0.00    -0.166 F 
ENDBRANCH   2  20
TORSDOF 6
