REMARK  4 active torsions:
REMARK  status: ('A' for Active; 'I' for Inactive)
REMARK    1  A    between atoms: C_2  and  S_1 
REMARK    2  A    between atoms: N_5  and  S_1 
REMARK    3  A    between atoms: C_11  and  N_5 
REMARK    4  A    between atoms: C_12  and  C_11 
ROOT
ATOM      1  S   UNL d   1       1.334  -0.038  -0.195  0.00  0.00     0.277 S 
ATOM      2  O   UNL d   1       2.690  -0.493  -0.445  0.00  0.00    -0.199 OA
ATOM      3  O   UNL d   1       0.597   0.687  -1.206  0.00  0.00    -0.199 OA
ENDROOT
BRANCH   1   4
ATOM      4  C   UNL d   1       1.553   1.144   1.077  0.00  0.00     0.165 A 
ATOM      5  N   UNL d   1       1.111   0.987   2.383  0.00  0.00    -0.340 N 
ATOM      6  C   UNL d   1       1.530   2.064   3.012  0.00  0.00     0.183 A 
ATOM      7  HN  UNL d   1       0.579   0.208   2.770  1.00  0.00     0.167 HD
ATOM      8  N   UNL d   1       2.196   2.913   2.172  0.00  0.00    -0.354 N 
ATOM      9  C   UNL d   1       2.218   2.346   0.933  0.00  0.00     0.135 A 
ATOM     10  C   UNL d   1       2.785   4.174   2.544  0.00  0.00     0.156 C 
ENDBRANCH   1   4
BRANCH   1  11
ATOM     11  N   UNL d   1       0.424  -1.338   0.378  0.00  0.00    -0.306 N 
ATOM     12  C   UNL d   1       0.849  -2.680  -0.018  0.00  0.00     0.163 C 
BRANCH  11  13
ATOM     13  C   UNL d   1      -1.014  -1.150   0.633  0.00  0.00     0.173 C 
BRANCH  13  14
ATOM     14  C   UNL d   1      -1.917  -1.142  -0.584  0.00  0.00    -0.040 A 
ATOM     15  C   UNL d   1      -2.294  -2.330  -1.228  0.00  0.00     0.009 A 
ATOM     16  C   UNL d   1      -3.115  -2.298  -2.359  0.00  0.00     0.001 A 
ATOM     17  C   UNL d   1      -3.572  -1.080  -2.859  0.00  0.00     0.000 A 
ATOM     18  C   UNL d   1      -3.214   0.106  -2.225  0.00  0.00     0.001 A 
ATOM     19  C   UNL d   1      -2.396   0.075  -1.095  0.00  0.00     0.009 A 
ENDBRANCH  13  14
ENDBRANCH  11  13
ENDBRANCH   1  11
TORSDOF 4
