REMARK  4 active torsions:
REMARK  status: ('A' for Active; 'I' for Inactive)
REMARK    1  A    between atoms: C_6  and  C_1 
REMARK    2  A    between atoms: C_13  and  N_2 
REMARK    3  A    between atoms: C_12  and  C_4 
REMARK    4  A    between atoms: O_18  and  C_12 
ROOT
ATOM      1  C   UNL d   1       0.934  -0.684  -0.093  0.00  0.00     0.041 C 
ATOM      2  N   UNL d   1       1.028   0.716  -0.002  0.00  0.00    -0.307 N 
ATOM      3  C   UNL d   1      -0.280   1.212   0.091  0.00  0.00     0.116 C 
ATOM      4  C   UNL d   1      -1.137   0.128   0.231  0.00  0.00     0.039 C 
ATOM      5  C   UNL d   1      -0.385  -1.046   0.098  0.00  0.00     0.032 C 
ENDROOT
BRANCH   1   6
ATOM      6  C   UNL d   1       2.050  -1.548  -0.237  0.00  0.00     0.048 C 
ATOM      7  C   UNL d   1       2.473  -1.982  -1.435  0.00  0.00     0.047 A 
ATOM      8  C   UNL d   1       1.959  -1.559  -2.793  0.00  0.00     0.257 A 
ATOM      9  C   UNL d   1       3.634  -2.849  -1.669  0.00  0.00     0.006 A 
ATOM     10  N   UNL d   1       2.843  -2.124  -3.697  0.00  0.00    -0.322 N 
ATOM     11  O   UNL d   1       1.017  -0.841  -3.062  0.00  0.00    -0.267 OA
ATOM     12  C   UNL d   1       3.821  -2.875  -3.055  0.00  0.00     0.046 A 
ATOM     13  H   UNL d   1       2.762  -1.981  -4.692  0.00  0.00     0.169 HD
ATOM     14  C   UNL d   1       4.856  -3.566  -3.652  0.00  0.00     0.030 A 
ATOM     15  C   UNL d   1       5.722  -4.270  -2.814  0.00  0.00     0.002 A 
ATOM     16  C   UNL d   1       5.534  -4.269  -1.419  0.00  0.00     0.001 A 
ATOM     17  C   UNL d   1       4.483  -3.552  -0.834  0.00  0.00     0.015 A 
ENDBRANCH   1   6
BRANCH   2  18
ATOM     18  C   UNL d   1       2.231   1.508   0.081  0.00  0.00     0.040 A 
ATOM     19  C   UNL d   1       3.375   1.194  -0.667  0.00  0.00     0.033 A 
ATOM     20  C   UNL d   1       4.533   1.970  -0.566  0.00  0.00     0.044 A 
ATOM     21  C   UNL d   1       4.548   3.077   0.269  0.00  0.00     0.116 A 
ATOM     22  C   UNL d   1       3.428   3.414   1.015  0.00  0.00     0.044 A 
ATOM     23  F   UNL d   1       5.652   3.830   0.350  0.00  0.00    -0.206 F 
ATOM     24  C   UNL d   1       2.277   2.625   0.933  0.00  0.00     0.033 A 
ENDBRANCH   2  18
BRANCH   3  25
ATOM     25  C   UNL d   1      -0.681   2.599  -0.023  0.00  0.00     0.310 C 
ATOM     26  O   UNL d   1      -0.062   3.494  -0.586  0.00  0.00    -0.258 OA
BRANCH  25  27
ATOM     27  O   UNL d   1      -1.872   2.785   0.617  0.00  0.00    -0.321 OA
ATOM     28  C   UNL d   1      -2.331   4.135   0.608  0.00  0.00     0.213 C 
ENDBRANCH  25  27
ENDBRANCH   3  25
TORSDOF 4
