REMARK  8 active torsions:
REMARK  status: ('A' for Active; 'I' for Inactive)
REMARK    1  A    between atoms: C_5  and  C_1 
REMARK    2  A    between atoms: C_2  and  C_5 
REMARK    3  A    between atoms: C_3  and  O_13 
REMARK       I    between atoms: N_18  and  C_3 
REMARK    4  A    between atoms: C_4  and  O_12 
REMARK       I    between atoms: N_19  and  C_4 
REMARK    5  A    between atoms: O_13  and  C_6 
REMARK    6  A    between atoms: O_12  and  C_7 
REMARK    7  A    between atoms: C_22  and  N_18 
REMARK    8  A    between atoms: C_23  and  N_19 
ROOT
ATOM      1  C   UNL d   1      -0.073  -3.362   0.475  0.00  0.00     0.007 C 
ATOM      2  C   UNL d   1       0.623  -3.794  -0.847  0.00  0.00     0.025 C 
ATOM      3  C   UNL d   1      -1.523  -3.923   0.390  0.00  0.00     0.025 C 
ENDROOT
BRANCH   1   4
ATOM      4  C   UNL d   1       0.561  -4.040   1.731  0.00  0.00    -0.044 C 
ATOM      5  C   UNL d   1      -0.003  -3.860   3.010  0.00  0.00     0.017 C 
ATOM      6  C   UNL d   1       0.529  -4.494   4.155  0.00  0.00    -0.027 C 
ATOM      7  C   UNL d   1      -0.266  -4.563   5.427  0.00  0.00     0.051 C 
ATOM      8  C   UNL d   1       1.735  -5.193   4.055  0.00  0.00     0.092 C 
ATOM      9  C   UNL d   1       2.138  -5.634   2.788  0.00  0.00    -0.027 C 
ATOM     10  C   UNL d   1       1.584  -5.008   1.647  0.00  0.00     0.017 C 
ATOM     11  C   UNL d   1       3.074  -6.797   2.592  0.00  0.00     0.051 C 
BRANCH   8  12
ATOM     12  O   UNL d   1       2.513  -5.314   5.244  0.00  0.00    -0.260 OA
BRANCH  12  13
ATOM     13  C   UNL d   1       3.819  -4.857   5.068  0.00  0.00     0.370 C 
ATOM     14  N   UNL d   1       4.594  -4.459   6.114  0.00  0.00    -0.302 N 
ATOM     15  H   UNL d   1       5.479  -4.198   5.696  0.00  0.00     0.171 HD
ATOM     16  O   UNL d   1       4.390  -4.737   3.975  0.00  0.00    -0.238 OA
BRANCH  14  17
ATOM     17  C   UNL d   1       4.511  -4.180   7.481  0.00  0.00     0.036 A 
ATOM     18  C   UNL d   1       3.433  -4.397   8.321  0.00  0.00     0.029 A 
ATOM     19  C   UNL d   1       3.523  -4.017   9.671  0.00  0.00     0.002 A 
ATOM     20  C   UNL d   1       4.672  -3.416  10.184  0.00  0.00     0.000 A 
ATOM     21  C   UNL d   1       5.762  -3.191   9.348  0.00  0.00     0.002 A 
ATOM     22  C   UNL d   1       5.674  -3.579   8.015  0.00  0.00     0.029 A 
ENDBRANCH  14  17
ENDBRANCH  12  13
ENDBRANCH   8  12
ENDBRANCH   1   4
BRANCH   1  23
ATOM     23  C   UNL d   1      -0.058  -1.795   0.451  0.00  0.00    -0.044 C 
ATOM     24  C   UNL d   1       1.000  -1.027   0.975  0.00  0.00     0.017 C 
ATOM     25  C   UNL d   1       1.069   0.381   0.780  0.00  0.00    -0.027 C 
ATOM     26  C   UNL d   1       2.123   1.195   1.477  0.00  0.00     0.051 C 
ATOM     27  C   UNL d   1       0.100   1.024  -0.011  0.00  0.00     0.092 C 
ATOM     28  C   UNL d   1      -1.044   0.324  -0.400  0.00  0.00    -0.027 C 
ATOM     29  C   UNL d   1      -1.082  -1.074  -0.206  0.00  0.00     0.017 C 
ATOM     30  C   UNL d   1      -2.255   0.996  -0.984  0.00  0.00     0.051 C 
BRANCH  27  31
ATOM     31  O   UNL d   1       0.282   2.394  -0.336  0.00  0.00    -0.260 OA
BRANCH  31  32
ATOM     32  C   UNL d   1       0.274   2.722  -1.699  0.00  0.00     0.370 C 
ATOM     33  N   UNL d   1       0.300   4.061  -2.019  0.00  0.00    -0.302 N 
ATOM     34  H   UNL d   1       0.057   4.206  -2.990  0.00  0.00     0.171 HD
ATOM     35  O   UNL d   1       0.155   1.910  -2.619  0.00  0.00    -0.238 OA
BRANCH  33  36
ATOM     36  C   UNL d   1       0.614   5.209  -1.276  0.00  0.00     0.036 A 
ATOM     37  C   UNL d   1       1.264   5.179  -0.044  0.00  0.00     0.029 A 
ATOM     38  C   UNL d   1       1.583   6.373   0.614  0.00  0.00     0.002 A 
ATOM     39  C   UNL d   1       1.256   7.604   0.050  0.00  0.00     0.000 A 
ATOM     40  C   UNL d   1       0.620   7.647  -1.187  0.00  0.00     0.002 A 
ATOM     41  C   UNL d   1       0.314   6.456  -1.850  0.00  0.00     0.029 A 
ENDBRANCH  33  36
ENDBRANCH  31  32
ENDBRANCH  27  31
ENDBRANCH   1  23
TORSDOF 8
