REMARK  3 active torsions:
REMARK  status: ('A' for Active; 'I' for Inactive)
REMARK    1  A    between atoms: C_8  and  C_2 
REMARK    2  A    between atoms: O_20  and  C_3 
REMARK    3  A    between atoms: C_9  and  C_6 
ROOT
ATOM      1  C   UNL d   1      -0.671   1.277   0.095  0.00  0.00     0.107 A 
ATOM      2  C   UNL d   1      -1.439   0.103   0.002  0.00  0.00     0.008 A 
ATOM      3  C   UNL d   1       0.718   1.156   0.083  0.00  0.00     0.162 A 
ATOM      4  N   UNL d   1       1.371  -0.017   0.001  0.00  0.00    -0.334 N 
ATOM      5  HN  UNL d   1       2.391  -0.054  -0.004  1.00  0.00     0.168 HD
ATOM      6  C   UNL d   1       0.631  -1.145  -0.075  0.00  0.00     0.069 A 
ATOM      7  C   UNL d   1      -0.757  -1.123  -0.082  0.00  0.00     0.047 A 
ATOM      8  C   UNL d   1      -1.260   2.574   0.211  0.00  0.00     0.104 C 
ATOM      9  N   UNL d   1      -1.665   3.658   0.280  0.00  0.00    -0.191 NA
ENDROOT
BRANCH   2  10
ATOM     10  C   UNL d   1      -2.920   0.112  -0.048  0.00  0.00     0.016 A 
ATOM     11  S   UNL d   1      -3.822  -1.053   0.847  0.00  0.00    -0.101 SA
ATOM     12  C   UNL d   1      -5.314  -0.458   0.273  0.00  0.00     0.050 A 
ATOM     13  C   UNL d   1      -5.151   0.632  -0.549  0.00  0.00     0.008 A 
ATOM     14  C   UNL d   1      -3.775   0.953  -0.741  0.00  0.00     0.020 A 
ENDBRANCH   2  10
BRANCH   3  15
ATOM     15  O   UNL d   1       1.570   2.223   0.143  0.00  0.00    -0.345 OA
ATOM     16  H   UNL d   1       1.090   3.065   0.140  0.00  0.00     0.219 HD
ENDBRANCH   3  15
BRANCH   6  17
ATOM     17  C   UNL d   1       1.401  -2.377  -0.178  0.00  0.00     0.101 A 
ATOM     18  O   UNL d   1       0.695  -3.550  -0.186  0.00  0.00    -0.321 OA
ATOM     19  C   UNL d   1       1.594  -4.561  -0.301  0.00  0.00     0.142 A 
ATOM     20  C   UNL d   1       2.873  -4.062  -0.369  0.00  0.00     0.027 A 
ATOM     21  C   UNL d   1       2.751  -2.655  -0.283  0.00  0.00     0.041 A 
ENDBRANCH   6  17
TORSDOF 3
