REMARK  4 active torsions:
REMARK  status: ('A' for Active; 'I' for Inactive)
REMARK    1  A    between atoms: N_2  and  C_1 
REMARK    2  A    between atoms: N_3  and  C_1 
REMARK    3  A    between atoms: C_5  and  N_2 
REMARK    4  A    between atoms: C_8  and  N_3 
ROOT
ATOM      1  N   UNL d   1      -0.055   0.679   0.499  0.00  0.00    -0.362 N 
ATOM      2  H   UNL d   1       0.397  -0.214   0.375  0.00  0.00     0.162 HD
ENDROOT
BRANCH   1   3
ATOM      3  C   UNL d   1       0.369   1.577  -0.484  0.00  0.00     0.172 C 
ATOM      4  S   UNL d   1      -0.553   2.851  -1.049  0.00  0.00    -0.041 SA
BRANCH   3   5
ATOM      5  N   UNL d   1       1.676   1.239  -0.853  0.00  0.00    -0.333 N 
ATOM      6  H   UNL d   1       2.165   0.711  -0.139  0.00  0.00     0.168 HD
BRANCH   5   7
ATOM      7  C   UNL d   1       2.502   1.711  -1.901  0.00  0.00     0.034 A 
ATOM      8  C   UNL d   1       3.881   1.485  -1.790  0.00  0.00     0.032 A 
ATOM      9  C   UNL d   1       4.767   1.976  -2.755  0.00  0.00     0.044 A 
ATOM     10  C   UNL d   1       4.271   2.684  -3.844  0.00  0.00     0.116 A 
ATOM     11  C   UNL d   1       2.907   2.868  -4.002  0.00  0.00     0.044 A 
ATOM     12  F   UNL d   1       5.117   3.182  -4.754  0.00  0.00    -0.206 F 
ATOM     13  C   UNL d   1       2.024   2.364  -3.044  0.00  0.00     0.032 A 
ENDBRANCH   5   7
ENDBRANCH   3   5
ENDBRANCH   1   3
BRANCH   1  14
ATOM     14  C   UNL d   1      -1.378   0.593   1.128  0.00  0.00     0.083 C 
ATOM     15  C   UNL d   1      -1.669   1.516   2.350  0.00  0.00     0.025 C 
ATOM     16  C   UNL d   1      -0.964   2.863   2.548  0.00  0.00     0.002 C 
ATOM     17  C   UNL d   1       0.538   2.811   2.839  0.00  0.00     0.000 C 
ATOM     18  C   UNL d   1       0.896   2.169   4.186  0.00  0.00     0.000 C 
ATOM     19  C   UNL d   1       2.277   1.496   4.167  0.00  0.00     0.000 C 
ATOM     20  C   UNL d   1       2.279   0.128   3.467  0.00  0.00     0.000 C 
ATOM     21  C   UNL d   1       1.626  -0.973   4.315  0.00  0.00     0.000 C 
ATOM     22  C   UNL d   1       1.322  -2.271   3.552  0.00  0.00     0.000 C 
ATOM     23  C   UNL d   1       0.402  -2.131   2.329  0.00  0.00     0.000 C 
ATOM     24  C   UNL d   1      -0.982  -1.555   2.647  0.00  0.00     0.002 C 
ATOM     25  C   UNL d   1      -1.722  -0.894   1.464  0.00  0.00     0.025 C 
ENDBRANCH   1  14
TORSDOF 4
