REMARK  6 active torsions:
REMARK  status: ('A' for Active; 'I' for Inactive)
REMARK    1  A    between atoms: C_9  and  N_1 
REMARK    2  A    between atoms: N_6  and  C_13 
REMARK    3  A    between atoms: C_7  and  C_12 
REMARK    4  A    between atoms: C_8  and  C_11 
REMARK    5  A    between atoms: N_18  and  C_9 
REMARK    6  A    between atoms: C_21  and  N_18 
ROOT
ATOM      1  N   UNL d   1       3.866   1.365  -0.350  0.00  0.00    -0.276 NA
ATOM      2  H   UNL d   1       3.466   2.002   0.335  0.00  0.00     0.129 HD
ENDROOT
BRANCH   1   3
ATOM      3  C   UNL d   1       3.316   0.025  -0.179  0.00  0.00     0.230 C 
BRANCH   3   4
ATOM      4  N   UNL d   1       1.886   0.126  -0.161  0.00  0.00    -0.267 N 
ATOM      5  C   UNL d   1       1.142   0.297   0.969  0.00  0.00     0.262 A 
ATOM      6  C   UNL d   1      -0.261   0.251   0.554  0.00  0.00     0.050 A 
ATOM      7  O   UNL d   1       1.507   0.435   2.118  0.00  0.00    -0.267 OA
ATOM      8  C   UNL d   1      -1.420   0.414   1.289  0.00  0.00     0.054 A 
ATOM      9  C   UNL d   1      -0.281  -0.006  -0.806  0.00  0.00     0.048 A 
ATOM     10  C   UNL d   1      -2.631   0.318   0.584  0.00  0.00     0.103 A 
ATOM     11  C   UNL d   1      -2.655   0.046  -0.809  0.00  0.00     0.037 A 
ATOM     12  C   UNL d   1      -1.460  -0.126  -1.517  0.00  0.00     0.020 A 
ATOM     13  C   UNL d   1       1.105  -0.127  -1.252  0.00  0.00     0.262 A 
ATOM     14  O   UNL d   1       1.417  -0.450  -2.379  0.00  0.00    -0.267 OA
BRANCH  10  15
ATOM     15  N   UNL d   1      -3.900   0.518   1.299  0.00  0.00    -0.116 N 
ATOM     16  O   UNL d   1      -3.840   0.778   2.508  0.00  0.00    -0.532 OA
ATOM     17  O   UNL d   1      -4.948   0.421   0.647  0.00  0.00    -0.532 OA
ENDBRANCH  10  15
ENDBRANCH   3   4
ENDBRANCH   1   3
BRANCH   1  18
ATOM     18  C   UNL d   1       5.265   1.478  -0.403  0.00  0.00     0.011 A 
ATOM     19  C   UNL d   1       6.082   0.506  -0.992  0.00  0.00     0.039 A 
ATOM     20  C   UNL d   1       7.478   0.652  -1.068  0.00  0.00     0.050 A 
ATOM     21  C   UNL d   1       8.065   1.823  -0.577  0.00  0.00     0.032 A 
ATOM     22  C   UNL d   1       7.274   2.836  -0.015  0.00  0.00     0.050 A 
ATOM     23  C   UNL d   1       5.877   2.662   0.037  0.00  0.00     0.039 A 
BRANCH  20  24
ATOM     24  C   UNL d   1       8.309  -0.467  -1.645  0.00  0.00     0.417 C 
ATOM     25  F   UNL d   1       9.643  -0.199  -1.666  0.00  0.00    -0.166 F 
ATOM     26  F   UNL d   1       8.171  -1.622  -0.936  0.00  0.00    -0.166 F 
ATOM     27  F   UNL d   1       7.965  -0.771  -2.926  0.00  0.00    -0.166 F 
ENDBRANCH  20  24
BRANCH  22  28
ATOM     28  C   UNL d   1       7.909   4.079   0.560  0.00  0.00     0.417 C 
ATOM     29  F   UNL d   1       9.270   4.076   0.481  0.00  0.00    -0.166 F 
ATOM     30  F   UNL d   1       7.501   5.218  -0.062  0.00  0.00    -0.166 F 
ATOM     31  F   UNL d   1       7.617   4.244   1.880  0.00  0.00    -0.166 F 
ENDBRANCH  22  28
ENDBRANCH   1  18
TORSDOF 6
