REMARK  4 active torsions:
REMARK  status: ('A' for Active; 'I' for Inactive)
REMARK    1  A    between atoms: C_5  and  C_3 
REMARK    2  A    between atoms: N_4  and  C_8 
REMARK    3  A    between atoms: C_8  and  C_5 
REMARK    4  A    between atoms: C_12  and  C_5 
ROOT
ATOM      1  C   UNL d   1       2.103  -0.095  -0.327  0.00  0.00     0.231 C 
ATOM      2  N   UNL d   1       1.405   1.074  -0.075  0.00  0.00    -0.326 N 
ATOM      3  C   UNL d   1       1.101  -1.285  -0.234  0.00  0.00     0.123 C 
ATOM      4  C   UNL d   1       0.048   0.840   0.021  0.00  0.00     0.042 A 
ATOM      5  C   UNL d   1      -0.211  -0.525  -0.113  0.00  0.00    -0.018 A 
ATOM      6  O   UNL d   1       3.295  -0.139  -0.582  0.00  0.00    -0.272 OA
ATOM      7  C   UNL d   1      -1.523  -0.966  -0.172  0.00  0.00     0.010 A 
ATOM      8  C   UNL d   1      -0.944   1.787   0.163  0.00  0.00     0.030 A 
ATOM      9  C   UNL d   1      -2.550  -0.027  -0.022  0.00  0.00     0.001 A 
ATOM     10  C   UNL d   1      -2.263   1.338   0.153  0.00  0.00     0.002 A 
ATOM     11  H   UNL d   1       1.846   1.982  -0.101  0.00  0.00     0.169 HD
ENDROOT
BRANCH   3  12
ATOM     12  C   UNL d   1       1.430  -2.165   1.010  0.00  0.00     0.060 C 
BRANCH  12  13
ATOM     13  C   UNL d   1       0.427  -3.288   1.330  0.00  0.00     0.211 C 
BRANCH  13  14
ATOM     14  N   UNL d   1       0.406  -4.345   0.265  0.00  0.00    -0.155 N 
ATOM     15  O   UNL d   1      -0.050  -4.027  -0.841  0.00  0.00    -0.537 OA
ATOM     16  O   UNL d   1       0.789  -5.477   0.583  0.00  0.00    -0.537 OA
ENDBRANCH  13  14
ENDBRANCH  12  13
BRANCH  12  17
ATOM     17  C   UNL d   1       2.849  -2.732   1.071  0.00  0.00    -0.051 A 
ATOM     18  C   UNL d   1       3.487  -2.843   2.319  0.00  0.00     0.007 A 
ATOM     19  C   UNL d   1       4.776  -3.367   2.422  0.00  0.00     0.001 A 
ATOM     20  C   UNL d   1       5.448  -3.788   1.278  0.00  0.00     0.000 A 
ATOM     21  C   UNL d   1       4.827  -3.695   0.036  0.00  0.00     0.001 A 
ATOM     22  C   UNL d   1       3.532  -3.181  -0.069  0.00  0.00     0.007 A 
ENDBRANCH  12  17
ENDBRANCH   3  12
TORSDOF 4
