REMARK  11 active torsions:
REMARK  status: ('A' for Active; 'I' for Inactive)
REMARK    1  A    between atoms: C_2  and  S_1 
REMARK    2  A    between atoms: C_3  and  S_1 
REMARK    3  A    between atoms: C_10  and  C_2 
REMARK    4  A    between atoms: O_14  and  C_5 
REMARK    5  A    between atoms: O_16  and  C_8 
REMARK    6  A    between atoms: O_21  and  C_10 
REMARK    7  A    between atoms: C_23  and  C_10 
REMARK    8  A    between atoms: O_22  and  C_12 
REMARK    9  A    between atoms: O_13  and  C_23 
REMARK   10  A    between atoms: C_24  and  O_13 
REMARK   11  A    between atoms: C_15  and  C_24 
ROOT
ATOM      1  C   UNL d   1       0.621  -1.045   1.179  0.00  0.00     0.179 C 
ENDROOT
BRANCH   1   2
ATOM      2  S   UNL d   1       1.232   0.024  -0.103  0.00  0.00     0.178 S 
ATOM      3  O   UNL d   1       2.676  -0.040  -0.143  0.00  0.00    -0.223 OA
ATOM      4  O   UNL d   1       0.576   1.312   0.070  0.00  0.00    -0.223 OA
BRANCH   2   5
ATOM      5  C   UNL d   1       0.602  -0.673  -1.609  0.00  0.00     0.062 A 
ATOM      6  C   UNL d   1       1.366  -1.608  -2.318  0.00  0.00     0.063 A 
ATOM      7  C   UNL d   1       0.854  -2.196  -3.484  0.00  0.00     0.102 A 
ATOM      8  C   UNL d   1      -0.410  -1.789  -3.958  0.00  0.00     0.101 A 
ATOM      9  C   UNL d   1      -1.141  -0.823  -3.247  0.00  0.00     0.041 A 
ATOM     10  C   UNL d   1      -0.643  -0.264  -2.074  0.00  0.00     0.026 A 
BRANCH   7  11
ATOM     11  O   UNL d   1       1.526  -3.164  -4.181  0.00  0.00    -0.353 OA
ATOM     12  C   UNL d   1       2.789  -3.602  -3.700  0.00  0.00     0.210 C 
ENDBRANCH   7  11
BRANCH   8  13
ATOM     13  O   UNL d   1      -1.081  -2.209  -5.077  0.00  0.00    -0.353 OA
ATOM     14  C   UNL d   1      -0.484  -3.193  -5.907  0.00  0.00     0.210 C 
ENDBRANCH   8  13
ENDBRANCH   2   5
ENDBRANCH   1   2
BRANCH   1  15
ATOM     15  C   UNL d   1       1.085  -2.493   1.062  0.00  0.00     0.156 C 
BRANCH  15  16
ATOM     16  O   UNL d   1       2.502  -2.628   1.137  0.00  0.00    -0.393 OA
ATOM     17  H   UNL d   1       2.826  -2.221   1.960  0.00  0.00     0.210 HD
ENDBRANCH  15  16
BRANCH  15  18
ATOM     18  C   UNL d   1       0.472  -3.352   2.173  0.00  0.00     0.200 C 
BRANCH  18  19
ATOM     19  O   UNL d   1      -0.944  -3.295   2.085  0.00  0.00    -0.384 OA
BRANCH  19  20
ATOM     20  C   UNL d   1      -1.575  -4.077   3.099  0.00  0.00     0.206 C 
BRANCH  20  21
ATOM     21  C   UNL d   1      -3.074  -3.978   2.964  0.00  0.00    -0.034 A 
ATOM     22  C   UNL d   1      -3.688  -3.782   1.720  0.00  0.00     0.012 A 
ATOM     23  C   UNL d   1      -5.077  -3.689   1.620  0.00  0.00     0.037 A 
ATOM     24  C   UNL d   1      -5.880  -3.830   2.751  0.00  0.00     0.068 A 
ATOM     25  C   UNL d   1      -5.282  -4.046   3.992  0.00  0.00     0.037 A 
ATOM     26  C   UNL d   1      -3.889  -4.124   4.096  0.00  0.00     0.012 A 
BRANCH  24  27
ATOM     27  O   UNL d   1      -7.223  -3.691   2.533  0.00  0.00    -0.356 OA
ATOM     28  C   UNL d   1      -8.072  -4.404   3.422  0.00  0.00     0.210 C 
ENDBRANCH  24  27
ENDBRANCH  20  21
ENDBRANCH  19  20
ENDBRANCH  18  19
ENDBRANCH  15  18
ENDBRANCH   1  15
TORSDOF 11
