REMARK  2 active torsions:
REMARK  status: ('A' for Active; 'I' for Inactive)
REMARK    1  A    between atoms: C_12  and  C_4 
REMARK    2  A    between atoms: O_14  and  C_7 
ROOT
ATOM      1  N   UNL d   1      -0.708  -0.419  -0.024  0.00  0.00    -0.280 N 
ATOM      2  C   UNL d   1      -1.179   0.889  -0.018  0.00  0.00     0.035 A 
ATOM      3  C   UNL d   1      -1.540  -1.535  -0.043  0.00  0.00     0.266 A 
ATOM      4  C   UNL d   1      -3.029  -1.235  -0.044  0.00  0.00     0.076 A 
ATOM      5  C   UNL d   1       0.702  -0.425  -0.013  0.00  0.00     0.050 A 
ATOM      6  C   UNL d   1      -2.488   1.147  -0.025  0.00  0.00     0.064 A 
ATOM      7  C   UNL d   1      -3.429   0.057  -0.024  0.00  0.00     0.084 A 
ATOM      8  C   UNL d   1      -0.003   1.867   0.002  0.00  0.00     0.025 A 
ATOM      9  C   UNL d   1       1.171   0.901  -0.006  0.00  0.00    -0.015 A 
ATOM     10  C   UNL d   1       1.583  -1.493  -0.010  0.00  0.00     0.032 A 
ATOM     11  O   UNL d   1      -1.152  -2.705  -0.047  0.00  0.00    -0.267 OA
ATOM     12  C   UNL d   1       2.531   1.181  -0.001  0.00  0.00     0.034 A 
ATOM     13  C   UNL d   1       3.421   0.106  -0.000  0.00  0.00     0.034 A 
ATOM     14  C   UNL d   1       2.957  -1.218  -0.002  0.00  0.00     0.026 A 
ATOM     15  C   UNL d   1       0.006   2.758  -1.246  0.00  0.00     0.027 C 
ATOM     16  C   UNL d   1      -0.001   2.713   1.281  0.00  0.00     0.027 C 
ATOM     17 CL   UNL d   1       5.115   0.413   0.002  0.00  0.00    -0.084 Cl
ENDROOT
BRANCH   4  18
ATOM     18  C   UNL d   1      -4.011  -2.338  -0.032  0.00  0.00    -0.018 A 
ATOM     19  C   UNL d   1      -4.532  -2.851  -1.228  0.00  0.00     0.012 A 
ATOM     20  C   UNL d   1      -5.563  -3.795  -1.203  0.00  0.00     0.001 A 
ATOM     21  C   UNL d   1      -6.053  -4.263   0.016  0.00  0.00     0.000 A 
ATOM     22  C   UNL d   1      -5.503  -3.799   1.210  0.00  0.00     0.001 A 
ATOM     23  C   UNL d   1      -4.495  -2.831   1.188  0.00  0.00     0.012 A 
ENDBRANCH   4  18
BRANCH   7  24
ATOM     24  O   UNL d   1      -4.733   0.493   0.025  0.00  0.00    -0.360 OA
ATOM     25  H   UNL d   1      -5.322  -0.274   0.134  0.00  0.00     0.217 HD
ENDBRANCH   7  24
TORSDOF 2
