REMARK  6 active torsions:
REMARK  status: ('A' for Active; 'I' for Inactive)
REMARK    1  A    between atoms: C_9  and  N_2 
REMARK    2  A    between atoms: C_10  and  N_3 
REMARK    3  A    between atoms: S_12  and  C_4 
REMARK    4  A    between atoms: C_7  and  C_5 
REMARK    5  A    between atoms: O_14  and  C_7 
REMARK    6  A    between atoms: C_19  and  O_14 
ROOT
ATOM      1  C   UNL d   1      -0.773   1.285   0.179  0.00  0.00     0.194 C 
ATOM      2  N   UNL d   1      -1.420  -0.002  -0.046  0.00  0.00    -0.281 N 
ATOM      3  N   UNL d   1       0.649   1.241   0.110  0.00  0.00    -0.254 N 
ATOM      4  C   UNL d   1      -0.646  -1.188  -0.157  0.00  0.00     0.098 C 
ATOM      5  C   UNL d   1       0.687  -1.198   0.034  0.00  0.00     0.141 C 
ATOM      6  C   UNL d   1       1.398   0.080   0.217  0.00  0.00     0.273 C 
ATOM      7  S   UNL d   1      -1.618   2.737   0.503  0.00  0.00    -0.039 SA
ATOM      8  O   UNL d   1       2.597   0.075   0.497  0.00  0.00    -0.266 OA
ENDROOT
BRANCH   2   9
ATOM      9  C   UNL d   1      -2.885  -0.046  -0.030  0.00  0.00     0.042 A 
ATOM     10  C   UNL d   1      -3.647   0.788  -0.866  0.00  0.00     0.030 A 
ATOM     11  C   UNL d   1      -5.045   0.800  -0.798  0.00  0.00     0.002 A 
ATOM     12  C   UNL d   1      -5.709  -0.083   0.044  0.00  0.00     0.000 A 
ATOM     13  C   UNL d   1      -4.977  -0.957   0.844  0.00  0.00     0.002 A 
ATOM     14  C   UNL d   1      -3.576  -0.919   0.829  0.00  0.00     0.030 A 
ENDBRANCH   2   9
BRANCH   4  15
ATOM     15  S   UNL d   1      -1.413  -2.694  -0.690  0.00  0.00    -0.124 SA
ATOM     16  H   UNL d   1      -2.623  -2.257  -1.060  0.00  0.00     0.108 HD
ENDBRANCH   4  15
BRANCH   3  17
ATOM     17  C   UNL d   1       1.454   2.444   0.116  0.00  0.00     0.045 A 
ATOM     18  C   UNL d   1       2.309   2.691  -0.974  0.00  0.00     0.030 A 
ATOM     19  C   UNL d   1       3.122   3.828  -0.991  0.00  0.00     0.002 A 
ATOM     20  C   UNL d   1       3.096   4.714   0.086  0.00  0.00     0.000 A 
ATOM     21  C   UNL d   1       2.281   4.456   1.182  0.00  0.00     0.002 A 
ATOM     22  C   UNL d   1       1.474   3.319   1.208  0.00  0.00     0.030 A 
ENDBRANCH   3  17
BRANCH   5  23
ATOM     23  C   UNL d   1       1.482  -2.451   0.164  0.00  0.00     0.301 C 
ATOM     24  O   UNL d   1       1.149  -3.396   0.868  0.00  0.00    -0.259 OA
BRANCH  23  25
ATOM     25  O   UNL d   1       2.678  -2.334  -0.470  0.00  0.00    -0.318 OA
BRANCH  25  26
ATOM     26  C   UNL d   1       3.724  -3.178   0.045  0.00  0.00     0.174 C 
ATOM     27  C   UNL d   1       4.202  -2.678   1.403  0.00  0.00     0.034 C 
ENDBRANCH  25  26
ENDBRANCH  23  25
ENDBRANCH   5  23
TORSDOF 6
