REMARK  5 active torsions:
REMARK  status: ('A' for Active; 'I' for Inactive)
REMARK    1  A    between atoms: C_5  and  C_3 
REMARK    2  A    between atoms: C_16  and  C_4 
REMARK    3  A    between atoms: C_6  and  C_9 
REMARK    4  A    between atoms: C_17  and  O_20 
REMARK    5  A    between atoms: O_20  and  C_27 
ROOT
ATOM      1  C   UNL d   1      -0.040  -2.578  -0.131  0.00  0.00    -0.002 A 
ATOM      2  C   UNL d   1       0.533  -3.333   0.902  0.00  0.00     0.017 A 
ATOM      3  C   UNL d   1      -0.797  -3.251  -1.105  0.00  0.00     0.017 A 
ATOM      4  C   UNL d   1      -0.389  -5.378  -0.018  0.00  0.00     0.077 A 
ATOM      5  C   UNL d   1      -0.974  -4.639  -1.045  0.00  0.00     0.038 A 
ATOM      6  C   UNL d   1       0.337  -4.714   0.975  0.00  0.00     0.038 A 
ENDROOT
BRANCH   1   7
ATOM      7  C   UNL d   1       0.160  -1.120  -0.135  0.00  0.00     0.084 A 
ATOM      8  N   UNL d   1       1.224  -0.511   0.359  0.00  0.00    -0.348 N 
ATOM      9  C   UNL d   1       1.064   0.864   0.305  0.00  0.00     0.057 A 
ATOM     10  HN  UNL d   1       2.047  -0.987   0.727  1.00  0.00     0.166 HD
ATOM     11  C   UNL d   1      -0.131   1.287  -0.238  0.00  0.00     0.082 A 
ATOM     12  S   UNL d   1      -1.074  -0.060  -0.705  0.00  0.00    -0.081 SA
BRANCH   9  13
ATOM     13  C   UNL d   1       2.122   1.790   0.827  0.00  0.00     0.033 A 
ATOM     14  S   UNL d   1       1.976   3.494   0.913  0.00  0.00    -0.076 SA
ATOM     15  C   UNL d   1       3.512   3.641   1.604  0.00  0.00     0.075 A 
ATOM     16 CL   UNL d   1       4.107   5.194   2.031  0.00  0.00    -0.076 Cl
ATOM     17  C   UNL d   1       4.159   2.443   1.760  0.00  0.00     0.033 A 
ATOM     18  C   UNL d   1       3.344   1.359   1.310  0.00  0.00     0.023 A 
ENDBRANCH   9  13
ENDBRANCH   1   7
BRANCH   4  19
ATOM     19  O   UNL d   1      -0.627  -6.735  -0.025  0.00  0.00    -0.294 OA
BRANCH  19  20
ATOM     20  C   UNL d   1       0.364  -7.565   0.478  0.00  0.00     0.147 A 
ATOM     21  N   UNL d   1       1.662  -7.208   0.346  0.00  0.00    -0.346 N 
ATOM     22  C   UNL d   1       2.582  -7.986   0.954  0.00  0.00     0.106 A 
ATOM     23  HN  UNL d   1       1.935  -6.385  -0.191  1.00  0.00     0.167 HD
ATOM     24  C   UNL d   1       2.271  -9.130   1.669  0.00  0.00     0.063 A 
ATOM     25  C   UNL d   1       0.926  -9.521   1.719  0.00  0.00     0.022 A 
ATOM     26  C   UNL d   1      -0.046  -8.728   1.111  0.00  0.00     0.057 A 
BRANCH  24  27
ATOM     27  C   UNL d   1       3.344  -9.891   2.383  0.00  0.00     0.418 C 
ATOM     28  F   UNL d   1       4.578  -9.328   2.270  0.00  0.00    -0.166 F 
ATOM     29  F   UNL d   1       3.103  -9.992   3.719  0.00  0.00    -0.166 F 
ATOM     30  F   UNL d   1       3.470 -11.169   1.927  0.00  0.00    -0.166 F 
ENDBRANCH  24  27
ENDBRANCH  19  20
ENDBRANCH   4  19
TORSDOF 5
