REMARK  7 active torsions:
REMARK  status: ('A' for Active; 'I' for Inactive)
REMARK    1  A    between atoms: O_13  and  C_2 
REMARK    2  A    between atoms: C_8  and  C_3 
REMARK    3  A    between atoms: C_9  and  C_6 
REMARK    4  A    between atoms: C_23  and  O_13 
REMARK    5  A    between atoms: C_15  and  C_23 
REMARK    6  A    between atoms: O_24  and  C_15 
REMARK    7  A    between atoms: C_25  and  O_24 
ROOT
ATOM      1  C   UNL d   1       0.570   0.041   0.095  0.00  0.00     0.108 A 
ATOM      2  C   UNL d   1      -0.235  -1.093   0.135  0.00  0.00     0.165 A 
ATOM      3  C   UNL d   1      -0.063   1.289   0.009  0.00  0.00     0.025 A 
ATOM      4  N   UNL d   1      -1.585  -1.077   0.068  0.00  0.00    -0.335 N 
ATOM      5  HN  UNL d   1      -2.127  -1.940   0.109  1.00  0.00     0.168 HD
ATOM      6  C   UNL d   1      -2.187   0.126  -0.054  0.00  0.00     0.052 A 
ATOM      7  C   UNL d   1      -1.467   1.313  -0.058  0.00  0.00     0.046 A 
ATOM      8  C   UNL d   1       1.996  -0.107   0.108  0.00  0.00     0.105 C 
ATOM      9  N   UNL d   1       3.153  -0.208   0.120  0.00  0.00    -0.191 NA
ENDROOT
BRANCH   2  10
ATOM     10  O   UNL d   1       0.384  -2.327   0.171  0.00  0.00    -0.325 OA
BRANCH  10  11
ATOM     11  C   UNL d   1      -0.423  -3.355   0.734  0.00  0.00     0.288 C 
BRANCH  11  12
ATOM     12  C   UNL d   1      -0.604  -3.236   2.242  0.00  0.00     0.283 C 
ATOM     13  O   UNL d   1      -0.156  -2.336   2.943  0.00  0.00    -0.263 OA
BRANCH  12  14
ATOM     14  O   UNL d   1      -1.252  -4.345   2.706  0.00  0.00    -0.320 OA
BRANCH  14  15
ATOM     15  C   UNL d   1      -1.148  -4.569   4.120  0.00  0.00     0.174 C 
ATOM     16  C   UNL d   1       0.121  -5.359   4.385  0.00  0.00     0.034 C 
ENDBRANCH  14  15
ENDBRANCH  12  14
ENDBRANCH  11  12
ENDBRANCH  10  11
ENDBRANCH   2  10
BRANCH   3  17
ATOM     17  C   UNL d   1       0.654   2.565  -0.031  0.00  0.00     0.086 A 
ATOM     18  O   UNL d   1       0.010   3.570  -0.702  0.00  0.00    -0.322 OA
ATOM     19  C   UNL d   1       0.796   4.674  -0.646  0.00  0.00     0.142 A 
ATOM     20  C   UNL d   1       1.946   4.404   0.053  0.00  0.00     0.027 A 
ATOM     21  C   UNL d   1       1.856   3.047   0.452  0.00  0.00     0.040 A 
ENDBRANCH   3  17
BRANCH   6  22
ATOM     22  C   UNL d   1      -3.646   0.058  -0.219  0.00  0.00     0.031 A 
ATOM     23  S   UNL d   1      -4.489   1.247  -1.131  0.00  0.00    -0.100 SA
ATOM     24  C   UNL d   1      -5.988   0.460  -0.924  0.00  0.00     0.050 A 
ATOM     25  C   UNL d   1      -5.867  -0.686  -0.171  0.00  0.00     0.008 A 
ATOM     26  C   UNL d   1      -4.520  -0.918   0.231  0.00  0.00     0.021 A 
ENDBRANCH   6  22
TORSDOF 7
