REMARK  3 active torsions:
REMARK  status: ('A' for Active; 'I' for Inactive)
REMARK    1  A    between atoms: C_7  and  C_3 
REMARK    2  A    between atoms: C_18  and  C_6 
REMARK    3  A    between atoms: C_10  and  C_9 
ROOT
ATOM      1  N   UNL d   1       1.252   0.175  -0.252  0.00  0.00    -0.318 N 
ATOM      2  HN  UNL d   1       2.220   0.308  -0.543  1.00  0.00     0.169 HD
ATOM      3  C   UNL d   1       0.291   1.125   0.000  0.00  0.00     0.145 A 
ATOM      4  N   UNL d   1      -0.911   0.627   0.325  0.00  0.00    -0.241 N 
ATOM      5  HN  UNL d   1      -1.771   1.135   0.534  1.00  0.00     0.196 HD
ATOM      6  C   UNL d   1       0.607  -0.947  -0.022  0.00  0.00     0.182 A 
ATOM      7  O   UNL d   1      -0.704  -0.752   0.309  0.00  0.00    -0.217 OA
ENDROOT
BRANCH   3   8
ATOM      8  C   UNL d   1       0.597   2.587  -0.035  0.00  0.00     0.051 A 
ATOM      9  S   UNL d   1      -0.506   3.813   0.390  0.00  0.00    -0.084 SA
ATOM     10  C   UNL d   1       0.657   5.048   0.152  0.00  0.00     0.041 A 
ATOM     11  C   UNL d   1       1.859   4.522  -0.285  0.00  0.00     0.023 A 
ATOM     12  C   UNL d   1       1.825   3.100  -0.391  0.00  0.00     0.024 A 
BRANCH  10  13
ATOM     13  C   UNL d   1       0.370   6.435   0.394  0.00  0.00     0.117 A 
ATOM     14  O   UNL d   1       1.313   7.419   0.226  0.00  0.00    -0.237 OA
ATOM     15  N   UNL d   1       0.776   8.657   0.531  0.00  0.00    -0.272 N 
ATOM     16  C   UNL d   1      -0.486   8.415   0.882  0.00  0.00     0.117 A 
ATOM     17  HN  UNL d   1       1.245   9.562   0.495  1.00  0.00     0.194 HD
ATOM     18  C   UNL d   1      -0.795   7.046   0.816  0.00  0.00     0.059 A 
ENDBRANCH  10  13
ENDBRANCH   3   8
BRANCH   6  19
ATOM     19  C   UNL d   1       1.106  -2.315   0.002  0.00  0.00     0.017 A 
ATOM     20  C   UNL d   1       2.473  -2.554  -0.220  0.00  0.00     0.016 A 
ATOM     21  C   UNL d   1       2.995  -3.846  -0.141  0.00  0.00     0.001 A 
ATOM     22  C   UNL d   1       2.157  -4.918   0.154  0.00  0.00     0.000 A 
ATOM     23  C   UNL d   1       0.796  -4.701   0.361  0.00  0.00     0.001 A 
ATOM     24  C   UNL d   1       0.272  -3.407   0.284  0.00  0.00     0.016 A 
ENDBRANCH   6  19
TORSDOF 3
