REMARK  4 active torsions:
REMARK  status: ('A' for Active; 'I' for Inactive)
REMARK    1  A    between atoms: C_11  and  C_3 
REMARK    2  A    between atoms: C_10  and  C_4 
REMARK    3  A    between atoms: O_19  and  C_11 
REMARK    4  A    between atoms: C_20  and  O_19 
ROOT
ATOM      1  N   UNL d   1       0.022  -0.465   0.004  0.00  0.00    -0.273 N 
ATOM      2  C   UNL d   1       1.368  -0.840   0.020  0.00  0.00     0.271 A 
ATOM      3  C   UNL d   1       2.341   0.272  -0.015  0.00  0.00     0.123 A 
ATOM      4  C   UNL d   1      -2.275  -1.170  -0.001  0.00  0.00     0.064 A 
ATOM      5  C   UNL d   1      -0.959  -1.454  -0.006  0.00  0.00     0.118 A 
ATOM      6  C   UNL d   1      -0.326   0.881   0.032  0.00  0.00     0.114 A 
ATOM      7  N   UNL d   1       0.528   1.855   0.054  0.00  0.00    -0.351 N 
ATOM      8  HN  UNL d   1       0.225   2.827   0.098  1.00  0.00     0.166 HD
ATOM      9  C   UNL d   1       1.852   1.521   0.015  0.00  0.00     0.113 A 
ATOM     10  C   UNL d   1      -2.683   0.222   0.014  0.00  0.00     0.021 A 
ATOM     11  C   UNL d   1      -1.776   1.205   0.032  0.00  0.00     0.050 A 
ATOM     12  O   UNL d   1       1.740  -2.013   0.080  0.00  0.00    -0.266 OA
ENDROOT
BRANCH   3  13
ATOM     13  C   UNL d   1       3.798   0.137  -0.181  0.00  0.00     0.300 C 
ATOM     14  O   UNL d   1       4.595   1.035   0.058  0.00  0.00    -0.259 OA
BRANCH  13  15
ATOM     15  O   UNL d   1       4.098  -1.032  -0.792  0.00  0.00    -0.318 OA
BRANCH  15  16
ATOM     16  C   UNL d   1       5.374  -1.090  -1.443  0.00  0.00     0.174 C 
ATOM     17  C   UNL d   1       5.180  -0.615  -2.872  0.00  0.00     0.034 C 
ENDBRANCH  15  16
ENDBRANCH  13  15
ENDBRANCH   3  13
BRANCH   4  18
ATOM     18  C   UNL d   1      -3.319  -2.252  -0.011  0.00  0.00     0.418 C 
ATOM     19  F   UNL d   1      -4.586  -1.764  -0.002  0.00  0.00    -0.166 F 
ATOM     20  F   UNL d   1      -3.210  -3.039  -1.110  0.00  0.00    -0.166 F 
ATOM     21  F   UNL d   1      -3.205  -3.063   1.071  0.00  0.00    -0.166 F 
ENDBRANCH   4  18
TORSDOF 4
