REMARK  2 active torsions:
REMARK  status: ('A' for Active; 'I' for Inactive)
REMARK    1  A    between atoms: C_7  and  N_1 
REMARK    2  A    between atoms: N_10  and  C_9 
ROOT
ATOM      1  N   UNL d   1       2.370  -0.641  -0.157  0.00  0.00    -0.265 N 
ATOM      2  C   UNL d   1       2.246   0.524  -0.921  0.00  0.00     0.266 A 
ATOM      3  C   UNL d   1       1.288  -1.177   0.518  0.00  0.00     0.087 A 
ATOM      4  C   UNL d   1       0.956   1.218  -0.832  0.00  0.00     0.060 A 
ATOM      5  N   UNL d   1       0.111  -0.625   0.532  0.00  0.00    -0.345 N 
ATOM      6  HN  UNL d   1      -0.669  -1.076   1.010  1.00  0.00     0.167 HD
ATOM      7  C   UNL d   1      -0.066   0.600  -0.121  0.00  0.00     0.049 A 
ATOM      8  O   UNL d   1       3.136   1.021  -1.610  0.00  0.00    -0.267 OA
ATOM      9  C   UNL d   1       0.786   2.484  -1.409  0.00  0.00     0.038 A 
ATOM     10  C   UNL d   1      -1.301   1.244  -0.028  0.00  0.00     0.032 A 
ATOM     11  C   UNL d   1      -0.439   3.122  -1.282  0.00  0.00     0.012 A 
ATOM     12  C   UNL d   1       1.418  -2.487   1.269  0.00  0.00     0.089 C 
ATOM     13  C   UNL d   1      -1.492   2.507  -0.607  0.00  0.00     0.021 A 
ATOM     14 BR   UNL d   1      -0.673   4.851  -2.011  0.00  0.00    -0.051 Br
ENDROOT
BRANCH   1  15
ATOM     15  C   UNL d   1       3.651  -1.257  -0.179  0.00  0.00     0.071 A 
ATOM     16  C   UNL d   1       4.606  -1.129   0.850  0.00  0.00     0.066 A 
ATOM     17  C   UNL d   1       5.856  -1.759   0.689  0.00  0.00     0.033 A 
ATOM     18  C   UNL d   1       6.165  -2.466  -0.478  0.00  0.00     0.009 A 
ATOM     19  C   UNL d   1       5.224  -2.592  -1.499  0.00  0.00    -0.060 A 
ATOM     20  C   UNL d   1       3.969  -1.997  -1.337  0.00  0.00     0.039 A 
ATOM     21  C   UNL d   1       5.590  -3.294  -2.774  0.00  0.00     0.048 C 
BRANCH  16  22
ATOM     22  N   UNL d   1       4.418  -0.335   2.025  0.00  0.00    -0.331 N 
ATOM     23  C   UNL d   1       5.049  -0.543   3.241  0.00  0.00     0.097 A 
ATOM     24  C   UNL d   1       4.705   0.462   4.118  0.00  0.00     0.019 A 
ATOM     25  C   UNL d   1       3.821   1.318   3.437  0.00  0.00     0.019 A 
ATOM     26  C   UNL d   1       3.654   0.805   2.170  0.00  0.00     0.097 A 
ENDBRANCH  16  22
ENDBRANCH   1  15
TORSDOF 2
