REMARK  3 active torsions:
REMARK  status: ('A' for Active; 'I' for Inactive)
REMARK    1  A    between atoms: N_4  and  C_1 
REMARK       I    between atoms: C_6  and  N_4 
REMARK    2  A    between atoms: C_9  and  C_5 
REMARK    3  A    between atoms: C_10  and  C_6 
ROOT
ATOM      1  C   UNL d   1       0.306  -1.174  -0.131  0.00  0.00     0.151 A 
ATOM      2  N   UNL d   1       1.439  -0.537  -0.248  0.00  0.00    -0.335 N 
ATOM      3  HN  UNL d   1       2.343  -0.979  -0.413  1.00  0.00     0.168 HD
ATOM      4  C   UNL d   1       1.235   0.826  -0.114  0.00  0.00     0.051 A 
ATOM      5  S   UNL d   1      -1.076  -0.214   0.144  0.00  0.00    -0.063 SA
ATOM      6  C   UNL d   1      -0.086   1.193   0.068  0.00  0.00     0.083 A 
ENDROOT
BRANCH   1   7
ATOM      7  N   UNL d   1       0.082  -2.527  -0.145  0.00  0.00    -0.303 N 
ATOM      8  C   UNL d   1       1.062  -3.400  -0.558  0.00  0.00     0.257 C 
ATOM      9  O   UNL d   1       2.115  -3.111  -1.116  0.00  0.00    -0.267 OA
ATOM     10  H   UNL d   1      -0.843  -2.843   0.097  0.00  0.00     0.171 HD
BRANCH   8  11
ATOM     11  C   UNL d   1       0.780  -4.845  -0.342  0.00  0.00     0.032 A 
ATOM     12  C   UNL d   1       1.290  -5.765  -1.271  0.00  0.00     0.018 A 
ATOM     13  C   UNL d   1       1.157  -7.138  -1.052  0.00  0.00     0.025 A 
ATOM     14  C   UNL d   1       0.522  -7.593   0.100  0.00  0.00     0.034 A 
ATOM     15  C   UNL d   1       0.001  -6.686   1.026  0.00  0.00     0.025 A 
ATOM     16 CL   UNL d   1       0.407  -9.283   0.400  0.00  0.00    -0.084 Cl
ATOM     17  C   UNL d   1       0.128  -5.310   0.807  0.00  0.00     0.018 A 
ENDBRANCH   8  11
ENDBRANCH   1   7
BRANCH   4  18
ATOM     18  C   UNL d   1       2.370   1.743  -0.084  0.00  0.00    -0.009 A 
ATOM     19  C   UNL d   1       2.271   3.082  -0.483  0.00  0.00     0.015 A 
ATOM     20  C   UNL d   1       3.381   3.932  -0.391  0.00  0.00     0.024 A 
ATOM     21  C   UNL d   1       4.591   3.446   0.101  0.00  0.00     0.034 A 
ATOM     22  C   UNL d   1       4.711   2.115   0.486  0.00  0.00     0.024 A 
ATOM     23 CL   UNL d   1       5.946   4.498   0.237  0.00  0.00    -0.084 Cl
ATOM     24  C   UNL d   1       3.605   1.267   0.386  0.00  0.00     0.015 A 
ENDBRANCH   4  18
TORSDOF 3
