REMARK  4 active torsions:
REMARK  status: ('A' for Active; 'I' for Inactive)
REMARK    1  A    between atoms: C_6  and  N_1 
REMARK    2  A    between atoms: C_7  and  C_6 
REMARK       I    between atoms: N_11  and  C_7 
REMARK    3  A    between atoms: C_8  and  C_12 
REMARK       I    between atoms: N_17  and  C_8 
REMARK    4  A    between atoms: C_18  and  N_11 
ROOT
ATOM      1  C   UNL d   1       3.798   1.636  -0.129  0.00  0.00     0.240 C 
ATOM      2  N   UNL d   1       2.841   2.630  -0.033  0.00  0.00    -0.326 N 
ATOM      3  O   UNL d   1       5.013   1.817  -0.183  0.00  0.00    -0.271 OA
ATOM      4  H   UNL d   1       1.888   2.325   0.104  0.00  0.00     0.169 HD
ENDROOT
BRANCH   1   5
ATOM      5  C   UNL d   1       3.252   0.202  -0.099  0.00  0.00     0.238 C 
BRANCH   5   6
ATOM      6  N   UNL d   1       1.819   0.074  -0.306  0.00  0.00    -0.271 N 
ATOM      7  C   UNL d   1       0.886   0.154   0.690  0.00  0.00     0.262 A 
ATOM      8  C   UNL d   1      -0.414  -0.061   0.060  0.00  0.00     0.048 A 
ATOM      9  O   UNL d   1       1.050   0.424   1.861  0.00  0.00    -0.267 OA
ATOM     10  C   UNL d   1      -1.684  -0.036   0.600  0.00  0.00     0.018 A 
ATOM     11  C   UNL d   1      -0.193  -0.278  -1.289  0.00  0.00     0.048 A 
ATOM     12  C   UNL d   1      -2.751  -0.267  -0.274  0.00  0.00     0.001 A 
ATOM     13  C   UNL d   1      -2.524  -0.521  -1.643  0.00  0.00     0.001 A 
ATOM     14  C   UNL d   1      -1.228  -0.525  -2.168  0.00  0.00     0.018 A 
ATOM     15  C   UNL d   1       1.244  -0.155  -1.525  0.00  0.00     0.262 A 
ATOM     16  O   UNL d   1       1.767  -0.215  -2.620  0.00  0.00    -0.267 OA
ENDBRANCH   5   6
ENDBRANCH   1   5
BRANCH   2  17
ATOM     17  C   UNL d   1       3.023   4.018  -0.183  0.00  0.00     0.034 A 
ATOM     18  C   UNL d   1       4.268   4.625  -0.355  0.00  0.00     0.030 A 
ATOM     19  C   UNL d   1       4.358   5.993  -0.629  0.00  0.00     0.019 A 
ATOM     20  C   UNL d   1       3.197   6.756  -0.753  0.00  0.00     0.032 A 
ATOM     21  C   UNL d   1       1.950   6.176  -0.509  0.00  0.00     0.019 A 
ATOM     22  C   UNL d   1       1.867   4.812  -0.215  0.00  0.00     0.030 A 
BRANCH  20  23
ATOM     23  C   UNL d   1       3.318   8.161  -1.204  0.00  0.00     0.249 C 
ATOM     24  O   UNL d   1       4.248   8.877  -0.860  0.00  0.00    -0.268 OA
ATOM     25  N   UNL d   1       2.377   8.581  -2.103  0.00  0.00    -0.366 N 
ATOM     26  H   UNL d   1       1.802   7.918  -2.604  0.00  0.00     0.159 HD
ATOM     27  H   UNL d   1       2.567   9.466  -2.558  0.00  0.00     0.159 HD
ENDBRANCH  20  23
ENDBRANCH   2  17
TORSDOF 4
