REMARK  3 active torsions:
REMARK  status: ('A' for Active; 'I' for Inactive)
REMARK       I    between atoms: N_2  and  C_1 
REMARK    1  A    between atoms: C_3  and  C_1 
REMARK       I    between atoms: C_4  and  N_2 
REMARK    2  A    between atoms: C_5  and  C_4 
REMARK    3  A    between atoms: O_14  and  C_6 
ROOT
ATOM      1  C   UNL d   1      -0.898  -1.259   0.004  0.00  0.00     0.261 C 
ATOM      2  N   UNL d   1       0.199  -1.007   0.809  0.00  0.00    -0.289 N 
ATOM      3  C   UNL d   1       0.861  -1.982   1.536  0.00  0.00     0.258 C 
ATOM      4  O   UNL d   1      -1.517  -2.316  -0.068  0.00  0.00    -0.267 OA
ATOM      5  O   UNL d   1       0.542  -3.160   1.614  0.00  0.00    -0.267 OA
ATOM      6  H   UNL d   1       0.485  -0.049   0.933  0.00  0.00     0.172 HD
ENDROOT
BRANCH   1   7
ATOM      7  C   UNL d   1      -1.421  -0.116  -0.787  0.00  0.00     0.065 A 
ATOM      8  C   UNL d   1      -2.798  -0.043  -1.051  0.00  0.00     0.081 A 
ATOM      9  C   UNL d   1      -3.324   1.006  -1.800  0.00  0.00     0.037 A 
ATOM     10  C   UNL d   1      -2.472   1.978  -2.324  0.00  0.00     0.003 A 
ATOM     11  C   UNL d   1      -1.097   1.901  -2.093  0.00  0.00     0.001 A 
ATOM     12  C   UNL d   1      -0.568   0.858  -1.324  0.00  0.00     0.020 A 
BRANCH   8  13
ATOM     13  O   UNL d   1      -3.693  -0.981  -0.609  0.00  0.00    -0.360 OA
ATOM     14  H   UNL d   1      -3.183  -1.775  -0.327  0.00  0.00     0.217 HD
ENDBRANCH   8  13
ENDBRANCH   1   7
BRANCH   3  15
ATOM     15  C   UNL d   1       2.050  -1.524   2.306  0.00  0.00     0.032 A 
ATOM     16  C   UNL d   1       2.337  -2.166   3.517  0.00  0.00     0.017 A 
ATOM     17  C   UNL d   1       3.464  -1.805   4.257  0.00  0.00     0.007 A 
ATOM     18  C   UNL d   1       4.327  -0.807   3.789  0.00  0.00    -0.062 A 
ATOM     19  C   UNL d   1       4.044  -0.174   2.572  0.00  0.00     0.007 A 
ATOM     20  C   UNL d   1       5.543  -0.443   4.590  0.00  0.00     0.048 C 
ATOM     21  C   UNL d   1       2.913  -0.531   1.829  0.00  0.00     0.017 A 
ENDBRANCH   3  15
TORSDOF 3
