REMARK  3 active torsions:
REMARK  status: ('A' for Active; 'I' for Inactive)
REMARK    1  A    between atoms: C_6  and  C_1 
REMARK    2  A    between atoms: C_5  and  C_18 
REMARK       I    between atoms: N_17  and  C_6 
REMARK    3  A    between atoms: C_23  and  N_17 
ROOT
ATOM      1  C   UNL d   1      -1.454  -3.025   0.607  0.00  0.00     0.258 C 
ATOM      2  N   UNL d   1      -0.293  -3.587   0.104  0.00  0.00    -0.323 N 
ATOM      3  O   UNL d   1      -1.517  -2.048   1.352  0.00  0.00    -0.267 OA
ATOM      4  H   UNL d   1      -0.397  -4.383  -0.522  0.00  0.00     0.169 HD
ENDROOT
BRANCH   2   5
ATOM      5  C   UNL d   1       1.014  -3.066   0.260  0.00  0.00     0.035 A 
ATOM      6  C   UNL d   1       1.319  -2.010   1.123  0.00  0.00     0.044 A 
ATOM      7  C   UNL d   1       2.594  -1.423   1.152  0.00  0.00     0.012 A 
ATOM      8  C   UNL d   1       3.595  -1.951   0.331  0.00  0.00     0.015 A 
ATOM      9  C   UNL d   1       3.320  -3.042  -0.497  0.00  0.00     0.003 A 
ATOM     10  C   UNL d   1       2.036  -3.597  -0.532  0.00  0.00     0.029 A 
BRANCH   7  11
ATOM     11  C   UNL d   1       2.818  -0.245   1.985  0.00  0.00     0.137 A 
ATOM     12  N   UNL d   1       1.825   0.277   2.788  0.00  0.00    -0.323 N 
ATOM     13  C   UNL d   1       2.383   1.358   3.274  0.00  0.00     0.144 A 
ATOM     14  HN  UNL d   1       0.889  -0.089   2.961  1.00  0.00     0.169 HD
ATOM     15  C   UNL d   1       1.810   2.391   4.154  0.00  0.00     0.100 C 
ATOM     16  O   UNL d   1       3.664   1.539   2.850  0.00  0.00    -0.223 OA
ATOM     17  N   UNL d   1       3.957   0.470   1.999  0.00  0.00    -0.242 N 
ATOM     18  HN  UNL d   1       4.829   0.278   1.505  1.00  0.00     0.196 HD
ENDBRANCH   7  11
ENDBRANCH   2   5
BRANCH   1  19
ATOM     19  C   UNL d   1      -2.747  -3.596   0.181  0.00  0.00     0.061 A 
ATOM     20  C   UNL d   1      -2.905  -4.797  -0.553  0.00  0.00     0.082 A 
ATOM     21  N   UNL d   1      -1.940  -5.629  -0.991  0.00  0.00    -0.310 N 
ATOM     22  C   UNL d   1      -4.294  -5.269  -0.938  0.00  0.00     0.068 A 
ATOM     23  S   UNL d   1      -2.706  -6.883  -1.769  0.00  0.00     0.068 SA
ATOM     24  HN  UNL d   1      -0.934  -5.512  -0.868  1.00  0.00     0.176 HD
ATOM     25  N   UNL d   1      -4.291  -6.423  -1.622  0.00  0.00    -0.310 N 
ATOM     26  HN  UNL d   1      -5.106  -6.920  -1.981  1.00  0.00     0.176 HD
ATOM     27  C   UNL d   1      -5.449  -4.527  -0.588  0.00  0.00     0.032 A 
ATOM     28  C   UNL d   1      -5.234  -3.345   0.134  0.00  0.00     0.003 A 
ATOM     29  C   UNL d   1      -3.945  -2.905   0.502  0.00  0.00     0.019 A 
ENDBRANCH   1  19
TORSDOF 3
