REMARK  4 active torsions:
REMARK  status: ('A' for Active; 'I' for Inactive)
REMARK    1  A    between atoms: C_3  and  C_9 
REMARK    2  A    between atoms: O_10  and  C_3 
REMARK    3  A    between atoms: C_13  and  C_8 
REMARK    4  A    between atoms: C_9  and  C_13 
ROOT
ATOM      1  C   UNL d   1       0.165   0.764   0.005  0.00  0.00    -0.022 A 
ATOM      2  C   UNL d   1       0.283  -0.615   0.037  0.00  0.00     0.075 A 
ATOM      3  O   UNL d   1       1.580  -1.056   0.089  0.00  0.00    -0.350 OA
ATOM      4  C   UNL d   1      -1.079   1.372  -0.038  0.00  0.00     0.017 A 
ATOM      5  C   UNL d   1      -0.820  -1.441   0.025  0.00  0.00     0.038 A 
ATOM      6  C   UNL d   1      -2.226   0.561  -0.067  0.00  0.00    -0.057 A 
ATOM      7  C   UNL d   1      -2.083  -0.845  -0.040  0.00  0.00     0.010 A 
ATOM      8  C   UNL d   1       2.351   0.127  -0.226  0.00  0.00     0.180 C 
ATOM      9  C   UNL d   1       1.512   1.370   0.079  0.00  0.00     0.068 C 
ENDROOT
BRANCH   6  10
ATOM     10  C   UNL d   1      -3.595   1.196  -0.174  0.00  0.00     0.049 C 
BRANCH  10  11
ATOM     11  C   UNL d   1      -4.506   0.869   1.008  0.00  0.00     0.114 C 
BRANCH  11  12
ATOM     12  C   UNL d   1      -5.841   1.562   0.870  0.00  0.00     0.139 C 
ATOM     13  O   UNL d   1      -6.163   2.296  -0.050  0.00  0.00    -0.650 OA
BRANCH  12  14
ATOM     14  O   UNL d   1      -6.675   1.282   1.897  0.00  0.00    -0.776 OA
ATOM     15  H   UNL d   1      -6.293   0.683   2.566  0.00  0.00     0.167 HD
ENDBRANCH  12  14
ENDBRANCH  11  12
ENDBRANCH  10  11
ENDBRANCH   6  10
TORSDOF 4
