REMARK  4 active torsions:
REMARK  status: ('A' for Active; 'I' for Inactive)
REMARK       I    between atoms: C_4  and  N_1 
REMARK       I    between atoms: C_5  and  N_1 
REMARK    1  A    between atoms: C_6  and  C_2 
REMARK    2  A    between atoms: C_16  and  C_4 
REMARK       I    between atoms: N_11  and  C_5 
REMARK    3  A    between atoms: C_8  and  C_18 
REMARK    4  A    between atoms: C_18  and  N_11 
ROOT
ATOM      1  N   UNL d   1       3.319   0.041   1.008  0.00  0.00    -0.275 N 
ATOM      2  C   UNL d   1       4.701  -0.003   0.956  0.00  0.00     0.259 C 
ATOM      3  C   UNL d   1       2.453  -0.052  -0.063  0.00  0.00     0.323 C 
ATOM      4  N   UNL d   1       3.052  -0.233  -1.272  0.00  0.00    -0.338 N 
ATOM      5  O   UNL d   1       5.335  -0.134  -0.090  0.00  0.00    -0.267 OA
ATOM      6  O   UNL d   1       1.238   0.021   0.104  0.00  0.00    -0.247 OA
ATOM      7  H   UNL d   1       2.847   0.211   1.880  0.00  0.00     0.173 HD
ATOM      8  H   UNL d   1       4.068  -0.194  -1.288  0.00  0.00     0.164 HD
ENDROOT
BRANCH   4   9
ATOM      9  C   UNL d   1       2.350  -0.338  -2.526  0.00  0.00     0.170 C 
BRANCH   9  10
ATOM     10  C   UNL d   1       3.364  -0.532  -3.614  0.00  0.00     0.001 A 
ATOM     11  S   UNL d   1       3.503   0.596  -4.895  0.00  0.00    -0.092 SA
ATOM     12  C   UNL d   1       4.730  -0.314  -5.685  0.00  0.00     0.022 A 
ATOM     13  C   UNL d   1       5.066  -1.427  -4.935  0.00  0.00     0.021 A 
ATOM     14  C   UNL d   1       4.283  -1.554  -3.751  0.00  0.00     0.018 A 
BRANCH  12  15
ATOM     15  C   UNL d   1       5.264   0.079  -6.971  0.00  0.00     0.021 A 
ATOM     16  S   UNL d   1       5.864  -1.092  -8.082  0.00  0.00    -0.101 SA
ATOM     17  C   UNL d   1       6.193   0.087  -9.271  0.00  0.00     0.050 A 
ATOM     18  C   UNL d   1       5.886   1.355  -8.837  0.00  0.00     0.008 A 
ATOM     19  C   UNL d   1       5.356   1.351  -7.511  0.00  0.00     0.021 A 
ENDBRANCH  12  15
ENDBRANCH   9  10
ENDBRANCH   4   9
BRANCH   2  20
ATOM     20  C   UNL d   1       5.464   0.139   2.222  0.00  0.00     0.032 A 
ATOM     21  C   UNL d   1       4.963  -0.229   3.474  0.00  0.00     0.017 A 
ATOM     22  C   UNL d   1       5.785  -0.134   4.602  0.00  0.00     0.001 A 
ATOM     23  C   UNL d   1       7.099   0.325   4.484  0.00  0.00     0.000 A 
ATOM     24  C   UNL d   1       7.600   0.696   3.240  0.00  0.00     0.001 A 
ATOM     25  C   UNL d   1       6.785   0.603   2.114  0.00  0.00     0.017 A 
ENDBRANCH   2  20
TORSDOF 4
