REMARK  7 active torsions:
REMARK  status: ('A' for Active; 'I' for Inactive)
REMARK    1  A    between atoms: C_9  and  C_1 
REMARK    2  A    between atoms: N_7  and  C_2 
REMARK    3  A    between atoms: O_21  and  C_9 
REMARK    4  A    between atoms: C_20  and  N_13 
REMARK    5  A    between atoms: O_23  and  C_15 
REMARK    6  A    between atoms: O_24  and  C_17 
REMARK    7  A    between atoms: C_30  and  O_21 
ROOT
ATOM      1  C   UNL d   1      -1.825   1.672  -0.261  0.00  0.00     0.097 A 
ATOM      2  C   UNL d   1      -3.150   1.147  -0.128  0.00  0.00     0.089 A 
ATOM      3  C   UNL d   1      -0.938   0.607  -0.073  0.00  0.00     0.064 A 
ATOM      4  N   UNL d   1      -1.733  -0.518   0.105  0.00  0.00    -0.347 N 
ATOM      5  C   UNL d   1      -3.074  -0.219   0.063  0.00  0.00     0.037 A 
ATOM      6  C   UNL d   1       0.544   0.466  -0.039  0.00  0.00     0.001 A 
ATOM      7  C   UNL d   1       1.071  -0.825  -0.218  0.00  0.00    -0.041 A 
ATOM      8  C   UNL d   1       1.450   1.506   0.229  0.00  0.00     0.054 A 
ATOM      9  C   UNL d   1      -1.148  -1.831   0.347  0.00  0.00     0.134 C 
ATOM     10  C   UNL d   1       2.852   1.283   0.279  0.00  0.00     0.102 A 
ATOM     11  C   UNL d   1       2.457  -1.031  -0.208  0.00  0.00     0.047 A 
ATOM     12  C   UNL d   1       3.361   0.001   0.055  0.00  0.00     0.102 A 
ATOM     13  C   UNL d   1       0.152  -2.003  -0.426  0.00  0.00     0.060 C 
ATOM     14  C   UNL d   1      -4.127  -1.265   0.203  0.00  0.00     0.071 C 
ENDROOT
BRANCH   2  15
ATOM     15  N   UNL d   1      -4.313   1.935  -0.278  0.00  0.00    -0.297 N 
ATOM     16  N   UNL d   1      -5.281   1.557   0.412  0.00  0.00    -0.300 N 
ATOM     17  HN  UNL d   1      -5.247   0.741   1.023  1.00  0.00     0.187 HD
ATOM     18  HN  UNL d   1      -4.357   2.744  -0.898  1.00  0.00     0.187 HD
BRANCH  16  19
ATOM     19  C   UNL d   1      -6.430   2.369   0.267  0.00  0.00     0.048 A 
ATOM     20  C   UNL d   1      -6.691   3.187  -0.842  0.00  0.00     0.031 A 
ATOM     21  C   UNL d   1      -7.830   3.999  -0.889  0.00  0.00     0.009 A 
ATOM     22  C   UNL d   1      -8.747   4.002   0.168  0.00  0.00    -0.062 A 
ATOM     23  C   UNL d   1      -8.528   3.147   1.251  0.00  0.00     0.009 A 
ATOM     24  C   UNL d   1      -9.917   4.942   0.145  0.00  0.00     0.048 C 
ATOM     25  C   UNL d   1      -7.385   2.339   1.294  0.00  0.00     0.031 A 
ENDBRANCH  16  19
ENDBRANCH   2  15
BRANCH   1  26
ATOM     26  C   UNL d   1      -1.454   3.050  -0.521  0.00  0.00     0.298 C 
ATOM     27  O   UNL d   1      -0.491   3.377  -1.217  0.00  0.00    -0.259 OA
BRANCH  26  28
ATOM     28  O   UNL d   1      -2.209   3.927   0.193  0.00  0.00    -0.318 OA
BRANCH  28  29
ATOM     29  C   UNL d   1      -1.599   5.195   0.449  0.00  0.00     0.174 C 
ATOM     30  C   UNL d   1      -0.909   5.110   1.799  0.00  0.00     0.034 C 
ENDBRANCH  28  29
ENDBRANCH  26  28
ENDBRANCH   1  26
BRANCH  10  31
ATOM     31  O   UNL d   1       3.613   2.325   0.757  0.00  0.00    -0.353 OA
ATOM     32  C   UNL d   1       4.291   3.062  -0.257  0.00  0.00     0.210 C 
ENDBRANCH  10  31
BRANCH  12  33
ATOM     33  O   UNL d   1       4.637  -0.482   0.112  0.00  0.00    -0.353 OA
ATOM     34  C   UNL d   1       5.739   0.380   0.293  0.00  0.00     0.210 C 
ENDBRANCH  12  33
TORSDOF 7
