REMARK  2 active torsions:
REMARK  status: ('A' for Active; 'I' for Inactive)
REMARK    1  A    between atoms: C_7  and  C_1 
REMARK       I    between atoms: C_9  and  N_10 
REMARK    2  A    between atoms: N_10  and  C_12 
ROOT
ATOM      1  C   UNL d   1      -0.613  -2.435  -0.028  0.00  0.00     0.019 A 
ATOM      2  C   UNL d   1      -1.405  -2.817  -1.124  0.00  0.00     0.045 A 
ATOM      3  C   UNL d   1      -1.822  -4.139  -1.297  0.00  0.00     0.035 A 
ATOM      4  C   UNL d   1      -0.259  -3.407   0.917  0.00  0.00     0.016 A 
ATOM      5  C   UNL d   1      -0.676  -4.730   0.761  0.00  0.00     0.003 A 
ATOM      6  C   UNL d   1      -1.449  -5.093  -0.342  0.00  0.00     0.029 A 
ENDROOT
BRANCH   1   7
ATOM      7  C   UNL d   1      -0.142  -1.064   0.124  0.00  0.00     0.173 A 
ATOM      8  N   UNL d   1       0.571  -0.505   1.082  0.00  0.00    -0.278 N 
ATOM      9  N   UNL d   1       0.767   0.812   0.710  0.00  0.00    -0.288 N 
ATOM     10  HN  UNL d   1       0.912  -0.955   1.931  1.00  0.00     0.189 HD
ATOM     11  C   UNL d   1       0.161   0.954  -0.445  0.00  0.00     0.251 A 
ATOM     12  HN  UNL d   1       1.278   1.528   1.227  1.00  0.00     0.188 HD
ATOM     13  O   UNL d   1      -0.441  -0.181  -0.885  0.00  0.00    -0.286 OA
ENDBRANCH   1   7
BRANCH   3  14
ATOM     14  N   UNL d   1      -2.591  -4.581  -2.395  0.00  0.00    -0.327 N 
ATOM     15  C   UNL d   1      -3.062  -3.819  -3.450  0.00  0.00     0.218 C 
ATOM     16  O   UNL d   1      -2.922  -2.610  -3.603  0.00  0.00    -0.274 OA
ATOM     17  C   UNL d   1      -3.810  -4.625  -4.481  0.00  0.00     0.117 C 
ATOM     18  H   UNL d   1      -2.811  -5.569  -2.409  0.00  0.00     0.169 HD
ENDBRANCH   3  14
TORSDOF 2
