REMARK  3 active torsions:
REMARK  status: ('A' for Active; 'I' for Inactive)
REMARK       I    between atoms: C_3  and  N_1 
REMARK    1  A    between atoms: C_2  and  C_3 
REMARK    2  A    between atoms: O_22  and  C_14 
REMARK    3  A    between atoms: O_23  and  C_16 
ROOT
ATOM      1  N   UNL d   1      -2.508   0.990  -0.151  0.00  0.00    -0.338 N 
ATOM      2  C   UNL d   1      -3.576   1.662  -0.761  0.00  0.00     0.271 C 
ATOM      3  C   UNL d   1      -0.060   0.760   0.199  0.00  0.00    -0.026 A 
ATOM      4  C   UNL d   1      -1.299   1.617   0.374  0.00  0.00     0.117 C 
ATOM      5  C   UNL d   1      -0.134  -0.620  -0.022  0.00  0.00    -0.045 A 
ATOM      6  C   UNL d   1       1.197   1.381   0.263  0.00  0.00     0.049 A 
ATOM      7  C   UNL d   1      -2.672  -0.430   0.183  0.00  0.00     0.131 C 
ATOM      8  C   UNL d   1       2.374   0.649   0.102  0.00  0.00     0.102 A 
ATOM      9  C   UNL d   1       1.054  -1.366  -0.143  0.00  0.00     0.047 A 
ATOM     10  C   UNL d   1       2.309  -0.743  -0.068  0.00  0.00     0.102 A 
ATOM     11  O   UNL d   1      -4.601   1.040  -1.051  0.00  0.00    -0.266 OA
ATOM     12  C   UNL d   1      -1.470  -1.287  -0.232  0.00  0.00     0.059 C 
ATOM     13  C   UNL d   1      -1.488   1.979   1.853  0.00  0.00     0.037 C 
ENDROOT
BRANCH   2  14
ATOM     14  C   UNL d   1      -3.470   3.069  -1.132  0.00  0.00     0.102 C 
ATOM     15  N   UNL d   1      -2.881   4.120  -0.462  0.00  0.00    -0.351 N 
ATOM     16  C   UNL d   1      -2.939   5.287  -1.195  0.00  0.00     0.044 A 
ATOM     17  H   UNL d   1      -2.442   4.066   0.443  0.00  0.00     0.166 HD
ATOM     18  C   UNL d   1      -2.389   6.551  -0.933  0.00  0.00     0.037 A 
ATOM     19  C   UNL d   1      -3.705   5.018  -2.325  0.00  0.00    -0.001 A 
ATOM     20  C   UNL d   1      -2.628   7.574  -1.861  0.00  0.00    -0.059 A 
ATOM     21  C   UNL d   1      -2.065   8.952  -1.654  0.00  0.00     0.048 C 
ATOM     22  C   UNL d   1      -3.408   7.320  -2.995  0.00  0.00     0.014 A 
ATOM     23  C   UNL d   1      -3.962   6.050  -3.255  0.00  0.00    -0.049 A 
ATOM     24  C   UNL d   1      -4.780   5.861  -4.501  0.00  0.00     0.049 C 
ATOM     25  C   UNL d   1      -4.062   3.644  -2.249  0.00  0.00     0.049 C 
ENDBRANCH   2  14
BRANCH   8  26
ATOM     26  O   UNL d   1       3.617   1.232   0.147  0.00  0.00    -0.353 OA
ATOM     27  C   UNL d   1       3.687   2.553  -0.383  0.00  0.00     0.210 C 
ENDBRANCH   8  26
BRANCH  10  28
ATOM     28  O   UNL d   1       3.513  -1.388  -0.184  0.00  0.00    -0.353 OA
ATOM     29  C   UNL d   1       3.499  -2.806  -0.256  0.00  0.00     0.210 C 
ENDBRANCH  10  28
TORSDOF 3
