REMARK  2 active torsions:
REMARK  status: ('A' for Active; 'I' for Inactive)
REMARK    1  A    between atoms: C_6  and  N_1 
REMARK    2  A    between atoms: C_13  and  N_7 
ROOT
ATOM      1  N   UNL d   1      -0.447  -0.976  -0.256  0.00  0.00    -0.261 N 
ATOM      2  C   UNL d   1      -1.639  -0.538   0.303  0.00  0.00     0.155 C 
ATOM      3  C   UNL d   1      -0.883   1.042  -1.430  0.00  0.00     0.097 A 
ATOM      4  C   UNL d   1      -0.003  -0.163  -1.295  0.00  0.00     0.249 C 
ATOM      5  S   UNL d   1      -1.781   1.197   0.036  0.00  0.00    -0.073 SA
ATOM      6  N   UNL d   1      -2.523  -1.308   0.854  0.00  0.00    -0.336 N 
ATOM      7  HN  UNL d   1      -2.298  -2.296   0.971  1.00  0.00     0.168 HD
ATOM      8  C   UNL d   1      -1.592   1.317  -2.739  0.00  0.00     0.033 A 
ATOM      9  C   UNL d   1      -0.502   2.235  -2.263  0.00  0.00     0.033 A 
ATOM     10  O   UNL d   1       0.940  -0.312  -2.057  0.00  0.00    -0.271 OA
ENDROOT
BRANCH   1  11
ATOM     11  C   UNL d   1       0.299  -2.117   0.221  0.00  0.00     0.046 A 
ATOM     12  C   UNL d   1       1.393  -2.647  -0.486  0.00  0.00     0.054 A 
ATOM     13  C   UNL d   1       2.198  -3.654   0.060  0.00  0.00     0.036 A 
ATOM     14 CL   UNL d   1       3.555  -4.238  -0.827  0.00  0.00    -0.084 Cl
ATOM     15  C   UNL d   1       1.932  -4.172   1.319  0.00  0.00     0.024 A 
ATOM     16  C   UNL d   1       0.841  -3.687   2.030  0.00  0.00     0.004 A 
ATOM     17  C   UNL d   1       0.037  -2.675   1.488  0.00  0.00     0.030 A 
ENDBRANCH   1  11
BRANCH   6  18
ATOM     18  C   UNL d   1      -3.779  -0.853   1.302  0.00  0.00     0.035 A 
ATOM     19  C   UNL d   1      -4.636  -0.052   0.533  0.00  0.00     0.053 A 
ATOM     20  C   UNL d   1      -5.842   0.410   1.059  0.00  0.00     0.036 A 
ATOM     21 CL   UNL d   1      -6.803   1.507   0.145  0.00  0.00    -0.084 Cl
ATOM     22  C   UNL d   1      -6.264   0.003   2.320  0.00  0.00     0.024 A 
ATOM     23  C   UNL d   1      -5.472  -0.878   3.053  0.00  0.00     0.004 A 
ATOM     24  C   UNL d   1      -4.237  -1.296   2.546  0.00  0.00     0.029 A 
ENDBRANCH   6  18
TORSDOF 2
