REMARK  6 active torsions:
REMARK  status: ('A' for Active; 'I' for Inactive)
REMARK    1  A    between atoms: C_13  and  C_4 
REMARK    2  A    between atoms: C_15  and  N_5 
REMARK    3  A    between atoms: C_16  and  N_9 
REMARK    4  A    between atoms: C_17  and  C_12 
REMARK    5  A    between atoms: O_19  and  C_13 
REMARK    6  A    between atoms: C_26  and  O_19 
ROOT
ATOM      1  C   UNL d   1      -0.416   1.219   0.166  0.00  0.00     0.099 C 
ATOM      2  C   UNL d   1      -0.660   2.467   0.627  0.00  0.00     0.118 C 
ATOM      3  C   UNL d   1       0.939   0.653  -0.126  0.00  0.00     0.282 C 
ATOM      4  C   UNL d   1      -1.672   4.321   1.799  0.00  0.00     0.167 C 
ATOM      5  N   UNL d   1       0.217   3.477   1.083  0.00  0.00    -0.247 N 
ATOM      6  S   UNL d   1      -2.328   3.069   0.805  0.00  0.00    -0.044 SA
ATOM      7  N   UNL d   1      -0.391   4.489   1.860  0.00  0.00    -0.281 N 
ATOM      8  HN  UNL d   1       0.094   5.221   2.378  1.00  0.00     0.188 HD
ATOM      9  N   UNL d   1       0.658  -0.365  -1.052  0.00  0.00    -0.219 N 
ATOM     10  N   UNL d   1      -0.683  -0.694  -1.116  0.00  0.00    -0.289 N 
ATOM     11  HN  UNL d   1      -1.099  -1.446  -1.666  1.00  0.00     0.188 HD
ATOM     12  C   UNL d   1      -1.317   0.143  -0.337  0.00  0.00     0.077 C 
ATOM     13  O   UNL d   1       1.997   0.996   0.364  0.00  0.00    -0.265 OA
ENDROOT
BRANCH  12  14
ATOM     14  C   UNL d   1      -2.728  -0.086   0.014  0.00  0.00    -0.007 A 
ATOM     15  C   UNL d   1      -3.210   0.123   1.310  0.00  0.00     0.014 A 
ATOM     16  C   UNL d   1      -4.564  -0.066   1.592  0.00  0.00     0.001 A 
ATOM     17  C   UNL d   1      -5.418  -0.560   0.608  0.00  0.00     0.000 A 
ATOM     18  C   UNL d   1      -4.919  -0.872  -0.656  0.00  0.00     0.001 A 
ATOM     19  C   UNL d   1      -3.577  -0.632  -0.955  0.00  0.00     0.014 A 
ENDBRANCH  12  14
BRANCH   5  20
ATOM     20  C   UNL d   1       1.447   3.880   0.481  0.00  0.00     0.057 A 
ATOM     21  C   UNL d   1       1.754   3.634  -0.869  0.00  0.00     0.031 A 
ATOM     22  C   UNL d   1       3.002   3.975  -1.401  0.00  0.00     0.002 A 
ATOM     23  C   UNL d   1       3.950   4.613  -0.606  0.00  0.00     0.000 A 
ATOM     24  C   UNL d   1       3.645   4.924   0.716  0.00  0.00     0.002 A 
ATOM     25  C   UNL d   1       2.404   4.566   1.250  0.00  0.00     0.031 A 
ENDBRANCH   5  20
BRANCH   9  26
ATOM     26  C   UNL d   1       1.567  -1.133  -1.826  0.00  0.00     0.060 A 
ATOM     27  C   UNL d   1       2.950  -0.923  -1.786  0.00  0.00     0.031 A 
ATOM     28  C   UNL d   1       3.815  -1.683  -2.584  0.00  0.00     0.002 A 
ATOM     29  C   UNL d   1       3.311  -2.659  -3.441  0.00  0.00     0.000 A 
ATOM     30  C   UNL d   1       1.939  -2.876  -3.503  0.00  0.00     0.002 A 
ATOM     31  C   UNL d   1       1.078  -2.121  -2.701  0.00  0.00     0.031 A 
ENDBRANCH   9  26
BRANCH   4  32
ATOM     32  C   UNL d   1      -2.807   5.078   2.430  0.00  0.00     0.318 C 
ATOM     33  O   UNL d   1      -3.715   4.548   3.038  0.00  0.00    -0.257 OA
BRANCH  32  34
ATOM     34  O   UNL d   1      -2.687   6.381   2.090  0.00  0.00    -0.316 OA
BRANCH  34  35
ATOM     35  C   UNL d   1      -3.898   7.147   2.153  0.00  0.00     0.175 C 
ATOM     36  C   UNL d   1      -4.507   7.126   0.763  0.00  0.00     0.034 C 
ENDBRANCH  34  35
ENDBRANCH  32  34
ENDBRANCH   4  32
TORSDOF 6
