REMARK  6 active torsions:
REMARK  status: ('A' for Active; 'I' for Inactive)
REMARK    1  A    between atoms: C_7  and  C_1 
REMARK    2  A    between atoms: C_9  and  N_2 
REMARK       I    between atoms: N_11  and  C_7 
REMARK    3  A    between atoms: C_8  and  C_12 
REMARK    4  A    between atoms: C_21  and  N_11 
REMARK    5  A    between atoms: C_23  and  C_21 
REMARK    6  A    between atoms: O_29  and  C_24 
ROOT
ATOM      1  C   UNL d   1      -0.755   2.474  -0.249  0.00  0.00     0.255 C 
ATOM      2  N   UNL d   1       0.060   3.571  -0.022  0.00  0.00    -0.353 N 
ATOM      3  O   UNL d   1      -1.939   2.613  -0.549  0.00  0.00    -0.268 OA
ATOM      4  H   UNL d   1       0.901   3.441   0.515  0.00  0.00     0.163 HD
ENDROOT
BRANCH   1   5
ATOM      5  C   UNL d   1      -0.208   1.137  -0.064  0.00  0.00     0.073 C 
ATOM      6  C   UNL d   1       1.087   0.624   0.034  0.00  0.00     0.048 C 
ATOM      7  N   UNL d   1       0.942  -0.767   0.103  0.00  0.00    -0.260 N 
ATOM      8  C   UNL d   1       2.394   1.327   0.114  0.00  0.00     0.071 C 
ATOM      9  N   UNL d   1      -0.354  -1.114   0.304  0.00  0.00    -0.304 N 
ATOM     10  C   UNL d   1      -1.034   0.002   0.087  0.00  0.00     0.126 C 
ATOM     11  HN  UNL d   1      -0.722  -2.029   0.565  1.00  0.00     0.186 HD
BRANCH   7  12
ATOM     12  C   UNL d   1       1.894  -1.821  -0.026  0.00  0.00     0.056 A 
ATOM     13  C   UNL d   1       1.616  -3.056   0.585  0.00  0.00     0.034 A 
ATOM     14  C   UNL d   1       2.494  -4.137   0.453  0.00  0.00     0.039 A 
ATOM     15  C   UNL d   1       3.647  -4.008  -0.317  0.00  0.00     0.068 A 
ATOM     16  C   UNL d   1       3.915  -2.786  -0.943  0.00  0.00     0.039 A 
ATOM     17  C   UNL d   1       3.046  -1.694  -0.804  0.00  0.00     0.034 A 
BRANCH  15  18
ATOM     18  O   UNL d   1       4.575  -4.989  -0.539  0.00  0.00    -0.356 OA
ATOM     19  C   UNL d   1       4.261  -6.288  -0.047  0.00  0.00     0.210 C 
ENDBRANCH  15  18
ENDBRANCH   7  12
ENDBRANCH   1   5
BRANCH   2  20
ATOM     20  C   UNL d   1      -0.615   4.849   0.051  0.00  0.00     0.161 C 
BRANCH  20  21
ATOM     21  C   UNL d   1       0.243   6.077   0.214  0.00  0.00    -0.040 A 
ATOM     22  C   UNL d   1       1.538   6.203  -0.295  0.00  0.00     0.010 A 
ATOM     23  C   UNL d   1       2.224   7.428  -0.203  0.00  0.00     0.013 A 
ATOM     24  C   UNL d   1       1.630   8.560   0.380  0.00  0.00    -0.019 A 
ATOM     25  C   UNL d   1       0.328   8.427   0.875  0.00  0.00     0.013 A 
ATOM     26  C   UNL d   1      -0.352   7.209   0.795  0.00  0.00     0.010 A 
BRANCH  24  27
ATOM     27  C   UNL d   1       2.340   9.855   0.419  0.00  0.00     0.015 A 
ATOM     28  S   UNL d   1       2.070  10.973   1.704  0.00  0.00    -0.101 SA
ATOM     29  C   UNL d   1       3.137  12.126   1.038  0.00  0.00     0.050 A 
ATOM     30  C   UNL d   1       3.724  11.673  -0.120  0.00  0.00     0.008 A 
ATOM     31  C   UNL d   1       3.268  10.368  -0.472  0.00  0.00     0.020 A 
ENDBRANCH  24  27
ENDBRANCH  20  21
ENDBRANCH   2  20
TORSDOF 6
