REMARK  3 active torsions:
REMARK  status: ('A' for Active; 'I' for Inactive)
REMARK    1  A    between atoms: C_3  and  C_1 
REMARK    2  A    between atoms: C_10  and  N_2 
REMARK    3  A    between atoms: C_8  and  C_9 
ROOT
ATOM      1  C   UNL d   1      -0.174  -1.315   0.034  0.00  0.00     0.151 A 
ATOM      2  N   UNL d   1       1.071  -0.677  -0.008  0.00  0.00    -0.224 N 
ATOM      3  N   UNL d   1       0.874   0.635   0.260  0.00  0.00     0.001 NA
ATOM      4  N   UNL d   1      -0.435   0.809   0.312  0.00  0.00    -0.007 NA
ATOM      5  N   UNL d   1      -1.094  -0.381   0.193  0.00  0.00    -0.269 N 
ATOM      6  HN  UNL d   1      -2.104  -0.522   0.220  1.00  0.00     0.185 HD
ENDROOT
BRANCH   1   7
ATOM      7  C   UNL d   1      -0.438  -2.754   0.095  0.00  0.00     0.041 A 
ATOM      8  C   UNL d   1      -1.463  -3.401  -0.616  0.00  0.00     0.064 A 
ATOM      9  C   UNL d   1      -1.623  -4.792  -0.443  0.00  0.00     0.034 A 
ATOM     10  C   UNL d   1      -0.774  -5.481   0.402  0.00  0.00     0.088 A 
ATOM     11  N   UNL d   1       0.197  -4.884   1.110  0.00  0.00    -0.374 N 
ATOM     12  C   UNL d   1       0.324  -3.546   0.962  0.00  0.00     0.103 A 
ATOM     13  HN  UNL d   1       0.810  -5.413   1.730  1.00  0.00     0.164 HD
BRANCH   8  14
ATOM     14  C   UNL d   1      -2.442  -2.722  -1.546  0.00  0.00     0.418 C 
ATOM     15  F   UNL d   1      -2.110  -1.468  -1.945  0.00  0.00    -0.166 F 
ATOM     16  F   UNL d   1      -2.588  -3.428  -2.706  0.00  0.00    -0.166 F 
ATOM     17  F   UNL d   1      -3.689  -2.646  -1.010  0.00  0.00    -0.166 F 
ENDBRANCH   8  14
ENDBRANCH   1   7
BRANCH   2  18
ATOM     18  C   UNL d   1       2.380  -1.184  -0.223  0.00  0.00     0.056 A 
ATOM     19  C   UNL d   1       2.603  -2.358  -0.956  0.00  0.00     0.033 A 
ATOM     20  C   UNL d   1       3.899  -2.869  -1.080  0.00  0.00     0.026 A 
ATOM     21  C   UNL d   1       4.973  -2.210  -0.484  0.00  0.00     0.034 A 
ATOM     22  C   UNL d   1       4.766  -1.025   0.214  0.00  0.00     0.026 A 
ATOM     23 CL   UNL d   1       6.558  -2.865  -0.612  0.00  0.00    -0.084 Cl
ATOM     24  C   UNL d   1       3.475  -0.499   0.331  0.00  0.00     0.033 A 
ENDBRANCH   2  18
TORSDOF 3
