REMARK  2 active torsions:
REMARK  status: ('A' for Active; 'I' for Inactive)
REMARK    1  A    between atoms: C_11  and  C_4 
REMARK    2  A    between atoms: C_8  and  C_7 
ROOT
ATOM      1  N   UNL d   1       1.500   0.376  -0.065  0.00  0.00    -0.337 N 
ATOM      2  HN  UNL d   1       2.331   0.968  -0.082  1.00  0.00     0.167 HD
ATOM      3  N   UNL d   1       0.196  -1.451  -0.068  0.00  0.00    -0.307 N 
ATOM      4  C   UNL d   1       1.447  -0.923  -0.065  0.00  0.00     0.119 A 
ATOM      5  C   UNL d   1       0.178   0.775  -0.038  0.00  0.00     0.103 A 
ATOM      6  C   UNL d   1      -0.703  -0.434  -0.088  0.00  0.00     0.273 A 
ATOM      7  C   UNL d   1      -0.219   2.051   0.052  0.00  0.00     0.048 C 
ATOM      8  O   UNL d   1      -1.911  -0.517  -0.161  0.00  0.00    -0.266 OA
ATOM      9  H   UNL d   1      -0.075  -2.417  -0.139  0.00  0.00     0.170 HD
ENDROOT
BRANCH   7  10
ATOM     10  C   UNL d   1      -1.621   2.474   0.120  0.00  0.00    -0.012 A 
ATOM     11  C   UNL d   1      -2.308   2.627   1.337  0.00  0.00     0.045 A 
ATOM     12  C   UNL d   1      -3.662   2.969   1.349  0.00  0.00     0.048 A 
ATOM     13 CL   UNL d   1      -1.519   2.402   2.860  0.00  0.00    -0.083 Cl
ATOM     14  C   UNL d   1      -4.333   3.163   0.144  0.00  0.00     0.035 A 
ATOM     15  C   UNL d   1      -3.662   3.033  -1.071  0.00  0.00     0.024 A 
ATOM     16 CL   UNL d   1      -6.006   3.565   0.153  0.00  0.00    -0.084 Cl
ATOM     17  C   UNL d   1      -2.308   2.690  -1.083  0.00  0.00     0.015 A 
ENDBRANCH   7  10
BRANCH   4  18
ATOM     18  C   UNL d   1       2.621  -1.811  -0.077  0.00  0.00     0.008 A 
ATOM     19  C   UNL d   1       3.815  -1.342  -0.635  0.00  0.00     0.015 A 
ATOM     20  C   UNL d   1       4.949  -2.156  -0.642  0.00  0.00     0.001 A 
ATOM     21  C   UNL d   1       4.894  -3.433  -0.082  0.00  0.00     0.000 A 
ATOM     22  C   UNL d   1       3.707  -3.900   0.482  0.00  0.00     0.001 A 
ATOM     23  C   UNL d   1       2.568  -3.092   0.484  0.00  0.00     0.015 A 
ENDBRANCH   4  18
TORSDOF 2
