REMARK  5 active torsions:
REMARK  status: ('A' for Active; 'I' for Inactive)
REMARK    1  A    between atoms: C_9  and  C_1 
REMARK    2  A    between atoms: C_16  and  C_3 
REMARK    3  A    between atoms: C_12  and  C_4 
REMARK       I    between atoms: N_15  and  C_9 
REMARK    4  A    between atoms: C_11  and  C_21 
REMARK    5  A    between atoms: C_21  and  N_15 
ROOT
ATOM      1  C   UNL d   1      -2.795  -1.330   0.014  0.00  0.00     0.254 C 
ATOM      2  N   UNL d   1      -4.041  -0.733   0.041  0.00  0.00    -0.351 N 
ATOM      3  O   UNL d   1      -2.710  -2.558  -0.017  0.00  0.00    -0.268 OA
ATOM      4  H   UNL d   1      -4.201   0.258   0.112  0.00  0.00     0.163 HD
ENDROOT
BRANCH   2   5
ATOM      5  C   UNL d   1      -5.174  -1.628   0.052  0.00  0.00     0.180 C 
BRANCH   5   6
ATOM      6  C   UNL d   1      -6.515  -0.971   0.066  0.00  0.00     0.034 A 
ATOM      7  N   UNL d   1      -6.686   0.413   0.096  0.00  0.00    -0.351 N 
ATOM      8  C   UNL d   1      -7.979   0.709   0.111  0.00  0.00     0.091 A 
ATOM      9  HN  UNL d   1      -5.929   1.096   0.104  1.00  0.00     0.166 HD
ATOM     10  S   UNL d   1      -9.038  -0.653   0.083  0.00  0.00    -0.081 SA
ATOM     11  C   UNL d   1      -7.695  -1.694   0.057  0.00  0.00     0.078 A 
BRANCH   8  12
ATOM     12  C   UNL d   1      -8.465   2.074   0.146  0.00  0.00     0.038 A 
ATOM     13  S   UNL d   1     -10.136   2.487   0.234  0.00  0.00    -0.099 SA
ATOM     14  C   UNL d   1      -9.808   4.161   0.240  0.00  0.00     0.050 A 
ATOM     15  C   UNL d   1      -8.459   4.420   0.174  0.00  0.00     0.008 A 
ATOM     16  C   UNL d   1      -7.688   3.219   0.120  0.00  0.00     0.022 A 
ENDBRANCH   8  12
ENDBRANCH   5   6
ENDBRANCH   2   5
BRANCH   1  17
ATOM     17  C   UNL d   1      -1.576  -0.530   0.024  0.00  0.00     0.063 A 
ATOM     18  C   UNL d   1      -0.274  -1.145   0.019  0.00  0.00     0.053 A 
ATOM     19  C   UNL d   1       0.672  -0.149   0.015  0.00  0.00     0.062 A 
ATOM     20  O   UNL d   1       0.035   1.054   0.026  0.00  0.00    -0.318 OA
ATOM     21  C   UNL d   1      -1.317   0.832   0.029  0.00  0.00     0.065 A 
ATOM     22  C   UNL d   1      -2.098   2.086   0.028  0.00  0.00     0.077 C 
BRANCH  19  23
ATOM     23  C   UNL d   1       2.180  -0.129  -0.009  0.00  0.00    -0.002 C 
ATOM     24  C   UNL d   1       2.755  -1.560  -0.010  0.00  0.00     0.021 C 
ATOM     25  C   UNL d   1       2.668   0.589  -1.279  0.00  0.00     0.021 C 
ATOM     26  C   UNL d   1       2.713   0.605   1.234  0.00  0.00     0.021 C 
ENDBRANCH  19  23
ENDBRANCH   1  17
TORSDOF 5
