REMARK  4 active torsions:
REMARK  status: ('A' for Active; 'I' for Inactive)
REMARK    1  A    between atoms: C_8  and  N_1 
REMARK    2  A    between atoms: C_7  and  C_2 
REMARK    3  A    between atoms: N_12  and  C_9 
REMARK    4  A    between atoms: C_13  and  N_12 
ROOT
ATOM      1  N   UNL d   1       3.756   0.678   0.048  0.00  0.00    -0.225 N 
ATOM      2  C   UNL d   1       3.652  -0.712  -0.037  0.00  0.00     0.139 C 
ATOM      3  N   UNL d   1       5.729  -0.142  -0.087  0.00  0.00    -0.007 NA
ATOM      4  N   UNL d   1       5.062   1.001  -0.117  0.00  0.00     0.001 NA
ATOM      5  N   UNL d   1       4.875  -1.209  -0.025  0.00  0.00    -0.270 N 
ATOM      6  HN  UNL d   1       5.133  -2.195   0.022  1.00  0.00     0.185 HD
ENDROOT
BRANCH   2   7
ATOM      7  C   UNL d   1       2.409  -1.361  -0.240  0.00  0.00     0.068 C 
ATOM      8  C   UNL d   1       2.173  -2.635   0.100  0.00  0.00     0.092 C 
BRANCH   8   9
ATOM      9  N   UNL d   1       2.998  -3.563   0.676  0.00  0.00    -0.366 N 
ATOM     10  H   UNL d   1       3.976  -3.291   0.773  0.00  0.00     0.165 HD
BRANCH   9  11
ATOM     11  C   UNL d   1       2.673  -4.873   1.073  0.00  0.00     0.031 A 
ATOM     12  C   UNL d   1       3.700  -5.811   1.247  0.00  0.00     0.030 A 
ATOM     13  C   UNL d   1       3.418  -7.146   1.571  0.00  0.00     0.009 A 
ATOM     14  C   UNL d   1       2.098  -7.574   1.733  0.00  0.00    -0.062 A 
ATOM     15  C   UNL d   1       1.067  -6.648   1.565  0.00  0.00     0.009 A 
ATOM     16  C   UNL d   1       1.798  -9.011   2.042  0.00  0.00     0.048 C 
ATOM     17  C   UNL d   1       1.355  -5.317   1.240  0.00  0.00     0.030 A 
ENDBRANCH   9  11
ENDBRANCH   8   9
ENDBRANCH   2   7
BRANCH   1  18
ATOM     18  C   UNL d   1       2.789   1.687   0.317  0.00  0.00     0.056 A 
ATOM     19  C   UNL d   1       1.598   1.392   1.002  0.00  0.00     0.034 A 
ATOM     20  C   UNL d   1       0.681   2.409   1.283  0.00  0.00     0.044 A 
ATOM     21  C   UNL d   1       0.952   3.712   0.885  0.00  0.00     0.116 A 
ATOM     22  C   UNL d   1       2.130   4.024   0.218  0.00  0.00     0.044 A 
ATOM     23  F   UNL d   1       0.071   4.682   1.163  0.00  0.00    -0.206 F 
ATOM     24  C   UNL d   1       3.058   3.015  -0.058  0.00  0.00     0.034 A 
ENDBRANCH   1  18
TORSDOF 4
