REMARK  2 active torsions:
REMARK  status: ('A' for Active; 'I' for Inactive)
REMARK    1  A    between atoms: C_2  and  C_1 
REMARK    2  A    between atoms: N_5  and  C_3 
REMARK       I    between atoms: C_4  and  N_5 
REMARK       I    between atoms: N_12  and  C_4 
ROOT
ATOM      1  C   UNL d   1       0.714  -1.371   0.406  0.00  0.00     0.077 A 
ATOM      2  C   UNL d   1      -0.267  -1.425   1.411  0.00  0.00     0.066 A 
ATOM      3  N   UNL d   1      -0.263  -3.861   1.266  0.00  0.00    -0.373 N 
ATOM      4  HN  UNL d   1      -0.632  -4.761   1.573  1.00  0.00     0.164 HD
ATOM      5  C   UNL d   1      -0.715  -2.693   1.789  0.00  0.00     0.117 A 
ATOM      6  C   UNL d   1       1.205  -2.577  -0.128  0.00  0.00     0.035 A 
ATOM      7  C   UNL d   1       0.695  -3.777   0.327  0.00  0.00     0.088 A 
ENDROOT
BRANCH   2   8
ATOM      8  N   UNL d   1      -0.781  -0.240   1.986  0.00  0.00    -0.307 N 
ATOM      9  C   UNL d   1      -1.393  -0.148   3.219  0.00  0.00     0.320 C 
ATOM     10  O   UNL d   1      -1.502  -1.058   4.030  0.00  0.00    -0.247 OA
ATOM     11  N   UNL d   1      -1.822   1.135   3.467  0.00  0.00    -0.347 N 
ATOM     12  C   UNL d   1      -2.372   1.519   4.744  0.00  0.00     0.151 C 
ATOM     13  H   UNL d   1      -1.975   1.750   2.681  0.00  0.00     0.163 HD
ATOM     14  H   UNL d   1      -0.468   0.647   1.607  0.00  0.00     0.170 HD
ENDBRANCH   2   8
BRANCH   1  15
ATOM     15  C   UNL d   1       1.325  -0.091  -0.088  0.00  0.00     0.419 C 
ATOM     16  F   UNL d   1       0.663   1.035   0.312  0.00  0.00    -0.166 F 
ATOM     17  F   UNL d   1       1.368  -0.022  -1.449  0.00  0.00    -0.166 F 
ATOM     18  F   UNL d   1       2.610   0.069   0.332  0.00  0.00    -0.166 F 
ENDBRANCH   1  15
TORSDOF 2
