REMARK  6 active torsions:
REMARK  status: ('A' for Active; 'I' for Inactive)
REMARK    1  A    between atoms: O_4  and  C_1 
REMARK    2  A    between atoms: C_10  and  O_4 
REMARK       I    between atoms: C_9  and  N_19 
REMARK    3  A    between atoms: C_15  and  C_9 
REMARK    4  A    between atoms: C_16  and  C_17 
REMARK    5  A    between atoms: O_27  and  C_16 
REMARK    6  A    between atoms: N_19  and  C_23 
ROOT
ATOM      1  N   UNL d   1       2.883   3.978  -1.155  0.00  0.00    -0.344 N 
ATOM      2  HN  UNL d   1       2.396   3.801  -2.034  1.00  0.00     0.167 HD
ATOM      3  C   UNL d   1       2.339   3.657   0.038  0.00  0.00     0.149 A 
ATOM      4  C   UNL d   1       4.802   4.875   0.044  0.00  0.00     0.050 A 
ATOM      5  C   UNL d   1       4.109   4.549  -1.122  0.00  0.00     0.119 A 
ATOM      6  C   UNL d   1       2.903   4.012   1.253  0.00  0.00     0.059 A 
ATOM      7  C   UNL d   1       4.150   4.635   1.252  0.00  0.00     0.035 A 
ENDROOT
BRANCH   3   8
ATOM      8  O   UNL d   1       1.117   3.010   0.097  0.00  0.00    -0.276 OA
BRANCH   8   9
ATOM      9  C   UNL d   1       0.830   2.085  -0.902  0.00  0.00     0.163 A 
ATOM     10  C   UNL d   1      -0.521   1.879  -1.192  0.00  0.00     0.042 A 
ATOM     11  C   UNL d   1      -0.768   0.912  -2.173  0.00  0.00     0.049 A 
ATOM     12  C   UNL d   1      -1.597   2.554  -0.567  0.00  0.00     0.020 A 
ATOM     13  C   UNL d   1      -2.086   0.640  -2.517  0.00  0.00     0.054 A 
ATOM     14  N   UNL d   1       0.214   0.238  -2.783  0.00  0.00    -0.351 N 
ATOM     15  C   UNL d   1      -3.148   1.302  -1.898  0.00  0.00     0.036 A 
ATOM     16  C   UNL d   1      -2.910   2.260  -0.920  0.00  0.00     0.025 A 
ATOM     17 CL   UNL d   1      -4.766   0.925  -2.344  0.00  0.00    -0.084 Cl
ATOM     18  C   UNL d   1       1.469   0.502  -2.391  0.00  0.00     0.182 A 
ATOM     19  HN  UNL d   1       0.017  -0.447  -3.513  1.00  0.00     0.166 HD
ATOM     20  N   UNL d   1       1.834   1.370  -1.446  0.00  0.00    -0.332 N 
ATOM     21  HN  UNL d   1       2.805   1.485  -1.157  1.00  0.00     0.168 HD
ENDBRANCH   8   9
ENDBRANCH   3   8
BRANCH   4  22
ATOM     22  N   UNL d   1       6.131   5.344  -0.059  0.00  0.00    -0.322 N 
ATOM     23  C   UNL d   1       6.938   5.723   0.989  0.00  0.00     0.245 C 
ATOM     24  O   UNL d   1       6.590   5.956   2.141  0.00  0.00    -0.268 OA
ATOM     25  H   UNL d   1       6.538   5.320  -0.986  0.00  0.00     0.169 HD
BRANCH  23  26
ATOM     26  C   UNL d   1       8.368   5.813   0.607  0.00  0.00     0.081 C 
ATOM     27  C   UNL d   1       9.252   6.188   1.542  0.00  0.00     0.086 C 
BRANCH  27  28
ATOM     28  C   UNL d   1      10.684   6.173   1.221  0.00  0.00     0.165 C 
ATOM     29  O   UNL d   1      11.132   6.030   0.097  0.00  0.00    -0.647 OA
BRANCH  28  30
ATOM     30  O   UNL d   1      11.452   6.309   2.319  0.00  0.00    -0.773 OA
ATOM     31  H   UNL d   1      10.970   6.361   3.166  0.00  0.00     0.167 HD
ENDBRANCH  28  30
ENDBRANCH  27  28
ENDBRANCH  23  26
ENDBRANCH   4  22
TORSDOF 6
