REMARK  6 active torsions:
REMARK  status: ('A' for Active; 'I' for Inactive)
REMARK    1  A    between atoms: C_3  and  S_1 
REMARK    2  A    between atoms: N_12  and  S_1 
REMARK    3  A    between atoms: C_10  and  C_2 
REMARK    4  A    between atoms: C_8  and  C_11 
REMARK    5  A    between atoms: C_20  and  N_12 
REMARK    6  A    between atoms: O_28  and  C_19 
ROOT
ATOM      1  C   UNL d   1       0.320   1.620   0.052  0.00  0.00     0.116 A 
ATOM      2  S   UNL d   1       1.357   2.955  -0.212  0.00  0.00    -0.075 SA
ATOM      3  C   UNL d   1       0.099   4.078   0.059  0.00  0.00     0.034 A 
ATOM      4  C   UNL d   1      -0.987   2.028   0.241  0.00  0.00     0.034 A 
ATOM      5  C   UNL d   1      -1.113   3.446   0.249  0.00  0.00     0.023 A 
ENDROOT
BRANCH   1   6
ATOM      6  S   UNL d   1       1.055   0.000   0.018  0.00  0.00     0.252 S 
ATOM      7  O   UNL d   1       0.128  -0.854   0.728  0.00  0.00    -0.205 OA
ATOM      8  O   UNL d   1       2.424   0.141   0.466  0.00  0.00    -0.205 OA
BRANCH   6   9
ATOM      9  N   UNL d   1       1.125  -0.528  -1.595  0.00  0.00    -0.180 NA
ATOM     10  H   UNL d   1       1.746  -1.339  -1.617  0.00  0.00     0.146 HD
BRANCH   9  11
ATOM     11  C   UNL d   1      -0.139  -0.766  -2.223  0.00  0.00     0.038 A 
ATOM     12  C   UNL d   1      -0.856  -1.945  -2.037  0.00  0.00     0.114 A 
ATOM     13  N   UNL d   1      -2.055  -2.196  -2.611  0.00  0.00    -0.345 N 
ATOM     14  C   UNL d   1      -2.572  -1.218  -3.386  0.00  0.00     0.141 A 
ATOM     15  HN  UNL d   1      -2.545  -3.080  -2.466  1.00  0.00     0.167 HD
ATOM     16  C   UNL d   1      -1.948   0.002  -3.602  0.00  0.00     0.058 A 
ATOM     17  C   UNL d   1      -0.710   0.232  -3.004  0.00  0.00     0.030 A 
BRANCH  14  18
ATOM     18  O   UNL d   1      -3.785  -1.407  -4.017  0.00  0.00    -0.341 OA
ATOM     19  C   UNL d   1      -4.347  -2.691  -3.765  0.00  0.00     0.211 C 
ENDBRANCH  14  18
ENDBRANCH   9  11
ENDBRANCH   6   9
ENDBRANCH   1   6
BRANCH   3  20
ATOM     20  C   UNL d   1       0.278   5.567   0.111  0.00  0.00     0.067 A 
ATOM     21  C   UNL d   1       1.464   6.292  -0.135  0.00  0.00     0.068 A 
ATOM     22  C   UNL d   1       1.140   7.620   0.080  0.00  0.00     0.136 A 
ATOM     23  N   UNL d   1      -0.169   7.613   0.476  0.00  0.00    -0.292 N 
ATOM     24  N   UNL d   1      -0.726   6.387   0.445  0.00  0.00    -0.297 N 
ATOM     25  C   UNL d   1      -0.964   8.718   0.966  0.00  0.00     0.178 C 
ATOM     26  HN  UNL d   1      -1.697   6.139   0.633  1.00  0.00     0.187 HD
BRANCH  22  27
ATOM     27  C   UNL d   1       1.966   8.836  -0.038  0.00  0.00     0.434 C 
ATOM     28  F   UNL d   1       1.288   9.978   0.234  0.00  0.00    -0.165 F 
ATOM     29  F   UNL d   1       3.024   8.800   0.809  0.00  0.00    -0.165 F 
ATOM     30  F   UNL d   1       2.468   8.972  -1.291  0.00  0.00    -0.165 F 
ENDBRANCH  22  27
ENDBRANCH   3  20
TORSDOF 6
