REMARK  3 active torsions:
REMARK  status: ('A' for Active; 'I' for Inactive)
REMARK    1  A    between atoms: C_12  and  N_2 
REMARK    2  A    between atoms: C_11  and  C_5 
REMARK    3  A    between atoms: C_15  and  C_8 
ROOT
ATOM      1  C   UNL d   1      -2.552  -0.005   1.163  0.00  0.00     0.196 C 
ATOM      2  N   UNL d   1      -3.199   1.239   1.675  0.00  0.00    -0.265 N 
ATOM      3  N   UNL d   1      -4.560   1.125   1.553  0.00  0.00    -0.299 N 
ATOM      4  HN  UNL d   1      -5.230   1.894   1.543  1.00  0.00     0.187 HD
ATOM      5  C   UNL d   1      -3.627  -1.046   1.506  0.00  0.00     0.117 C 
ATOM      6  C   UNL d   1      -1.246  -0.286   1.898  0.00  0.00     0.199 C 
ATOM      7  C   UNL d   1      -2.091   0.165  -0.284  0.00  0.00     0.199 C 
ATOM      8  C   UNL d   1      -4.841  -0.139   1.452  0.00  0.00     0.048 C 
ATOM      9  C   UNL d   1      -0.137  -0.010   0.984  0.00  0.00     0.027 A 
ATOM     10  C   UNL d   1      -0.631   0.317  -0.272  0.00  0.00     0.027 A 
ATOM     11  O   UNL d   1      -1.081  -0.681   3.041  0.00  0.00    -0.289 OA
ATOM     12  O   UNL d   1      -2.758   0.216  -1.307  0.00  0.00    -0.289 OA
ATOM     13  C   UNL d   1       0.210   0.754  -1.282  0.00  0.00     0.016 A 
ATOM     14  C   UNL d   1       1.219  -0.005   1.261  0.00  0.00     0.016 A 
ATOM     15  C   UNL d   1       1.581   0.814  -1.006  0.00  0.00     0.001 A 
ATOM     16  C   UNL d   1       2.084   0.413   0.247  0.00  0.00     0.001 A 
ENDROOT
BRANCH   2  17
ATOM     17  C   UNL d   1      -2.719   2.524   1.419  0.00  0.00     0.052 A 
ATOM     18  C   UNL d   1      -3.026   3.213   0.236  0.00  0.00     0.031 A 
ATOM     19  C   UNL d   1      -2.695   4.561   0.082  0.00  0.00     0.002 A 
ATOM     20  C   UNL d   1      -2.062   5.243   1.118  0.00  0.00     0.000 A 
ATOM     21  C   UNL d   1      -1.738   4.571   2.295  0.00  0.00     0.002 A 
ATOM     22  C   UNL d   1      -2.056   3.217   2.438  0.00  0.00     0.031 A 
ENDBRANCH   2  17
BRANCH   5  23
ATOM     23  C   UNL d   1      -3.702  -2.396   0.836  0.00  0.00    -0.045 A 
ATOM     24  C   UNL d   1      -3.352  -3.526   1.601  0.00  0.00     0.008 A 
ATOM     25  C   UNL d   1      -3.699  -4.813   1.185  0.00  0.00     0.007 A 
ATOM     26  C   UNL d   1      -4.383  -5.003  -0.014  0.00  0.00    -0.062 A 
ATOM     27  C   UNL d   1      -4.619  -3.897  -0.840  0.00  0.00     0.007 A 
ATOM     28  C   UNL d   1      -4.867  -6.375  -0.385  0.00  0.00     0.048 C 
ATOM     29  C   UNL d   1      -4.275  -2.602  -0.423  0.00  0.00     0.008 A 
ENDBRANCH   5  23
BRANCH   8  30
ATOM     30  C   UNL d   1      -6.251  -0.588   1.385  0.00  0.00    -0.011 A 
ATOM     31  C   UNL d   1      -6.677  -1.798   1.933  0.00  0.00     0.013 A 
ATOM     32  C   UNL d   1      -8.028  -2.149   1.877  0.00  0.00     0.001 A 
ATOM     33  C   UNL d   1      -8.955  -1.286   1.290  0.00  0.00     0.000 A 
ATOM     34  C   UNL d   1      -8.536  -0.069   0.757  0.00  0.00     0.001 A 
ATOM     35  C   UNL d   1      -7.187   0.281   0.806  0.00  0.00     0.013 A 
ENDBRANCH   8  30
TORSDOF 3
