REMARK  2 active torsions:
REMARK  status: ('A' for Active; 'I' for Inactive)
REMARK    1  A    between atoms: C_9  and  C_3 
REMARK    2  A    between atoms: O_10  and  C_4 
ROOT
ATOM      1  N   UNL d   1       2.402  -0.726  -0.049  0.00  0.00    -0.322 N 
ATOM      2  HN  UNL d   1       3.288  -1.231  -0.057  1.00  0.00     0.169 HD
ATOM      3  C   UNL d   1       2.339   0.619  -0.060  0.00  0.00     0.118 A 
ATOM      4  C   UNL d   1       1.222  -1.350  -0.028  0.00  0.00     0.154 A 
ATOM      5  N   UNL d   1       1.192   1.330  -0.052  0.00  0.00    -0.341 N 
ATOM      6  HN  UNL d   1       1.206   2.350  -0.058  1.00  0.00     0.167 HD
ATOM      7  C   UNL d   1      -0.021  -0.738  -0.020  0.00  0.00     0.042 A 
ATOM      8  C   UNL d   1       0.032   0.656  -0.036  0.00  0.00     0.048 A 
ATOM      9  C   UNL d   1      -1.259  -1.419  -0.003  0.00  0.00     0.018 A 
ATOM     10  C   UNL d   1      -1.173   1.350  -0.037  0.00  0.00     0.030 A 
ATOM     11  C   UNL d   1      -2.451  -0.701  -0.008  0.00  0.00     0.001 A 
ATOM     12  C   UNL d   1      -2.407   0.689  -0.027  0.00  0.00     0.002 A 
ENDROOT
BRANCH   3  13
ATOM     13  C   UNL d   1       3.615   1.365  -0.082  0.00  0.00     0.008 A 
ATOM     14  C   UNL d   1       4.855   0.699  -0.165  0.00  0.00     0.015 A 
ATOM     15  C   UNL d   1       6.065   1.399  -0.180  0.00  0.00     0.001 A 
ATOM     16  C   UNL d   1       6.066   2.789  -0.113  0.00  0.00     0.000 A 
ATOM     17  C   UNL d   1       4.859   3.476  -0.034  0.00  0.00     0.001 A 
ATOM     18  C   UNL d   1       3.650   2.772  -0.020  0.00  0.00     0.015 A 
ENDBRANCH   3  13
BRANCH   4  19
ATOM     19  O   UNL d   1       1.341  -2.706  -0.018  0.00  0.00    -0.345 OA
ATOM     20  H   UNL d   1       2.310  -2.796  -0.033  0.00  0.00     0.219 HD
ENDBRANCH   4  19
TORSDOF 2
