REMARK  1 active torsions:
REMARK  status: ('A' for Active; 'I' for Inactive)
REMARK    1  A    between atoms: C_7  and  C_3 
ROOT
ATOM      1  N   UNL d   1      -0.123  -1.324  -0.551  0.00  0.00    -0.353 N 
ATOM      2  HN  UNL d   1      -0.522  -2.145  -1.005  1.00  0.00     0.166 HD
ATOM      3  C   UNL d   1       1.150  -1.258  -0.002  0.00  0.00     0.051 A 
ATOM      4  C   UNL d   1      -0.741  -0.171  -0.398  0.00  0.00     0.047 A 
ATOM      5  S   UNL d   1       0.176   1.065   0.364  0.00  0.00    -0.087 SA
ATOM      6  C   UNL d   1       1.488  -0.026   0.524  0.00  0.00     0.081 A 
ATOM      7  C   UNL d   1      -2.136   0.104  -0.837  0.00  0.00     0.076 C 
ENDROOT
BRANCH   3   8
ATOM      8  C   UNL d   1       2.042  -2.407  -0.025  0.00  0.00     0.006 A 
ATOM      9  C   UNL d   1       3.002  -2.626   0.959  0.00  0.00     0.101 A 
ATOM     10  N   UNL d   1       3.863  -3.674   0.973  0.00  0.00    -0.374 N 
ATOM     11  C   UNL d   1       3.753  -4.559  -0.041  0.00  0.00     0.087 A 
ATOM     12  HN  UNL d   1       4.557  -3.788   1.712  1.00  0.00     0.164 HD
ATOM     13  C   UNL d   1       2.824  -4.445  -1.062  0.00  0.00     0.018 A 
ATOM     14  C   UNL d   1       1.955  -3.355  -1.048  0.00  0.00     0.016 A 
ENDBRANCH   3   8
TORSDOF 1
