REMARK  0 active torsions:
REMARK  status: ('A' for Active; 'I' for Inactive)
ROOT
ATOM      1  C   UNL d   1      -1.196  -0.775   0.004  0.00  0.00     0.044 A 
ATOM      2  C   UNL d   1       1.212  -0.770  -0.013  0.00  0.00     0.044 A 
ATOM      3  C   UNL d   1      -1.200   0.619   0.100  0.00  0.00     0.085 A 
ATOM      4  C   UNL d   1       1.214   0.625   0.078  0.00  0.00     0.085 A 
ATOM      5  C   UNL d   1       0.006  -1.480  -0.052  0.00  0.00     0.036 A 
ATOM      6  C   UNL d   1       0.006   1.318   0.161  0.00  0.00     0.075 A 
ATOM      7  C   UNL d   1      -2.488  -1.488   0.003  0.00  0.00     0.164 C 
ATOM      8  C   UNL d   1       2.504  -1.483  -0.014  0.00  0.00     0.164 C 
ATOM      9  O   UNL d   1      -2.352   1.354   0.173  0.00  0.00    -0.350 OA
ATOM     10  O   UNL d   1       2.358   1.379   0.122  0.00  0.00    -0.350 OA
ATOM     11  O   UNL d   1      -2.525  -2.712   0.089  0.00  0.00    -0.292 OA
ATOM     12  O   UNL d   1       2.560  -2.698  -0.163  0.00  0.00    -0.292 OA
ATOM     13  C   UNL d   1       3.718  -0.640   0.252  0.00  0.00     0.110 C 
ATOM     14  C   UNL d   1      -3.736  -0.652  -0.049  0.00  0.00     0.110 C 
ATOM     15  C   UNL d   1      -3.418   0.741  -0.558  0.00  0.00     0.183 C 
ATOM     16  C   UNL d   1       3.502   0.704  -0.411  0.00  0.00     0.183 C 
ENDROOT
TORSDOF 0
