REMARK  6 active torsions:
REMARK  status: ('A' for Active; 'I' for Inactive)
REMARK    1  A    between atoms: C_8  and  N_1 
REMARK    2  A    between atoms: S_11  and  C_2 
REMARK    3  A    between atoms: O_16  and  C_3 
REMARK    4  A    between atoms: C_14  and  C_8 
REMARK    5  A    between atoms: C_9  and  C_12 
REMARK       I    between atoms: N_10  and  C_9 
REMARK    6  A    between atoms: C_12  and  S_11 
ROOT
ATOM      1  N   UNL d   1      -0.216  -1.270  -0.085  0.00  0.00    -0.282 N 
ATOM      2  C   UNL d   1       1.065  -0.770  -0.039  0.00  0.00     0.165 C 
ATOM      3  C   UNL d   1      -1.013  -0.159   0.118  0.00  0.00     0.241 C 
ATOM      4  N   UNL d   1       1.038   0.498   0.299  0.00  0.00    -0.277 N 
ATOM      5  HN  UNL d   1       1.851   1.094   0.455  1.00  0.00     0.189 HD
ATOM      6  N   UNL d   1      -0.273   0.882   0.407  0.00  0.00    -0.263 N 
ATOM      7  HN  UNL d   1      -0.611   1.809   0.664  1.00  0.00     0.190 HD
ENDROOT
BRANCH   2   8
ATOM      8  S   UNL d   1       2.506  -1.652  -0.396  0.00  0.00    -0.083 SA
BRANCH   8   9
ATOM      9  C   UNL d   1       3.819  -0.467   0.002  0.00  0.00     0.185 C 
BRANCH   9  10
ATOM     10  C   UNL d   1       3.802   0.784  -0.871  0.00  0.00     0.229 C 
ATOM     11  N   UNL d   1       4.017   2.019  -0.264  0.00  0.00    -0.347 N 
ATOM     12  C   UNL d   1       4.145   3.214  -1.106  0.00  0.00     0.152 C 
ATOM     13  C   UNL d   1       3.781   2.351   1.148  0.00  0.00     0.152 C 
ATOM     14  C   UNL d   1       2.935   4.131  -0.910  0.00  0.00     0.187 C 
ATOM     15  O   UNL d   1       2.816   4.505   0.475  0.00  0.00    -0.388 OA
ATOM     16  C   UNL d   1       2.611   3.337   1.288  0.00  0.00     0.187 C 
ATOM     17  O   UNL d   1       3.717   0.682  -2.099  0.00  0.00    -0.273 OA
ENDBRANCH   9  10
ENDBRANCH   8   9
ENDBRANCH   2   8
BRANCH   1  18
ATOM     18  C   UNL d   1      -0.720  -2.641  -0.053  0.00  0.00     0.124 C 
ATOM     19  C   UNL d   1       0.049  -3.621   0.841  0.00  0.00     0.038 C 
BRANCH  18  20
ATOM     20  C   UNL d   1      -1.006  -3.230  -1.427  0.00  0.00    -0.035 A 
ATOM     21  C   UNL d   1      -0.001  -3.424  -2.386  0.00  0.00     0.009 A 
ATOM     22  C   UNL d   1      -0.268  -4.083  -3.588  0.00  0.00     0.001 A 
ATOM     23  C   UNL d   1      -1.546  -4.561  -3.854  0.00  0.00     0.000 A 
ATOM     24  C   UNL d   1      -2.563  -4.368  -2.924  0.00  0.00     0.001 A 
ATOM     25  C   UNL d   1      -2.297  -3.708  -1.721  0.00  0.00     0.009 A 
ENDBRANCH  18  20
ENDBRANCH   1  18
BRANCH   3  26
ATOM     26  O   UNL d   1      -2.334  -0.132   0.097  0.00  0.00    -0.331 OA
ATOM     27  H   UNL d   1      -2.638  -0.779  -0.564  0.00  0.00     0.221 HD
ENDBRANCH   3  26
TORSDOF 6
