REMARK  4 active torsions:
REMARK  status: ('A' for Active; 'I' for Inactive)
REMARK    1  A    between atoms: C_8  and  C_1 
REMARK       I    between atoms: C_4  and  N_7 
REMARK    2  A    between atoms: C_11  and  C_4 
REMARK    3  A    between atoms: N_6  and  C_8 
REMARK    4  A    between atoms: N_7  and  C_12 
ROOT
ATOM      1  N   UNL d   1      -0.731  -3.459   0.009  0.00  0.00     0.092 N 
ATOM      2  C   UNL d   1       2.171  -4.123   0.187  0.00  0.00     0.087 C 
ATOM      3  C   UNL d   1       1.357  -4.328  -1.095  0.00  0.00     0.055 C 
ATOM      4  C   UNL d   1       1.224  -4.169   1.393  0.00  0.00     0.055 C 
ATOM      5  C   UNL d   1       0.105  -3.449  -1.191  0.00  0.00     0.275 C 
ATOM      6  C   UNL d   1      -0.003  -3.259   1.256  0.00  0.00     0.275 C 
ENDROOT
BRANCH   1   7
ATOM      7  C   UNL d   1      -1.944  -2.619  -0.097  0.00  0.00     0.313 C 
BRANCH   7   8
ATOM      8  C   UNL d   1      -1.707  -1.169  -0.445  0.00  0.00    -0.002 A 
ATOM      9  C   UNL d   1      -1.626  -0.643  -1.728  0.00  0.00     0.098 A 
ATOM     10  N   UNL d   1      -1.500   0.715  -1.640  0.00  0.00    -0.365 N 
ATOM     11  C   UNL d   1      -1.554   1.115  -0.331  0.00  0.00     0.043 A 
ATOM     12  H   UNL d   1      -1.429   1.347  -2.432  0.00  0.00     0.165 HD
ATOM     13  C   UNL d   1      -1.648  -0.045   0.450  0.00  0.00    -0.000 A 
ATOM     14  C   UNL d   1      -1.541   2.404   0.214  0.00  0.00     0.030 A 
ATOM     15  C   UNL d   1      -1.710   0.112   1.853  0.00  0.00     0.014 A 
ATOM     16  C   UNL d   1      -1.700   1.395   2.414  0.00  0.00     0.001 A 
ATOM     17  C   UNL d   1      -1.629   2.524   1.603  0.00  0.00     0.002 A 
ENDBRANCH   7   8
ENDBRANCH   1   7
BRANCH   2  18
ATOM     18  N   UNL d   1       3.039  -2.935   0.193  0.00  0.00    -0.356 N 
ATOM     19  C   UNL d   1       4.306  -2.889  -0.399  0.00  0.00     0.222 C 
ATOM     20  O   UNL d   1       4.761  -3.819  -1.067  0.00  0.00    -0.273 OA
ATOM     21  H   UNL d   1       2.703  -2.104   0.664  0.00  0.00     0.162 HD
BRANCH  19  22
ATOM     22  C   UNL d   1       5.096  -1.599  -0.079  0.00  0.00     0.078 C 
ATOM     23  C   UNL d   1       6.165  -1.197  -1.122  0.00  0.00     0.014 C 
ATOM     24  C   UNL d   1       7.632  -1.509  -0.805  0.00  0.00     0.001 C 
ATOM     25  C   UNL d   1       7.989  -1.276   0.653  0.00  0.00     0.000 C 
ATOM     26  C   UNL d   1       7.055  -2.085   1.534  0.00  0.00     0.001 C 
ATOM     27  C   UNL d   1       5.612  -1.611   1.372  0.00  0.00     0.014 C 
ENDBRANCH  19  22
ENDBRANCH   2  18
TORSDOF 4
