REMARK  4 active torsions:
REMARK  status: ('A' for Active; 'I' for Inactive)
REMARK    1  A    between atoms: S_13  and  C_9 
REMARK    2  A    between atoms: C_15  and  S_13 
REMARK    3  A    between atoms: C_14  and  C_15 
REMARK    4  A    between atoms: C_17  and  C_14 
ROOT
ATOM      1  C   UNL d   1       1.247  -0.846   0.012  0.00  0.00     0.137 A 
ATOM      2  C   UNL d   1       0.847   0.476   0.021  0.00  0.00     0.104 A 
ATOM      3  N   UNL d   1       2.511  -1.295   0.004  0.00  0.00    -0.320 N 
ATOM      4  HN  UNL d   1       2.776  -2.280  -0.025  1.00  0.00     0.169 HD
ATOM      5  N   UNL d   1       0.129  -1.627   0.009  0.00  0.00    -0.340 N 
ATOM      6  N   UNL d   1       1.782   1.460   0.029  0.00  0.00    -0.294 N 
ATOM      7  HN  UNL d   1       1.526   2.448   0.031  1.00  0.00     0.187 HD
ATOM      8  C   UNL d   1      -0.577   0.497   0.013  0.00  0.00     0.022 A 
ATOM      9  C   UNL d   1       3.384  -0.266   0.038  0.00  0.00     0.161 A 
ATOM     10  C   UNL d   1      -1.002  -0.839   0.006  0.00  0.00     0.046 A 
ATOM     11  N   UNL d   1       3.062   1.059   0.033  0.00  0.00    -0.279 N 
ATOM     12  HN  UNL d   1       3.807   1.756   0.032  1.00  0.00     0.189 HD
ATOM     13  C   UNL d   1      -1.557   1.512   0.010  0.00  0.00     0.016 A 
ATOM     14  C   UNL d   1      -2.353  -1.206  -0.001  0.00  0.00     0.030 A 
ATOM     15  C   UNL d   1      -2.913   1.159   0.002  0.00  0.00     0.001 A 
ATOM     16  C   UNL d   1      -3.301  -0.179  -0.002  0.00  0.00     0.002 A 
ATOM     17  H   UNL d   1       0.146  -2.635   0.007  0.00  0.00     0.167 HD
ENDROOT
BRANCH   9  18
ATOM     18  S   UNL d   1       5.103  -0.732  -0.046  0.00  0.00    -0.085 SA
BRANCH  18  19
ATOM     19  C   UNL d   1       5.872   0.608   0.911  0.00  0.00     0.166 C 
BRANCH  19  20
ATOM     20  C   UNL d   1       5.395   0.685   2.352  0.00  0.00     0.169 C 
ATOM     21  O   UNL d   1       4.497  -0.021   2.810  0.00  0.00    -0.291 OA
BRANCH  20  22
ATOM     22  C   UNL d   1       6.062   1.670   3.264  0.00  0.00     0.010 A 
ATOM     23  C   UNL d   1       7.162   2.444   2.872  0.00  0.00     0.015 A 
ATOM     24  C   UNL d   1       7.764   3.322   3.780  0.00  0.00     0.001 A 
ATOM     25  C   UNL d   1       7.270   3.437   5.078  0.00  0.00     0.000 A 
ATOM     26  C   UNL d   1       6.170   2.681   5.473  0.00  0.00     0.001 A 
ATOM     27  C   UNL d   1       5.568   1.801   4.571  0.00  0.00     0.015 A 
ENDBRANCH  20  22
ENDBRANCH  19  20
ENDBRANCH  18  19
ENDBRANCH   9  18
TORSDOF 4
