REMARK  6 active torsions:
REMARK  status: ('A' for Active; 'I' for Inactive)
REMARK    1  A    between atoms: N_7  and  C_1 
REMARK       I    between atoms: C_8  and  N_6 
REMARK       I    between atoms: C_12  and  N_7 
REMARK    2  A    between atoms: O_25  and  C_8 
REMARK    3  A    between atoms: C_21  and  N_9 
REMARK    4  A    between atoms: C_18  and  C_12 
REMARK    5  A    between atoms: N_15  and  C_18 
REMARK    6  A    between atoms: C_28  and  O_25 
ROOT
ATOM      1  C   UNL d   1       1.632   3.039   1.521  0.00  0.00     0.098 A 
ATOM      2  C   UNL d   1       0.316   2.970   1.946  0.00  0.00     0.086 A 
ATOM      3  C   UNL d   1       0.618   5.272   1.790  0.00  0.00     0.011 A 
ATOM      4  C   UNL d   1      -0.282   4.264   2.091  0.00  0.00    -0.018 A 
ATOM      5  S   UNL d   1       2.151   4.659   1.381  0.00  0.00    -0.073 SA
ATOM      6  N   UNL d   1      -1.128   6.927   1.911  0.00  0.00    -0.323 N 
ATOM      7  C   UNL d   1      -1.859   7.654   0.990  0.00  0.00     0.363 C 
ATOM      8  C   UNL d   1       0.326   6.750   1.820  0.00  0.00     0.174 C 
ATOM      9  C   UNL d   1      -0.364   1.736   2.186  0.00  0.00     0.103 C 
ATOM     10  N   UNL d   1      -0.899   0.723   2.384  0.00  0.00    -0.191 NA
ATOM     11  C   UNL d   1      -1.707   4.588   2.460  0.00  0.00     0.061 C 
ATOM     12  C   UNL d   1      -1.834   6.067   2.865  0.00  0.00     0.133 C 
ATOM     13  O   UNL d   1      -3.081   7.635   0.925  0.00  0.00    -0.238 OA
ENDROOT
BRANCH   1  14
ATOM     14  N   UNL d   1       2.455   1.979   1.155  0.00  0.00    -0.319 N 
ATOM     15  C   UNL d   1       3.775   2.060   0.731  0.00  0.00     0.251 C 
ATOM     16  O   UNL d   1       4.546   3.001   0.892  0.00  0.00    -0.271 OA
ATOM     17  H   UNL d   1       2.013   1.072   1.025  0.00  0.00     0.169 HD
BRANCH  15  18
ATOM     18  C   UNL d   1       4.226   0.803  -0.043  0.00  0.00     0.375 C 
BRANCH  18  19
ATOM     19  N   UNL d   1       3.295   0.487  -1.154  0.00  0.00     0.100 N 
ATOM     20  C   UNL d   1       3.017   1.663  -2.017  0.00  0.00     0.292 C 
ATOM     21  C   UNL d   1       4.222   2.140  -2.845  0.00  0.00     0.153 C 
ATOM     22  N   UNL d   1       4.576   1.073  -3.796  0.00  0.00    -0.378 N 
ATOM     23  C   UNL d   1       4.910  -0.199  -3.116  0.00  0.00     0.153 C 
ATOM     24  C   UNL d   1       3.844  -0.587  -2.033  0.00  0.00     0.292 C 
BRANCH  22  25
ATOM     25  C   UNL d   1       5.194   1.450  -4.991  0.00  0.00     0.030 A 
ATOM     26  C   UNL d   1       6.158   0.665  -5.641  0.00  0.00     0.029 A 
ATOM     27  C   UNL d   1       6.751   1.064  -6.850  0.00  0.00     0.002 A 
ATOM     28  C   UNL d   1       6.391   2.265  -7.450  0.00  0.00     0.000 A 
ATOM     29  C   UNL d   1       5.420   3.053  -6.854  0.00  0.00     0.002 A 
ATOM     30  C   UNL d   1       4.825   2.637  -5.657  0.00  0.00     0.029 A 
ENDBRANCH  22  25
ENDBRANCH  18  19
ENDBRANCH  15  18
ENDBRANCH   1  14
BRANCH   7  31
ATOM     31  O   UNL d   1      -1.068   8.382   0.157  0.00  0.00    -0.304 OA
BRANCH  31  32
ATOM     32  C   UNL d   1      -1.736   9.065  -0.913  0.00  0.00     0.176 C 
ATOM     33  C   UNL d   1      -1.831   8.139  -2.111  0.00  0.00     0.034 C 
ENDBRANCH  31  32
ENDBRANCH   7  31
TORSDOF 6
