REMARK  5 active torsions:
REMARK  status: ('A' for Active; 'I' for Inactive)
REMARK       I    between atoms: N_2  and  C_1 
REMARK       I    between atoms: N_3  and  C_1 
REMARK    1  A    between atoms: C_6  and  N_2 
REMARK    2  A    between atoms: C_8  and  N_2 
REMARK    3  A    between atoms: C_19  and  N_3 
REMARK    4  A    between atoms: C_4  and  C_6 
REMARK    5  A    between atoms: C_12  and  C_8 
ROOT
ATOM      1  C   UNL d   1       1.060   0.155  -0.225  0.00  0.00     0.319 C 
ATOM      2  N   UNL d   1       0.153  -0.395  -1.112  0.00  0.00    -0.325 N 
ATOM      3  N   UNL d   1       0.536   0.825   0.841  0.00  0.00    -0.339 N 
ATOM      4  O   UNL d   1       2.280   0.018  -0.365  0.00  0.00    -0.247 OA
ATOM      5  H   UNL d   1      -0.456   0.764   1.005  0.00  0.00     0.164 HD
ENDROOT
BRANCH   2   6
ATOM      6  C   UNL d   1      -1.273  -0.080  -1.194  0.00  0.00     0.174 C 
BRANCH   6   7
ATOM      7  C   UNL d   1      -2.139  -1.096  -0.497  0.00  0.00     0.000 A 
ATOM      8  S   UNL d   1      -3.712  -1.401  -1.134  0.00  0.00    -0.105 SA
ATOM      9  C   UNL d   1      -4.115  -2.439   0.157  0.00  0.00     0.050 A 
ATOM     10  C   UNL d   1      -3.076  -2.588   1.044  0.00  0.00     0.008 A 
ATOM     11  C   UNL d   1      -1.928  -1.830   0.656  0.00  0.00     0.017 A 
ENDBRANCH   6   7
ENDBRANCH   2   6
BRANCH   2  12
ATOM     12  C   UNL d   1       0.696  -1.259  -2.159  0.00  0.00     0.166 C 
BRANCH  12  13
ATOM     13  C   UNL d   1       1.240  -0.554  -3.390  0.00  0.00    -0.040 A 
ATOM     14  C   UNL d   1       1.052   0.811  -3.655  0.00  0.00     0.010 A 
ATOM     15  C   UNL d   1       1.594   1.398  -4.805  0.00  0.00     0.024 A 
ATOM     16  C   UNL d   1       2.332   0.626  -5.699  0.00  0.00     0.034 A 
ATOM     17  C   UNL d   1       2.525  -0.729  -5.459  0.00  0.00     0.024 A 
ATOM     18 CL   UNL d   1       3.009   1.354  -7.103  0.00  0.00    -0.084 Cl
ATOM     19  C   UNL d   1       1.979  -1.315  -4.313  0.00  0.00     0.010 A 
ENDBRANCH  12  13
ENDBRANCH   2  12
BRANCH   3  20
ATOM     20  C   UNL d   1       1.342   1.352   1.942  0.00  0.00     0.078 C 
ATOM     21  C   UNL d   1       2.305   0.318   2.533  0.00  0.00     0.032 C 
ATOM     22  C   UNL d   1       2.074   2.634   1.554  0.00  0.00     0.032 C 
ENDBRANCH   3  20
TORSDOF 5
