REMARK  4 active torsions:
REMARK  status: ('A' for Active; 'I' for Inactive)
REMARK    1  A    between atoms: C_7  and  C_10 
REMARK    2  A    between atoms: C_18  and  N_11 
REMARK    3  A    between atoms: C_15  and  C_12 
REMARK    4  A    between atoms: O_26  and  C_23 
ROOT
ATOM      1  C   UNL d   1       2.014  -3.136   0.427  0.00  0.00     0.011 A 
ATOM      2  N   UNL d   1       4.001  -4.123  -0.041  0.00  0.00    -0.293 N 
ATOM      3  HN  UNL d   1       4.741  -4.667  -0.485  1.00  0.00     0.187 HD
ATOM      4  N   UNL d   1       4.103  -3.357   1.079  0.00  0.00    -0.266 N 
ATOM      5  C   UNL d   1       2.724  -4.012  -0.439  0.00  0.00     0.070 A 
ATOM      6  C   UNL d   1       2.894  -2.798   1.423  0.00  0.00     0.130 A 
ENDROOT
BRANCH   1   7
ATOM      7  C   UNL d   1       0.701  -2.606   0.317  0.00  0.00     0.038 C 
ATOM      8  C   UNL d   1       0.379  -1.436  -0.277  0.00  0.00     0.101 C 
ATOM      9  C   UNL d   1       1.388  -0.564  -0.914  0.00  0.00     0.267 C 
ATOM     10  C   UNL d   1      -1.033  -1.009  -0.226  0.00  0.00     0.267 C 
ATOM     11  N   UNL d   1       1.027   0.766  -0.987  0.00  0.00    -0.270 N 
ATOM     12  O   UNL d   1       2.450  -0.990  -1.352  0.00  0.00    -0.267 OA
ATOM     13  C   UNL d   1       2.046   1.714  -1.409  0.00  0.00     0.164 C 
ATOM     14  C   UNL d   1      -0.270   1.240  -0.888  0.00  0.00     0.333 C 
ATOM     15  N   UNL d   1      -1.254   0.313  -0.569  0.00  0.00    -0.270 N 
ATOM     16  O   UNL d   1      -0.540   2.424  -1.089  0.00  0.00    -0.246 OA
ATOM     17  C   UNL d   1      -2.617   0.815  -0.528  0.00  0.00     0.164 C 
ATOM     18  O   UNL d   1      -1.920  -1.787   0.116  0.00  0.00    -0.267 OA
ENDBRANCH   1   7
BRANCH   5  19
ATOM     19  C   UNL d   1       2.212  -4.715  -1.618  0.00  0.00    -0.007 A 
ATOM     20  C   UNL d   1       0.905  -5.222  -1.621  0.00  0.00     0.016 A 
ATOM     21  C   UNL d   1       0.389  -5.880  -2.740  0.00  0.00     0.037 A 
ATOM     22  C   UNL d   1       1.184  -6.062  -3.869  0.00  0.00     0.068 A 
ATOM     23  C   UNL d   1       2.484  -5.554  -3.881  0.00  0.00     0.037 A 
ATOM     24  C   UNL d   1       3.002  -4.891  -2.759  0.00  0.00     0.016 A 
BRANCH  22  25
ATOM     25  O   UNL d   1       0.778  -6.694  -5.012  0.00  0.00    -0.356 OA
ATOM     26  C   UNL d   1      -0.238  -7.676  -4.833  0.00  0.00     0.210 C 
ENDBRANCH  22  25
ENDBRANCH   5  19
BRANCH   4  27
ATOM     27  C   UNL d   1       5.339  -3.207   1.769  0.00  0.00     0.056 A 
ATOM     28  C   UNL d   1       5.398  -2.554   3.010  0.00  0.00     0.031 A 
ATOM     29  C   UNL d   1       6.614  -2.442   3.688  0.00  0.00     0.002 A 
ATOM     30  C   UNL d   1       7.777  -2.964   3.126  0.00  0.00     0.000 A 
ATOM     31  C   UNL d   1       7.730  -3.594   1.884  0.00  0.00     0.002 A 
ATOM     32  C   UNL d   1       6.515  -3.721   1.205  0.00  0.00     0.031 A 
ENDBRANCH   4  27
TORSDOF 4
