REMARK  6 active torsions:
REMARK  status: ('A' for Active; 'I' for Inactive)
REMARK    1  A    between atoms: C_2  and  C_1 
REMARK       I    between atoms: N_3  and  C_1 
REMARK    2  A    between atoms: C_10  and  N_4 
REMARK    3  A    between atoms: O_17  and  C_5 
REMARK    4  A    between atoms: O_18  and  C_6 
REMARK    5  A    between atoms: O_19  and  C_7 
REMARK    6  A    between atoms: O_20  and  C_16 
ROOT
ATOM      1  C   UNL d   1       1.120   0.064  -0.158  0.00  0.00     0.254 C 
ATOM      2  N   UNL d   1       0.682  -1.040  -0.908  0.00  0.00    -0.345 N 
ATOM      3  N   UNL d   1      -0.269  -3.508  -2.025  0.00  0.00    -0.376 N 
ATOM      4  C   UNL d   1       1.378  -2.308  -0.609  0.00  0.00     0.146 C 
ATOM      5  C   UNL d   1      -0.706  -1.217  -1.379  0.00  0.00     0.146 C 
ATOM      6  C   UNL d   1       1.161  -3.431  -1.666  0.00  0.00     0.143 C 
ATOM      7  C   UNL d   1      -0.781  -2.226  -2.531  0.00  0.00     0.143 C 
ATOM      8  O   UNL d   1       2.069  -0.004   0.612  0.00  0.00    -0.267 OA
ENDROOT
BRANCH   1   9
ATOM      9  C   UNL d   1       0.428   1.375  -0.262  0.00  0.00     0.037 A 
ATOM     10  C   UNL d   1       0.370   2.190   0.873  0.00  0.00     0.057 A 
ATOM     11  C   UNL d   1      -0.277   3.436   0.839  0.00  0.00     0.105 A 
ATOM     12  C   UNL d   1      -0.936   3.846  -0.346  0.00  0.00     0.135 A 
ATOM     13  C   UNL d   1      -0.837   3.027  -1.494  0.00  0.00     0.105 A 
ATOM     14  C   UNL d   1      -0.106   1.838  -1.454  0.00  0.00     0.057 A 
BRANCH  11  15
ATOM     15  O   UNL d   1      -0.309   4.266   1.930  0.00  0.00    -0.353 OA
ATOM     16  C   UNL d   1       0.461   3.920   3.076  0.00  0.00     0.210 C 
ENDBRANCH  11  15
BRANCH  12  17
ATOM     17  O   UNL d   1      -1.705   4.970  -0.500  0.00  0.00    -0.351 OA
ATOM     18  C   UNL d   1      -1.825   5.912   0.552  0.00  0.00     0.210 C 
ENDBRANCH  12  17
BRANCH  13  19
ATOM     19  O   UNL d   1      -1.453   3.190  -2.710  0.00  0.00    -0.353 OA
ATOM     20  C   UNL d   1      -1.706   4.512  -3.156  0.00  0.00     0.210 C 
ENDBRANCH  13  19
ENDBRANCH   1   9
BRANCH   3  21
ATOM     21  C   UNL d   1      -0.797  -4.695  -2.529  0.00  0.00     0.064 A 
ATOM     22  C   UNL d   1      -0.880  -5.886  -1.773  0.00  0.00     0.094 A 
ATOM     23  C   UNL d   1      -1.532  -7.021  -2.285  0.00  0.00     0.039 A 
ATOM     24  C   UNL d   1      -2.112  -7.007  -3.550  0.00  0.00     0.003 A 
ATOM     25  C   UNL d   1      -2.007  -5.866  -4.331  0.00  0.00     0.002 A 
ATOM     26  C   UNL d   1      -1.356  -4.735  -3.826  0.00  0.00     0.032 A 
BRANCH  22  27
ATOM     27  O   UNL d   1      -0.328  -6.099  -0.534  0.00  0.00    -0.354 OA
ATOM     28  C   UNL d   1      -0.689  -5.156   0.465  0.00  0.00     0.210 C 
ENDBRANCH  22  27
ENDBRANCH   3  21
TORSDOF 6
