REMARK  6 active torsions:
REMARK  status: ('A' for Active; 'I' for Inactive)
REMARK    1  A    between atoms: O_8  and  S_1 
REMARK    2  A    between atoms: C_11  and  S_1 
REMARK    3  A    between atoms: S_2  and  O_7 
REMARK    4  A    between atoms: C_12  and  S_2 
REMARK    5  A    between atoms: O_7  and  C_5 
REMARK    6  A    between atoms: C_6  and  O_8 
ROOT
ATOM      1  C   UNL d   1       1.579   4.541  -1.970  0.00  0.00     0.185 C 
ATOM      2  C   UNL d   1       0.291   3.857  -1.493  0.00  0.00     0.185 C 
ATOM      3  C   UNL d   1       1.439   5.957  -1.425  0.00  0.00     0.198 C 
ATOM      4  C   UNL d   1       0.737   2.587  -0.745  0.00  0.00     0.198 C 
ATOM      5  O   UNL d   1       2.653   3.735  -1.493  0.00  0.00    -0.378 OA
ATOM      6  O   UNL d   1      -0.437   4.804  -0.716  0.00  0.00    -0.378 OA
ATOM      7  C   UNL d   1       0.497   5.791  -0.252  0.00  0.00     0.204 C 
ATOM      8  C   UNL d   1       2.109   2.396  -1.396  0.00  0.00     0.204 C 
ENDROOT
BRANCH   3   9
ATOM      9  O   UNL d   1       2.568   6.778  -1.270  0.00  0.00    -0.262 OA
BRANCH   9  10
ATOM     10  S   UNL d   1       3.781   6.460  -0.239  0.00  0.00     0.298 S 
ATOM     11  O   UNL d   1       3.298   5.644   0.854  0.00  0.00    -0.193 OA
ATOM     12  O   UNL d   1       4.943   6.096  -1.021  0.00  0.00    -0.193 OA
BRANCH  10  13
ATOM     13  C   UNL d   1       4.157   8.053   0.491  0.00  0.00     0.086 A 
ATOM     14  C   UNL d   1       3.396   9.186   0.189  0.00  0.00     0.026 A 
ATOM     15  C   UNL d   1       3.672  10.394   0.838  0.00  0.00     0.008 A 
ATOM     16  C   UNL d   1       4.701  10.477   1.787  0.00  0.00    -0.062 A 
ATOM     17  C   UNL d   1       5.479   9.342   2.053  0.00  0.00     0.008 A 
ATOM     18  C   UNL d   1       4.938  11.764   2.525  0.00  0.00     0.048 C 
ATOM     19  C   UNL d   1       5.210   8.131   1.408  0.00  0.00     0.026 A 
ENDBRANCH  10  13
ENDBRANCH   9  10
ENDBRANCH   3   9
BRANCH   4  20
ATOM     20  O   UNL d   1       1.001   2.685   0.649  0.00  0.00    -0.262 OA
BRANCH  20  21
ATOM     21  S   UNL d   1      -0.133   2.842   1.802  0.00  0.00     0.298 S 
ATOM     22  O   UNL d   1      -1.323   3.467   1.262  0.00  0.00    -0.193 OA
ATOM     23  O   UNL d   1       0.516   3.400   2.970  0.00  0.00    -0.193 OA
BRANCH  21  24
ATOM     24  C   UNL d   1      -0.655   1.200   2.280  0.00  0.00     0.086 A 
ATOM     25  C   UNL d   1       0.171   0.402   3.074  0.00  0.00     0.026 A 
ATOM     26  C   UNL d   1      -0.371  -0.724   3.709  0.00  0.00     0.008 A 
ATOM     27  C   UNL d   1      -1.733  -1.035   3.575  0.00  0.00    -0.062 A 
ATOM     28  C   UNL d   1      -2.531  -0.264   2.724  0.00  0.00     0.008 A 
ATOM     29  C   UNL d   1      -2.346  -2.174   4.337  0.00  0.00     0.048 C 
ATOM     30  C   UNL d   1      -1.997   0.851   2.081  0.00  0.00     0.026 A 
ENDBRANCH  21  24
ENDBRANCH  20  21
ENDBRANCH   4  20
TORSDOF 6
