REMARK  7 active torsions:
REMARK  status: ('A' for Active; 'I' for Inactive)
REMARK    1  A    between atoms: S_3  and  C_12 
REMARK    2  A    between atoms: N_31  and  S_3 
REMARK    3  A    between atoms: S_4  and  C_13 
REMARK    4  A    between atoms: N_32  and  S_4 
REMARK    5  A    between atoms: C_16  and  C_5 
REMARK    6  A    between atoms: N_11  and  C_6 
REMARK    7  A    between atoms: N_10  and  C_7 
ROOT
ATOM      1  C   UNL d   1       1.504   0.191   2.098  0.00  0.00     0.136 C 
ATOM      2  C   UNL d   1       2.171   1.448   2.191  0.00  0.00     0.111 C 
ATOM      3  C   UNL d   1       2.394  -0.912   2.242  0.00  0.00     0.111 C 
ATOM      4  N   UNL d   1       2.729   2.466   2.213  0.00  0.00    -0.191 NA
ATOM      5  N   UNL d   1       3.131  -1.807   2.323  0.00  0.00    -0.191 NA
ENDROOT
BRANCH   1   6
ATOM      6  C   UNL d   1       0.182   0.060   1.792  0.00  0.00     0.018 A 
ATOM      7  C   UNL d   1      -0.800   1.178   1.549  0.00  0.00    -0.008 A 
ATOM      8  C   UNL d   1      -2.014   0.592   1.075  0.00  0.00     0.022 A 
ATOM      9  C   UNL d   1      -0.617   2.562   1.575  0.00  0.00     0.038 A 
ATOM     10  C   UNL d   1      -1.878  -0.888   1.106  0.00  0.00     0.022 A 
ATOM     11  C   UNL d   1      -2.977   1.470   0.543  0.00  0.00     0.116 A 
ATOM     12  C   UNL d   1      -2.742  -1.948   0.785  0.00  0.00     0.116 C 
ATOM     13  C   UNL d   1      -0.542  -1.223   1.479  0.00  0.00    -0.008 A 
ATOM     14  C   UNL d   1      -2.274  -3.266   0.657  0.00  0.00     0.061 C 
ATOM     15  C   UNL d   1      -0.939  -3.540   0.932  0.00  0.00     0.077 C 
ATOM     16  C   UNL d   1      -0.083  -2.541   1.404  0.00  0.00     0.038 C 
ATOM     17  C   UNL d   1      -2.788   2.864   0.538  0.00  0.00     0.061 A 
ATOM     18  C   UNL d   1      -1.603   3.392   1.036  0.00  0.00     0.077 A 
BRANCH  12  19
ATOM     19  N   UNL d   1      -4.181  -1.792   0.713  0.00  0.00    -0.115 N 
ATOM     20  O   UNL d   1      -4.711  -1.173   1.644  0.00  0.00    -0.532 OA
ATOM     21  O   UNL d   1      -4.769  -2.332  -0.231  0.00  0.00    -0.532 OA
ENDBRANCH  12  19
BRANCH  15  22
ATOM     22  S   UNL d   1      -0.291  -5.161   0.639  0.00  0.00     0.239 S 
ATOM     23  O   UNL d   1       0.355  -5.615   1.844  0.00  0.00    -0.206 OA
ATOM     24  O   UNL d   1      -1.274  -5.937  -0.077  0.00  0.00    -0.206 OA
BRANCH  22  25
ATOM     25  N   UNL d   1       0.925  -4.839  -0.479  0.00  0.00    -0.225 NA
ATOM     26  H   UNL d   1       1.830  -5.111  -0.087  0.00  0.00     0.136 HD
ATOM     27  H   UNL d   1       0.714  -5.323  -1.355  0.00  0.00     0.136 HD
ENDBRANCH  22  25
ENDBRANCH  15  22
BRANCH  11  28
ATOM     28  N   UNL d   1      -4.096   1.034  -0.266  0.00  0.00    -0.115 N 
ATOM     29  O   UNL d   1      -3.827   0.383  -1.282  0.00  0.00    -0.532 OA
ATOM     30  O   UNL d   1      -5.221   1.411   0.080  0.00  0.00    -0.532 OA
ENDBRANCH  11  28
BRANCH  18  31
ATOM     31  S   UNL d   1      -1.248   5.115   0.811  0.00  0.00     0.239 S 
ATOM     32  O   UNL d   1      -2.272   5.697  -0.018  0.00  0.00    -0.206 OA
ATOM     33  O   UNL d   1      -0.841   5.661   2.078  0.00  0.00    -0.206 OA
BRANCH  31  34
ATOM     34  N   UNL d   1       0.126   5.045  -0.164  0.00  0.00    -0.225 NA
ATOM     35  H   UNL d   1      -0.067   5.505  -1.056  0.00  0.00     0.136 HD
ATOM     36  H   UNL d   1       0.920   5.460   0.330  0.00  0.00     0.136 HD
ENDBRANCH  31  34
ENDBRANCH  18  31
ENDBRANCH   1   6
TORSDOF 7
