REMARK  7 active torsions:
REMARK  status: ('A' for Active; 'I' for Inactive)
REMARK    1  A    between atoms: N_3  and  S_1 
REMARK    2  A    between atoms: C_4  and  S_1 
REMARK    3  A    between atoms: S_2  and  C_5 
REMARK    4  A    between atoms: N_10  and  S_2 
REMARK    5  A    between atoms: C_21  and  N_10 
REMARK    6  A    between atoms: C_20  and  C_22 
REMARK    7  A    between atoms: C_22  and  C_21 
ROOT
ATOM      1  C   UNL d   1       0.695   0.723   1.525  0.00  0.00     0.074 A 
ATOM      2  C   UNL d   1      -0.002   2.181   3.777  0.00  0.00     0.074 A 
ATOM      3  C   UNL d   1       0.274   0.050   2.678  0.00  0.00     0.026 A 
ATOM      4  C   UNL d   1       0.741   2.122   1.481  0.00  0.00     0.026 A 
ATOM      5  C   UNL d   1      -0.080   0.785   3.810  0.00  0.00     0.026 A 
ATOM      6  C   UNL d   1       0.384   2.856   2.613  0.00  0.00     0.026 A 
ENDROOT
BRANCH   2   7
ATOM      7  S   UNL d   1      -0.376   3.120   5.240  0.00  0.00     0.241 S 
ATOM      8  O   UNL d   1      -1.300   4.159   4.843  0.00  0.00    -0.206 OA
ATOM      9  O   UNL d   1      -0.675   2.198   6.313  0.00  0.00    -0.206 OA
BRANCH   7  10
ATOM     10  N   UNL d   1       1.096   3.864   5.563  0.00  0.00    -0.215 NA
ATOM     11  H   UNL d   1       0.934   4.822   5.903  0.00  0.00     0.139 HD
BRANCH  10  12
ATOM     12  C   UNL d   1       2.071   3.135   6.402  0.00  0.00     0.110 C 
BRANCH  12  13
ATOM     13  C   UNL d   1       3.341   3.977   6.599  0.00  0.00     0.072 C 
BRANCH  13  14
ATOM     14  C   UNL d   1       3.120   5.301   7.302  0.00  0.00     0.010 A 
ATOM     15  N   UNL d   1       1.846   5.668   7.590  0.00  0.00    -0.369 N 
ATOM     16  C   UNL d   1       1.655   6.857   8.201  0.00  0.00     0.088 A 
ATOM     17  HN  UNL d   1       1.057   5.066   7.351  1.00  0.00     0.165 HD
ATOM     18  C   UNL d   1       2.682   7.724   8.528  0.00  0.00     0.017 A 
ATOM     19  C   UNL d   1       3.982   7.345   8.217  0.00  0.00     0.003 A 
ATOM     20  C   UNL d   1       4.209   6.118   7.597  0.00  0.00     0.025 A 
ENDBRANCH  13  14
ENDBRANCH  12  13
ENDBRANCH  10  12
ENDBRANCH   7  10
ENDBRANCH   2   7
BRANCH   1  21
ATOM     21  S   UNL d   1       1.318  -0.207   0.142  0.00  0.00     0.243 S 
ATOM     22  O   UNL d   1       2.640   0.310  -0.134  0.00  0.00    -0.206 OA
ATOM     23  O   UNL d   1       1.100  -1.610   0.405  0.00  0.00    -0.206 OA
BRANCH  21  24
ATOM     24  N   UNL d   1       0.287   0.246  -1.135  0.00  0.00    -0.202 NA
ATOM     25  C   UNL d   1      -1.117  -0.278  -1.095  0.00  0.00     0.134 C 
ATOM     26  C   UNL d   1      -1.252  -1.675  -1.728  0.00  0.00     0.183 C 
ATOM     27  O   UNL d   1      -0.630  -1.766  -3.018  0.00  0.00    -0.389 OA
ATOM     28  C   UNL d   1       0.756  -1.406  -2.935  0.00  0.00     0.183 C 
ATOM     29  C   UNL d   1       0.874   0.053  -2.499  0.00  0.00     0.134 C 
ENDBRANCH  21  24
ENDBRANCH   1  21
TORSDOF 7
