REMARK  3 active torsions:
REMARK  status: ('A' for Active; 'I' for Inactive)
REMARK    1  A    between atoms: C_4  and  C_1 
REMARK    2  A    between atoms: C_2  and  C_3 
REMARK       I    between atoms: C_3  and  N_6 
REMARK       I    between atoms: N_5  and  C_4 
REMARK    3  A    between atoms: N_6  and  N_5 
ROOT
ATOM      1  C   UNL d   1      -0.186   2.324   0.047  0.00  0.00     0.276 C 
ATOM      2  N   UNL d   1      -1.291   3.147   0.160  0.00  0.00    -0.263 N 
ATOM      3  O   UNL d   1      -0.294   1.169  -0.357  0.00  0.00    -0.266 OA
ATOM      4  H   UNL d   1      -1.267   4.114   0.489  0.00  0.00     0.190 HD
ENDROOT
BRANCH   2   5
ATOM      5  N   UNL d   1      -2.549   2.629  -0.165  0.00  0.00    -0.263 N 
ATOM      6  C   UNL d   1      -3.644   3.466  -0.086  0.00  0.00     0.276 C 
ATOM      7  O   UNL d   1      -3.535   4.637   0.270  0.00  0.00    -0.266 OA
ATOM      8  H   UNL d   1      -2.586   1.639  -0.410  0.00  0.00     0.190 HD
BRANCH   6   9
ATOM      9  C   UNL d   1      -4.963   2.896  -0.455  0.00  0.00     0.110 A 
ATOM     10  C   UNL d   1      -5.205   1.521  -0.465  0.00  0.00     0.135 A 
ATOM     11  F   UNL d   1      -4.242   0.648  -0.136  0.00  0.00    -0.205 F 
ATOM     12  C   UNL d   1      -6.458   1.006  -0.811  0.00  0.00     0.043 A 
ATOM     13  C   UNL d   1      -7.494   1.870  -1.157  0.00  0.00     0.006 A 
ATOM     14  C   UNL d   1      -7.269   3.245  -1.151  0.00  0.00     0.043 A 
ATOM     15  C   UNL d   1      -6.014   3.749  -0.801  0.00  0.00     0.135 A 
ATOM     16  F   UNL d   1      -5.852   5.079  -0.836  0.00  0.00    -0.205 F 
ENDBRANCH   6   9
ENDBRANCH   2   5
BRANCH   1  17
ATOM     17  C   UNL d   1       1.131   2.888   0.448  0.00  0.00     0.110 A 
ATOM     18  C   UNL d   1       1.262   4.159   1.015  0.00  0.00     0.135 A 
ATOM     19  F   UNL d   1       0.194   4.948   1.201  0.00  0.00    -0.205 F 
ATOM     20  C   UNL d   1       2.506   4.656   1.415  0.00  0.00     0.043 A 
ATOM     21  C   UNL d   1       3.651   3.882   1.249  0.00  0.00     0.006 A 
ATOM     22  C   UNL d   1       3.542   2.617   0.677  0.00  0.00     0.043 A 
ATOM     23  C   UNL d   1       2.293   2.129   0.282  0.00  0.00     0.135 A 
ATOM     24  F   UNL d   1       2.261   0.906  -0.265  0.00  0.00    -0.205 F 
ENDBRANCH   1  17
TORSDOF 3
