REMARK  7 active torsions:
REMARK  status: ('A' for Active; 'I' for Inactive)
REMARK    1  A    between atoms: C_15  and  N_1 
REMARK    2  A    between atoms: N_3  and  C_2 
REMARK    3  A    between atoms: C_18  and  C_8 
REMARK    4  A    between atoms: N_9  and  C_13 
REMARK    5  A    between atoms: C_14  and  N_23 
REMARK    6  A    between atoms: C_28  and  C_18 
REMARK    7  A    between atoms: N_23  and  N_21 
ROOT
ATOM      1  N   UNL d   1      -4.625  -1.786   0.204  0.00  0.00    -0.315 N 
ATOM      2  HN  UNL d   1      -5.245  -0.980   0.118  1.00  0.00     0.185 HD
ATOM      3  C   UNL d   1      -3.335  -1.676   0.178  0.00  0.00     0.087 C 
ENDROOT
BRANCH   3   4
ATOM      4  C   UNL d   1      -2.690  -0.320   0.052  0.00  0.00     0.126 C 
BRANCH   4   5
ATOM      5  C   UNL d   1      -1.760  -0.294  -1.102  0.00  0.00     0.125 A 
ATOM      6  N   UNL d   1      -0.984   0.785  -1.528  0.00  0.00    -0.227 N 
ATOM      7  N   UNL d   1      -0.347   0.396  -2.663  0.00  0.00    -0.220 N 
ATOM      8  N   UNL d   1      -0.691  -0.859  -2.885  0.00  0.00    -0.226 N 
ATOM      9  HN  UNL d   1       0.277   0.965  -3.235  1.00  0.00     0.210 HD
ATOM     10  N   UNL d   1      -1.556  -1.300  -1.934  0.00  0.00    -0.271 N 
ATOM     11  HN  UNL d   1      -0.352  -1.422  -3.665  1.00  0.00     0.210 HD
ATOM     12  HN  UNL d   1      -1.969  -2.231  -1.874  1.00  0.00     0.190 HD
BRANCH   6  13
ATOM     13  C   UNL d   1      -0.771   2.100  -1.012  0.00  0.00     0.059 A 
ATOM     14  C   UNL d   1      -0.001   3.004  -1.771  0.00  0.00     0.033 A 
ATOM     15  C   UNL d   1       0.227   4.311  -1.323  0.00  0.00     0.021 A 
ATOM     16  C   UNL d   1      -0.301   4.724  -0.107  0.00  0.00     0.011 A 
ATOM     17  C   UNL d   1      -1.046   3.839   0.667  0.00  0.00     0.021 A 
ATOM     18 BR   UNL d   1      -0.015   6.490   0.498  0.00  0.00    -0.051 Br
ATOM     19  C   UNL d   1      -1.283   2.532   0.217  0.00  0.00     0.033 A 
ENDBRANCH   6  13
ENDBRANCH   4   5
ENDBRANCH   3   4
BRANCH   1  20
ATOM     20  N   UNL d   1      -5.094  -3.055   0.354  0.00  0.00    -0.299 N 
ATOM     21  H   UNL d   1      -4.492  -3.851   0.106  0.00  0.00     0.187 HD
BRANCH  20  22
ATOM     22  C   UNL d   1      -6.472  -3.275   0.102  0.00  0.00     0.081 A 
ATOM     23  C   UNL d   1      -7.019  -4.535  -0.236  0.00  0.00     0.133 A 
ATOM     24  C   UNL d   1      -8.398  -4.688  -0.490  0.00  0.00     0.074 A 
ATOM     25  C   UNL d   1      -9.248  -3.581  -0.378  0.00  0.00     0.105 A 
ATOM     26  C   UNL d   1      -8.742  -2.338   0.007  0.00  0.00     0.038 A 
ATOM     27  C   UNL d   1      -7.374  -2.198   0.248  0.00  0.00     0.036 A 
BRANCH  23  28
ATOM     28  N   UNL d   1      -6.167  -5.732  -0.357  0.00  0.00    -0.113 N 
ATOM     29  O   UNL d   1      -6.710  -6.794  -0.688  0.00  0.00    -0.532 OA
ATOM     30  O   UNL d   1      -4.954  -5.614  -0.124  0.00  0.00    -0.532 OA
ENDBRANCH  23  28
BRANCH  25  31
ATOM     31  N   UNL d   1     -10.679  -3.720  -0.676  0.00  0.00    -0.116 N 
ATOM     32  O   UNL d   1     -11.079  -4.827  -1.062  0.00  0.00    -0.532 OA
ATOM     33  O   UNL d   1     -11.398  -2.723  -0.528  0.00  0.00    -0.532 OA
ENDBRANCH  25  31
ENDBRANCH  20  22
ENDBRANCH   1  20
TORSDOF 7
