REMARK  4 active torsions:
REMARK  status: ('A' for Active; 'I' for Inactive)
REMARK       I    between atoms: N_2  and  C_1 
REMARK       I    between atoms: N_4  and  C_1 
REMARK    1  A    between atoms: C_6  and  C_3 
REMARK    2  A    between atoms: C_10  and  N_4 
REMARK    3  A    between atoms: C_7  and  C_6 
REMARK       I    between atoms: N_9  and  C_7 
REMARK    4  A    between atoms: C_8  and  N_9 
ROOT
ATOM      1  C   UNL d   1       0.925  -0.178  -0.109  0.00  0.00     0.323 C 
ATOM      2  N   UNL d   1       0.249   1.003   0.154  0.00  0.00    -0.318 N 
ATOM      3  C   UNL d   1       0.652   2.309  -0.445  0.00  0.00     0.189 C 
ATOM      4  N   UNL d   1       0.506  -1.282   0.606  0.00  0.00    -0.307 N 
ATOM      5  C   UNL d   1       0.936   3.346   0.675  0.00  0.00     0.241 C 
ATOM      6  N   UNL d   1       0.095   3.315   1.767  0.00  0.00    -0.358 N 
ATOM      7  O   UNL d   1       1.860  -0.245  -0.905  0.00  0.00    -0.247 OA
ATOM      8  O   UNL d   1       1.724   4.283   0.568  0.00  0.00    -0.271 OA
ATOM      9  C   UNL d   1      -0.896   1.140   1.069  0.00  0.00     0.148 C 
ATOM     10  C   UNL d   1      -0.539   2.091   2.215  0.00  0.00     0.142 C 
ATOM     11  H   UNL d   1       0.264  -1.079   1.565  0.00  0.00     0.170 HD
ATOM     12  H   UNL d   1       0.309   4.031   2.451  0.00  0.00     0.162 HD
ENDROOT
BRANCH   3  13
ATOM     13  C   UNL d   1       1.770   2.357  -1.493  0.00  0.00     0.138 C 
BRANCH  13  14
ATOM     14  C   UNL d   1       1.268   1.883  -2.842  0.00  0.00     0.224 C 
ATOM     15  N   UNL d   1       1.998   0.846  -3.381  0.00  0.00    -0.326 N 
ATOM     16  H   UNL d   1       2.524   0.280  -2.709  0.00  0.00     0.169 HD
ATOM     17  O   UNL d   1       0.315   2.449  -3.377  0.00  0.00    -0.273 OA
BRANCH  15  18
ATOM     18  C   UNL d   1       1.970   0.372  -4.716  0.00  0.00     0.058 A 
ATOM     19  C   UNL d   1       1.287   1.050  -5.740  0.00  0.00     0.055 A 
ATOM     20  C   UNL d   1       1.347   0.593  -7.059  0.00  0.00     0.036 A 
ATOM     21 CL   UNL d   1       0.484   1.435  -8.287  0.00  0.00    -0.084 Cl
ATOM     22  C   UNL d   1       2.100  -0.527  -7.388  0.00  0.00     0.026 A 
ATOM     23  C   UNL d   1       2.764  -1.229  -6.382  0.00  0.00     0.028 A 
ATOM     24  C   UNL d   1       2.686  -0.791  -5.055  0.00  0.00     0.060 A 
ATOM     25 CL   UNL d   1       3.497  -1.731  -3.849  0.00  0.00    -0.082 Cl
ENDBRANCH  15  18
ENDBRANCH  13  14
ENDBRANCH   3  13
BRANCH   4  26
ATOM     26  C   UNL d   1       1.154  -2.538   0.452  0.00  0.00     0.058 A 
ATOM     27  C   UNL d   1       1.579  -3.233   1.596  0.00  0.00     0.062 A 
ATOM     28  C   UNL d   1       2.345  -4.392   1.477  0.00  0.00     0.050 A 
ATOM     29 CL   UNL d   1       1.240  -2.619   3.178  0.00  0.00    -0.082 Cl
ATOM     30  C   UNL d   1       2.642  -4.889   0.210  0.00  0.00     0.035 A 
ATOM     31  C   UNL d   1       2.160  -4.254  -0.934  0.00  0.00     0.026 A 
ATOM     32 CL   UNL d   1       3.628  -6.290   0.057  0.00  0.00    -0.084 Cl
ATOM     33  C   UNL d   1       1.416  -3.076  -0.813  0.00  0.00     0.033 A 
ENDBRANCH   4  26
TORSDOF 4
