REMARK  7 active torsions:
REMARK  status: ('A' for Active; 'I' for Inactive)
REMARK    1  A    between atoms: C_11  and  C_1 
REMARK    2  A    between atoms: C_7  and  C_17 
REMARK    3  A    between atoms: N_18  and  C_7 
REMARK    4  A    between atoms: O_13  and  N_8 
REMARK    5  A    between atoms: C_12  and  O_13 
REMARK    6  A    between atoms: C_17  and  O_19 
REMARK    7  A    between atoms: O_19  and  C_20 
ROOT
ATOM      1  C   UNL d   1      -6.204 -13.331  -3.799  0.00  0.00     0.017 A 
ATOM      2  C   UNL d   1      -6.125 -11.992  -4.210  0.00  0.00     0.018 A 
ATOM      3  C   UNL d   1      -5.521 -13.705  -2.633  0.00  0.00     0.018 A 
ATOM      4  C   UNL d   1      -4.754 -11.427  -2.292  0.00  0.00     0.069 A 
ATOM      5  C   UNL d   1      -5.407 -11.044  -3.463  0.00  0.00     0.038 A 
ATOM      6  C   UNL d   1      -4.798 -12.763  -1.893  0.00  0.00     0.038 A 
ENDROOT
BRANCH   4   7
ATOM      7  O   UNL d   1      -4.001 -10.604  -1.500  0.00  0.00    -0.344 OA
BRANCH   7   8
ATOM      8  C   UNL d   1      -4.459  -9.255  -1.405  0.00  0.00     0.253 C 
BRANCH   8   9
ATOM      9  C   UNL d   1      -3.628  -8.482  -0.364  0.00  0.00     0.120 C 
ATOM     10  N   UNL d   1      -3.862  -7.209  -0.265  0.00  0.00    -0.244 N 
ATOM     11  HN  UNL d   1      -4.554  -6.709  -0.822  1.00  0.00     0.196 HD
BRANCH  10  12
ATOM     12  O   UNL d   1      -3.042  -6.602   0.708  0.00  0.00    -0.199 OA
BRANCH  12  13
ATOM     13  C   UNL d   1      -3.384  -5.278   0.843  0.00  0.00     0.277 C 
ATOM     14  O   UNL d   1      -4.277  -4.678   0.253  0.00  0.00    -0.264 OA
ATOM     15  C   UNL d   1      -2.484  -4.612   1.842  0.00  0.00     0.128 C 
ENDBRANCH  12  13
ENDBRANCH  10  12
BRANCH   9  16
ATOM     16  N   UNL d   1      -2.694  -9.175   0.374  0.00  0.00    -0.386 N 
ATOM     17  H   UNL d   1      -2.384 -10.050  -0.040  0.00  0.00     0.157 HD
ATOM     18  H   UNL d   1      -1.960  -8.606   0.774  0.00  0.00     0.157 HD
ENDBRANCH   9  16
ENDBRANCH   8   9
ENDBRANCH   7   8
ENDBRANCH   4   7
BRANCH   1  19
ATOM     19  C   UNL d   1      -6.989 -14.290  -4.566  0.00  0.00     0.173 A 
ATOM     20  N   UNL d   1      -7.699 -14.131  -5.668  0.00  0.00    -0.278 N 
ATOM     21  N   UNL d   1      -8.274 -15.357  -5.947  0.00  0.00    -0.288 N 
ATOM     22  HN  UNL d   1      -7.802 -13.272  -6.208  1.00  0.00     0.189 HD
ATOM     23  C   UNL d   1      -7.872 -16.170  -4.999  0.00  0.00     0.251 A 
ATOM     24  HN  UNL d   1      -8.887 -15.583  -6.730  1.00  0.00     0.188 HD
ATOM     25  O   UNL d   1      -7.053 -15.578  -4.088  0.00  0.00    -0.286 OA
ENDBRANCH   1  19
TORSDOF 7
