REMARK  4 active torsions:
REMARK  status: ('A' for Active; 'I' for Inactive)
REMARK    1  A    between atoms: C_9  and  C_1 
REMARK       I    between atoms: N_19  and  C_9 
REMARK    2  A    between atoms: C_12  and  C_20 
REMARK    3  A    between atoms: C_21  and  N_19 
REMARK    4  A    between atoms: C_20  and  C_21 
ROOT
ATOM      1  C   UNL d   1      -1.441  -1.518   0.039  0.00  0.00     0.061 A 
ATOM      2  C   UNL d   1      -2.627  -0.735   0.035  0.00  0.00     0.082 A 
ATOM      3  S   UNL d   1      -4.873   0.178   0.039  0.00  0.00     0.068 SA
ATOM      4  N   UNL d   1      -3.903  -1.169   0.057  0.00  0.00    -0.310 N 
ATOM      5  HN  UNL d   1      -4.213  -2.140   0.080  1.00  0.00     0.176 HD
ATOM      6  C   UNL d   1      -2.537   0.776   0.004  0.00  0.00     0.068 A 
ATOM      7  N   UNL d   1      -3.734   1.381   0.003  0.00  0.00    -0.310 N 
ATOM      8  HN  UNL d   1      -3.910   2.385  -0.016  1.00  0.00     0.176 HD
ATOM      9  C   UNL d   1      -0.222  -0.795   0.014  0.00  0.00     0.019 A 
ATOM     10  C   UNL d   1      -0.149   0.618  -0.015  0.00  0.00     0.003 A 
ATOM     11  C   UNL d   1      -1.287   1.439  -0.022  0.00  0.00     0.032 A 
ENDROOT
BRANCH   1  12
ATOM     12  C   UNL d   1      -1.420  -3.000   0.060  0.00  0.00     0.254 C 
ATOM     13  O   UNL d   1      -0.345  -3.589   0.097  0.00  0.00    -0.268 OA
ATOM     14  N   UNL d   1      -2.630  -3.653   0.030  0.00  0.00    -0.356 N 
ATOM     15  H   UNL d   1      -3.487  -3.104   0.034  0.00  0.00     0.162 HD
BRANCH  14  16
ATOM     16  C   UNL d   1      -2.735  -5.101   0.010  0.00  0.00     0.128 C 
BRANCH  16  17
ATOM     17  C   UNL d   1      -2.752  -5.707   1.415  0.00  0.00     0.066 C 
BRANCH  17  18
ATOM     18  C   UNL d   1      -2.828  -7.206   1.365  0.00  0.00    -0.016 A 
ATOM     19  S   UNL d   1      -4.347  -8.000   1.350  0.00  0.00    -0.106 SA
ATOM     20  C   UNL d   1      -3.611  -9.542   1.279  0.00  0.00     0.050 A 
ATOM     21  C   UNL d   1      -2.237  -9.459   1.272  0.00  0.00     0.008 A 
ATOM     22  C   UNL d   1      -1.784  -8.109   1.323  0.00  0.00     0.015 A 
ENDBRANCH  17  18
ENDBRANCH  16  17
ENDBRANCH  14  16
ENDBRANCH   1  12
TORSDOF 4
