REMARK  4 active torsions:
REMARK  status: ('A' for Active; 'I' for Inactive)
REMARK    1  A    between atoms: C_6  and  C_1 
REMARK    2  A    between atoms: N_16  and  C_2 
REMARK       I    between atoms: N_15  and  C_6 
REMARK    3  A    between atoms: N_10  and  N_15 
REMARK    4  A    between atoms: C_13  and  C_19 
ROOT
ATOM      1  C   UNL d   1       2.495  -0.037   0.101  0.00  0.00     0.103 A 
ATOM      2  C   UNL d   1       1.651   1.068   0.060  0.00  0.00     0.062 A 
ATOM      3  C   UNL d   1       0.245   0.730   0.059  0.00  0.00     0.032 A 
ATOM      4  S   UNL d   1       1.604  -1.488   0.161  0.00  0.00    -0.064 SA
ATOM      5  C   UNL d   1       0.118  -0.659   0.102  0.00  0.00     0.088 A 
ATOM      6  N   UNL d   1      -1.021  -1.382   0.100  0.00  0.00    -0.354 N 
ATOM      7  HN  UNL d   1      -1.023  -2.401   0.137  1.00  0.00     0.166 HD
ATOM      8  C   UNL d   1      -0.977   1.469   0.023  0.00  0.00    -0.045 A 
ATOM      9  C   UNL d   1      -2.174   0.727   0.011  0.00  0.00     0.032 A 
ATOM     10  C   UNL d   1      -2.151  -0.660   0.045  0.00  0.00     0.006 A 
ATOM     11  C   UNL d   1      -1.136   2.967  -0.005  0.00  0.00     0.049 C 
ATOM     12  C   UNL d   1      -3.446  -1.419   0.022  0.00  0.00     0.068 C 
ENDROOT
BRANCH   1  13
ATOM     13  C   UNL d   1       3.958  -0.023   0.081  0.00  0.00     0.279 C 
ATOM     14  N   UNL d   1       4.604  -1.258   0.133  0.00  0.00    -0.266 N 
ATOM     15  H   UNL d   1       4.076  -2.122   0.185  0.00  0.00     0.190 HD
ATOM     16  O   UNL d   1       4.593   1.037   0.013  0.00  0.00    -0.265 OA
BRANCH  14  17
ATOM     17  N   UNL d   1       5.966  -1.277   0.078  0.00  0.00    -0.308 N 
ATOM     18  C   UNL d   1       6.574  -2.418   0.118  0.00  0.00     0.120 C 
ATOM     19  HN  UNL d   1       6.495  -0.408   0.006  1.00  0.00     0.186 HD
BRANCH  18  20
ATOM     20  C   UNL d   1       8.058  -2.455   0.053  0.00  0.00     0.002 A 
ATOM     21  C   UNL d   1       8.788  -3.648   0.093  0.00  0.00     0.045 A 
ATOM     22 CL   UNL d   1       8.039  -5.200   0.209  0.00  0.00    -0.083 Cl
ATOM     23  C   UNL d   1      10.188  -3.611   0.036  0.00  0.00     0.024 A 
ATOM     24  C   UNL d   1      10.863  -2.392  -0.064  0.00  0.00     0.002 A 
ATOM     25  C   UNL d   1      10.141  -1.203  -0.111  0.00  0.00     0.001 A 
ATOM     26  C   UNL d   1       8.748  -1.234  -0.052  0.00  0.00     0.014 A 
ENDBRANCH  18  20
ENDBRANCH  14  17
ENDBRANCH   1  13
BRANCH   2  27
ATOM     27  N   UNL d   1       2.157   2.321   0.021  0.00  0.00    -0.397 N 
ATOM     28  H   UNL d   1       3.172   2.462  -0.033  0.00  0.00     0.156 HD
ATOM     29  H   UNL d   1       1.631   3.170  -0.117  0.00  0.00     0.156 HD
ENDBRANCH   2  27
TORSDOF 4
