REMARK  5 active torsions:
REMARK  status: ('A' for Active; 'I' for Inactive)
REMARK       I    between atoms: C_10  and  N_1 
REMARK    1  A    between atoms: C_17  and  C_2 
REMARK    2  A    between atoms: C_18  and  C_5 
REMARK    3  A    between atoms: C_8  and  S_14 
REMARK    4  A    between atoms: C_16  and  C_10 
REMARK    5  A    between atoms: S_14  and  C_16 
ROOT
ATOM      1  C   UNL d   1       8.744   2.581   0.620  0.00  0.00     0.086 A 
ATOM      2  N   UNL d   1       8.333   1.296   0.688  0.00  0.00    -0.296 N 
ATOM      3  HN  UNL d   1       9.012   0.548   0.826  1.00  0.00     0.187 HD
ATOM      4  C   UNL d   1       7.796   3.572   0.321  0.00  0.00     0.073 A 
ATOM      5  N   UNL d   1       6.459   3.286   0.234  0.00  0.00    -0.333 N 
ATOM      6  HN  UNL d   1       5.763   4.011   0.060  1.00  0.00     0.168 HD
ATOM      7  C   UNL d   1       6.115   1.996   0.391  0.00  0.00     0.160 A 
ATOM      8  N   UNL d   1       7.008   1.004   0.571  0.00  0.00    -0.279 N 
ATOM      9  HN  UNL d   1       6.692   0.035   0.620  1.00  0.00     0.189 HD
ENDROOT
BRANCH   7  10
ATOM     10  S   UNL d   1       4.413   1.515   0.547  0.00  0.00    -0.083 SA
BRANCH  10  11
ATOM     11  C   UNL d   1       3.539   3.082   0.262  0.00  0.00     0.185 C 
BRANCH  11  12
ATOM     12  C   UNL d   1       2.042   2.844   0.502  0.00  0.00     0.234 C 
ATOM     13  N   UNL d   1       1.515   3.291   1.704  0.00  0.00    -0.317 N 
ATOM     14  C   UNL d   1       0.171   3.130   2.124  0.00  0.00     0.043 A 
ATOM     15  C   UNL d   1       2.214   4.089   2.724  0.00  0.00     0.137 C 
ATOM     16  C   UNL d   1      -0.013   3.722   3.383  0.00  0.00    -0.030 A 
ATOM     17  C   UNL d   1      -0.883   2.505   1.483  0.00  0.00     0.030 A 
ATOM     18  C   UNL d   1      -1.251   3.712   4.011  0.00  0.00     0.009 A 
ATOM     19  C   UNL d   1       1.264   4.281   3.912  0.00  0.00     0.061 C 
ATOM     20  C   UNL d   1      -2.319   3.095   3.362  0.00  0.00     0.001 A 
ATOM     21  C   UNL d   1      -2.136   2.489   2.112  0.00  0.00     0.002 A 
ATOM     22  O   UNL d   1       1.389   2.260  -0.369  0.00  0.00    -0.272 OA
ENDBRANCH  11  12
ENDBRANCH  10  11
ENDBRANCH   7  10
BRANCH   4  23
ATOM     23  C   UNL d   1       8.124   5.011   0.147  0.00  0.00    -0.007 A 
ATOM     24  C   UNL d   1       7.305   6.004   0.716  0.00  0.00     0.014 A 
ATOM     25  C   UNL d   1       7.680   7.352   0.710  0.00  0.00     0.001 A 
ATOM     26  C   UNL d   1       8.883   7.739   0.128  0.00  0.00     0.000 A 
ATOM     27  C   UNL d   1       9.681   6.789  -0.500  0.00  0.00     0.001 A 
ATOM     28  C   UNL d   1       9.290   5.446  -0.516  0.00  0.00     0.014 A 
ENDBRANCH   4  23
BRANCH   1  29
ATOM     29  C   UNL d   1      10.164   2.774   0.988  0.00  0.00    -0.006 A 
ATOM     30  C   UNL d   1      11.154   1.878   0.542  0.00  0.00     0.014 A 
ATOM     31  C   UNL d   1      12.499   2.045   0.892  0.00  0.00     0.001 A 
ATOM     32  C   UNL d   1      12.886   3.117   1.691  0.00  0.00     0.000 A 
ATOM     33  C   UNL d   1      11.926   4.003   2.166  0.00  0.00     0.001 A 
ATOM     34  C   UNL d   1      10.581   3.818   1.838  0.00  0.00     0.014 A 
ENDBRANCH   1  29
TORSDOF 5
