REMARK  7 active torsions:
REMARK  status: ('A' for Active; 'I' for Inactive)
REMARK    1  A    between atoms: C_7  and  C_1 
REMARK    2  A    between atoms: C_6  and  C_2 
REMARK    3  A    between atoms: C_14  and  C_5 
REMARK    4  A    between atoms: O_12  and  C_7 
REMARK    5  A    between atoms: C_11  and  C_8 
REMARK    6  A    between atoms: N_22  and  C_8 
REMARK    7  A    between atoms: N_9  and  O_12 
ROOT
ATOM      1  C   UNL d   1       1.316   0.719   0.013  0.00  0.00     0.083 A 
ATOM      2  C   UNL d   1       0.149   1.473   0.013  0.00  0.00     0.176 A 
ATOM      3  O   UNL d   1       0.466   2.807  -0.030  0.00  0.00    -0.304 OA
ATOM      4  C   UNL d   1       2.385   1.671  -0.041  0.00  0.00     0.058 A 
ATOM      5  C   UNL d   1       1.823   2.930  -0.063  0.00  0.00     0.087 A 
ENDROOT
BRANCH   1   6
ATOM      6  C   UNL d   1       1.414  -0.729   0.100  0.00  0.00     0.318 C 
ATOM      7  O   UNL d   1       0.446  -1.469   0.243  0.00  0.00    -0.257 OA
BRANCH   6   8
ATOM      8  O   UNL d   1       2.709  -1.183  -0.001  0.00  0.00    -0.193 OA
BRANCH   8   9
ATOM      9  N   UNL d   1       2.947  -2.100   1.046  0.00  0.00    -0.245 N 
ATOM     10  C   UNL d   1       3.701  -3.100   0.685  0.00  0.00     0.116 C 
ATOM     11  HN  UNL d   1       2.569  -1.991   1.987  1.00  0.00     0.196 HD
BRANCH  10  12
ATOM     12  C   UNL d   1       4.093  -4.004   1.768  0.00  0.00     0.044 A 
ATOM     13  S   UNL d   1       5.092  -5.363   1.457  0.00  0.00    -0.099 SA
ATOM     14  C   UNL d   1       5.134  -5.801   3.110  0.00  0.00     0.050 A 
ATOM     15  C   UNL d   1       4.384  -4.949   3.888  0.00  0.00     0.009 A 
ATOM     16  C   UNL d   1       3.776  -3.920   3.113  0.00  0.00     0.023 A 
ENDBRANCH  10  12
BRANCH  10  17
ATOM     17  N   UNL d   1       4.090  -3.298  -0.621  0.00  0.00    -0.286 NA
ATOM     18  H   UNL d   1       3.453  -2.888  -1.292  0.00  0.00     0.125 HD
ATOM     19  H   UNL d   1       4.331  -4.260  -0.840  0.00  0.00     0.125 HD
ENDBRANCH  10  17
ENDBRANCH   8   9
ENDBRANCH   6   8
ENDBRANCH   1   6
BRANCH   2  20
ATOM     20  C   UNL d   1      -1.310   1.179   0.051  0.00  0.00     0.440 C 
ATOM     21  F   UNL d   1      -1.628  -0.131  -0.059  0.00  0.00    -0.164 F 
ATOM     22  F   UNL d   1      -1.877   1.624   1.204  0.00  0.00    -0.164 F 
ATOM     23  F   UNL d   1      -1.962   1.808  -0.965  0.00  0.00    -0.164 F 
ENDBRANCH   2  20
BRANCH   5  24
ATOM     24  C   UNL d   1       2.352   4.292  -0.141  0.00  0.00    -0.002 A 
ATOM     25  C   UNL d   1       3.736   4.514  -0.212  0.00  0.00     0.016 A 
ATOM     26  C   UNL d   1       4.252   5.805  -0.368  0.00  0.00     0.024 A 
ATOM     27  C   UNL d   1       3.387   6.893  -0.444  0.00  0.00     0.034 A 
ATOM     28  C   UNL d   1       2.013   6.702  -0.341  0.00  0.00     0.024 A 
ATOM     29 CL   UNL d   1       4.020   8.474  -0.683  0.00  0.00    -0.084 Cl
ATOM     30  C   UNL d   1       1.500   5.408  -0.186  0.00  0.00     0.016 A 
ENDBRANCH   5  24
TORSDOF 7
