REMARK  6 active torsions:
REMARK  status: ('A' for Active; 'I' for Inactive)
REMARK    1  A    between atoms: C_4  and  N_1 
REMARK    2  A    between atoms: C_2  and  N_7 
REMARK    3  A    between atoms: N_3  and  C_2 
REMARK    4  A    between atoms: C_5  and  N_3 
REMARK    5  A    between atoms: N_7  and  N_10 
REMARK    6  A    between atoms: N_10  and  C_14 
ROOT
ATOM      1  N   UNL d   1      -1.494   1.760  -5.826  0.00  0.00    -0.293 N 
ATOM      2  H   UNL d   1      -1.690   1.988  -4.856  0.00  0.00     0.183 HD
ENDROOT
BRANCH   1   3
ATOM      3  C   UNL d   1      -2.151   2.419  -6.842  0.00  0.00     0.187 C 
ATOM      4  S   UNL d   1      -1.802   2.283  -8.474  0.00  0.00    -0.040 SA
BRANCH   3   5
ATOM      5  N   UNL d   1      -3.110   3.324  -6.457  0.00  0.00    -0.332 N 
ATOM      6  H   UNL d   1      -3.339   3.998  -7.178  0.00  0.00     0.168 HD
BRANCH   5   7
ATOM      7  C   UNL d   1      -3.977   3.281  -5.339  0.00  0.00     0.040 A 
ATOM      8  C   UNL d   1      -4.670   4.435  -4.933  0.00  0.00    -0.035 A 
ATOM      9  C   UNL d   1      -4.514   5.788  -5.572  0.00  0.00     0.050 C 
ATOM     10  C   UNL d   1      -5.519   4.358  -3.809  0.00  0.00     0.009 A 
ATOM     11  C   UNL d   1      -5.724   3.154  -3.139  0.00  0.00     0.001 A 
ATOM     12  C   UNL d   1      -5.090   2.003  -3.584  0.00  0.00     0.002 A 
ATOM     13  C   UNL d   1      -4.226   2.067  -4.677  0.00  0.00     0.030 A 
ENDBRANCH   5   7
ENDBRANCH   3   5
ENDBRANCH   1   3
BRANCH   1  14
ATOM     14  N   UNL d   1      -0.870   0.530  -6.071  0.00  0.00    -0.204 NA
ATOM     15  H   UNL d   1      -1.531  -0.245  -6.092  0.00  0.00     0.153 HD
BRANCH  14  16
ATOM     16  C   UNL d   1       0.274   0.275  -5.283  0.00  0.00     0.027 A 
ATOM     17  C   UNL d   1       0.579  -1.051  -4.936  0.00  0.00     0.027 A 
ATOM     18  C   UNL d   1       1.755  -1.369  -4.249  0.00  0.00     0.038 A 
ATOM     19  C   UNL d   1       2.658  -0.350  -3.926  0.00  0.00     0.103 A 
ATOM     20  C   UNL d   1       2.383   0.976  -4.277  0.00  0.00     0.038 A 
ATOM     21  C   UNL d   1       1.198   1.280  -4.959  0.00  0.00     0.027 A 
BRANCH  19  22
ATOM     22  N   UNL d   1       3.911  -0.684  -3.237  0.00  0.00    -0.116 N 
ATOM     23  O   UNL d   1       4.710   0.238  -3.018  0.00  0.00    -0.532 OA
ATOM     24  O   UNL d   1       4.094  -1.863  -2.911  0.00  0.00    -0.532 OA
ENDBRANCH  19  22
ENDBRANCH  14  16
ENDBRANCH   1  14
TORSDOF 6
