REMARK  1 active torsions:
REMARK  status: ('A' for Active; 'I' for Inactive)
REMARK    1  A    between atoms: C_8  and  C_3 
ROOT
ATOM      1  N   UNL d   1      -2.265   0.638  -0.158  0.00  0.00    -0.335 N 
ATOM      2  N   UNL d   1      -1.156  -1.382  -0.380  0.00  0.00    -0.362 N 
ATOM      3  C   UNL d   1      -2.269  -0.722   0.341  0.00  0.00     0.191 C 
ATOM      4  C   UNL d   1      -1.129   1.398  -0.132  0.00  0.00     0.255 C 
ATOM      5  C   UNL d   1       0.141   0.658  -0.057  0.00  0.00     0.058 A 
ATOM      6  C   UNL d   1       0.092  -0.742  -0.190  0.00  0.00     0.047 A 
ATOM      7  O   UNL d   1      -1.180   2.622  -0.172  0.00  0.00    -0.268 OA
ATOM      8  C   UNL d   1      -1.133  -2.813  -0.629  0.00  0.00     0.152 C 
ATOM      9  C   UNL d   1       1.345   1.359   0.098  0.00  0.00     0.019 A 
ATOM     10  C   UNL d   1       1.325  -1.414  -0.169  0.00  0.00     0.030 A 
ATOM     11  C   UNL d   1       2.546   0.661   0.125  0.00  0.00     0.001 A 
ATOM     12  C   UNL d   1       2.535  -0.724  -0.006  0.00  0.00     0.002 A 
ATOM     13  H   UNL d   1      -3.089   1.213  -0.085  0.00  0.00     0.164 HD
ENDROOT
BRANCH   3  14
ATOM     14  C   UNL d   1      -3.675  -1.383   0.154  0.00  0.00     0.032 C 
ATOM     15  C   UNL d   1      -3.857  -2.671   1.004  0.00  0.00     0.035 C 
ATOM     16  C   UNL d   1      -4.180  -2.422   2.449  0.00  0.00    -0.030 C 
ATOM     17  C   UNL d   1      -4.620  -1.244   2.904  0.00  0.00    -0.031 C 
ATOM     18  C   UNL d   1      -4.885  -0.074   2.007  0.00  0.00     0.027 C 
ATOM     19  C   UNL d   1      -4.868  -0.458   0.522  0.00  0.00     0.012 C 
ENDBRANCH   3  14
TORSDOF 1
