REMARK  6 active torsions:
REMARK  status: ('A' for Active; 'I' for Inactive)
REMARK    1  A    between atoms: C_16  and  C_1 
REMARK    2  A    between atoms: C_2  and  C_15 
REMARK    3  A    between atoms: N_3  and  C_24 
REMARK    4  A    between atoms: C_23  and  N_5 
REMARK    5  A    between atoms: C_24  and  C_21 
REMARK    6  A    between atoms: C_22  and  C_23 
ROOT
ATOM      1  C   UNL d   1       3.505   5.919   1.036  0.00  0.00     0.007 C 
ATOM      2  C   UNL d   1       2.208   7.990   0.411  0.00  0.00     0.007 C 
ATOM      3  C   UNL d   1       2.218   5.096   0.967  0.00  0.00     0.007 C 
ATOM      4  C   UNL d   1       0.925   7.166   0.335  0.00  0.00     0.007 C 
ATOM      5  C   UNL d   1       3.223   7.384   1.396  0.00  0.00     0.003 C 
ATOM      6  C   UNL d   1       1.208   5.698  -0.020  0.00  0.00     0.003 C 
ENDROOT
BRANCH   5   7
ATOM      7  C   UNL d   1       4.526   8.204   1.434  0.00  0.00     0.123 C 
BRANCH   7   8
ATOM      8  N   UNL d   1       4.196   9.549   1.901  0.00  0.00    -0.396 N 
ATOM      9  C   UNL d   1       5.181  10.377   1.935  0.00  0.00     0.120 C 
ATOM     10  HN  UNL d   1       3.252   9.813   2.181  1.00  0.00     0.158 HD
BRANCH   9  11
ATOM     11  C   UNL d   1       4.946  11.734   2.338  0.00  0.00     0.089 A 
ATOM     12  O   UNL d   1       6.002  12.601   2.386  0.00  0.00    -0.321 OA
ATOM     13  C   UNL d   1       5.509  13.804   2.780  0.00  0.00     0.142 A 
ATOM     14  C   UNL d   1       4.152  13.728   2.987  0.00  0.00     0.027 A 
ATOM     15  C   UNL d   1       3.788  12.392   2.704  0.00  0.00     0.040 A 
ENDBRANCH   9  11
ENDBRANCH   7   8
ENDBRANCH   5   7
BRANCH   6  16
ATOM     16  C   UNL d   1      -0.087   4.867  -0.051  0.00  0.00     0.123 C 
BRANCH  16  17
ATOM     17  N   UNL d   1      -0.932   5.371  -1.132  0.00  0.00    -0.396 N 
ATOM     18  C   UNL d   1      -2.203   5.336  -0.921  0.00  0.00     0.120 C 
ATOM     19  HN  UNL d   1      -0.538   5.730  -2.002  1.00  0.00     0.158 HD
BRANCH  18  20
ATOM     20  C   UNL d   1      -3.092   5.829  -1.934  0.00  0.00     0.089 A 
ATOM     21  O   UNL d   1      -4.441   5.740  -1.734  0.00  0.00    -0.321 OA
ATOM     22  C   UNL d   1      -5.039   6.253  -2.844  0.00  0.00     0.142 A 
ATOM     23  C   UNL d   1      -4.096   6.675  -3.751  0.00  0.00     0.027 A 
ATOM     24  C   UNL d   1      -2.840   6.410  -3.161  0.00  0.00     0.040 A 
ENDBRANCH  18  20
ENDBRANCH  16  17
ENDBRANCH   6  16
TORSDOF 6
