REMARK  2 active torsions:
REMARK  status: ('A' for Active; 'I' for Inactive)
REMARK    1  A    between atoms: C_9  and  C_4 
REMARK    2  A    between atoms: C_14  and  N_7 
ROOT
ATOM      1  C   UNL d   1       0.190  -1.270   0.033  0.00  0.00     0.147 A 
ATOM      2  N   UNL d   1       0.841  -0.587   0.952  0.00  0.00    -0.336 N 
ATOM      3  HN  UNL d   1       1.289  -1.006   1.766  1.00  0.00     0.168 HD
ATOM      4  C   UNL d   1       0.843   0.770   0.676  0.00  0.00     0.051 A 
ATOM      5  S   UNL d   1      -0.484  -0.270  -1.214  0.00  0.00    -0.064 SA
ATOM      6  N   UNL d   1       0.116  -2.634   0.023  0.00  0.00    -0.358 N 
ATOM      7  N   UNL d   1      -0.043  -5.502   0.147  0.00  0.00    -0.378 N 
ATOM      8  C   UNL d   1       0.149   1.126  -0.460  0.00  0.00     0.083 A 
ATOM      9  C   UNL d   1       0.705  -3.352   1.174  0.00  0.00     0.145 C 
ATOM     10  C   UNL d   1      -1.053  -3.327  -0.548  0.00  0.00     0.145 C 
ATOM     11  C   UNL d   1      -0.674  -4.764  -0.960  0.00  0.00     0.143 C 
ATOM     12  C   UNL d   1       1.087  -4.801   0.788  0.00  0.00     0.143 C 
ENDROOT
BRANCH   4  13
ATOM     13  C   UNL d   1       1.525   1.714   1.554  0.00  0.00    -0.009 A 
ATOM     14  C   UNL d   1       2.046   2.925   1.075  0.00  0.00     0.015 A 
ATOM     15  C   UNL d   1       2.705   3.807   1.938  0.00  0.00     0.024 A 
ATOM     16  C   UNL d   1       2.849   3.481   3.284  0.00  0.00     0.034 A 
ATOM     17  C   UNL d   1       2.345   2.280   3.776  0.00  0.00     0.024 A 
ATOM     18 CL   UNL d   1       3.660   4.567   4.344  0.00  0.00    -0.084 Cl
ATOM     19  C   UNL d   1       1.689   1.398   2.911  0.00  0.00     0.015 A 
ENDBRANCH   4  13
BRANCH   7  20
ATOM     20  C   UNL d   1      -0.655  -6.572   0.771  0.00  0.00     0.030 A 
ATOM     21  C   UNL d   1       0.108  -7.596   1.355  0.00  0.00     0.029 A 
ATOM     22  C   UNL d   1      -0.488  -8.714   1.952  0.00  0.00     0.002 A 
ATOM     23  C   UNL d   1      -1.873  -8.828   1.986  0.00  0.00     0.000 A 
ATOM     24  C   UNL d   1      -2.655  -7.826   1.423  0.00  0.00     0.002 A 
ATOM     25  C   UNL d   1      -2.050  -6.717   0.823  0.00  0.00     0.029 A 
ENDBRANCH   7  20
TORSDOF 2
