REMARK  7 active torsions:
REMARK  status: ('A' for Active; 'I' for Inactive)
REMARK    1  A    between atoms: C_9  and  C_1 
REMARK    2  A    between atoms: C_5  and  C_2 
REMARK       I    between atoms: C_3  and  N_13 
REMARK    3  A    between atoms: C_4  and  C_3 
REMARK    4  A    between atoms: N_14  and  C_8 
REMARK    5  A    between atoms: O_23  and  C_9 
REMARK    6  A    between atoms: N_13  and  N_14 
REMARK    7  A    between atoms: C_24  and  O_23 
ROOT
ATOM      1  C   UNL d   1      -0.091  -1.429   0.061  0.00  0.00     0.086 A 
ATOM      2  C   UNL d   1       1.126  -0.771   0.021  0.00  0.00     0.136 A 
ATOM      3  N   UNL d   1       1.174   0.601  -0.038  0.00  0.00    -0.327 N 
ATOM      4  HN  UNL d   1       2.073   1.082  -0.049  1.00  0.00     0.168 HD
ATOM      5  C   UNL d   1       0.036   1.304  -0.082  0.00  0.00     0.176 A 
ATOM      6  N   UNL d   1      -1.175   0.736  -0.015  0.00  0.00    -0.340 N 
ATOM      7  HN  UNL d   1      -2.029   1.294  -0.019  1.00  0.00     0.167 HD
ATOM      8  C   UNL d   1      -1.209  -0.610   0.059  0.00  0.00     0.110 A 
ENDROOT
BRANCH   5   9
ATOM      9  N   UNL d   1       0.145   2.686  -0.263  0.00  0.00    -0.172 NA
ATOM     10  H   UNL d   1       1.072   2.988   0.049  0.00  0.00     0.156 HD
BRANCH   9  11
ATOM     11  N   UNL d   1      -0.922   3.418   0.280  0.00  0.00    -0.277 N 
ATOM     12  C   UNL d   1      -0.650   4.683   0.783  0.00  0.00     0.340 C 
ATOM     13  O   UNL d   1       0.507   5.105   0.884  0.00  0.00    -0.262 OA
ATOM     14  H   UNL d   1      -1.862   3.082   0.065  0.00  0.00     0.184 HD
BRANCH  12  15
ATOM     15  C   UNL d   1      -1.897   5.473   1.202  0.00  0.00     0.473 C 
ATOM     16  F   UNL d   1      -3.045   4.754   1.021  0.00  0.00    -0.162 F 
ATOM     17  F   UNL d   1      -1.874   5.828   2.515  0.00  0.00    -0.162 F 
ATOM     18  F   UNL d   1      -2.054   6.620   0.487  0.00  0.00    -0.162 F 
ENDBRANCH  12  15
ENDBRANCH   9  11
ENDBRANCH   5   9
BRANCH   2  19
ATOM     19  C   UNL d   1       2.481  -1.453  -0.032  0.00  0.00     0.433 C 
ATOM     20  F   UNL d   1       2.493  -2.802  -0.152  0.00  0.00    -0.165 F 
ATOM     21  F   UNL d   1       3.217  -1.015  -1.101  0.00  0.00    -0.165 F 
ATOM     22  F   UNL d   1       3.241  -1.169   1.066  0.00  0.00    -0.165 F 
ENDBRANCH   2  19
BRANCH   1  23
ATOM     23  C   UNL d   1      -0.288  -2.885   0.051  0.00  0.00     0.296 C 
ATOM     24  O   UNL d   1       0.415  -3.702   0.615  0.00  0.00    -0.259 OA
BRANCH  23  25
ATOM     25  O   UNL d   1      -1.338  -3.134  -0.770  0.00  0.00    -0.318 OA
BRANCH  25  26
ATOM     26  C   UNL d   1      -1.474  -4.469  -1.282  0.00  0.00     0.174 C 
ATOM     27  C   UNL d   1      -0.842  -4.476  -2.660  0.00  0.00     0.034 C 
ENDBRANCH  25  26
ENDBRANCH  23  25
ENDBRANCH   1  23
TORSDOF 7
