REMARK  5 active torsions:
REMARK  status: ('A' for Active; 'I' for Inactive)
REMARK    1  A    between atoms: C_16  and  N_1 
REMARK    2  A    between atoms: C_17  and  C_2 
REMARK       I    between atoms: N_3  and  C_12 
REMARK    3  A    between atoms: S_15  and  C_6 
REMARK    4  A    between atoms: C_12  and  C_18 
REMARK    5  A    between atoms: C_18  and  S_15 
ROOT
ATOM      1  N   UNL d   1      -2.933   1.261   2.892  0.00  0.00    -0.275 N 
ATOM      2  C   UNL d   1      -3.218   0.770   4.174  0.00  0.00     0.139 A 
ATOM      3  N   UNL d   1      -3.663  -0.471   4.064  0.00  0.00    -0.282 N 
ATOM      4  HN  UNL d   1      -3.916  -1.080   4.841  1.00  0.00     0.188 HD
ATOM      5  C   UNL d   1      -3.297   0.217   2.047  0.00  0.00     0.168 A 
ATOM      6  N   UNL d   1      -3.728  -0.806   2.742  0.00  0.00    -0.278 N 
ATOM      7  HN  UNL d   1      -4.053  -1.695   2.362  1.00  0.00     0.189 HD
ENDROOT
BRANCH   5   8
ATOM      8  S   UNL d   1      -3.008   0.179   0.339  0.00  0.00    -0.083 SA
BRANCH   8   9
ATOM      9  C   UNL d   1      -3.567  -1.465  -0.154  0.00  0.00     0.186 C 
BRANCH   9  10
ATOM     10  C   UNL d   1      -5.046  -1.817   0.027  0.00  0.00     0.238 C 
ATOM     11  N   UNL d   1      -6.050  -0.855  -0.176  0.00  0.00    -0.279 N 
ATOM     12  C   UNL d   1      -7.369  -1.024   0.401  0.00  0.00     0.059 A 
ATOM     13  C   UNL d   1      -5.916   0.284  -1.048  0.00  0.00     0.059 A 
ATOM     14  C   UNL d   1      -8.121   0.085   0.841  0.00  0.00     0.033 A 
ATOM     15  C   UNL d   1      -7.960  -2.293   0.533  0.00  0.00     0.031 A 
ATOM     16  C   UNL d   1      -9.391  -0.087   1.416  0.00  0.00     0.021 A 
ATOM     17  S   UNL d   1      -7.480   1.742   0.726  0.00  0.00    -0.086 SA
ATOM     18  C   UNL d   1      -9.947  -1.354   1.536  0.00  0.00     0.002 A 
ATOM     19  C   UNL d   1      -9.234  -2.457   1.089  0.00  0.00     0.002 A 
ATOM     20  C   UNL d   1      -6.540   1.512  -0.762  0.00  0.00     0.033 A 
ATOM     21  C   UNL d   1      -6.424   2.596  -1.645  0.00  0.00     0.021 A 
ATOM     22  C   UNL d   1      -5.707   2.465  -2.830  0.00  0.00     0.002 A 
ATOM     23  C   UNL d   1      -5.108   1.251  -3.141  0.00  0.00     0.002 A 
ATOM     24  C   UNL d   1      -5.219   0.168  -2.263  0.00  0.00     0.031 A 
ATOM     25  O   UNL d   1      -5.277  -2.990   0.356  0.00  0.00    -0.272 OA
ENDBRANCH   9  10
ENDBRANCH   8   9
ENDBRANCH   5   8
BRANCH   1  26
ATOM     26  C   UNL d   1      -2.373   2.528   2.546  0.00  0.00     0.043 A 
ATOM     27  C   UNL d   1      -1.363   3.096   3.337  0.00  0.00     0.030 A 
ATOM     28  C   UNL d   1      -0.890   4.381   3.061  0.00  0.00     0.002 A 
ATOM     29  C   UNL d   1      -1.395   5.093   1.975  0.00  0.00     0.000 A 
ATOM     30  C   UNL d   1      -2.368   4.519   1.160  0.00  0.00     0.002 A 
ATOM     31  C   UNL d   1      -2.862   3.244   1.445  0.00  0.00     0.030 A 
ENDBRANCH   1  26
BRANCH   2  32
ATOM     32  C   UNL d   1      -3.107   1.467   5.465  0.00  0.00     0.013 A 
ATOM     33  C   UNL d   1      -3.431   2.816   5.634  0.00  0.00     0.032 A 
ATOM     34  C   UNL d   1      -3.228   3.400   6.875  0.00  0.00     0.088 A 
ATOM     35  N   UNL d   1      -2.777   2.730   7.955  0.00  0.00    -0.375 N 
ATOM     36  C   UNL d   1      -2.535   1.413   7.793  0.00  0.00     0.088 A 
ATOM     37  HN  UNL d   1      -2.627   3.196   8.850  1.00  0.00     0.164 HD
ATOM     38  C   UNL d   1      -2.681   0.748   6.586  0.00  0.00     0.032 A 
ENDBRANCH   2  32
TORSDOF 5
