REMARK  2 active torsions:
REMARK  status: ('A' for Active; 'I' for Inactive)
REMARK    1  A    between atoms: C_8  and  C_2 
REMARK       I    between atoms: C_4  and  N_3 
REMARK       I    between atoms: N_7  and  C_4 
REMARK       I    between atoms: C_9  and  N_7 
REMARK    2  A    between atoms: C_16  and  C_9 
ROOT
ATOM      1  C   UNL d   1       1.020  -0.722   0.032  0.00  0.00     0.049 A 
ATOM      2  C   UNL d   1       2.440  -1.236   0.086  0.00  0.00     0.246 C 
ATOM      3  N   UNL d   1       3.353  -0.086  -0.240  0.00  0.00    -0.315 N 
ATOM      4  C   UNL d   1       4.626  -0.464  -0.673  0.00  0.00     0.326 C 
ATOM      5  C   UNL d   1       0.607   0.593  -0.053  0.00  0.00    -0.019 A 
ATOM      6  N   UNL d   1      -0.097  -1.514   0.074  0.00  0.00    -0.356 N 
ATOM      7  N   UNL d   1       5.502   0.568  -0.943  0.00  0.00    -0.275 N 
ATOM      8  C   UNL d   1       6.819   0.403  -1.335  0.00  0.00     0.259 C 
ATOM      9  C   UNL d   1      -0.816   0.604  -0.030  0.00  0.00    -0.001 A 
ATOM     10  C   UNL d   1      -1.229  -0.728   0.048  0.00  0.00     0.043 A 
ATOM     11  C   UNL d   1       2.974   1.231   0.329  0.00  0.00     0.133 C 
ATOM     12  C   UNL d   1       1.588   1.704  -0.155  0.00  0.00     0.061 C 
ATOM     13  O   UNL d   1       4.890  -1.651  -0.829  0.00  0.00    -0.247 OA
ATOM     14  O   UNL d   1       7.457  -0.642  -1.295  0.00  0.00    -0.267 OA
ATOM     15  C   UNL d   1      -1.799   1.613  -0.067  0.00  0.00     0.014 A 
ATOM     16  C   UNL d   1      -2.579  -1.101   0.088  0.00  0.00     0.030 A 
ATOM     17  C   UNL d   1      -3.153   1.255  -0.026  0.00  0.00     0.001 A 
ATOM     18  C   UNL d   1      -3.534  -0.082   0.048  0.00  0.00     0.002 A 
ATOM     19  H   UNL d   1      -0.113  -2.523   0.144  0.00  0.00     0.166 HD
ATOM     20  H   UNL d   1       5.130   1.495  -0.973  0.00  0.00     0.173 HD
ENDROOT
BRANCH   2  21
ATOM     21  C   UNL d   1       2.783  -1.968   1.424  0.00  0.00     0.413 C 
ATOM     22  F   UNL d   1       1.739  -1.956   2.295  0.00  0.00    -0.168 F 
ATOM     23  F   UNL d   1       3.079  -3.273   1.211  0.00  0.00    -0.168 F 
ATOM     24  F   UNL d   1       3.827  -1.405   2.078  0.00  0.00    -0.168 F 
ENDBRANCH   2  21
BRANCH   8  25
ATOM     25  C   UNL d   1       7.531   1.639  -1.782  0.00  0.00     0.032 A 
ATOM     26  C   UNL d   1       8.913   1.721  -1.552  0.00  0.00     0.017 A 
ATOM     27  C   UNL d   1       9.651   2.801  -2.042  0.00  0.00     0.001 A 
ATOM     28  C   UNL d   1       9.014   3.805  -2.767  0.00  0.00     0.000 A 
ATOM     29  C   UNL d   1       7.636   3.744  -2.982  0.00  0.00     0.001 A 
ATOM     30  C   UNL d   1       6.892   2.665  -2.491  0.00  0.00     0.017 A 
ENDBRANCH   8  25
TORSDOF 2
