REMARK  4 active torsions:
REMARK  status: ('A' for Active; 'I' for Inactive)
REMARK    1  A    between atoms: C_7  and  C_1 
REMARK       I    between atoms: N_12  and  C_7 
REMARK    2  A    between atoms: N_10  and  C_11 
REMARK    3  A    between atoms: C_17  and  N_12 
REMARK    4  A    between atoms: C_14  and  C_17 
ROOT
ATOM      1  C   UNL d   1       0.691  -1.379  -1.546  0.00  0.00     0.254 C 
ATOM      2  N   UNL d   1       1.412  -1.857  -0.473  0.00  0.00    -0.352 N 
ATOM      3  O   UNL d   1      -0.197  -2.027  -2.096  0.00  0.00    -0.268 OA
ATOM      4  H   UNL d   1       2.088  -1.246  -0.026  0.00  0.00     0.163 HD
ENDROOT
BRANCH   2   5
ATOM      5  C   UNL d   1       1.065  -3.119   0.166  0.00  0.00     0.163 C 
BRANCH   5   6
ATOM      6  C   UNL d   1       2.138  -4.190   0.157  0.00  0.00    -0.014 A 
ATOM      7  C   UNL d   1       1.834  -5.583   0.186  0.00  0.00     0.038 A 
ATOM      8  C   UNL d   1       2.944  -6.462   0.137  0.00  0.00     0.030 A 
ATOM      9  C   UNL d   1       4.272  -6.026   0.110  0.00  0.00     0.002 A 
ATOM     10  C   UNL d   1       4.547  -4.674   0.121  0.00  0.00     0.001 A 
ATOM     11  C   UNL d   1       3.492  -3.768   0.146  0.00  0.00     0.011 A 
BRANCH   7  12
ATOM     12  N   UNL d   1       0.554  -6.119   0.244  0.00  0.00    -0.380 N 
ATOM     13  C   UNL d   1      -0.571  -5.537   0.976  0.00  0.00     0.123 C 
ATOM     14  C   UNL d   1      -1.365  -6.745   1.462  0.00  0.00     0.021 C 
ATOM     15  C   UNL d   1      -1.188  -7.741   0.333  0.00  0.00     0.021 C 
ATOM     16  C   UNL d   1       0.256  -7.515  -0.111  0.00  0.00     0.123 C 
ENDBRANCH   7  12
ENDBRANCH   5   6
ENDBRANCH   2   5
BRANCH   1  17
ATOM     17  C   UNL d   1       0.957  -0.013  -2.031  0.00  0.00     0.061 A 
ATOM     18  C   UNL d   1       1.963   0.858  -1.537  0.00  0.00     0.082 A 
ATOM     19  N   UNL d   1       2.868   0.612  -0.569  0.00  0.00    -0.310 N 
ATOM     20  C   UNL d   1       2.096   2.260  -2.106  0.00  0.00     0.068 A 
ATOM     21  S   UNL d   1       3.795   1.984  -0.417  0.00  0.00     0.068 SA
ATOM     22  HN  UNL d   1       2.965  -0.250  -0.032  1.00  0.00     0.176 HD
ATOM     23  N   UNL d   1       3.087   2.970  -1.545  0.00  0.00    -0.310 N 
ATOM     24  HN  UNL d   1       3.352   3.929  -1.770  1.00  0.00     0.176 HD
ATOM     25  C   UNL d   1       1.233   2.729  -3.126  0.00  0.00     0.032 A 
ATOM     26  C   UNL d   1       0.263   1.827  -3.581  0.00  0.00     0.003 A 
ATOM     27  C   UNL d   1       0.136   0.519  -3.061  0.00  0.00     0.019 A 
ENDBRANCH   1  17
TORSDOF 4
