REMARK  4 active torsions:
REMARK  status: ('A' for Active; 'I' for Inactive)
REMARK    1  A    between atoms: C_6  and  C_1 
REMARK    2  A    between atoms: C_10  and  C_3 
REMARK    3  A    between atoms: C_8  and  C_4 
REMARK    4  A    between atoms: C_15  and  C_8 
ROOT
ATOM      1  N   UNL d   1       1.052  -3.027   3.274  0.00  0.00    -0.197 NA
ATOM      2  C   UNL d   1       0.906  -3.312   2.157  0.00  0.00     0.067 C 
ATOM      3  C   UNL d   1       0.758  -3.657   0.745  0.00  0.00     0.208 C 
ENDROOT
BRANCH   3   4
ATOM      4  C   UNL d   1      -0.189  -2.699   0.057  0.00  0.00     0.179 C 
ATOM      5  O   UNL d   1      -1.235  -3.134  -0.431  0.00  0.00    -0.291 OA
BRANCH   4   6
ATOM      6  C   UNL d   1       0.205  -1.296  -0.015  0.00  0.00     0.053 A 
ATOM      7  S   UNL d   1      -0.997  -0.097  -0.124  0.00  0.00    -0.081 SA
ATOM      8  C   UNL d   1       0.143   1.196  -0.053  0.00  0.00     0.100 A 
ATOM      9  C   UNL d   1       1.452   0.715  -0.036  0.00  0.00    -0.003 A 
ATOM     10  C   UNL d   1       1.462  -0.730  -0.006  0.00  0.00     0.036 A 
BRANCH   8  11
ATOM     11  C   UNL d   1      -0.403   2.595  -0.016  0.00  0.00     0.424 C 
ATOM     12  F   UNL d   1      -1.752   2.644   0.163  0.00  0.00    -0.166 F 
ATOM     13  F   UNL d   1       0.138   3.328   0.989  0.00  0.00    -0.166 F 
ATOM     14  F   UNL d   1      -0.164   3.266  -1.174  0.00  0.00    -0.166 F 
ENDBRANCH   8  11
BRANCH   9  15
ATOM     15  C   UNL d   1       2.670   1.544  -0.013  0.00  0.00    -0.025 A 
ATOM     16  C   UNL d   1       3.803   1.097   0.691  0.00  0.00     0.012 A 
ATOM     17  C   UNL d   1       4.999   1.823   0.676  0.00  0.00     0.001 A 
ATOM     18  C   UNL d   1       5.076   3.023  -0.020  0.00  0.00     0.000 A 
ATOM     19  C   UNL d   1       3.966   3.485  -0.718  0.00  0.00     0.001 A 
ATOM     20  C   UNL d   1       2.782   2.739  -0.733  0.00  0.00     0.012 A 
ENDBRANCH   9  15
ENDBRANCH   4   6
ENDBRANCH   3   4
TORSDOF 4
