REMARK  7 active torsions:
REMARK  status: ('A' for Active; 'I' for Inactive)
REMARK    1  A    between atoms: C_3  and  C_1 
REMARK    2  A    between atoms: N_6  and  C_2 
REMARK    3  A    between atoms: O_13  and  C_3 
REMARK    4  A    between atoms: C_7  and  N_6 
REMARK    5  A    between atoms: C_16  and  C_12 
REMARK    6  A    between atoms: C_18  and  C_16 
REMARK    7  A    between atoms: C_19  and  C_18 
ROOT
ATOM      1  C   UNL d   1       2.716   0.959  -0.003  0.00  0.00     0.135 C 
ATOM      2  C   UNL d   1       2.173   2.077   0.512  0.00  0.00     0.117 C 
ATOM      3  C   UNL d   1       1.947  -0.214  -0.199  0.00  0.00     0.107 C 
ATOM      4  N   UNL d   1       1.271  -1.149  -0.337  0.00  0.00    -0.191 NA
ENDROOT
BRANCH   1   5
ATOM      5  C   UNL d   1       4.159   0.966  -0.356  0.00  0.00     0.304 C 
ATOM      6  O   UNL d   1       4.902   1.928  -0.226  0.00  0.00    -0.258 OA
BRANCH   5   7
ATOM      7  O   UNL d   1       4.528  -0.250  -0.835  0.00  0.00    -0.322 OA
ATOM      8  C   UNL d   1       5.907  -0.365  -1.189  0.00  0.00     0.213 C 
ENDBRANCH   5   7
ENDBRANCH   1   5
BRANCH   2   9
ATOM      9  N   UNL d   1       0.877   2.271   0.944  0.00  0.00    -0.364 N 
ATOM     10  H   UNL d   1       0.241   1.482   0.865  0.00  0.00     0.165 HD
BRANCH   9  11
ATOM     11  C   UNL d   1       0.257   3.468   1.353  0.00  0.00     0.037 A 
ATOM     12  C   UNL d   1      -0.844   3.434   2.235  0.00  0.00    -0.035 A 
ATOM     13  C   UNL d   1      -1.451   4.639   2.640  0.00  0.00     0.016 A 
ATOM     14  C   UNL d   1      -1.434   2.160   2.782  0.00  0.00     0.050 C 
ATOM     15  C   UNL d   1      -0.966   5.881   2.219  0.00  0.00    -0.058 A 
ATOM     16  C   UNL d   1       0.155   5.911   1.390  0.00  0.00     0.009 A 
ATOM     17  C   UNL d   1       0.757   4.722   0.968  0.00  0.00     0.030 A 
BRANCH  15  18
ATOM     18  C   UNL d   1      -1.640   7.154   2.669  0.00  0.00     0.038 C 
BRANCH  18  19
ATOM     19  C   UNL d   1      -2.155   8.035   1.524  0.00  0.00     0.004 C 
BRANCH  19  20
ATOM     20  C   UNL d   1      -3.215   7.346   0.661  0.00  0.00    -0.004 C 
ATOM     21  C   UNL d   1      -3.706   8.269  -0.444  0.00  0.00     0.005 C 
ENDBRANCH  19  20
ENDBRANCH  18  19
ENDBRANCH  15  18
ENDBRANCH   9  11
ENDBRANCH   2   9
TORSDOF 7
