REMARK  5 active torsions:
REMARK  status: ('A' for Active; 'I' for Inactive)
REMARK    1  A    between atoms: C_14  and  N_3 
REMARK       I    between atoms: C_12  and  N_10 
REMARK    2  A    between atoms: O_24  and  C_12 
REMARK    3  A    between atoms: C_15  and  C_14 
REMARK    4  A    between atoms: C_19  and  C_15 
REMARK    5  A    between atoms: C_29  and  O_24 
ROOT
ATOM      1  C   UNL d   1       0.636   0.387   0.051  0.00  0.00     0.073 A 
ATOM      2  C   UNL d   1       1.141  -0.886   0.226  0.00  0.00     0.091 A 
ATOM      3  N   UNL d   1       2.905   1.108   0.255  0.00  0.00    -0.302 N 
ATOM      4  C   UNL d   1       1.584   1.492   0.028  0.00  0.00     0.262 A 
ATOM      5  C   UNL d   1      -0.796   0.391  -0.028  0.00  0.00    -0.023 A 
ATOM      6  C   UNL d   1      -1.302  -0.899   0.014  0.00  0.00     0.010 A 
ATOM      7  N   UNL d   1       2.439  -1.224   0.424  0.00  0.00    -0.346 N 
ATOM      8  HN  UNL d   1       2.746  -2.188   0.554  1.00  0.00     0.167 HD
ATOM      9  S   UNL d   1      -0.083  -2.074   0.187  0.00  0.00    -0.074 SA
ATOM     10  N   UNL d   1      -3.543  -0.081   0.254  0.00  0.00    -0.323 N 
ATOM     11  C   UNL d   1       3.253  -0.219   0.433  0.00  0.00     0.187 A 
ATOM     12  C   UNL d   1      -4.331  -0.007   1.386  0.00  0.00     0.363 C 
ATOM     13  C   UNL d   1      -2.755  -1.274  -0.070  0.00  0.00     0.174 C 
ATOM     14  C   UNL d   1      -1.719   1.579  -0.079  0.00  0.00     0.061 C 
ATOM     15  C   UNL d   1      -3.157   1.152  -0.440  0.00  0.00     0.133 C 
ATOM     16  O   UNL d   1       1.238   2.658  -0.146  0.00  0.00    -0.267 OA
ATOM     17  O   UNL d   1      -4.795   1.037   1.829  0.00  0.00    -0.238 OA
ENDROOT
BRANCH   3  18
ATOM     18  C   UNL d   1       3.933   2.133   0.351  0.00  0.00     0.216 C 
BRANCH  18  19
ATOM     19  C   UNL d   1       4.659   2.383  -0.972  0.00  0.00     0.177 C 
ATOM     20  O   UNL d   1       4.544   1.644  -1.947  0.00  0.00    -0.291 OA
BRANCH  19  21
ATOM     21  C   UNL d   1       5.583   3.561  -1.039  0.00  0.00     0.011 A 
ATOM     22  C   UNL d   1       5.968   4.264   0.109  0.00  0.00     0.016 A 
ATOM     23  C   UNL d   1       6.802   5.381   0.011  0.00  0.00     0.020 A 
ATOM     24  C   UNL d   1       7.262   5.798  -1.237  0.00  0.00     0.011 A 
ATOM     25  C   UNL d   1       6.913   5.090  -2.386  0.00  0.00     0.020 A 
ATOM     26 BR   UNL d   1       8.351   7.335  -1.364  0.00  0.00    -0.051 Br
ATOM     27  C   UNL d   1       6.078   3.971  -2.289  0.00  0.00     0.016 A 
ENDBRANCH  19  21
ENDBRANCH  18  19
ENDBRANCH   3  18
BRANCH  12  28
ATOM     28  O   UNL d   1      -4.508  -1.222   1.970  0.00  0.00    -0.304 OA
BRANCH  28  29
ATOM     29  C   UNL d   1      -5.043  -1.216   3.300  0.00  0.00     0.176 C 
ATOM     30  C   UNL d   1      -3.891  -1.066   4.276  0.00  0.00     0.034 C 
ENDBRANCH  28  29
ENDBRANCH  12  28
TORSDOF 5
