REMARK  11 active torsions:
REMARK  status: ('A' for Active; 'I' for Inactive)
REMARK    1  A    between atoms: C_2  and  C_1 
REMARK    2  A    between atoms: C_3  and  C_1 
REMARK    3  A    between atoms: N_4  and  C_2 
REMARK    4  A    between atoms: O_10  and  C_3 
REMARK    5  A    between atoms: C_8  and  N_4 
REMARK    6  A    between atoms: N_9  and  C_5 
REMARK    7  A    between atoms: C_18  and  N_9 
REMARK    8  A    between atoms: C_19  and  O_10 
REMARK    9  A    between atoms: O_16  and  C_11 
REMARK   10  A    between atoms: C_20  and  O_16 
REMARK   11  A    between atoms: C_21  and  C_18 
ROOT
ATOM      1  C   UNL d   1       0.724  -0.202   0.043  0.00  0.00     0.094 C 
ATOM      2  C   UNL d   1       2.064  -0.293   0.287  0.00  0.00     0.001 C 
ATOM      3  C   UNL d   1       3.076   0.691  -0.290  0.00  0.00     0.062 C 
ENDROOT
BRANCH   1   4
ATOM      4  C   UNL d   1      -0.272  -1.109   0.746  0.00  0.00     0.119 C 
ATOM      5  S   UNL d   1      -1.535  -1.895  -0.071  0.00  0.00    -0.059 SA
BRANCH   4   6
ATOM      6  N   UNL d   1      -0.004  -1.312   2.100  0.00  0.00    -0.346 N 
ATOM      7  H   UNL d   1       0.987  -1.329   2.348  0.00  0.00     0.167 HD
BRANCH   6   8
ATOM      8  C   UNL d   1      -0.946  -1.641   3.102  0.00  0.00     0.033 A 
ATOM      9  C   UNL d   1      -0.632  -2.580   4.089  0.00  0.00     0.032 A 
ATOM     10  C   UNL d   1      -1.574  -2.910   5.082  0.00  0.00     0.039 A 
ATOM     11  C   UNL d   1      -2.803  -2.251   5.130  0.00  0.00     0.068 A 
ATOM     12  C   UNL d   1      -3.080  -1.256   4.192  0.00  0.00     0.039 A 
ATOM     13  C   UNL d   1      -2.169  -0.968   3.173  0.00  0.00     0.032 A 
BRANCH  11  14
ATOM     14  O   UNL d   1      -3.775  -2.439   6.074  0.00  0.00    -0.352 OA
BRANCH  14  15
ATOM     15  C   UNL d   1      -3.935  -3.770   6.560  0.00  0.00     0.171 C 
ATOM     16  C   UNL d   1      -5.304  -3.852   7.218  0.00  0.00     0.034 C 
ENDBRANCH  14  15
ENDBRANCH  11  14
ENDBRANCH   6   8
ENDBRANCH   4   6
ENDBRANCH   1   4
BRANCH   1  17
ATOM     17  C   UNL d   1       0.227   0.794  -0.971  0.00  0.00     0.297 C 
ATOM     18  O   UNL d   1       0.884   1.214  -1.910  0.00  0.00    -0.259 OA
BRANCH  17  19
ATOM     19  O   UNL d   1      -1.047   1.173  -0.690  0.00  0.00    -0.318 OA
BRANCH  19  20
ATOM     20  C   UNL d   1      -1.646   2.141  -1.568  0.00  0.00     0.174 C 
ATOM     21  C   UNL d   1      -1.889   1.620  -2.978  0.00  0.00     0.034 C 
ENDBRANCH  19  20
ENDBRANCH  17  19
ENDBRANCH   1  17
BRANCH   2  22
ATOM     22  N   UNL d   1       2.665  -1.289   1.087  0.00  0.00    -0.296 NA
ATOM     23  H   UNL d   1       3.600  -0.986   1.375  0.00  0.00     0.127 HD
BRANCH  22  24
ATOM     24  C   UNL d   1       2.743  -2.671   0.568  0.00  0.00     0.092 C 
BRANCH  24  25
ATOM     25  C   UNL d   1       4.165  -3.231   0.669  0.00  0.00     0.010 C 
ATOM     26  C   UNL d   1       5.116  -2.645  -0.368  0.00  0.00     0.006 C 
ENDBRANCH  24  25
ENDBRANCH  22  24
ENDBRANCH   2  22
TORSDOF 11
