REMARK  5 active torsions:
REMARK  status: ('A' for Active; 'I' for Inactive)
REMARK    1  A    between atoms: C_2  and  S_1 
REMARK    2  A    between atoms: N_11  and  S_1 
REMARK    3  A    between atoms: N_10  and  C_16 
REMARK    4  A    between atoms: C_25  and  N_11 
REMARK    5  A    between atoms: C_26  and  C_25 
ROOT
ATOM      1  N   UNL d   1       2.070  -2.708  -1.435  0.00  0.00    -0.311 N 
ATOM      2  H   UNL d   1       2.235  -3.517  -2.029  0.00  0.00     0.172 HD
ENDROOT
BRANCH   1   3
ATOM      3  S   UNL d   1       2.816  -1.300  -1.883  0.00  0.00     0.261 S 
ATOM      4  O   UNL d   1       3.678  -1.595  -2.999  0.00  0.00    -0.200 OA
ATOM      5  O   UNL d   1       1.793  -0.278  -1.970  0.00  0.00    -0.200 OA
BRANCH   3   6
ATOM      6  C   UNL d   1       3.829  -0.917  -0.512  0.00  0.00     0.110 A 
ATOM      7  C   UNL d   1       4.849  -1.773  -0.065  0.00  0.00     0.108 A 
ATOM      8  C   UNL d   1       5.720  -1.394   1.042  0.00  0.00     0.086 A 
ATOM      9  N   UNL d   1       5.221  -2.992  -0.479  0.00  0.00    -0.238 N 
ATOM     10  N   UNL d   1       6.592  -2.385   1.252  0.00  0.00    -0.239 N 
ATOM     11  C   UNL d   1       5.593  -0.167   1.722  0.00  0.00     0.034 A 
ATOM     12  O   UNL d   1       6.285  -3.362   0.322  0.00  0.00    -0.156 OA
ATOM     13  HN  UNL d   1       7.331  -2.416   1.955  1.00  0.00     0.197 HD
ATOM     14  C   UNL d   1       4.540   0.653   1.275  0.00  0.00     0.004 A 
ATOM     15  C   UNL d   1       3.685   0.293   0.203  0.00  0.00     0.028 A 
ATOM     16  HN  UNL d   1       4.802  -3.537  -1.232  1.00  0.00     0.197 HD
ENDBRANCH   3   6
ENDBRANCH   1   3
BRANCH   1  17
ATOM     17  C   UNL d   1       1.054  -2.723  -0.397  0.00  0.00     0.170 C 
BRANCH  17  18
ATOM     18  C   UNL d   1       0.511  -4.105  -0.125  0.00  0.00    -0.040 A 
ATOM     19  C   UNL d   1       1.324  -5.239  -0.229  0.00  0.00     0.011 A 
ATOM     20  C   UNL d   1       0.818  -6.503   0.068  0.00  0.00     0.030 A 
ATOM     21  C   UNL d   1      -0.498  -6.685   0.513  0.00  0.00     0.030 A 
ATOM     22  C   UNL d   1      -1.305  -5.547   0.612  0.00  0.00     0.030 A 
ATOM     23  C   UNL d   1      -0.810  -4.273   0.308  0.00  0.00     0.011 A 
BRANCH  21  24
ATOM     24  N   UNL d   1      -0.947  -7.968   0.784  0.00  0.00    -0.378 N 
ATOM     25  C   UNL d   1      -2.386  -8.268   0.772  0.00  0.00     0.153 C 
ATOM     26  C   UNL d   1      -2.574  -9.782   0.535  0.00  0.00     0.291 C 
ATOM     27  N   UNL d   1      -1.883 -10.606   1.556  0.00  0.00     0.087 N 
ATOM     28  C   UNL d   1      -0.445 -10.245   1.582  0.00  0.00     0.291 C 
ATOM     29  C   UNL d   1      -2.049 -12.025   1.256  0.00  0.00     0.310 C 
ATOM     30  C   UNL d   1      -0.215  -8.733   1.815  0.00  0.00     0.153 C 
ENDBRANCH  21  24
ENDBRANCH  17  18
ENDBRANCH   1  17
TORSDOF 5
