REMARK  3 active torsions:
REMARK  status: ('A' for Active; 'I' for Inactive)
REMARK    1  A    between atoms: C_6  and  C_1 
REMARK    2  A    between atoms: N_11  and  C_2 
REMARK    3  A    between atoms: C_10  and  C_6 
ROOT
ATOM      1  C   UNL d   1       1.332  -1.592   0.059  0.00  0.00     0.056 A 
ATOM      2  C   UNL d   1       2.446  -0.758   0.009  0.00  0.00     0.083 A 
ATOM      3  C   UNL d   1       0.117  -0.807  -0.017  0.00  0.00    -0.025 A 
ATOM      4  C   UNL d   1       0.363   0.551   0.003  0.00  0.00     0.020 A 
ATOM      5  S   UNL d   1       2.016   0.904   0.021  0.00  0.00    -0.074 SA
ATOM      6  N   UNL d   1      -2.029   1.099   0.360  0.00  0.00     0.089 N 
ATOM      7  C   UNL d   1      -0.693   1.621  -0.017  0.00  0.00     0.318 C 
ATOM      8  C   UNL d   1      -1.300  -1.315  -0.038  0.00  0.00     0.071 C 
ATOM      9  C   UNL d   1      -2.299  -0.176  -0.342  0.00  0.00     0.277 C 
ATOM     10  C   UNL d   1      -2.156   0.955   1.810  0.00  0.00     0.310 C 
ENDROOT
BRANCH   1  11
ATOM     11  C   UNL d   1       1.326  -3.061   0.123  0.00  0.00     0.195 C 
ATOM     12  O   UNL d   1       0.407  -3.722  -0.356  0.00  0.00    -0.287 OA
BRANCH  11  13
ATOM     13  C   UNL d   1       2.417  -3.818   0.790  0.00  0.00     0.015 A 
ATOM     14  C   UNL d   1       2.720  -5.100   0.304  0.00  0.00     0.017 A 
ATOM     15  C   UNL d   1       3.759  -5.841   0.868  0.00  0.00     0.025 A 
ATOM     16  C   UNL d   1       4.495  -5.308   1.924  0.00  0.00     0.034 A 
ATOM     17  C   UNL d   1       4.176  -4.055   2.445  0.00  0.00     0.025 A 
ATOM     18 CL   UNL d   1       5.808  -6.197   2.585  0.00  0.00    -0.084 Cl
ATOM     19  C   UNL d   1       3.122  -3.318   1.893  0.00  0.00     0.017 A 
ENDBRANCH  11  13
ENDBRANCH   1  11
BRANCH   2  20
ATOM     20  N   UNL d   1       3.762  -1.069  -0.043  0.00  0.00    -0.393 N 
ATOM     21  H   UNL d   1       4.081  -1.970  -0.384  0.00  0.00     0.156 HD
ATOM     22  H   UNL d   1       4.419  -0.317  -0.235  0.00  0.00     0.156 HD
ENDBRANCH   2  20
TORSDOF 3
