REMARK  1 active torsions:
REMARK  status: ('A' for Active; 'I' for Inactive)
REMARK    1  A    between atoms: N_11  and  C_5 
ROOT
ATOM      1  C   UNL d   1      -0.503   1.044  -0.022  0.00  0.00     0.160 A 
ATOM      2  C   UNL d   1      -0.950  -0.239   0.029  0.00  0.00     0.164 A 
ATOM      3  N   UNL d   1      -1.537   1.934  -0.095  0.00  0.00    -0.174 N 
ATOM      4  HN  UNL d   1      -1.472   2.949  -0.170  1.00  0.00     0.186 HD
ATOM      5  C   UNL d   1      -2.638   1.205  -0.048  0.00  0.00     0.684 A 
ATOM      6  N   UNL d   1       0.845   1.337  -0.013  0.00  0.00    -0.287 N 
ATOM      7  N   UNL d   1       1.275  -1.016   0.025  0.00  0.00    -0.269 N 
ATOM      8  C   UNL d   1       1.778   0.298   0.005  0.00  0.00     0.332 A 
ATOM      9  C   UNL d   1      -0.076  -1.362   0.068  0.00  0.00     0.282 A 
ATOM     10  N   UNL d   1      -2.316  -0.144   0.018  0.00  0.00    -0.178 N 
ATOM     11  O   UNL d   1       2.988   0.526   0.005  0.00  0.00    -0.246 OA
ATOM     12  O   UNL d   1      -0.466  -2.523   0.126  0.00  0.00    -0.265 OA
ATOM     13  C   UNL d   1       1.344   2.696  -0.018  0.00  0.00     0.163 C 
ATOM     14  C   UNL d   1       2.217  -2.119   0.029  0.00  0.00     0.164 C 
ATOM     15  C   UNL d   1      -3.250  -1.240  -0.028  0.00  0.00     0.176 C 
ENDROOT
BRANCH   5  16
ATOM     16  N   UNL d   1      -3.936   1.623  -0.137  0.00  0.00    -0.213 N 
ATOM     17  C   UNL d   1      -4.179   2.846  -0.936  0.00  0.00     0.180 C 
ATOM     18  C   UNL d   1      -5.260   3.762  -0.386  0.00  0.00    -0.033 A 
ATOM     19  C   UNL d   1      -5.267   5.128  -0.696  0.00  0.00     0.009 A 
ATOM     20  C   UNL d   1      -6.307   3.238   0.390  0.00  0.00    -0.049 A 
ATOM     21  C   UNL d   1      -6.290   5.955  -0.225  0.00  0.00     0.001 A 
ATOM     22  C   UNL d   1      -7.328   5.421   0.538  0.00  0.00     0.001 A 
ATOM     23  C   UNL d   1      -7.344   4.061   0.840  0.00  0.00     0.008 A 
ATOM     24  C   UNL d   1      -6.250   1.780   0.735  0.00  0.00     0.059 C 
ATOM     25  C   UNL d   1      -4.793   1.431   1.048  0.00  0.00     0.146 C 
ENDBRANCH   5  16
TORSDOF 1
