REMARK  2 active torsions:
REMARK  status: ('A' for Active; 'I' for Inactive)
REMARK    1  A    between atoms: C_5  and  C_1 
REMARK       I    between atoms: N_2  and  C_5 
REMARK    2  A    between atoms: C_14  and  C_6 
ROOT
ATOM      1  N   UNL d   1      -1.215   3.323   0.076  0.00  0.00    -0.231 N 
ATOM      2  N   UNL d   1      -1.623   4.150  -0.923  0.00  0.00    -0.290 N 
ATOM      3  HN  UNL d   1      -1.135   4.360  -1.794  1.00  0.00     0.187 HD
ATOM      4  C   UNL d   1      -0.017   2.579  -0.042  0.00  0.00     0.280 C 
ATOM      5  C   UNL d   1      -2.805   4.627  -0.513  0.00  0.00     0.067 A 
ATOM      6  C   UNL d   1      -3.135   4.164   0.778  0.00  0.00     0.051 A 
ATOM      7  C   UNL d   1      -2.122   3.299   1.115  0.00  0.00     0.122 A 
ATOM      8  O   UNL d   1       0.079   1.586   0.675  0.00  0.00    -0.265 OA
ENDROOT
BRANCH   4   9
ATOM      9  C   UNL d   1       1.062   2.970  -0.935  0.00  0.00     0.089 A 
ATOM     10  C   UNL d   1       1.903   2.116  -1.621  0.00  0.00     0.090 A 
ATOM     11  O   UNL d   1       2.825   2.839  -2.308  0.00  0.00    -0.242 OA
ATOM     12  C   UNL d   1       2.017   0.651  -1.769  0.00  0.00     0.080 C 
ATOM     13  N   UNL d   1       2.631   4.181  -2.068  0.00  0.00    -0.265 N 
ATOM     14  C   UNL d   1       1.585   4.264  -1.237  0.00  0.00     0.047 A 
ATOM     15  HN  UNL d   1       3.175   4.956  -2.447  1.00  0.00     0.194 HD
ATOM     16  C   UNL d   1       1.188   5.596  -0.716  0.00  0.00     0.071 C 
ENDBRANCH   4   9
BRANCH   5  17
ATOM     17  C   UNL d   1      -3.632   5.538  -1.371  0.00  0.00     0.033 A 
ATOM     18  S   UNL d   1      -5.095   6.268  -0.869  0.00  0.00    -0.100 SA
ATOM     19  C   UNL d   1      -5.283   7.072  -2.366  0.00  0.00     0.050 A 
ATOM     20  C   UNL d   1      -4.272   6.763  -3.248  0.00  0.00     0.008 A 
ATOM     21  C   UNL d   1      -3.313   5.878  -2.671  0.00  0.00     0.021 A 
ENDBRANCH   5  17
TORSDOF 2
