REMARK  4 active torsions:
REMARK  status: ('A' for Active; 'I' for Inactive)
REMARK    1  A    between atoms: N_8  and  C_1 
REMARK       I    between atoms: C_4  and  N_7 
REMARK       I    between atoms: N_10  and  C_4 
REMARK    2  A    between atoms: C_9  and  O_14 
REMARK    3  A    between atoms: C_17  and  N_10 
REMARK    4  A    between atoms: O_14  and  C_21 
ROOT
ATOM      1  C   UNL d   1      -3.308   2.067   3.839  0.00  0.00     0.323 C 
ATOM      2  N   UNL d   1      -2.216   2.396   3.028  0.00  0.00    -0.331 N 
ATOM      3  N   UNL d   1       0.062   2.543   1.106  0.00  0.00     0.105 N 
ATOM      4  N   UNL d   1      -4.355   2.961   3.814  0.00  0.00    -0.309 N 
ATOM      5  O   UNL d   1      -3.294   1.041   4.517  0.00  0.00    -0.247 OA
ATOM      6  C   UNL d   1      -1.198   1.348   2.944  0.00  0.00     0.158 C 
ATOM      7  C   UNL d   1      -2.283   3.310   1.881  0.00  0.00     0.158 C 
ATOM      8  C   UNL d   1      -0.928   3.620   1.185  0.00  0.00     0.293 C 
ATOM      9  C   UNL d   1       0.137   1.858   2.409  0.00  0.00     0.293 C 
ATOM     10  H   UNL d   1      -4.256   3.769   3.228  0.00  0.00     0.170 HD
ENDROOT
BRANCH   4  11
ATOM     11  C   UNL d   1      -5.582   2.853   4.505  0.00  0.00     0.036 A 
ATOM     12  C   UNL d   1      -5.885   1.828   5.404  0.00  0.00     0.032 A 
ATOM     13  C   UNL d   1      -7.146   1.748   6.004  0.00  0.00     0.039 A 
ATOM     14  C   UNL d   1      -8.133   2.671   5.681  0.00  0.00     0.078 A 
ATOM     15  C   UNL d   1      -7.817   3.743   4.847  0.00  0.00     0.039 A 
ATOM     16  C   UNL d   1      -6.550   3.833   4.260  0.00  0.00     0.032 A 
BRANCH  14  17
ATOM     17  O   UNL d   1      -9.392   2.655   6.199  0.00  0.00    -0.255 OA
BRANCH  17  18
ATOM     18  C   UNL d   1     -10.076   1.404   6.209  0.00  0.00     0.530 C 
ATOM     19  F   UNL d   1      -9.341   0.353   5.791  0.00  0.00    -0.144 F 
ATOM     20  F   UNL d   1     -10.504   1.153   7.466  0.00  0.00    -0.144 F 
ATOM     21  F   UNL d   1     -11.162   1.497   5.408  0.00  0.00    -0.144 F 
ENDBRANCH  17  18
ENDBRANCH  14  17
ENDBRANCH   4  11
BRANCH   3  22
ATOM     22  C   UNL d   1       0.030   1.698  -0.108  0.00  0.00     0.290 C 
ATOM     23  C   UNL d   1      -1.261   0.941  -0.410  0.00  0.00    -0.009 C 
ATOM     24  C   UNL d   1      -1.062  -0.448  -0.256  0.00  0.00    -0.017 C 
ATOM     25  C   UNL d   1      -2.481   1.435  -0.850  0.00  0.00     0.010 C 
ATOM     26  C   UNL d   1      -2.124  -1.330  -0.374  0.00  0.00     0.013 C 
ATOM     27  C   UNL d   1       0.345  -0.697  -0.030  0.00  0.00    -0.017 A 
ATOM     28  C   UNL d   1      -3.381  -0.818  -0.711  0.00  0.00     0.001 C 
ATOM     29  C   UNL d   1      -3.551   0.548  -0.977  0.00  0.00     0.001 C 
ATOM     30  C   UNL d   1       1.030   0.538  -0.019  0.00  0.00    -0.009 A 
ATOM     31  C   UNL d   1       1.038  -1.885   0.137  0.00  0.00     0.013 A 
ATOM     32  C   UNL d   1       2.409   0.602   0.137  0.00  0.00     0.010 A 
ATOM     33  C   UNL d   1       3.103  -0.598   0.313  0.00  0.00     0.001 A 
ATOM     34  C   UNL d   1       2.424  -1.827   0.319  0.00  0.00     0.001 A 
ENDBRANCH   3  22
TORSDOF 4
