REMARK  1 active torsions:
REMARK  status: ('A' for Active; 'I' for Inactive)
REMARK    1  A    between atoms: C_8  and  C_7 
ROOT
ATOM      1  C   UNL d   1      -1.251   0.116  -0.095  0.00  0.00     0.116 C 
ATOM      2  C   UNL d   1      -0.642  -1.185   0.213  0.00  0.00     0.302 C 
ATOM      3  C   UNL d   1      -0.511   1.343   0.227  0.00  0.00     0.302 C 
ATOM      4  O   UNL d   1       0.702  -1.168   0.333  0.00  0.00    -0.280 OA
ATOM      5  O   UNL d   1       0.830   1.210   0.246  0.00  0.00    -0.280 OA
ATOM      6  C   UNL d   1       1.412  -0.029  -0.156  0.00  0.00     0.175 C 
ATOM      7  C   UNL d   1      -2.449   0.092  -0.709  0.00  0.00     0.042 C 
ATOM      8  O   UNL d   1      -1.044   2.410   0.497  0.00  0.00    -0.259 OA
ATOM      9  O   UNL d   1      -1.291  -2.214   0.347  0.00  0.00    -0.259 OA
ATOM     10  C   UNL d   1       1.550  -0.091  -1.681  0.00  0.00     0.080 C 
ATOM     11  C   UNL d   1       2.802  -0.067   0.478  0.00  0.00     0.080 C 
ENDROOT
BRANCH   7  12
ATOM     12  C   UNL d   1      -3.109   1.253  -1.191  0.00  0.00     0.007 A 
ATOM     13  S   UNL d   1      -2.861   1.764  -2.818  0.00  0.00    -0.078 SA
ATOM     14  C   UNL d   1      -3.935   3.056  -2.636  0.00  0.00     0.075 A 
ATOM     15 CL   UNL d   1      -4.247   4.100  -3.963  0.00  0.00    -0.076 Cl
ATOM     16  C   UNL d   1      -4.484   3.138  -1.384  0.00  0.00     0.033 A 
ATOM     17  C   UNL d   1      -4.005   2.087  -0.544  0.00  0.00     0.021 A 
ENDBRANCH   7  12
TORSDOF 1
