REMARK  5 active torsions:
REMARK  status: ('A' for Active; 'I' for Inactive)
REMARK    1  A    between atoms: C_10  and  N_1 
REMARK    2  A    between atoms: C_9  and  C_2 
REMARK    3  A    between atoms: N_13  and  C_11 
REMARK    4  A    between atoms: C_12  and  N_13 
REMARK    5  A    between atoms: O_21  and  C_14 
ROOT
ATOM      1  N   UNL d   1       4.102   0.585   0.349  0.00  0.00    -0.223 N 
ATOM      2  C   UNL d   1       3.747  -0.724  -0.022  0.00  0.00     0.145 A 
ATOM      3  N   UNL d   1       5.804  -0.362  -0.572  0.00  0.00    -0.226 N 
ATOM      4  HN  UNL d   1       6.739  -0.519  -0.947  1.00  0.00     0.210 HD
ATOM      5  N   UNL d   1       5.403   0.761  -0.010  0.00  0.00    -0.219 N 
ATOM      6  HN  UNL d   1       5.962   1.602   0.129  1.00  0.00     0.210 HD
ATOM      7  N   UNL d   1       4.805  -1.282  -0.587  0.00  0.00    -0.268 N 
ATOM      8  HN  UNL d   1       4.860  -2.228  -0.963  1.00  0.00     0.190 HD
ENDROOT
BRANCH   2   9
ATOM      9  C   UNL d   1       2.465  -1.299   0.155  0.00  0.00     0.063 C 
ATOM     10  C   UNL d   1       2.272  -2.575   0.518  0.00  0.00     0.066 C 
BRANCH  10  11
ATOM     11  N   UNL d   1       3.156  -3.591   0.830  0.00  0.00    -0.267 NA
ATOM     12  H   UNL d   1       2.776  -4.488   0.532  0.00  0.00     0.133 HD
BRANCH  11  13
ATOM     13  C   UNL d   1       3.714  -3.825   2.123  0.00  0.00     0.045 A 
ATOM     14  C   UNL d   1       4.503  -4.963   2.411  0.00  0.00     0.089 A 
ATOM     15  C   UNL d   1       4.999  -5.156   3.711  0.00  0.00     0.038 A 
ATOM     16  C   UNL d   1       4.743  -4.246   4.735  0.00  0.00     0.003 A 
ATOM     17  C   UNL d   1       3.997  -3.110   4.460  0.00  0.00     0.002 A 
ATOM     18  C   UNL d   1       3.507  -2.897   3.167  0.00  0.00     0.026 A 
BRANCH  14  19
ATOM     19  O   UNL d   1       4.878  -6.001   1.598  0.00  0.00    -0.354 OA
ATOM     20  C   UNL d   1       4.715  -5.939   0.194  0.00  0.00     0.210 C 
ENDBRANCH  14  19
ENDBRANCH  11  13
ENDBRANCH  10  11
ENDBRANCH   2   9
BRANCH   1  21
ATOM     21  C   UNL d   1       3.416   1.679   0.979  0.00  0.00     0.060 A 
ATOM     22  C   UNL d   1       4.167   2.826   1.323  0.00  0.00     0.033 A 
ATOM     23  C   UNL d   1       3.568   3.937   1.930  0.00  0.00     0.026 A 
ATOM     24  C   UNL d   1       2.205   3.927   2.190  0.00  0.00     0.034 A 
ATOM     25  C   UNL d   1       1.443   2.811   1.856  0.00  0.00     0.026 A 
ATOM     26 CL   UNL d   1       1.457   5.288   2.924  0.00  0.00    -0.084 Cl
ATOM     27  C   UNL d   1       2.045   1.688   1.263  0.00  0.00     0.033 A 
ENDBRANCH   1  21
TORSDOF 5
