REMARK  5 active torsions:
REMARK  status: ('A' for Active; 'I' for Inactive)
REMARK    1  A    between atoms: C_16  and  C_9 
REMARK    2  A    between atoms: S_19  and  C_11 
REMARK    3  A    between atoms: O_22  and  C_23 
REMARK    4  A    between atoms: C_24  and  O_22 
REMARK    5  A    between atoms: C_27  and  C_24 
ROOT
ATOM      1  C   UNL d   1      -1.301   0.673  -0.095  0.00  0.00     0.120 C 
ATOM      2  C   UNL d   1      -1.330  -0.678  -0.119  0.00  0.00     0.067 C 
ATOM      3  N   UNL d   1      -2.440   1.442  -0.105  0.00  0.00    -0.322 N 
ATOM      4  HN  UNL d   1      -2.393   2.461  -0.134  1.00  0.00     0.169 HD
ATOM      5  C   UNL d   1      -2.639  -1.346  -0.212  0.00  0.00     0.258 C 
ATOM      6  C   UNL d   1       1.192  -0.708  -0.140  0.00  0.00     0.024 C 
ATOM      7  N   UNL d   1      -3.711  -0.523  -0.079  0.00  0.00    -0.303 N 
ATOM      8  C   UNL d   1       1.154   0.639  -0.109  0.00  0.00     0.022 C 
ATOM      9  C   UNL d   1      -0.078  -1.536  -0.014  0.00  0.00     0.099 C 
ATOM     10  N   UNL d   1      -0.063   1.288  -0.032  0.00  0.00    -0.345 N 
ATOM     11  C   UNL d   1      -3.570   0.824  -0.077  0.00  0.00     0.148 C 
ATOM     12  C   UNL d   1       2.489  -1.418  -0.305  0.00  0.00     0.159 C 
ATOM     13  C   UNL d   1       2.402   1.487  -0.110  0.00  0.00     0.067 C 
ATOM     14  C   UNL d   1       3.636   0.738   0.440  0.00  0.00    -0.036 C 
ATOM     15  C   UNL d   1       3.772  -0.611  -0.288  0.00  0.00     0.092 C 
ATOM     16  O   UNL d   1      -2.765  -2.547  -0.414  0.00  0.00    -0.267 OA
ATOM     17  O   UNL d   1       2.513  -2.626  -0.533  0.00  0.00    -0.293 OA
ATOM     18  C   UNL d   1       3.515   0.518   1.964  0.00  0.00     0.015 C 
ATOM     19  C   UNL d   1       4.897   1.581   0.184  0.00  0.00     0.015 C 
ATOM     20  H   UNL d   1      -4.632  -0.929  -0.122  0.00  0.00     0.171 HD
ATOM     21  H   UNL d   1      -0.093   2.301  -0.084  0.00  0.00     0.167 HD
ENDROOT
BRANCH   9  22
ATOM     22  C   UNL d   1      -0.082  -2.293   1.319  0.00  0.00    -0.044 A 
ATOM     23  C   UNL d   1      -0.076  -3.694   1.338  0.00  0.00     0.011 A 
ATOM     24  C   UNL d   1      -0.147  -4.382   2.550  0.00  0.00     0.037 A 
ATOM     25  C   UNL d   1      -0.237  -3.685   3.755  0.00  0.00     0.069 A 
ATOM     26  C   UNL d   1      -0.183  -2.291   3.751  0.00  0.00     0.037 A 
ATOM     27  C   UNL d   1      -0.113  -1.601   2.542  0.00  0.00     0.011 A 
BRANCH  25  28
ATOM     28  O   UNL d   1      -0.372  -4.454   4.877  0.00  0.00    -0.347 OA
BRANCH  28  29
ATOM     29  C   UNL d   1      -1.032  -3.811   5.969  0.00  0.00     0.214 C 
BRANCH  29  30
ATOM     30  C   UNL d   1      -1.602  -4.854   6.896  0.00  0.00    -0.034 A 
ATOM     31  C   UNL d   1      -1.301  -4.837   8.264  0.00  0.00     0.009 A 
ATOM     32  C   UNL d   1      -1.871  -5.776   9.123  0.00  0.00     0.001 A 
ATOM     33  C   UNL d   1      -2.750  -6.737   8.626  0.00  0.00     0.000 A 
ATOM     34  C   UNL d   1      -3.059  -6.763   7.268  0.00  0.00     0.001 A 
ATOM     35  C   UNL d   1      -2.490  -5.825   6.407  0.00  0.00     0.009 A 
ENDBRANCH  29  30
ENDBRANCH  28  29
ENDBRANCH  25  28
ENDBRANCH   9  22
BRANCH  11  36
ATOM     36  S   UNL d   1      -5.109   1.629  -0.040  0.00  0.00    -0.098 SA
ATOM     37  C   UNL d   1      -4.589   3.356  -0.058  0.00  0.00     0.099 C 
ENDBRANCH  11  36
TORSDOF 5
