REMARK  13 active torsions:
REMARK  status: ('A' for Active; 'I' for Inactive)
REMARK    1  A    between atoms: C1*_3  and  N_1 
REMARK    2  A    between atoms: N_18  and  C_2 
REMARK    3  A    between atoms: C2*_8  and  O2*_29 
REMARK    4  A    between atoms: N_10  and  C_19 
REMARK    5  A    between atoms: C3*_11  and  O3*_33 
REMARK    6  A    between atoms: C4*_12  and  C5*_38 
REMARK    7  A    between atoms: N_32  and  C_15 
REMARK    8  A    between atoms: N_20  and  N_18 
REMARK    9  A    between atoms: C_25  and  C_28 
REMARK   10  A    between atoms: O_27  and  C_26 
REMARK   11  A    between atoms: C_34  and  O_27 
REMARK   12  A    between atoms: C_35  and  C_34 
REMARK   13  A    between atoms: O5*_39  and  C5*_38 
ROOT
ATOM      1  N   UNL d   1       1.855  -0.771   0.743  0.00  0.00    -0.134 N 
ATOM      2  C   UNL d   1       2.537   0.174  -0.001  0.00  0.00     0.703 A 
ATOM      3  C   UNL d   1       0.521  -0.439   0.701  0.00  0.00     0.158 A 
ATOM      4  N   UNL d   1       1.716   1.137  -0.390  0.00  0.00    -0.183 N 
ATOM      5  HN  UNL d   1       1.966   1.988  -0.894  1.00  0.00     0.184 HD
ATOM      6  C   UNL d   1       0.465   0.760   0.021  0.00  0.00     0.132 A 
ATOM      7  N   UNL d   1      -0.509  -1.113   1.240  0.00  0.00    -0.336 N 
ATOM      8  HN  UNL d   1      -0.427  -2.010   1.718  1.00  0.00     0.168 HD
ATOM      9  C   UNL d   1      -0.799   1.361  -0.102  0.00  0.00     0.110 A 
ATOM     10  N   UNL d   1      -1.865   0.741   0.453  0.00  0.00    -0.341 N 
ATOM     11  HN  UNL d   1      -2.795   1.158   0.408  1.00  0.00     0.167 HD
ATOM     12  C   UNL d   1      -1.668  -0.444   1.066  0.00  0.00     0.183 A 
ENDROOT
BRANCH   2  13
ATOM     13  N   UNL d   1       3.879   0.105  -0.235  0.00  0.00    -0.132 N 
ATOM     14  H   UNL d   1       4.395  -0.681   0.176  0.00  0.00     0.205 HD
BRANCH  13  15
ATOM     15  N   UNL d   1       4.567   1.272  -0.366  0.00  0.00    -0.297 N 
ATOM     16  C   UNL d   1       5.852   1.220  -0.541  0.00  0.00     0.121 C 
ATOM     17  HN  UNL d   1       4.083   2.169  -0.328  1.00  0.00     0.186 HD
BRANCH  16  18
ATOM     18  C   UNL d   1       6.636   2.479  -0.440  0.00  0.00     0.014 A 
ATOM     19  C   UNL d   1       8.019   2.548  -0.672  0.00  0.00     0.080 A 
ATOM     20  C   UNL d   1       8.690   3.724  -0.281  0.00  0.00     0.037 A 
ATOM     21  C   UNL d   1       7.997   4.837   0.205  0.00  0.00     0.003 A 
ATOM     22  C   UNL d   1       6.619   4.794   0.327  0.00  0.00     0.001 A 
ATOM     23  C   UNL d   1       5.946   3.615   0.024  0.00  0.00     0.015 A 
BRANCH  19  24
ATOM     24  O   UNL d   1       8.657   1.492  -1.296  0.00  0.00    -0.346 OA
BRANCH  24  25
ATOM     25  C   UNL d   1       9.952   1.825  -1.826  0.00  0.00     0.214 C 
BRANCH  25  26
ATOM     26  C   UNL d   1      10.463   0.937  -2.943  0.00  0.00    -0.034 A 
ATOM     27  C   UNL d   1       9.627   0.115  -3.707  0.00  0.00     0.012 A 
ATOM     28  C   UNL d   1      10.131  -0.564  -4.824  0.00  0.00     0.037 A 
ATOM     29  C   UNL d   1      11.478  -0.411  -5.184  0.00  0.00     0.102 A 
ATOM     30  C   UNL d   1      12.329   0.397  -4.426  0.00  0.00     0.037 A 
ATOM     31  C   UNL d   1      11.818   1.065  -3.312  0.00  0.00     0.012 A 
BRANCH  29  32
ATOM     32  N   UNL d   1      12.000  -1.080  -6.383  0.00  0.00    -0.116 N 
ATOM     33  O   UNL d   1      11.220  -1.794  -7.030  0.00  0.00    -0.532 OA
ATOM     34  O   UNL d   1      13.188  -0.891  -6.681  0.00  0.00    -0.532 OA
ENDBRANCH  29  32
ENDBRANCH  25  26
ENDBRANCH  24  25
ENDBRANCH  19  24
ENDBRANCH  16  18
ENDBRANCH  13  15
ENDBRANCH   2  13
BRANCH   1  35
ATOM     35  C1* UNL d   1       2.356  -1.940   1.447  0.00  0.00     0.279 C 
ATOM     36  C2* UNL d   1       1.902  -2.094   2.911  0.00  0.00     0.199 C 
ATOM     37  C3* UNL d   1       2.987  -1.356   3.674  0.00  0.00     0.182 C 
ATOM     38  C4* UNL d   1       4.228  -1.683   2.858  0.00  0.00     0.179 C 
ATOM     39  O4* UNL d   1       3.805  -1.917   1.492  0.00  0.00    -0.353 OA
BRANCH  36  40
ATOM     40  O2* UNL d   1       1.912  -3.468   3.363  0.00  0.00    -0.388 OA
ATOM     41  H2* UNL d   1       2.353  -4.022   2.695  0.00  0.00     0.210 HD
ENDBRANCH  36  40
BRANCH  37  42
ATOM     42  O3* UNL d   1       3.096  -1.816   5.018  0.00  0.00    -0.390 OA
ATOM     43  H3* UNL d   1       2.640  -2.684   5.045  0.00  0.00     0.210 HD
ENDBRANCH  37  42
BRANCH  38  44
ATOM     44  C5* UNL d   1       5.264  -0.557   2.912  0.00  0.00     0.198 C 
BRANCH  44  45
ATOM     45  O5* UNL d   1       6.360  -0.836   2.039  0.00  0.00    -0.398 OA
ATOM     46  H5* UNL d   1       6.664  -1.741   2.221  0.00  0.00     0.209 HD
ENDBRANCH  44  45
ENDBRANCH  38  44
ENDBRANCH   1  35
BRANCH   9  47
ATOM     47  N   UNL d   1      -1.004   2.579  -0.737  0.00  0.00    -0.287 NA
ATOM     48  H   UNL d   1      -0.154   3.126  -0.830  0.00  0.00     0.125 HD
ATOM     49  H   UNL d   1      -1.833   3.050  -0.400  0.00  0.00     0.125 HD
ENDBRANCH   9  47
TORSDOF 13
