REMARK  4 active torsions:
REMARK  status: ('A' for Active; 'I' for Inactive)
REMARK    1  A    between atoms: C_10  and  N_4 
REMARK    2  A    between atoms: C_14  and  N_5 
REMARK    3  A    between atoms: C_13  and  C_9 
REMARK    4  A    between atoms: C_17  and  C_14 
ROOT
ATOM      1  C   UNL d   1      -0.121  -0.672   0.020  0.00  0.00     0.097 A 
ATOM      2  C   UNL d   1      -0.243   0.694   0.038  0.00  0.00     0.068 A 
ATOM      3  C   UNL d   1       2.258  -0.624  -0.017  0.00  0.00     0.337 A 
ATOM      4  N   UNL d   1       2.128   0.803  -0.020  0.00  0.00    -0.229 N 
ATOM      5  N   UNL d   1       1.067  -1.377   0.011  0.00  0.00    -0.288 N 
ATOM      6  C   UNL d   1       0.933   1.535   0.061  0.00  0.00     0.269 A 
ATOM      7  S   UNL d   1      -1.607  -1.460  -0.002  0.00  0.00    -0.070 SA
ATOM      8  C   UNL d   1      -1.612   1.092   0.032  0.00  0.00     0.039 A 
ATOM      9  C   UNL d   1      -2.478   0.015   0.025  0.00  0.00     0.018 A 
ATOM     10  O   UNL d   1       3.356  -1.184  -0.008  0.00  0.00    -0.246 OA
ATOM     11  O   UNL d   1       0.824   2.756   0.114  0.00  0.00    -0.266 OA
ENDROOT
BRANCH   4  12
ATOM     12  C   UNL d   1       3.345   1.554  -0.009  0.00  0.00     0.047 A 
ATOM     13  C   UNL d   1       4.275   1.418  -1.046  0.00  0.00     0.031 A 
ATOM     14  C   UNL d   1       5.488   2.107  -0.999  0.00  0.00     0.009 A 
ATOM     15  C   UNL d   1       5.793   2.928   0.093  0.00  0.00    -0.062 A 
ATOM     16  C   UNL d   1       4.864   3.061   1.130  0.00  0.00     0.009 A 
ATOM     17  C   UNL d   1       7.105   3.653   0.138  0.00  0.00     0.048 C 
ATOM     18  C   UNL d   1       3.638   2.396   1.071  0.00  0.00     0.031 A 
ENDBRANCH   4  12
BRANCH   5  19
ATOM     19  C   UNL d   1       1.152  -2.850  -0.040  0.00  0.00     0.161 C 
BRANCH  19  20
ATOM     20  C   UNL d   1       1.138  -3.533   1.306  0.00  0.00    -0.017 C 
ATOM     21  C   UNL d   1       1.107  -2.988   2.519  0.00  0.00     0.008 C 
ENDBRANCH  19  20
ENDBRANCH   5  19
BRANCH   9  22
ATOM     22  C   UNL d   1      -3.944   0.007   0.009  0.00  0.00    -0.019 A 
ATOM     23  C   UNL d   1      -4.678  -1.046   0.579  0.00  0.00     0.013 A 
ATOM     24  C   UNL d   1      -6.071  -1.042   0.551  0.00  0.00     0.001 A 
ATOM     25  C   UNL d   1      -6.749   0.021  -0.037  0.00  0.00     0.000 A 
ATOM     26  C   UNL d   1      -6.038   1.078  -0.599  0.00  0.00     0.001 A 
ATOM     27  C   UNL d   1      -4.644   1.072  -0.574  0.00  0.00     0.013 A 
ENDBRANCH   9  22
TORSDOF 4
