REMARK  4 active torsions:
REMARK  status: ('A' for Active; 'I' for Inactive)
REMARK    1  A    between atoms: C_8  and  C_1 
REMARK    2  A    between atoms: O_11  and  C_12 
REMARK    3  A    between atoms: C_15  and  O_11 
REMARK    4  A    between atoms: C_14  and  C_15 
ROOT
ATOM      1  C   UNL d   1      -0.553  -2.464  -0.032  0.00  0.00     0.017 A 
ATOM      2  C   UNL d   1      -1.417  -2.936  -1.029  0.00  0.00     0.018 A 
ATOM      3  C   UNL d   1      -0.115  -3.365   0.949  0.00  0.00     0.018 A 
ATOM      4  C   UNL d   1      -1.442  -5.143  -0.020  0.00  0.00     0.069 A 
ATOM      5  C   UNL d   1      -0.548  -4.694   0.951  0.00  0.00     0.038 A 
ATOM      6  C   UNL d   1      -1.853  -4.267  -1.025  0.00  0.00     0.038 A 
ENDROOT
BRANCH   4   7
ATOM      7  O   UNL d   1      -1.971  -6.403  -0.087  0.00  0.00    -0.347 OA
BRANCH   7   8
ATOM      8  C   UNL d   1      -1.890  -7.173   1.112  0.00  0.00     0.214 C 
BRANCH   8   9
ATOM      9  C   UNL d   1      -2.867  -8.319   1.025  0.00  0.00    -0.034 A 
ATOM     10  C   UNL d   1      -2.431  -9.610   0.692  0.00  0.00     0.012 A 
ATOM     11  C   UNL d   1      -3.343 -10.666   0.638  0.00  0.00     0.043 A 
ATOM     12  C   UNL d   1      -4.685 -10.428   0.907  0.00  0.00     0.116 A 
ATOM     13  C   UNL d   1      -5.139  -9.153   1.221  0.00  0.00     0.043 A 
ATOM     14  F   UNL d   1      -5.557 -11.445   0.861  0.00  0.00    -0.206 F 
ATOM     15  C   UNL d   1      -4.231  -8.096   1.275  0.00  0.00     0.012 A 
ENDBRANCH   8   9
ENDBRANCH   7   8
ENDBRANCH   4   7
BRANCH   1  16
ATOM     16  C   UNL d   1      -0.135  -1.068  -0.022  0.00  0.00     0.173 A 
ATOM     17  N   UNL d   1      -0.438  -0.079  -0.840  0.00  0.00    -0.278 N 
ATOM     18  N   UNL d   1       0.213   1.042  -0.361  0.00  0.00    -0.288 N 
ATOM     19  HN  UNL d   1      -1.036  -0.130  -1.665  1.00  0.00     0.189 HD
ATOM     20  C   UNL d   1       0.861   0.652   0.711  0.00  0.00     0.251 A 
ATOM     21  HN  UNL d   1       0.194   1.981  -0.759  1.00  0.00     0.188 HD
ATOM     22  O   UNL d   1       0.696  -0.668   0.996  0.00  0.00    -0.286 OA
ENDBRANCH   1  16
TORSDOF 4
