REMARK  1 active torsions:
REMARK  status: ('A' for Active; 'I' for Inactive)
REMARK    1  A    between atoms: C_9  and  C_7 
ROOT
ATOM      1  C   UNL d   1       0.616  -0.850   0.021  0.00  0.00     0.111 A 
ATOM      2  N   UNL d   1      -0.707  -1.202  -0.008  0.00  0.00    -0.335 N 
ATOM      3  HN  UNL d   1      -1.119  -2.135  -0.035  1.00  0.00     0.168 HD
ATOM      4  C   UNL d   1       0.756   0.632   0.037  0.00  0.00     0.316 A 
ATOM      5  O   UNL d   1      -0.538   1.058   0.029  0.00  0.00    -0.261 OA
ATOM      6  C   UNL d   1      -1.301  -0.055   0.006  0.00  0.00     0.124 A 
ATOM      7  C   UNL d   1       1.681  -1.659   0.051  0.00  0.00     0.047 C 
ATOM      8  O   UNL d   1       1.760   1.315   0.051  0.00  0.00    -0.257 OA
ATOM      9  C   UNL d   1      -2.769   0.164   0.006  0.00  0.00     0.098 C 
ENDROOT
BRANCH   7  10
ATOM     10  C   UNL d   1       1.594  -3.120   0.030  0.00  0.00    -0.034 A 
ATOM     11  C   UNL d   1       1.599  -3.812  -1.187  0.00  0.00     0.011 A 
ATOM     12  C   UNL d   1       1.542  -5.208  -1.204  0.00  0.00     0.001 A 
ATOM     13  C   UNL d   1       1.480  -5.919  -0.006  0.00  0.00     0.000 A 
ATOM     14  C   UNL d   1       1.469  -5.235   1.209  0.00  0.00     0.001 A 
ATOM     15  C   UNL d   1       1.523  -3.839   1.228  0.00  0.00     0.011 A 
ENDBRANCH   7  10
TORSDOF 1
