REMARK  10 active torsions:
REMARK  status: ('A' for Active; 'I' for Inactive)
REMARK    1  A    between atoms: C_7  and  C_1 
REMARK    2  A    between atoms: N_8  and  C_2 
REMARK       I    between atoms: C_9  and  N_6 
REMARK    3  A    between atoms: C_15  and  C_7 
REMARK       I    between atoms: C_12  and  N_8 
REMARK    4  A    between atoms: O_27  and  C_9 
REMARK    5  A    between atoms: C_26  and  C_12 
REMARK    6  A    between atoms: C_17  and  O_20 
REMARK    7  A    between atoms: O_20  and  C_26 
REMARK    8  A    between atoms: C_36  and  O_27 
REMARK    9  A    between atoms: O_34  and  C_29 
REMARK   10  A    between atoms: C_37  and  O_35 
ROOT
ATOM      1  O   UNL d   1       1.774  -1.016  -1.788  0.00  0.00    -0.401 OA
ATOM      2  H   UNL d   1       1.351  -0.997  -0.913  0.00  0.00     0.209 HD
ENDROOT
BRANCH   1   3
ATOM      3  C   UNL d   1       3.172  -1.021  -1.546  0.00  0.00     0.159 C 
ATOM      4  C   UNL d   1       3.813  -2.047  -2.445  0.00  0.00     0.033 C 
ENDBRANCH   1   3
TORSDOF 10
