REMARK  3 active torsions:
REMARK  status: ('A' for Active; 'I' for Inactive)
REMARK       I    between atoms: C_9  and  N_1 
REMARK    1  A    between atoms: C_2  and  S_14 
REMARK    2  A    between atoms: C_15  and  C_9 
REMARK    3  A    between atoms: S_14  and  C_15 
ROOT
ATOM      1  N   UNL d   1      -0.077  -1.345   0.905  0.00  0.00    -0.279 N 
ATOM      2  S   UNL d   1      -0.047   1.715   0.398  0.00  0.00    -0.086 SA
ATOM      3  C   UNL d   1       1.168  -0.797   0.408  0.00  0.00     0.059 A 
ATOM      4  C   UNL d   1      -1.262  -0.780   0.317  0.00  0.00     0.059 A 
ATOM      5  C   UNL d   1      -0.103  -2.414   1.833  0.00  0.00     0.238 C 
ATOM      6  C   UNL d   1       1.290   0.574   0.098  0.00  0.00     0.033 A 
ATOM      7  C   UNL d   1      -1.382   0.595   0.054  0.00  0.00     0.033 A 
ATOM      8  O   UNL d   1       0.877  -3.125   2.078  0.00  0.00    -0.272 OA
ATOM      9  C   UNL d   1       2.291  -1.612   0.188  0.00  0.00     0.031 A 
ATOM     10  C   UNL d   1      -2.301  -1.624  -0.111  0.00  0.00     0.031 A 
ATOM     11  C   UNL d   1      -2.556   1.113  -0.509  0.00  0.00     0.021 A 
ATOM     12  C   UNL d   1       2.489   1.093  -0.418  0.00  0.00     0.021 A 
ATOM     13  C   UNL d   1      -3.461  -1.109  -0.694  0.00  0.00     0.002 A 
ATOM     14  C   UNL d   1       3.481  -1.093  -0.337  0.00  0.00     0.002 A 
ATOM     15  C   UNL d   1       3.580   0.259  -0.641  0.00  0.00     0.002 A 
ATOM     16  C   UNL d   1      -3.598   0.262  -0.873  0.00  0.00     0.002 A 
ENDROOT
BRANCH   5  17
ATOM     17  C   UNL d   1      -1.409  -2.585   2.640  0.00  0.00     0.186 C 
BRANCH  17  18
ATOM     18  S   UNL d   1      -1.135  -3.572   4.151  0.00  0.00    -0.077 SA
BRANCH  18  19
ATOM     19  C   UNL d   1      -2.769  -3.909   4.647  0.00  0.00     0.188 A 
ATOM     20  N   UNL d   1      -3.826  -3.218   4.255  0.00  0.00    -0.329 N 
ATOM     21  C   UNL d   1      -4.880  -3.839   4.886  0.00  0.00     0.068 A 
ATOM     22  HN  UNL d   1      -3.854  -2.412   3.630  1.00  0.00     0.168 HD
ATOM     23  C   UNL d   1      -6.256  -3.579   4.872  0.00  0.00     0.032 A 
ATOM     24  C   UNL d   1      -4.412  -4.902   5.641  0.00  0.00     0.105 A 
ATOM     25  C   UNL d   1      -7.103  -4.426   5.610  0.00  0.00     0.002 A 
ATOM     26  C   UNL d   1      -6.586  -5.496   6.350  0.00  0.00     0.003 A 
ATOM     27  C   UNL d   1      -5.210  -5.757   6.390  0.00  0.00     0.040 A 
ATOM     28  O   UNL d   1      -3.057  -4.947   5.501  0.00  0.00    -0.285 OA
ENDBRANCH  18  19
ENDBRANCH  17  18
ENDBRANCH   5  17
TORSDOF 3
