REMARK  2 active torsions:
REMARK  status: ('A' for Active; 'I' for Inactive)
REMARK    1  A    between atoms: N_5  and  C_2 
REMARK       I    between atoms: C_9  and  N_5 
REMARK       I    between atoms: N_12  and  C_9 
REMARK    2  A    between atoms: C_15  and  N_12 
ROOT
ATOM      1  C   UNL d   1       1.447  -0.375  -0.135  0.00  0.00     0.085 A 
ATOM      2  C   UNL d   1       2.797  -0.144   0.067  0.00  0.00     0.095 C 
ATOM      3  C   UNL d   1       0.691   0.838  -0.076  0.00  0.00     0.003 A 
ATOM      4  C   UNL d   1       0.798  -1.659  -0.334  0.00  0.00     0.302 A 
ATOM      5  O   UNL d   1      -0.607  -1.605  -0.506  0.00  0.00    -0.274 OA
ATOM      6  S   UNL d   1       3.125   1.539   0.082  0.00  0.00    -0.082 SA
ATOM      7  C   UNL d   1       1.480   1.954   0.037  0.00  0.00     0.065 C 
ATOM      8  C   UNL d   1      -0.750   0.834  -0.157  0.00  0.00     0.010 A 
ATOM      9  C   UNL d   1      -1.364  -0.401  -0.396  0.00  0.00     0.090 A 
ATOM     10  O   UNL d   1       1.410  -2.723  -0.372  0.00  0.00    -0.259 OA
ATOM     11  C   UNL d   1      -1.541   1.972   0.016  0.00  0.00     0.015 A 
ATOM     12  C   UNL d   1      -2.750  -0.503  -0.507  0.00  0.00     0.038 A 
ATOM     13  C   UNL d   1      -2.930   1.875  -0.075  0.00  0.00     0.001 A 
ATOM     14  C   UNL d   1      -3.531   0.643  -0.347  0.00  0.00     0.003 A 
ENDROOT
BRANCH   2  15
ATOM     15  N   UNL d   1       3.844  -1.058   0.171  0.00  0.00    -0.302 N 
ATOM     16  C   UNL d   1       5.082  -0.728   0.695  0.00  0.00     0.325 C 
ATOM     17  N   UNL d   1       6.042  -1.716   0.518  0.00  0.00    -0.309 N 
ATOM     18  O   UNL d   1       5.348   0.331   1.263  0.00  0.00    -0.247 OA
ATOM     19  H   UNL d   1       5.767  -2.630   0.849  0.00  0.00     0.170 HD
ATOM     20  H   UNL d   1       3.628  -2.035   0.005  0.00  0.00     0.171 HD
BRANCH  17  21
ATOM     21  C   UNL d   1       7.403  -1.352   0.717  0.00  0.00     0.036 A 
ATOM     22  C   UNL d   1       8.224  -2.103   1.557  0.00  0.00     0.029 A 
ATOM     23  C   UNL d   1       9.508  -1.637   1.863  0.00  0.00     0.002 A 
ATOM     24  C   UNL d   1       9.989  -0.455   1.294  0.00  0.00     0.000 A 
ATOM     25  C   UNL d   1       9.197   0.259   0.402  0.00  0.00     0.002 A 
ATOM     26  C   UNL d   1       7.909  -0.190   0.114  0.00  0.00     0.029 A 
ENDBRANCH  17  21
ENDBRANCH   2  15
TORSDOF 2
