REMARK  7 active torsions:
REMARK  status: ('A' for Active; 'I' for Inactive)
REMARK    1  A    between atoms: C_6  and  C_1 
REMARK    2  A    between atoms: C_5  and  C_2 
REMARK    3  A    between atoms: O_10  and  C_5 
REMARK    4  A    between atoms: C_7  and  C_11 
REMARK    5  A    between atoms: C_11  and  O_10 
REMARK    6  A    between atoms: C_15  and  C_11 
REMARK    7  A    between atoms: C_21  and  C_15 
ROOT
ATOM      1  C   UNL d   1       0.051   0.093   0.651  0.00  0.00     0.087 A 
ATOM      2  C   UNL d   1      -0.314  -1.276   0.342  0.00  0.00     0.100 A 
ATOM      3  N   UNL d   1      -0.972   0.919   0.385  0.00  0.00    -0.259 N 
ATOM      4  HN  UNL d   1      -0.963   1.938   0.441  1.00  0.00     0.195 HD
ATOM      5  O   UNL d   1      -2.029   0.132   0.023  0.00  0.00    -0.241 OA
ATOM      6  C   UNL d   1      -1.653  -1.171  -0.003  0.00  0.00     0.091 A 
ATOM      7  C   UNL d   1      -2.757  -2.098  -0.322  0.00  0.00     0.080 C 
ENDROOT
BRANCH   2   8
ATOM      8  C   UNL d   1       0.472  -2.497   0.480  0.00  0.00     0.298 C 
ATOM      9  O   UNL d   1       1.607  -2.517   0.948  0.00  0.00    -0.259 OA
BRANCH   8  10
ATOM     10  O   UNL d   1      -0.193  -3.654   0.150  0.00  0.00    -0.302 OA
BRANCH  10  11
ATOM     11  C   UNL d   1      -0.010  -4.747   1.101  0.00  0.00     0.243 C 
BRANCH  11  12
ATOM     12  C   UNL d   1      -1.375  -5.327   1.506  0.00  0.00     0.414 C 
ATOM     13  F   UNL d   1      -2.386  -4.485   1.185  0.00  0.00    -0.168 F 
ATOM     14  F   UNL d   1      -1.651  -6.507   0.909  0.00  0.00    -0.168 F 
ATOM     15  F   UNL d   1      -1.441  -5.509   2.843  0.00  0.00    -0.168 F 
ENDBRANCH  11  12
BRANCH  11  16
ATOM     16  C   UNL d   1       0.927  -5.865   0.599  0.00  0.00     0.080 C 
BRANCH  16  17
ATOM     17  C   UNL d   1       1.363  -6.782   1.725  0.00  0.00    -0.055 A 
ATOM     18  C   UNL d   1       0.874  -8.099   1.850  0.00  0.00     0.007 A 
ATOM     19  C   UNL d   1       1.248  -8.894   2.937  0.00  0.00     0.001 A 
ATOM     20  C   UNL d   1       2.113  -8.402   3.908  0.00  0.00     0.000 A 
ATOM     21  C   UNL d   1       2.611  -7.099   3.796  0.00  0.00     0.001 A 
ATOM     22  C   UNL d   1       2.240  -6.307   2.708  0.00  0.00     0.007 A 
ENDBRANCH  16  17
ENDBRANCH  11  16
ENDBRANCH  10  11
ENDBRANCH   8  10
ENDBRANCH   2   8
BRANCH   1  23
ATOM     23  C   UNL d   1       1.279   0.650   1.239  0.00  0.00     0.037 A 
ATOM     24  C   UNL d   1       2.528   0.512   0.610  0.00  0.00     0.048 A 
ATOM     25 CL   UNL d   1       2.688  -0.080  -1.010  0.00  0.00    -0.083 Cl
ATOM     26  C   UNL d   1       3.708   0.926   1.253  0.00  0.00     0.025 A 
ATOM     27  C   UNL d   1       3.662   1.533   2.499  0.00  0.00     0.003 A 
ATOM     28  C   UNL d   1       2.427   1.780   3.092  0.00  0.00     0.025 A 
ATOM     29  C   UNL d   1       1.245   1.351   2.466  0.00  0.00     0.048 A 
ATOM     30 CL   UNL d   1      -0.224   1.747   3.300  0.00  0.00    -0.083 Cl
ENDBRANCH   1  23
TORSDOF 7
