REMARK  2 active torsions:
REMARK  status: ('A' for Active; 'I' for Inactive)
REMARK    1  A    between atoms: C_13  and  C_6 
REMARK    2  A    between atoms: C_9  and  C_7 
ROOT
ATOM      1  N   UNL d   1       1.399  -0.633  -0.063  0.00  0.00    -0.348 N 
ATOM      2  HN  UNL d   1       2.285  -1.138  -0.081  1.00  0.00     0.166 HD
ATOM      3  C   UNL d   1       0.208  -1.203  -0.071  0.00  0.00     0.091 A 
ATOM      4  S   UNL d   1      -1.458  -3.436  -0.137  0.00  0.00    -0.086 SA
ATOM      5  C   UNL d   1       0.058  -2.641  -0.051  0.00  0.00     0.039 A 
ATOM      6  C   UNL d   1       1.276   0.748  -0.026  0.00  0.00     0.050 A 
ATOM      7  C   UNL d   1      -0.765  -4.998   0.014  0.00  0.00     0.022 A 
ATOM      8  S   UNL d   1      -1.116  -0.100  -0.079  0.00  0.00    -0.081 SA
ATOM      9  C   UNL d   1      -0.023   1.214  -0.042  0.00  0.00     0.082 A 
ATOM     10  C   UNL d   1       1.083  -3.565   0.045  0.00  0.00     0.023 A 
ATOM     11  C   UNL d   1       0.613  -4.912   0.087  0.00  0.00     0.021 A 
ENDROOT
BRANCH   6  12
ATOM     12  C   UNL d   1       2.449   1.613  -0.002  0.00  0.00    -0.006 A 
ATOM     13  C   UNL d   1       3.632   1.190  -0.624  0.00  0.00     0.059 A 
ATOM     14  C   UNL d   1       4.751   2.019  -0.628  0.00  0.00     0.155 A 
ATOM     15  F   UNL d   1       5.870   1.610  -1.243  0.00  0.00    -0.203 F 
ATOM     16  C   UNL d   1       4.711   3.262  -0.009  0.00  0.00     0.154 A 
ATOM     17  C   UNL d   1       3.553   3.691   0.629  0.00  0.00     0.046 A 
ATOM     18  F   UNL d   1       5.787   4.059  -0.022  0.00  0.00    -0.203 F 
ATOM     19  C   UNL d   1       2.424   2.867   0.634  0.00  0.00     0.017 A 
ENDBRANCH   6  12
BRANCH   7  20
ATOM     20  C   UNL d   1      -1.593  -6.182   0.068  0.00  0.00     0.021 A 
ATOM     21  S   UNL d   1      -1.078  -7.604   0.887  0.00  0.00    -0.101 SA
ATOM     22  C   UNL d   1      -2.543  -8.418   0.557  0.00  0.00     0.050 A 
ATOM     23  C   UNL d   1      -3.408  -7.644  -0.181  0.00  0.00     0.008 A 
ATOM     24  C   UNL d   1      -2.859  -6.359  -0.465  0.00  0.00     0.021 A 
ENDBRANCH   7  20
TORSDOF 2
