REMARK  5 active torsions:
REMARK  status: ('A' for Active; 'I' for Inactive)
REMARK    1  A    between atoms: C_2  and  C_1 
REMARK       I    between atoms: N_5  and  C_1 
REMARK    2  A    between atoms: O_10  and  C_3 
REMARK    3  A    between atoms: C_4  and  C_6 
REMARK    4  A    between atoms: C_9  and  N_5 
REMARK    5  A    between atoms: C_19  and  O_10 
ROOT
ATOM      1  C   UNL d   1       0.192   0.484  -1.116  0.00  0.00     0.083 A 
ATOM      2  C   UNL d   1      -0.629   1.524  -0.701  0.00  0.00     0.163 A 
ATOM      3  N   UNL d   1      -1.306   2.328  -1.565  0.00  0.00    -0.346 N 
ATOM      4  HN  UNL d   1      -1.949   3.045  -1.230  1.00  0.00     0.167 HD
ATOM      5  C   UNL d   1       0.396   0.324  -2.494  0.00  0.00     0.023 A 
ATOM      6  C   UNL d   1      -1.090   2.138  -2.886  0.00  0.00     0.090 A 
ATOM      7  C   UNL d   1      -0.248   1.165  -3.393  0.00  0.00     0.018 A 
ENDROOT
BRANCH   1   8
ATOM      8  C   UNL d   1       0.920  -0.430  -0.208  0.00  0.00     0.261 C 
ATOM      9  N   UNL d   1       0.227  -0.886   0.897  0.00  0.00    -0.309 N 
ATOM     10  H   UNL d   1      -0.700  -0.525   1.074  0.00  0.00     0.170 HD
ATOM     11  O   UNL d   1       2.059  -0.736  -0.550  0.00  0.00    -0.267 OA
BRANCH   9  12
ATOM     12  C   UNL d   1       0.738  -1.817   1.817  0.00  0.00     0.107 A 
ATOM     13  N   UNL d   1       1.949  -2.369   1.625  0.00  0.00    -0.351 N 
ATOM     14  C   UNL d   1       2.436  -3.217   2.558  0.00  0.00     0.106 A 
ATOM     15  HN  UNL d   1       2.491  -2.150   0.790  1.00  0.00     0.166 HD
ATOM     16  C   UNL d   1       1.757  -3.562   3.711  0.00  0.00     0.063 A 
ATOM     17  C   UNL d   1       0.482  -3.017   3.884  0.00  0.00     0.021 A 
ATOM     18  C   UNL d   1      -0.036  -2.139   2.926  0.00  0.00     0.049 A 
BRANCH  16  19
ATOM     19  C   UNL d   1       2.392  -4.453   4.733  0.00  0.00     0.418 C 
ATOM     20  F   UNL d   1       3.617  -4.923   4.369  0.00  0.00    -0.166 F 
ATOM     21  F   UNL d   1       2.577  -3.819   5.924  0.00  0.00    -0.166 F 
ATOM     22  F   UNL d   1       1.639  -5.552   5.010  0.00  0.00    -0.166 F 
ENDBRANCH  16  19
ENDBRANCH   9  12
ENDBRANCH   1   8
BRANCH   2  23
ATOM     23  O   UNL d   1      -0.797   1.751   0.657  0.00  0.00    -0.293 OA
BRANCH  23  24
ATOM     24  C   UNL d   1      -0.870   3.059   1.091  0.00  0.00     0.077 A 
ATOM     25  C   UNL d   1      -1.659   3.293   2.221  0.00  0.00     0.039 A 
ATOM     26  C   UNL d   1      -1.752   4.579   2.761  0.00  0.00     0.026 A 
ATOM     27  C   UNL d   1      -1.048   5.630   2.175  0.00  0.00     0.034 A 
ATOM     28  C   UNL d   1      -0.246   5.403   1.058  0.00  0.00     0.026 A 
ATOM     29 CL   UNL d   1      -1.162   7.213   2.838  0.00  0.00    -0.084 Cl
ATOM     30  C   UNL d   1      -0.146   4.115   0.524  0.00  0.00     0.039 A 
ENDBRANCH  23  24
ENDBRANCH   2  23
TORSDOF 5
