REMARK  5 active torsions:
REMARK  status: ('A' for Active; 'I' for Inactive)
REMARK    1  A    between atoms: N_2  and  S_1 
REMARK    2  A    between atoms: C_8  and  N_2 
REMARK    3  A    between atoms: C_10  and  N_2 
REMARK    4  A    between atoms: C_13  and  C_8 
REMARK    5  A    between atoms: C_17  and  C_10 
ROOT
ATOM      1  N   UNL d   1       0.368  -1.152  -0.771  0.00  0.00    -0.303 N 
ENDROOT
BRANCH   1   2
ATOM      2  S   UNL d   1       1.170   0.061   0.114  0.00  0.00     0.225 S 
ATOM      3  O   UNL d   1       0.213   1.095   0.449  0.00  0.00    -0.206 OA
ATOM      4  O   UNL d   1       2.436   0.367  -0.507  0.00  0.00    -0.206 OA
ATOM      5  C   UNL d   1       1.561  -0.823   1.605  0.00  0.00     0.186 C 
ENDBRANCH   1   2
BRANCH   1   6
ATOM      6  C   UNL d   1      -1.097  -1.214  -0.544  0.00  0.00     0.174 C 
BRANCH   6   7
ATOM      7  C   UNL d   1      -1.804  -2.465  -1.030  0.00  0.00    -0.037 A 
ATOM      8  C   UNL d   1      -1.408  -3.743  -0.599  0.00  0.00     0.048 A 
ATOM      9  C   UNL d   1      -2.121  -4.835  -1.057  0.00  0.00     0.105 A 
ATOM     10  O   UNL d   1      -1.885  -6.135  -0.731  0.00  0.00    -0.323 OA
ATOM     11  C   UNL d   1      -3.187  -4.701  -1.915  0.00  0.00     0.105 A 
ATOM     12  C   UNL d   1      -2.945  -6.796  -1.457  0.00  0.00     0.352 A 
ATOM     13  O   UNL d   1      -3.748  -5.894  -2.245  0.00  0.00    -0.323 OA
ATOM     14  C   UNL d   1      -3.611  -3.469  -2.357  0.00  0.00     0.040 A 
ATOM     15  C   UNL d   1      -2.922  -2.344  -1.893  0.00  0.00     0.012 A 
ENDBRANCH   6   7
ENDBRANCH   1   6
BRANCH   1  16
ATOM     16  C   UNL d   1       0.850  -1.393  -2.156  0.00  0.00     0.174 C 
BRANCH  16  17
ATOM     17  C   UNL d   1       0.476  -0.360  -3.197  0.00  0.00    -0.040 A 
ATOM     18  C   UNL d   1       1.290   0.756  -3.432  0.00  0.00     0.009 A 
ATOM     19  C   UNL d   1       0.931   1.720  -4.376  0.00  0.00     0.001 A 
ATOM     20  C   UNL d   1      -0.248   1.580  -5.102  0.00  0.00     0.000 A 
ATOM     21  C   UNL d   1      -1.056   0.465  -4.901  0.00  0.00     0.001 A 
ATOM     22  C   UNL d   1      -0.688  -0.504  -3.965  0.00  0.00     0.009 A 
ENDBRANCH  16  17
ENDBRANCH   1  16
TORSDOF 5
