REMARK  6 active torsions:
REMARK  status: ('A' for Active; 'I' for Inactive)
REMARK    1  A    between atoms: C_3  and  C_1 
REMARK    2  A    between atoms: O_4  and  C_2 
REMARK    3  A    between atoms: C_5  and  O_4 
REMARK       I    between atoms: C_8  and  N_12 
REMARK    4  A    between atoms: O_21  and  C_8 
REMARK    5  A    between atoms: N_12  and  C_15 
REMARK    6  A    between atoms: C_24  and  O_21 
ROOT
ATOM      1  C   UNL d   1       4.762  -3.940  -2.194  0.00  0.00    -0.091 C 
ATOM      2  C   UNL d   1       4.734  -3.861  -3.388  0.00  0.00     0.014 C 
ATOM      3  C   UNL d   1       4.724  -3.991  -0.724  0.00  0.00     0.273 C 
ENDROOT
BRANCH   3   4
ATOM      4  O   UNL d   1       3.371  -3.773  -0.299  0.00  0.00    -0.292 OA
BRANCH   4   5
ATOM      5  C   UNL d   1       3.069  -2.469  -0.085  0.00  0.00     0.366 C 
ATOM      6  N   UNL d   1       1.709  -2.324  -0.100  0.00  0.00    -0.301 N 
ATOM      7  H   UNL d   1       1.201  -3.188  -0.225  0.00  0.00     0.171 HD
ATOM      8  O   UNL d   1       3.908  -1.587   0.036  0.00  0.00    -0.238 OA
BRANCH   6   9
ATOM      9  C   UNL d   1       0.995  -1.111  -0.084  0.00  0.00     0.053 A 
ATOM     10  C   UNL d   1       1.598   0.133   0.064  0.00  0.00     0.051 A 
ATOM     11  C   UNL d   1       0.834   1.311   0.121  0.00  0.00     0.101 A 
ATOM     12  C   UNL d   1      -0.538   1.181   0.026  0.00  0.00     0.163 A 
ATOM     13  N   UNL d   1      -1.158  -0.007  -0.203  0.00  0.00    -0.344 N 
ATOM     14  C   UNL d   1      -0.385  -1.120  -0.229  0.00  0.00     0.119 A 
ATOM     15  HN  UNL d   1      -2.166  -0.059  -0.351  1.00  0.00     0.167 HD
BRANCH  11  16
ATOM     16  C   UNL d   1       1.540   2.615   0.303  0.00  0.00     0.421 C 
ATOM     17  F   UNL d   1       0.747   3.716   0.388  0.00  0.00    -0.166 F 
ATOM     18  F   UNL d   1       2.304   2.627   1.433  0.00  0.00    -0.166 F 
ATOM     19  F   UNL d   1       2.406   2.869  -0.720  0.00  0.00    -0.166 F 
ENDBRANCH  11  16
BRANCH  12  20
ATOM     20  O   UNL d   1      -1.320   2.305   0.259  0.00  0.00    -0.290 OA
BRANCH  20  21
ATOM     21  C   UNL d   1      -2.645   2.095   0.578  0.00  0.00     0.121 A 
ATOM     22  C   UNL d   1      -3.061   1.309   1.665  0.00  0.00     0.069 A 
ATOM     23 CL   UNL d   1      -1.956   0.660   2.832  0.00  0.00    -0.081 Cl
ATOM     24  C   UNL d   1      -4.422   1.074   1.882  0.00  0.00     0.027 A 
ATOM     25  C   UNL d   1      -5.378   1.684   1.072  0.00  0.00     0.003 A 
ATOM     26  C   UNL d   1      -4.975   2.550   0.057  0.00  0.00     0.027 A 
ATOM     27  C   UNL d   1      -3.613   2.753  -0.191  0.00  0.00     0.069 A 
ATOM     28 CL   UNL d   1      -3.172   3.850  -1.452  0.00  0.00    -0.081 Cl
ENDBRANCH  20  21
ENDBRANCH  12  20
ENDBRANCH   6   9
ENDBRANCH   4   5
ENDBRANCH   3   4
TORSDOF 6
