REMARK  4 active torsions:
REMARK  status: ('A' for Active; 'I' for Inactive)
REMARK       I    between atoms: N_2  and  C_1 
REMARK       I    between atoms: N_6  and  C_1 
REMARK    1  A    between atoms: C_3  and  N_4 
REMARK    2  A    between atoms: C_5  and  O_14 
REMARK    3  A    between atoms: C_17  and  N_6 
REMARK    4  A    between atoms: O_14  and  C_21 
ROOT
ATOM      1  C   UNL d   1       0.937   0.110   0.180  0.00  0.00     0.323 C 
ATOM      2  N   UNL d   1       0.213   0.722   1.194  0.00  0.00    -0.331 N 
ATOM      3  N   UNL d   1      -0.045   1.604   3.902  0.00  0.00    -0.214 N 
ATOM      4  N   UNL d   1       0.558  -1.170  -0.147  0.00  0.00    -0.309 N 
ATOM      5  O   UNL d   1       1.851   0.714  -0.381  0.00  0.00    -0.247 OA
ATOM      6  C   UNL d   1       0.571   2.105   1.564  0.00  0.00     0.148 C 
ATOM      7  C   UNL d   1      -0.850   0.162   2.049  0.00  0.00     0.148 C 
ATOM      8  C   UNL d   1      -0.476   0.251   3.545  0.00  0.00     0.161 C 
ATOM      9  C   UNL d   1       0.987   2.195   3.043  0.00  0.00     0.161 C 
ATOM     10  H   UNL d   1      -0.228  -1.559   0.336  0.00  0.00     0.170 HD
ENDROOT
BRANCH   4  11
ATOM     11  C   UNL d   1       1.060  -1.972  -1.204  0.00  0.00     0.036 A 
ATOM     12  C   UNL d   1       2.118  -1.607  -2.040  0.00  0.00     0.032 A 
ATOM     13  C   UNL d   1       2.491  -2.412  -3.127  0.00  0.00     0.039 A 
ATOM     14  C   UNL d   1       1.790  -3.582  -3.404  0.00  0.00     0.078 A 
ATOM     15  C   UNL d   1       0.792  -3.996  -2.523  0.00  0.00     0.039 A 
ATOM     16  C   UNL d   1       0.426  -3.198  -1.434  0.00  0.00     0.032 A 
BRANCH  14  17
ATOM     17  O   UNL d   1       2.014  -4.407  -4.463  0.00  0.00    -0.255 OA
BRANCH  17  18
ATOM     18  C   UNL d   1       2.397  -3.818  -5.700  0.00  0.00     0.530 C 
ATOM     19  F   UNL d   1       2.193  -2.485  -5.762  0.00  0.00    -0.144 F 
ATOM     20  F   UNL d   1       3.700  -4.076  -5.939  0.00  0.00    -0.144 F 
ATOM     21  F   UNL d   1       1.668  -4.389  -6.687  0.00  0.00    -0.144 F 
ENDBRANCH  17  18
ENDBRANCH  14  17
ENDBRANCH   4  11
BRANCH   3  22
ATOM     22  C   UNL d   1      -0.850   2.416   4.664  0.00  0.00     0.679 A 
ATOM     23  N   UNL d   1      -1.921   1.883   5.279  0.00  0.00    -0.202 N 
ATOM     24  C   UNL d   1      -2.637   2.673   6.100  0.00  0.00     0.107 A 
ATOM     25  HN  UNL d   1      -2.182   0.909   5.128  1.00  0.00     0.183 HD
ATOM     26  C   UNL d   1      -2.341   3.991   6.335  0.00  0.00     0.035 A 
ATOM     27  C   UNL d   1      -1.254   4.465   5.654  0.00  0.00     0.107 A 
ATOM     28  N   UNL d   1      -0.510   3.707   4.823  0.00  0.00    -0.202 N 
ATOM     29  HN  UNL d   1       0.290   4.102   4.329  1.00  0.00     0.183 HD
ENDBRANCH   3  22
TORSDOF 4
