REMARK  7 active torsions:
REMARK  status: ('A' for Active; 'I' for Inactive)
REMARK    1  A    between atoms: C_15  and  N_1 
REMARK    2  A    between atoms: C_12  and  C_2 
REMARK    3  A    between atoms: S_10  and  C_5 
REMARK       I    between atoms: C_8  and  N_9 
REMARK       I    between atoms: N_13  and  C_8 
REMARK       I    between atoms: N_9  and  C_11 
REMARK    4  A    between atoms: C_17  and  S_10 
REMARK    5  A    between atoms: C_11  and  C_17 
REMARK    6  A    between atoms: C_23  and  N_13 
REMARK    7  A    between atoms: C_18  and  C_15 
ROOT
ATOM      1  N   UNL d   1      -0.112  -0.613   0.359  0.00  0.00    -0.307 N 
ATOM      2  C   UNL d   1       1.096   0.050   0.119  0.00  0.00     0.135 C 
ATOM      3  N   UNL d   1       0.839   1.345   0.055  0.00  0.00    -0.283 N 
ATOM      4  HN  UNL d   1       1.505   2.069  -0.212  1.00  0.00     0.188 HD
ATOM      5  C   UNL d   1      -1.020   0.388   0.650  0.00  0.00     0.163 C 
ATOM      6  N   UNL d   1      -0.468   1.554   0.404  0.00  0.00    -0.278 N 
ATOM      7  HN  UNL d   1      -0.932   2.460   0.464  1.00  0.00     0.189 HD
ENDROOT
BRANCH   5   8
ATOM      8  S   UNL d   1      -2.649   0.209   1.272  0.00  0.00    -0.083 SA
BRANCH   8   9
ATOM      9  C   UNL d   1      -3.067   1.974   1.597  0.00  0.00     0.185 C 
BRANCH   9  10
ATOM     10  C   UNL d   1      -4.507   2.259   2.044  0.00  0.00     0.235 C 
ATOM     11  N   UNL d   1      -5.084   1.643   3.125  0.00  0.00    -0.278 N 
ATOM     12  C   UNL d   1      -4.417   1.210   4.244  0.00  0.00     0.327 C 
ATOM     13  H   UNL d   1      -6.014   1.997   3.295  0.00  0.00     0.173 HD
ATOM     14  N   UNL d   1      -5.222   0.499   5.115  0.00  0.00    -0.309 N 
ATOM     15  O   UNL d   1      -3.207   1.399   4.391  0.00  0.00    -0.247 OA
ATOM     16  H   UNL d   1      -6.223   0.649   5.063  0.00  0.00     0.170 HD
ATOM     17  O   UNL d   1      -5.172   3.151   1.500  0.00  0.00    -0.272 OA
BRANCH  14  18
ATOM     18  C   UNL d   1      -4.772  -0.486   6.023  0.00  0.00     0.036 A 
ATOM     19  C   UNL d   1      -3.441  -0.899   6.087  0.00  0.00     0.029 A 
ATOM     20  C   UNL d   1      -3.054  -1.985   6.867  0.00  0.00     0.002 A 
ATOM     21  C   UNL d   1      -4.001  -2.672   7.618  0.00  0.00     0.000 A 
ATOM     22  C   UNL d   1      -5.326  -2.241   7.609  0.00  0.00     0.002 A 
ATOM     23  C   UNL d   1      -5.716  -1.152   6.822  0.00  0.00     0.029 A 
ENDBRANCH  14  18
ENDBRANCH   9  10
ENDBRANCH   8   9
ENDBRANCH   5   8
BRANCH   1  24
ATOM     24  C   UNL d   1      -0.251  -2.060   0.443  0.00  0.00     0.159 C 
BRANCH  24  25
ATOM     25  C   UNL d   1      -1.196  -2.789  -0.470  0.00  0.00    -0.017 C 
ATOM     26  C   UNL d   1      -2.077  -2.333  -1.368  0.00  0.00     0.008 C 
ENDBRANCH  24  25
ENDBRANCH   1  24
BRANCH   2  27
ATOM     27  C   UNL d   1       2.453  -0.516  -0.017  0.00  0.00     0.010 A 
ATOM     28  C   UNL d   1       3.306  -0.033  -1.025  0.00  0.00     0.017 A 
ATOM     29  C   UNL d   1       4.633  -0.472  -1.125  0.00  0.00     0.025 A 
ATOM     30  C   UNL d   1       5.128  -1.400  -0.213  0.00  0.00     0.034 A 
ATOM     31  C   UNL d   1       4.304  -1.892   0.795  0.00  0.00     0.025 A 
ATOM     32 CL   UNL d   1       6.766  -1.915  -0.310  0.00  0.00    -0.084 Cl
ATOM     33  C   UNL d   1       2.979  -1.441   0.900  0.00  0.00     0.017 A 
ENDBRANCH   2  27
TORSDOF 7
