REMARK  5 active torsions:
REMARK  status: ('A' for Active; 'I' for Inactive)
REMARK    1  A    between atoms: C_4  and  S_1 
REMARK    2  A    between atoms: N_8  and  S_1 
REMARK       I    between atoms: C_2  and  N_3 
REMARK    3  A    between atoms: C_7  and  C_2 
REMARK    4  A    between atoms: N_3  and  C_14 
REMARK    5  A    between atoms: C_20  and  C_19 
ROOT
ATOM      1  C   UNL d   1       1.980   7.259  -2.220  0.00  0.00     0.074 A 
ATOM      2  C   UNL d   1       1.881   6.008  -1.613  0.00  0.00     0.027 A 
ATOM      3  C   UNL d   1       1.165   7.585  -3.305  0.00  0.00     0.027 A 
ATOM      4  C   UNL d   1       0.134   5.387  -3.192  0.00  0.00     0.035 A 
ATOM      5  C   UNL d   1       0.963   5.075  -2.103  0.00  0.00     0.031 A 
ATOM      6  C   UNL d   1       0.246   6.646  -3.788  0.00  0.00     0.031 A 
ENDROOT
BRANCH   4   7
ATOM      7  N   UNL d   1      -0.765   4.388  -3.618  0.00  0.00    -0.323 N 
ATOM      8  C   UNL d   1      -1.690   4.469  -4.644  0.00  0.00     0.256 C 
ATOM      9  O   UNL d   1      -1.891   5.431  -5.376  0.00  0.00    -0.267 OA
ATOM     10  H   UNL d   1      -0.680   3.497  -3.146  0.00  0.00     0.169 HD
BRANCH   8  11
ATOM     11  C   UNL d   1      -2.469   3.221  -4.887  0.00  0.00     0.032 A 
ATOM     12  C   UNL d   1      -2.849   2.362  -3.848  0.00  0.00     0.017 A 
ATOM     13  C   UNL d   1      -3.511   1.166  -4.139  0.00  0.00     0.008 A 
ATOM     14  C   UNL d   1      -3.814   0.823  -5.464  0.00  0.00    -0.059 A 
ATOM     15  C   UNL d   1      -3.473   1.710  -6.494  0.00  0.00     0.008 A 
ATOM     16  C   UNL d   1      -2.811   2.905  -6.207  0.00  0.00     0.017 A 
BRANCH  14  17
ATOM     17  C   UNL d   1      -4.450  -0.505  -5.786  0.00  0.00     0.034 C 
ATOM     18  C   UNL d   1      -3.395  -1.575  -6.030  0.00  0.00     0.010 C 
ENDBRANCH  14  17
ENDBRANCH   8  11
ENDBRANCH   4   7
BRANCH   1  19
ATOM     19  S   UNL d   1       3.135   8.448  -1.609  0.00  0.00     0.239 S 
ATOM     20  O   UNL d   1       3.959   7.834  -0.591  0.00  0.00    -0.206 OA
ATOM     21  O   UNL d   1       2.451   9.701  -1.403  0.00  0.00    -0.206 OA
BRANCH  19  22
ATOM     22  N   UNL d   1       4.152   8.673  -2.925  0.00  0.00    -0.225 NA
ATOM     23  H   UNL d   1       5.081   8.309  -2.714  0.00  0.00     0.136 HD
ATOM     24  H   UNL d   1       4.148   9.657  -3.198  0.00  0.00     0.136 HD
ENDBRANCH  19  22
ENDBRANCH   1  19
TORSDOF 5
