REMARK  2 active torsions:
REMARK  status: ('A' for Active; 'I' for Inactive)
REMARK    1  A    between atoms: N_15  and  C_2 
REMARK    2  A    between atoms: C_7  and  C_6 
ROOT
ATOM      1  C   UNL d   1       2.597   0.158   0.021  0.00  0.00     0.081 C 
ATOM      2  C   UNL d   1       1.983  -1.039   0.105  0.00  0.00     0.138 C 
ATOM      3  C   UNL d   1      -0.202  -0.069  -0.042  0.00  0.00     0.095 A 
ATOM      4  O   UNL d   1       0.616  -1.179  -0.078  0.00  0.00    -0.296 OA
ATOM      5  C   UNL d   1       0.329   1.225  -0.073  0.00  0.00    -0.009 A 
ATOM      6  C   UNL d   1       1.820   1.421  -0.275  0.00  0.00     0.109 C 
ATOM      7  C   UNL d   1       4.006   0.277   0.188  0.00  0.00     0.100 C 
ATOM      8  C   UNL d   1      -1.598  -0.292   0.005  0.00  0.00     0.009 A 
ATOM      9  N   UNL d   1       5.157   0.364   0.301  0.00  0.00    -0.191 NA
ATOM     10  C   UNL d   1      -0.539   2.320   0.016  0.00  0.00     0.012 A 
ATOM     11  C   UNL d   1      -2.462   0.827   0.064  0.00  0.00    -0.023 A 
ATOM     12  C   UNL d   1      -1.918   2.120   0.089  0.00  0.00     0.013 A 
ATOM     13  C   UNL d   1      -2.170  -1.581  -0.018  0.00  0.00     0.015 A 
ATOM     14  C   UNL d   1      -3.853   0.628   0.086  0.00  0.00     0.012 A 
ATOM     15  C   UNL d   1      -3.553  -1.762  -0.005  0.00  0.00     0.001 A 
ATOM     16  C   UNL d   1      -4.395  -0.657   0.045  0.00  0.00     0.001 A 
ENDROOT
BRANCH   2  17
ATOM     17  N   UNL d   1       2.610  -2.244   0.334  0.00  0.00    -0.282 NA
ATOM     18  H   UNL d   1       3.590  -2.289   0.063  0.00  0.00     0.126 HD
ATOM     19  H   UNL d   1       2.064  -3.029  -0.013  0.00  0.00     0.126 HD
ENDBRANCH   2  17
BRANCH   6  20
ATOM     20  C   UNL d   1       2.099   1.943  -1.679  0.00  0.00    -0.004 A 
ATOM     21  S   UNL d   1       2.881   3.452  -1.906  0.00  0.00    -0.105 SA
ATOM     22  C   UNL d   1       2.868   3.275  -3.607  0.00  0.00     0.050 A 
ATOM     23  C   UNL d   1       2.268   2.101  -4.001  0.00  0.00     0.008 A 
ATOM     24  C   UNL d   1       1.817   1.335  -2.890  0.00  0.00     0.016 A 
ENDBRANCH   6  20
TORSDOF 2
