REMARK  5 active torsions:
REMARK  status: ('A' for Active; 'I' for Inactive)
REMARK    1  A    between atoms: C_11  and  N_1 
REMARK    2  A    between atoms: C_10  and  C_2 
REMARK    3  A    between atoms: N_7  and  C_12 
REMARK    4  A    between atoms: O_23  and  C_10 
REMARK    5  A    between atoms: C_25  and  O_23 
ROOT
ATOM      1  N   UNL d   1      -0.275  -1.123   0.068  0.00  0.00    -0.260 N 
ATOM      2  C   UNL d   1      -0.337   1.105  -0.065  0.00  0.00     0.087 C 
ATOM      3  N   UNL d   1       1.002  -0.717   0.261  0.00  0.00    -0.297 N 
ATOM      4  HN  UNL d   1       1.806  -1.298   0.496  1.00  0.00     0.187 HD
ATOM      5  C   UNL d   1      -1.137  -0.039  -0.061  0.00  0.00     0.049 C 
ATOM      6  C   UNL d   1       0.985   0.606   0.080  0.00  0.00     0.041 C 
ATOM      7  C   UNL d   1      -2.622  -0.165  -0.065  0.00  0.00     0.071 C 
ATOM      8  C   UNL d   1       2.272   1.350   0.089  0.00  0.00     0.071 C 
ENDROOT
BRANCH   1   9
ATOM      9  C   UNL d   1      -0.544  -2.521   0.025  0.00  0.00     0.056 A 
ATOM     10  C   UNL d   1       0.257  -3.390   0.774  0.00  0.00     0.034 A 
ATOM     11  C   UNL d   1       0.029  -4.773   0.746  0.00  0.00     0.032 A 
ATOM     12  C   UNL d   1      -0.964  -5.336  -0.069  0.00  0.00     0.045 A 
ATOM     13  C   UNL d   1      -1.737  -4.450  -0.837  0.00  0.00     0.032 A 
ATOM     14  C   UNL d   1      -1.543  -3.059  -0.783  0.00  0.00     0.034 A 
BRANCH  12  15
ATOM     15  N   UNL d   1      -1.161  -6.752  -0.135  0.00  0.00    -0.252 N 
ATOM     16  C   UNL d   1      -1.767  -7.406  -1.183  0.00  0.00     0.231 A 
ATOM     17  C   UNL d   1      -1.722  -8.885  -0.941  0.00  0.00     0.113 A 
ATOM     18  O   UNL d   1      -2.239  -6.948  -2.216  0.00  0.00    -0.273 OA
ATOM     19  C   UNL d   1      -1.141  -9.030   0.440  0.00  0.00     0.113 A 
ATOM     20  C   UNL d   1      -0.763  -7.637   0.843  0.00  0.00     0.231 A 
ATOM     21  O   UNL d   1      -0.237  -7.410   1.927  0.00  0.00    -0.273 OA
ENDBRANCH  12  15
ENDBRANCH   1   9
BRANCH   2  22
ATOM     22  C   UNL d   1      -0.782   2.493  -0.156  0.00  0.00     0.297 C 
ATOM     23  O   UNL d   1      -1.956   2.826  -0.262  0.00  0.00    -0.259 OA
BRANCH  22  24
ATOM     24  O   UNL d   1       0.251   3.383  -0.087  0.00  0.00    -0.318 OA
BRANCH  24  25
ATOM     25  C   UNL d   1      -0.106   4.772  -0.077  0.00  0.00     0.174 C 
ATOM     26  C   UNL d   1      -0.342   5.279  -1.488  0.00  0.00     0.034 C 
ENDBRANCH  24  25
ENDBRANCH  22  24
ENDBRANCH   2  22
TORSDOF 5
