REMARK  3 active torsions:
REMARK  status: ('A' for Active; 'I' for Inactive)
REMARK    1  A    between atoms: C_7  and  C_1 
REMARK    2  A    between atoms: C_5  and  C_2 
REMARK    3  A    between atoms: O_16  and  C_13 
ROOT
ATOM      1  C   UNL d   1       0.963  -0.142  -0.033  0.00  0.00     0.056 C 
ATOM      2  C   UNL d   1       2.136  -0.296   0.619  0.00  0.00     0.042 C 
ATOM      3  C   UNL d   1       0.350  -1.246  -0.715  0.00  0.00     0.100 C 
ATOM      4  N   UNL d   1      -0.180  -2.132  -1.250  0.00  0.00    -0.191 NA
ENDROOT
BRANCH   1   5
ATOM      5  C   UNL d   1       0.265   1.177  -0.029  0.00  0.00    -0.015 A 
ATOM      6  C   UNL d   1       0.971   2.393  -0.003  0.00  0.00     0.015 A 
ATOM      7  C   UNL d   1       0.306   3.629  -0.017  0.00  0.00     0.037 A 
ATOM      8  C   UNL d   1      -1.084   3.674  -0.077  0.00  0.00     0.068 A 
ATOM      9  C   UNL d   1      -1.799   2.480  -0.138  0.00  0.00     0.037 A 
ATOM     10  C   UNL d   1      -1.137   1.247  -0.104  0.00  0.00     0.015 A 
BRANCH   8  11
ATOM     11  O   UNL d   1      -1.839   4.811  -0.135  0.00  0.00    -0.356 OA
ATOM     12  C   UNL d   1      -1.278   5.962   0.487  0.00  0.00     0.210 C 
ENDBRANCH   8  11
ENDBRANCH   1   5
BRANCH   2  13
ATOM     13  C   UNL d   1       2.863  -1.518   0.636  0.00  0.00     0.006 A 
ATOM     14  S   UNL d   1       4.054  -1.828  -0.565  0.00  0.00    -0.102 SA
ATOM     15  C   UNL d   1       4.450  -3.344   0.116  0.00  0.00     0.050 A 
ATOM     16  C   UNL d   1       3.711  -3.610   1.246  0.00  0.00     0.008 A 
ATOM     17  C   UNL d   1       2.798  -2.557   1.546  0.00  0.00     0.019 A 
ENDBRANCH   2  13
TORSDOF 3
