REMARK  3 active torsions:
REMARK  status: ('A' for Active; 'I' for Inactive)
REMARK    1  A    between atoms: S_4  and  C_1 
REMARK    2  A    between atoms: N_2  and  C_3 
REMARK    3  A    between atoms: C_11  and  S_4 
ROOT
ATOM      1  C   UNL d   1      -0.676   1.287  -0.031  0.00  0.00     0.102 A 
ATOM      2  C   UNL d   1       0.725   1.230  -0.045  0.00  0.00     0.072 A 
ATOM      3  N   UNL d   1      -1.435   0.157  -0.102  0.00  0.00    -0.358 N 
ATOM      4  HN  UNL d   1      -2.453   0.211  -0.078  1.00  0.00     0.166 HD
ATOM      5  C   UNL d   1       1.337  -0.029  -0.191  0.00  0.00     0.034 A 
ATOM      6  C   UNL d   1      -0.811  -1.036  -0.203  0.00  0.00     0.089 A 
ATOM      7  C   UNL d   1       0.559  -1.178  -0.260  0.00  0.00     0.019 A 
ENDROOT
BRANCH   1   8
ATOM      8  S   UNL d   1      -1.653   2.773   0.067  0.00  0.00    -0.070 SA
BRANCH   8   9
ATOM      9  C   UNL d   1      -2.149   3.088  -1.616  0.00  0.00     0.007 A 
ATOM     10  C   UNL d   1      -2.861   2.157  -2.376  0.00  0.00     0.019 A 
ATOM     11  C   UNL d   1      -3.389   2.510  -3.623  0.00  0.00     0.008 A 
ATOM     12  C   UNL d   1      -3.224   3.807  -4.127  0.00  0.00    -0.062 A 
ATOM     13  C   UNL d   1      -2.475   4.726  -3.388  0.00  0.00     0.008 A 
ATOM     14  C   UNL d   1      -3.863   4.197  -5.426  0.00  0.00     0.048 C 
ATOM     15  C   UNL d   1      -1.946   4.371  -2.142  0.00  0.00     0.019 A 
ENDBRANCH   8   9
ENDBRANCH   1   8
BRANCH   2  16
ATOM     16  N   UNL d   1       1.574   2.357   0.132  0.00  0.00    -0.330 N 
ATOM     17  C   UNL d   1       2.826   2.517  -0.440  0.00  0.00     0.097 A 
ATOM     18  C   UNL d   1       3.380   3.700  -0.002  0.00  0.00     0.019 A 
ATOM     19  C   UNL d   1       2.465   4.277   0.900  0.00  0.00     0.019 A 
ATOM     20  C   UNL d   1       1.379   3.433   0.975  0.00  0.00     0.097 A 
ENDBRANCH   2  16
TORSDOF 3
