REMARK  2 active torsions:
REMARK  status: ('A' for Active; 'I' for Inactive)
REMARK    1  A    between atoms: C_9  and  C_3 
REMARK    2  A    between atoms: N_12  and  C_4 
ROOT
ATOM      1  N   UNL d   1      -1.640   1.209  -0.027  0.00  0.00    -0.326 N 
ATOM      2  HN  UNL d   1      -2.195   2.065  -0.049  1.00  0.00     0.169 HD
ATOM      3  C   UNL d   1      -2.241   0.003   0.033  0.00  0.00     0.134 A 
ATOM      4  C   UNL d   1      -0.290   1.265  -0.056  0.00  0.00     0.126 A 
ATOM      5  N   UNL d   1      -1.566  -1.156   0.062  0.00  0.00    -0.343 N 
ATOM      6  HN  UNL d   1      -2.056  -2.050   0.097  1.00  0.00     0.167 HD
ATOM      7  C   UNL d   1       0.482   0.106   0.002  0.00  0.00     0.100 A 
ATOM      8  C   UNL d   1      -0.216  -1.100   0.042  0.00  0.00     0.032 A 
ATOM      9 CL   UNL d   1       2.210   0.104   0.039  0.00  0.00    -0.078 Cl
ATOM     10  C   UNL d   1       0.431  -2.454   0.035  0.00  0.00     0.070 C 
ENDROOT
BRANCH   3  11
ATOM     11  C   UNL d   1      -3.727  -0.045   0.029  0.00  0.00     0.076 A 
ATOM     12  N   UNL d   1      -4.316  -1.274   0.126  0.00  0.00    -0.363 N 
ATOM     13  C   UNL d   1      -5.664  -1.345   0.106  0.00  0.00     0.088 A 
ATOM     14  HN  UNL d   1      -3.750  -2.119   0.211  1.00  0.00     0.165 HD
ATOM     15  C   UNL d   1      -6.490  -0.242  -0.007  0.00  0.00     0.017 A 
ATOM     16  C   UNL d   1      -5.896   1.008  -0.103  0.00  0.00     0.004 A 
ATOM     17  C   UNL d   1      -4.506   1.111  -0.082  0.00  0.00     0.033 A 
ENDBRANCH   3  11
BRANCH   4  18
ATOM     18  N   UNL d   1       0.117   2.563  -0.209  0.00  0.00    -0.379 N 
ATOM     19  C   UNL d   1       1.415   3.175  -0.149  0.00  0.00     0.147 C 
ATOM     20  H   UNL d   1      -0.676   3.189  -0.133  0.00  0.00     0.160 HD
ENDBRANCH   4  18
TORSDOF 2
