REMARK  6 active torsions:
REMARK  status: ('A' for Active; 'I' for Inactive)
REMARK    1  A    between atoms: C_3  and  C_1 
REMARK    2  A    between atoms: C_22  and  N_2 
REMARK    3  A    between atoms: C_6  and  S_21 
REMARK    4  A    between atoms: O_26  and  C_7 
REMARK    5  A    between atoms: C_23  and  C_14 
REMARK    6  A    between atoms: S_21  and  C_23 
ROOT
ATOM      1  S   UNL d   1       2.522   2.734   0.088  0.00  0.00    -0.084 SA
ENDROOT
BRANCH   1   2
ATOM      2  C   UNL d   1       2.628   4.467   0.127  0.00  0.00     0.169 A 
ATOM      3  N   UNL d   1       3.803   5.207   0.187  0.00  0.00    -0.254 N 
ATOM      4  C   UNL d   1       3.341   6.504   0.388  0.00  0.00     0.245 A 
ATOM      5  N   UNL d   1       2.033   6.528   0.454  0.00  0.00    -0.263 N 
ATOM      6  N   UNL d   1       1.583   5.250   0.271  0.00  0.00    -0.276 N 
ATOM      7  HN  UNL d   1       1.454   7.353   0.613  1.00  0.00     0.190 HD
ATOM      8  HN  UNL d   1       0.606   4.956   0.250  1.00  0.00     0.189 HD
BRANCH   3   9
ATOM      9  C   UNL d   1       5.158   4.784   0.104  0.00  0.00     0.060 A 
ATOM     10  C   UNL d   1       6.154   5.461   0.802  0.00  0.00     0.117 A 
ATOM     11  N   UNL d   1       7.462   5.113   0.780  0.00  0.00    -0.373 N 
ATOM     12  C   UNL d   1       7.797   4.024   0.056  0.00  0.00     0.088 A 
ATOM     13  HN  UNL d   1       8.164   5.650   1.288  1.00  0.00     0.164 HD
ATOM     14  C   UNL d   1       6.884   3.284  -0.673  0.00  0.00     0.019 A 
ATOM     15  C   UNL d   1       5.546   3.679  -0.657  0.00  0.00     0.033 A 
ENDBRANCH   3   9
BRANCH   4  16
ATOM     16  O   UNL d   1       4.066   7.617   0.424  0.00  0.00    -0.331 OA
ATOM     17  H   UNL d   1       4.840   7.511  -0.152  0.00  0.00     0.221 HD
ENDBRANCH   4  16
ENDBRANCH   1   2
BRANCH   1  18
ATOM     18  C   UNL d   1       0.716   2.498   0.032  0.00  0.00     0.160 C 
BRANCH  18  19
ATOM     19  C   UNL d   1       0.388   1.052  -0.082  0.00  0.00     0.114 A 
ATOM     20  N   UNL d   1       0.167   0.246   1.011  0.00  0.00    -0.322 N 
ATOM     21  C   UNL d   1      -0.053  -0.933   0.465  0.00  0.00     0.186 A 
ATOM     22  HN  UNL d   1       0.171   0.498   1.999  1.00  0.00     0.169 HD
ATOM     23  O   UNL d   1       0.010  -0.889  -0.905  0.00  0.00    -0.217 OA
ATOM     24  N   UNL d   1       0.295   0.426  -1.263  0.00  0.00    -0.246 N 
ATOM     25  HN  UNL d   1       0.407   0.819  -2.198  1.00  0.00     0.196 HD
BRANCH  21  26
ATOM     26  C   UNL d   1      -0.332  -2.169   1.230  0.00  0.00     0.073 A 
ATOM     27  C   UNL d   1      -0.536  -3.421   0.702  0.00  0.00     0.089 A 
ATOM     28  O   UNL d   1      -0.758  -4.295   1.720  0.00  0.00    -0.242 OA
ATOM     29  C   UNL d   1      -0.558  -3.986  -0.660  0.00  0.00     0.080 C 
ATOM     30  N   UNL d   1      -0.704  -3.625   2.930  0.00  0.00    -0.265 N 
ATOM     31  C   UNL d   1      -0.448  -2.345   2.628  0.00  0.00     0.045 A 
ATOM     32  HN  UNL d   1      -0.832  -4.024   3.860  1.00  0.00     0.194 HD
ATOM     33  C   UNL d   1      -0.328  -1.340   3.710  0.00  0.00     0.071 C 
ENDBRANCH  21  26
ENDBRANCH  18  19
ENDBRANCH   1  18
TORSDOF 6
