REMARK  0 active torsions:
REMARK  status: ('A' for Active; 'I' for Inactive)
ROOT
ATOM      1  C   UNL d   1      -1.278  -0.834   0.094  0.00  0.00     0.155 A 
ATOM      2  N   UNL d   1      -0.915   0.471   0.067  0.00  0.00    -0.259 N 
ATOM      3  N   UNL d   1      -0.277  -1.667   0.074  0.00  0.00    -0.334 N 
ATOM      4  HN  UNL d   1      -0.302  -2.686   0.087  1.00  0.00     0.168 HD
ATOM      5  S   UNL d   1      -2.977  -1.054   0.167  0.00  0.00    -0.084 SA
ATOM      6  C   UNL d   1       0.456   0.514   0.014  0.00  0.00     0.071 A 
ATOM      7  C   UNL d   1      -1.903   1.435   0.107  0.00  0.00     0.240 A 
ATOM      8  C   UNL d   1       0.825  -0.837   0.030  0.00  0.00     0.061 A 
ATOM      9  C   UNL d   1      -3.256   0.763   0.221  0.00  0.00     0.186 A 
ATOM     10  O   UNL d   1      -1.646   2.627   0.074  0.00  0.00    -0.272 OA
ATOM     11  C   UNL d   1       1.386   1.558  -0.031  0.00  0.00     0.032 A 
ATOM     12  C   UNL d   1       2.188  -1.171   0.008  0.00  0.00     0.032 A 
ATOM     13  C   UNL d   1       2.738   1.199  -0.051  0.00  0.00     0.002 A 
ATOM     14  C   UNL d   1       3.135  -0.140  -0.029  0.00  0.00     0.002 A 
ENDROOT
TORSDOF 0
