REMARK  3 active torsions:
REMARK  status: ('A' for Active; 'I' for Inactive)
REMARK    1  A    between atoms: N_4  and  C_1 
REMARK       I    between atoms: C_6  and  N_4 
REMARK    2  A    between atoms: C_12  and  C_6 
REMARK    3  A    between atoms: C_7  and  C_11 
ROOT
ATOM      1  N   UNL d   1      -4.401   0.041  -0.021  0.00  0.00    -0.303 N 
ATOM      2  C   UNL d   1      -5.290  -0.966   0.281  0.00  0.00     0.257 C 
ATOM      3  O   UNL d   1      -6.479  -0.828   0.555  0.00  0.00    -0.267 OA
ATOM      4  H   UNL d   1      -3.421  -0.150  -0.161  0.00  0.00     0.171 HD
ENDROOT
BRANCH   1   5
ATOM      5  C   UNL d   1      -4.714   1.369  -0.208  0.00  0.00     0.152 A 
ATOM      6  N   UNL d   1      -3.801   2.234  -0.582  0.00  0.00    -0.335 N 
ATOM      7  C   UNL d   1      -4.393   3.470  -0.801  0.00  0.00     0.051 A 
ATOM      8  HN  UNL d   1      -2.808   2.030  -0.695  1.00  0.00     0.168 HD
ATOM      9  C   UNL d   1      -3.746   4.635  -1.265  0.00  0.00     0.032 A 
ATOM     10  C   UNL d   1      -5.764   3.528  -0.544  0.00  0.00     0.036 A 
ATOM     11  C   UNL d   1      -4.486   5.806  -1.472  0.00  0.00     0.026 A 
ATOM     12  C   UNL d   1      -5.851   5.830  -1.207  0.00  0.00     0.035 A 
ATOM     13  C   UNL d   1      -6.516   4.698  -0.729  0.00  0.00     0.045 A 
ATOM     14 CL   UNL d   1      -6.747   7.274  -1.484  0.00  0.00    -0.084 Cl
ATOM     15  S   UNL d   1      -6.288   1.985  -0.011  0.00  0.00    -0.052 SA
ENDBRANCH   1   5
BRANCH   2  16
ATOM     16  C   UNL d   1      -4.756  -2.364   0.273  0.00  0.00     0.032 A 
ATOM     17  C   UNL d   1      -5.515  -3.348   0.926  0.00  0.00     0.018 A 
ATOM     18  C   UNL d   1      -5.131  -4.690   0.897  0.00  0.00     0.017 A 
ATOM     19  C   UNL d   1      -3.974  -5.080   0.211  0.00  0.00     0.048 A 
ATOM     20  C   UNL d   1      -3.206  -4.095  -0.432  0.00  0.00     0.017 A 
ATOM     21  C   UNL d   1      -3.594  -2.748  -0.409  0.00  0.00     0.018 A 
BRANCH  19  22
ATOM     22  C   UNL d   1      -3.570  -6.534   0.137  0.00  0.00     0.417 C 
ATOM     23  F   UNL d   1      -4.417  -7.371   0.797  0.00  0.00    -0.166 F 
ATOM     24  F   UNL d   1      -3.517  -6.990  -1.145  0.00  0.00    -0.166 F 
ATOM     25  F   UNL d   1      -2.335  -6.757   0.665  0.00  0.00    -0.166 F 
ENDBRANCH  19  22
ENDBRANCH   2  16
TORSDOF 3
