REMARK  8 active torsions:
REMARK  status: ('A' for Active; 'I' for Inactive)
REMARK    1  A    between atoms: C_8  and  C_2 
REMARK    2  A    between atoms: S_14  and  C_5 
REMARK    3  A    between atoms: O_24  and  C_9 
REMARK    4  A    between atoms: C_10  and  C_13 
REMARK    5  A    between atoms: O_25  and  C_11 
REMARK    6  A    between atoms: O_26  and  C_12 
REMARK    7  A    between atoms: C_13  and  C_18 
REMARK    8  A    between atoms: C_18  and  S_14 
ROOT
ATOM      1  N   UNL d   1       0.706   0.025  -0.418  0.00  0.00    -0.315 N 
ATOM      2  C   UNL d   1      -0.044   1.120  -0.013  0.00  0.00     0.134 A 
ATOM      3  N   UNL d   1      -1.139   0.660   0.571  0.00  0.00    -0.283 N 
ATOM      4  HN  UNL d   1      -1.868   1.233   0.996  1.00  0.00     0.188 HD
ATOM      5  C   UNL d   1      -0.030  -1.083  -0.078  0.00  0.00     0.163 A 
ATOM      6  N   UNL d   1      -1.138  -0.715   0.514  0.00  0.00    -0.278 N 
ATOM      7  HN  UNL d   1      -1.867  -1.335   0.868  1.00  0.00     0.189 HD
ATOM      8  C   UNL d   1       2.006   0.009  -1.040  0.00  0.00     0.160 C 
ENDROOT
BRANCH   2   9
ATOM      9  C   UNL d   1       0.298   2.547  -0.154  0.00  0.00     0.015 A 
ATOM     10  C   UNL d   1       0.975   3.039  -1.275  0.00  0.00     0.055 A 
ATOM     11  C   UNL d   1       1.388   4.378  -1.376  0.00  0.00     0.105 A 
ATOM     12  C   UNL d   1       1.043   5.292  -0.356  0.00  0.00     0.135 A 
ATOM     13  C   UNL d   1       0.261   4.828   0.725  0.00  0.00     0.105 A 
ATOM     14  C   UNL d   1      -0.076   3.467   0.829  0.00  0.00     0.055 A 
BRANCH  11  15
ATOM     15  O   UNL d   1       2.118   4.830  -2.446  0.00  0.00    -0.353 OA
ATOM     16  C   UNL d   1       2.561   3.894  -3.420  0.00  0.00     0.210 C 
ENDBRANCH  11  15
BRANCH  12  17
ATOM     17  O   UNL d   1       1.418   6.609  -0.290  0.00  0.00    -0.351 OA
ATOM     18  C   UNL d   1       2.249   7.180  -1.286  0.00  0.00     0.210 C 
ENDBRANCH  12  17
BRANCH  13  19
ATOM     19  O   UNL d   1      -0.192   5.575   1.788  0.00  0.00    -0.353 OA
ATOM     20  C   UNL d   1      -0.529   6.934   1.528  0.00  0.00     0.210 C 
ENDBRANCH  13  19
ENDBRANCH   2   9
BRANCH   5  21
ATOM     21  S   UNL d   1       0.487  -2.706  -0.394  0.00  0.00    -0.085 SA
BRANCH  21  22
ATOM     22  C   UNL d   1      -0.934  -3.668   0.210  0.00  0.00     0.166 C 
BRANCH  22  23
ATOM     23  C   UNL d   1      -0.683  -5.189   0.150  0.00  0.00     0.175 C 
ATOM     24  O   UNL d   1       0.389  -5.654  -0.230  0.00  0.00    -0.291 OA
BRANCH  23  25
ATOM     25  C   UNL d   1      -1.781  -6.076   0.555  0.00  0.00     0.051 A 
ATOM     26  S   UNL d   1      -3.278  -5.486   1.151  0.00  0.00    -0.098 SA
ATOM     27  C   UNL d   1      -3.928  -7.059   1.305  0.00  0.00     0.050 A 
ATOM     28  C   UNL d   1      -3.022  -8.027   0.940  0.00  0.00     0.009 A 
ATOM     29  C   UNL d   1      -1.780  -7.460   0.525  0.00  0.00     0.023 A 
ENDBRANCH  23  25
ENDBRANCH  22  23
ENDBRANCH  21  22
ENDBRANCH   5  21
TORSDOF 8
