REMARK  5 active torsions:
REMARK  status: ('A' for Active; 'I' for Inactive)
REMARK    1  A    between atoms: N_2  and  S_1 
REMARK    2  A    between atoms: C_3  and  S_1 
REMARK    3  A    between atoms: C_9  and  N_2 
REMARK    4  A    between atoms: O_6  and  C_10 
REMARK    5  A    between atoms: C_11  and  O_6 
ROOT
ATOM      1  C   UNL d   1       0.786   2.190  -1.708  0.00  0.00     0.042 A 
ATOM      2  C   UNL d   1       1.586   4.816  -2.209  0.00  0.00     0.076 A 
ATOM      3  C   UNL d   1       2.110   2.565  -1.492  0.00  0.00     0.033 A 
ATOM      4  C   UNL d   1      -0.129   3.108  -2.221  0.00  0.00     0.033 A 
ATOM      5  C   UNL d   1       2.519   3.870  -1.775  0.00  0.00     0.039 A 
ATOM      6  C   UNL d   1       0.269   4.426  -2.462  0.00  0.00     0.039 A 
ENDROOT
BRANCH   1   7
ATOM      7  N   UNL d   1       0.387   0.866  -1.420  0.00  0.00    -0.281 N 
ATOM      8  H   UNL d   1       0.166   0.219  -2.171  0.00  0.00     0.179 HD
BRANCH   7   9
ATOM      9  S   UNL d   1      -0.130   0.439   0.120  0.00  0.00     0.263 S 
ATOM     10  O   UNL d   1       0.872   0.836   1.082  0.00  0.00    -0.200 OA
ATOM     11  O   UNL d   1      -0.576  -0.934   0.027  0.00  0.00    -0.200 OA
BRANCH   9  12
ATOM     12  C   UNL d   1      -1.567   1.458   0.364  0.00  0.00     0.079 A 
ATOM     13  C   UNL d   1      -2.827   0.986  -0.009  0.00  0.00     0.026 A 
ATOM     14  C   UNL d   1      -3.944   1.809   0.152  0.00  0.00     0.008 A 
ATOM     15  C   UNL d   1      -3.807   3.098   0.689  0.00  0.00    -0.062 A 
ATOM     16  C   UNL d   1      -2.542   3.542   1.094  0.00  0.00     0.008 A 
ATOM     17  C   UNL d   1      -5.012   3.981   0.832  0.00  0.00     0.048 C 
ATOM     18  C   UNL d   1      -1.423   2.722   0.944  0.00  0.00     0.026 A 
ENDBRANCH   9  12
ENDBRANCH   7   9
ENDBRANCH   1   7
BRANCH   2  19
ATOM     19  O   UNL d   1       1.890   6.136  -2.465  0.00  0.00    -0.311 OA
BRANCH  19  20
ATOM     20  C   UNL d   1       2.812   6.780  -1.669  0.00  0.00     0.076 A 
ATOM     21  C   UNL d   1       3.595   7.754  -2.294  0.00  0.00     0.039 A 
ATOM     22  C   UNL d   1       4.572   8.439  -1.569  0.00  0.00     0.026 A 
ATOM     23  C   UNL d   1       4.760   8.150  -0.218  0.00  0.00     0.034 A 
ATOM     24  C   UNL d   1       3.953   7.212   0.422  0.00  0.00     0.026 A 
ATOM     25 CL   UNL d   1       5.996   8.957   0.667  0.00  0.00    -0.084 Cl
ATOM     26  C   UNL d   1       2.959   6.546  -0.298  0.00  0.00     0.039 A 
ENDBRANCH  19  20
ENDBRANCH   2  19
TORSDOF 5
