REMARK  6 active torsions:
REMARK  status: ('A' for Active; 'I' for Inactive)
REMARK    1  A    between atoms: C_9  and  N_2 
REMARK    2  A    between atoms: C_6  and  C_7 
REMARK    3  A    between atoms: C_21  and  C_9 
REMARK    4  A    between atoms: O_23  and  C_12 
REMARK    5  A    between atoms: O_24  and  C_13 
REMARK    6  A    between atoms: C_20  and  C_21 
ROOT
ATOM      1  C   UNL d   1      -2.195  -0.000   0.681  0.00  0.00     0.179 A 
ATOM      2  N   UNL d   1      -1.484  -1.084   0.091  0.00  0.00    -0.322 N 
ATOM      3  N   UNL d   1      -1.407   1.146   0.518  0.00  0.00    -0.331 N 
ATOM      4  C   UNL d   1      -0.262   0.813  -0.191  0.00  0.00     0.062 A 
ATOM      5  C   UNL d   1      -0.305  -0.552  -0.487  0.00  0.00     0.063 A 
ATOM      6  C   UNL d   1       1.815   1.074  -1.314  0.00  0.00     0.050 A 
ATOM      7  C   UNL d   1       0.763   1.646  -0.586  0.00  0.00     0.048 A 
ATOM      8  S   UNL d   1      -3.675   0.028   1.423  0.00  0.00    -0.040 SA
ATOM      9  C   UNL d   1       0.702  -1.120  -1.236  0.00  0.00     0.033 A 
ATOM     10  C   UNL d   1       1.771  -0.304  -1.635  0.00  0.00     0.018 A 
ATOM     11  H   UNL d   1      -1.676   2.069   0.829  0.00  0.00     0.168 HD
ENDROOT
BRANCH   2  12
ATOM     12  C   UNL d   1      -2.007  -2.434  -0.084  0.00  0.00     0.136 C 
BRANCH  12  13
ATOM     13  C   UNL d   1      -1.019  -3.589   0.102  0.00  0.00     0.059 C 
BRANCH  13  14
ATOM     14  C   UNL d   1      -1.705  -4.931   0.061  0.00  0.00    -0.054 A 
ATOM     15  C   UNL d   1      -2.032  -5.599   1.250  0.00  0.00     0.046 A 
ATOM     16  C   UNL d   1      -2.674  -6.848   1.233  0.00  0.00     0.102 A 
ATOM     17  C   UNL d   1      -2.971  -7.449  -0.003  0.00  0.00     0.101 A 
ATOM     18  C   UNL d   1      -2.640  -6.776  -1.187  0.00  0.00     0.040 A 
ATOM     19  C   UNL d   1      -2.021  -5.528  -1.162  0.00  0.00     0.010 A 
BRANCH  16  20
ATOM     20  O   UNL d   1      -2.959  -7.520   2.392  0.00  0.00    -0.353 OA
ATOM     21  C   UNL d   1      -3.264  -6.714   3.525  0.00  0.00     0.210 C 
ENDBRANCH  16  20
BRANCH  17  22
ATOM     22  O   UNL d   1      -3.571  -8.655  -0.248  0.00  0.00    -0.353 OA
ATOM     23  C   UNL d   1      -4.070  -9.405   0.848  0.00  0.00     0.210 C 
ENDBRANCH  17  22
ENDBRANCH  13  14
ENDBRANCH  12  13
ENDBRANCH   2  12
BRANCH   6  24
ATOM     24  C   UNL d   1       2.997   1.899  -1.762  0.00  0.00     0.417 C 
ATOM     25  F   UNL d   1       2.891   3.219  -1.444  0.00  0.00    -0.166 F 
ATOM     26  F   UNL d   1       4.165   1.472  -1.207  0.00  0.00    -0.166 F 
ATOM     27  F   UNL d   1       3.183   1.851  -3.110  0.00  0.00    -0.166 F 
ENDBRANCH   6  24
TORSDOF 6
