REMARK  3 active torsions:
REMARK  status: ('A' for Active; 'I' for Inactive)
REMARK    1  A    between atoms: C_11  and  C_1 
REMARK    2  A    between atoms: C_10  and  C_5 
REMARK    3  A    between atoms: N_15  and  C_11 
ROOT
ATOM      1  C   UNL d   1       0.945   0.071  -0.044  0.00  0.00     0.139 C 
ATOM      2  C   UNL d   1       1.118  -2.140  -1.641  0.00  0.00     0.046 C 
ATOM      3  C   UNL d   1       0.728  -0.961  -2.167  0.00  0.00    -0.037 C 
ATOM      4  C   UNL d   1       0.802  -1.350   0.632  0.00  0.00     0.059 C 
ATOM      5  C   UNL d   1       0.255   0.080  -1.236  0.00  0.00     0.079 C 
ATOM      6  N   UNL d   1       1.046  -2.404  -0.292  0.00  0.00    -0.356 N 
ATOM      7  C   UNL d   1       0.656  -1.489   1.971  0.00  0.00     0.148 C 
ATOM      8  C   UNL d   1       1.698  -2.934  -2.709  0.00  0.00    -0.003 A 
ATOM      9  C   UNL d   1       0.831  -0.910  -3.660  0.00  0.00     0.077 C 
ATOM     10  C   UNL d   1       1.522  -2.226  -3.918  0.00  0.00    -0.042 A 
ATOM     11  C   UNL d   1       0.712  -2.783   2.563  0.00  0.00     0.113 C 
ATOM     12  C   UNL d   1       0.485  -0.365   2.825  0.00  0.00     0.113 C 
ATOM     13  N   UNL d   1       0.789  -3.855   3.002  0.00  0.00    -0.191 NA
ATOM     14  N   UNL d   1       0.350   0.560   3.504  0.00  0.00    -0.191 NA
ATOM     15  C   UNL d   1       2.429  -4.109  -2.683  0.00  0.00     0.014 A 
ATOM     16  C   UNL d   1       2.012  -2.710  -5.119  0.00  0.00     0.008 A 
ATOM     17  C   UNL d   1       2.955  -4.588  -3.888  0.00  0.00     0.001 A 
ATOM     18  C   UNL d   1       2.736  -3.902  -5.096  0.00  0.00     0.001 A 
ATOM     19  H   UNL d   1       1.336  -3.322   0.034  0.00  0.00     0.166 HD
ENDROOT
BRANCH   1  20
ATOM     20  C   UNL d   1       2.465   0.071  -0.044  0.00  0.00    -0.066 C 
BRANCH  20  21
ATOM     21  N   UNL d   1       3.726   0.071  -0.044  0.00  0.00    -0.369 N 
ATOM     22  HN2 UNL d   1       2.706   0.071  -0.044  1.00  0.00     0.165 HD
ATOM     23  HN1 UNL d   1       4.746   0.071  -0.044  1.00  0.00     0.165 HD
ENDBRANCH  20  21
ENDBRANCH   1  20
BRANCH   5  24
ATOM     24  C   UNL d   1      -1.180   0.224  -1.098  0.00  0.00    -0.008 A 
ATOM     25  S   UNL d   1      -1.952   1.729  -1.376  0.00  0.00    -0.106 SA
ATOM     26  C   UNL d   1      -3.505   1.073  -1.072  0.00  0.00     0.050 A 
ATOM     27  C   UNL d   1      -3.453  -0.263  -0.752  0.00  0.00     0.008 A 
ATOM     28  C   UNL d   1      -2.120  -0.754  -0.784  0.00  0.00     0.016 A 
ENDBRANCH   5  24
TORSDOF 3
