REMARK  4 active torsions:
REMARK  status: ('A' for Active; 'I' for Inactive)
REMARK    1  A    between atoms: C_2  and  C_1 
REMARK    2  A    between atoms: N_3  and  C_1 
REMARK    3  A    between atoms: C_8  and  N_3 
REMARK    4  A    between atoms: O_10  and  N_4 
ROOT
ATOM      1  C   UNL d   1       1.073   0.068   0.176  0.00  0.00     0.137 C 
ATOM      2  N   UNL d   1       2.361   0.063  -0.039  0.00  0.00    -0.252 N 
ATOM      3  HN  UNL d   1       2.887   0.888  -0.327  1.00  0.00     0.196 HD
ENDROOT
BRANCH   1   4
ATOM      4  C   UNL d   1       0.385   1.335  -0.234  0.00  0.00     0.025 A 
ATOM      5  C   UNL d   1       0.904   2.096  -1.278  0.00  0.00     0.102 A 
ATOM      6  N   UNL d   1       0.355   3.258  -1.718  0.00  0.00    -0.374 N 
ATOM      7  C   UNL d   1      -0.751   3.685  -1.073  0.00  0.00     0.087 A 
ATOM      8  HN  UNL d   1       0.759   3.780  -2.495  1.00  0.00     0.164 HD
ATOM      9  C   UNL d   1      -1.340   3.001  -0.020  0.00  0.00     0.018 A 
ATOM     10  C   UNL d   1      -0.765   1.802   0.405  0.00  0.00     0.018 A 
ENDBRANCH   1   4
BRANCH   1  11
ATOM     11  N   UNL d   1       0.272  -0.946   0.679  0.00  0.00    -0.340 N 
ATOM     12  H   UNL d   1      -0.686  -0.997   0.358  0.00  0.00     0.167 HD
BRANCH  11  13
ATOM     13  C   UNL d   1       0.612  -1.919   1.636  0.00  0.00     0.033 A 
ATOM     14  C   UNL d   1       1.546  -1.676   2.653  0.00  0.00     0.029 A 
ATOM     15  C   UNL d   1       1.950  -2.695   3.520  0.00  0.00     0.002 A 
ATOM     16  C   UNL d   1       1.430  -3.978   3.376  0.00  0.00     0.000 A 
ATOM     17  C   UNL d   1       0.493  -4.236   2.378  0.00  0.00     0.002 A 
ATOM     18  C   UNL d   1       0.083  -3.212   1.519  0.00  0.00     0.029 A 
ENDBRANCH  11  13
ENDBRANCH   1  11
BRANCH   2  19
ATOM     19  O   UNL d   1       2.941  -1.190   0.169  0.00  0.00    -0.288 OA
ATOM     20  H   UNL d   1       3.891  -1.003   0.076  0.00  0.00     0.244 HD
ENDBRANCH   2  19
TORSDOF 4
