REMARK  4 active torsions:
REMARK  status: ('A' for Active; 'I' for Inactive)
REMARK    1  A    between atoms: C_10  and  N_1 
REMARK    2  A    between atoms: C_13  and  N_5 
REMARK    3  A    between atoms: C_15  and  C_9 
REMARK    4  A    between atoms: C_11  and  C_10 
ROOT
ATOM      1  N   UNL d   1       1.029  -1.373  -0.077  0.00  0.00    -0.288 N 
ATOM      2  C   UNL d   1      -0.156  -0.662  -0.003  0.00  0.00     0.097 A 
ATOM      3  C   UNL d   1      -0.259   0.697   0.005  0.00  0.00     0.068 A 
ATOM      4  C   UNL d   1       2.215  -0.633  -0.191  0.00  0.00     0.337 A 
ATOM      5  N   UNL d   1       2.130   0.776  -0.100  0.00  0.00    -0.229 N 
ATOM      6  C   UNL d   1       0.933   1.511  -0.032  0.00  0.00     0.269 A 
ATOM      7  S   UNL d   1      -1.655  -1.431   0.050  0.00  0.00    -0.070 SA
ATOM      8  C   UNL d   1      -1.627   1.119   0.067  0.00  0.00     0.039 A 
ATOM      9  C   UNL d   1      -2.516   0.055   0.078  0.00  0.00     0.018 A 
ATOM     10  O   UNL d   1       3.286  -1.221  -0.389  0.00  0.00    -0.246 OA
ATOM     11  O   UNL d   1       0.842   2.732   0.031  0.00  0.00    -0.266 OA
ENDROOT
BRANCH   1  12
ATOM     12  C   UNL d   1       1.132  -2.845  -0.041  0.00  0.00     0.174 C 
BRANCH  12  13
ATOM     13  C   UNL d   1       1.180  -3.390   1.376  0.00  0.00    -0.018 A 
ATOM     14  C   UNL d   1       0.223  -4.274   1.899  0.00  0.00     0.042 A 
ATOM     15 CL   UNL d   1      -1.068  -4.920   0.950  0.00  0.00    -0.084 Cl
ATOM     16  C   UNL d   1       0.298  -4.699   3.232  0.00  0.00     0.024 A 
ATOM     17  C   UNL d   1       1.339  -4.273   4.054  0.00  0.00     0.002 A 
ATOM     18  C   UNL d   1       2.322  -3.437   3.540  0.00  0.00     0.001 A 
ATOM     19  C   UNL d   1       2.246  -3.007   2.215  0.00  0.00     0.010 A 
ENDBRANCH  12  13
ENDBRANCH   1  12
BRANCH   5  20
ATOM     20  C   UNL d   1       3.368   1.509  -0.084  0.00  0.00     0.047 A 
ATOM     21  C   UNL d   1       3.562   2.624  -0.911  0.00  0.00     0.030 A 
ATOM     22  C   UNL d   1       4.781   3.308  -0.907  0.00  0.00     0.002 A 
ATOM     23  C   UNL d   1       5.808   2.906  -0.056  0.00  0.00     0.000 A 
ATOM     24  C   UNL d   1       5.622   1.815   0.789  0.00  0.00     0.002 A 
ATOM     25  C   UNL d   1       4.414   1.114   0.766  0.00  0.00     0.030 A 
ENDBRANCH   5  20
BRANCH   9  26
ATOM     26  C   UNL d   1      -3.990   0.062   0.066  0.00  0.00    -0.019 A 
ATOM     27  C   UNL d   1      -4.743  -0.973   0.648  0.00  0.00     0.013 A 
ATOM     28  C   UNL d   1      -6.138  -0.972   0.587  0.00  0.00     0.001 A 
ATOM     29  C   UNL d   1      -6.807   0.070  -0.049  0.00  0.00     0.000 A 
ATOM     30  C   UNL d   1      -6.081   1.112  -0.618  0.00  0.00     0.001 A 
ATOM     31  C   UNL d   1      -4.684   1.109  -0.561  0.00  0.00     0.013 A 
ENDBRANCH   9  26
TORSDOF 4
