REMARK  4 active torsions:
REMARK  status: ('A' for Active; 'I' for Inactive)
REMARK    1  A    between atoms: C_6  and  C_1 
REMARK    2  A    between atoms: C_20  and  C_5 
REMARK       I    between atoms: C_7  and  N_14 
REMARK       I    between atoms: N_8  and  C_7 
REMARK    3  A    between atoms: C_10  and  N_8 
REMARK    4  A    between atoms: N_14  and  C_20 
ROOT
ATOM      1  C   UNL d   1       4.835   1.539   0.035  0.00  0.00     0.321 C 
ATOM      2  N   UNL d   1       5.977   0.867   0.353  0.00  0.00    -0.306 N 
ATOM      3  N   UNL d   1       3.645   0.884   0.107  0.00  0.00    -0.337 N 
ATOM      4  O   UNL d   1       4.905   2.746  -0.186  0.00  0.00    -0.247 OA
ATOM      5  H   UNL d   1       6.733   1.522   0.513  0.00  0.00     0.171 HD
ATOM      6  H   UNL d   1       3.622  -0.098  -0.124  0.00  0.00     0.164 HD
ENDROOT
BRANCH   3   7
ATOM      7  C   UNL d   1       2.421   1.587  -0.156  0.00  0.00     0.181 C 
BRANCH   7   8
ATOM      8  C   UNL d   1       1.233   0.670  -0.121  0.00  0.00     0.034 A 
ATOM      9  N   UNL d   1       1.361  -0.708   0.092  0.00  0.00    -0.351 N 
ATOM     10  C   UNL d   1       0.175  -1.292   0.047  0.00  0.00     0.091 A 
ATOM     11  HN  UNL d   1       2.244  -1.192   0.258  1.00  0.00     0.166 HD
ATOM     12  S   UNL d   1      -1.148  -0.222  -0.227  0.00  0.00    -0.081 SA
ATOM     13  C   UNL d   1      -0.069   1.095  -0.306  0.00  0.00     0.078 A 
BRANCH  10  14
ATOM     14  C   UNL d   1      -0.010  -2.714   0.261  0.00  0.00     0.038 A 
ATOM     15  S   UNL d   1      -1.350  -3.590  -0.373  0.00  0.00    -0.099 SA
ATOM     16  C   UNL d   1      -0.827  -5.057   0.326  0.00  0.00     0.050 A 
ATOM     17  C   UNL d   1       0.349  -4.902   1.022  0.00  0.00     0.008 A 
ATOM     18  C   UNL d   1       0.825  -3.557   0.975  0.00  0.00     0.022 A 
ENDBRANCH  10  14
ENDBRANCH   7   8
ENDBRANCH   3   7
BRANCH   2  19
ATOM     19  C   UNL d   1       6.192  -0.470   0.741  0.00  0.00     0.075 A 
ATOM     20  C   UNL d   1       5.397  -1.551   0.343  0.00  0.00     0.146 A 
ATOM     21  C   UNL d   1       5.573  -2.819   0.879  0.00  0.00     0.086 A 
ATOM     22  F   UNL d   1       4.468  -1.407  -0.612  0.00  0.00    -0.204 F 
ATOM     23  C   UNL d   1       6.590  -3.022   1.798  0.00  0.00     0.119 A 
ATOM     24  C   UNL d   1       7.461  -1.993   2.138  0.00  0.00     0.044 A 
ATOM     25  F   UNL d   1       6.738  -4.227   2.360  0.00  0.00    -0.206 F 
ATOM     26  C   UNL d   1       7.275  -0.718   1.595  0.00  0.00     0.036 A 
ENDBRANCH   2  19
TORSDOF 4
