REMARK  4 active torsions:
REMARK  status: ('A' for Active; 'I' for Inactive)
REMARK    1  A    between atoms: S_10  and  C_5 
REMARK    2  A    between atoms: C_15  and  S_10 
REMARK    3  A    between atoms: C_11  and  C_15 
REMARK    4  A    between atoms: C_12  and  C_11 
ROOT
ATOM      1  C   UNL d   1       0.571  -0.868   0.280  0.00  0.00     0.182 A 
ATOM      2  O   UNL d   1       0.770   0.449   0.619  0.00  0.00    -0.267 OA
ATOM      3  N   UNL d   1      -0.673  -1.085  -0.113  0.00  0.00    -0.276 N 
ATOM      4  HN  UNL d   1      -1.070  -1.977  -0.408  1.00  0.00     0.189 HD
ATOM      5  C   UNL d   1      -0.454   1.009   0.377  0.00  0.00     0.204 A 
ATOM      6  N   UNL d   1      -1.332   0.126  -0.049  0.00  0.00    -0.272 N 
ATOM      7  HN  UNL d   1      -2.309   0.302  -0.285  1.00  0.00     0.189 HD
ATOM      8  C   UNL d   1       1.587  -1.883   0.320  0.00  0.00     0.057 A 
ATOM      9  S   UNL d   1       3.169  -1.551   0.892  0.00  0.00    -0.098 SA
ATOM     10  C   UNL d   1       1.468  -3.200  -0.083  0.00  0.00     0.024 A 
ATOM     11  C   UNL d   1       3.691  -3.151   0.588  0.00  0.00     0.050 A 
ATOM     12  C   UNL d   1       2.683  -3.931   0.067  0.00  0.00     0.009 A 
ENDROOT
BRANCH   5  13
ATOM     13  S   UNL d   1      -0.767   2.702   0.598  0.00  0.00    -0.077 SA
BRANCH  13  14
ATOM     14  C   UNL d   1      -2.498   2.800   0.055  0.00  0.00     0.166 C 
BRANCH  14  15
ATOM     15  C   UNL d   1      -3.010   4.234   0.041  0.00  0.00     0.169 C 
ATOM     16  O   UNL d   1      -2.315   5.214   0.304  0.00  0.00    -0.291 OA
BRANCH  15  17
ATOM     17  C   UNL d   1      -4.450   4.464  -0.309  0.00  0.00     0.011 A 
ATOM     18  C   UNL d   1      -5.309   3.423  -0.688  0.00  0.00     0.016 A 
ATOM     19  C   UNL d   1      -6.658   3.686  -0.959  0.00  0.00     0.020 A 
ATOM     20  C   UNL d   1      -7.150   4.986  -0.857  0.00  0.00     0.011 A 
ATOM     21  C   UNL d   1      -6.303   6.034  -0.505  0.00  0.00     0.020 A 
ATOM     22 BR   UNL d   1      -8.980   5.324  -1.182  0.00  0.00    -0.051 Br
ATOM     23  C   UNL d   1      -4.956   5.772  -0.235  0.00  0.00     0.016 A 
ENDBRANCH  15  17
ENDBRANCH  14  15
ENDBRANCH  13  14
ENDBRANCH   5  13
TORSDOF 4
