REMARK  4 active torsions:
REMARK  status: ('A' for Active; 'I' for Inactive)
REMARK    1  A    between atoms: C_7  and  N_1 
REMARK    2  A    between atoms: C_9  and  C_6 
REMARK    3  A    between atoms: N_10  and  C_7 
REMARK    4  A    between atoms: C_19  and  N_10 
ROOT
ATOM      1  N   UNL d   1      -3.139   1.061  -0.271  0.00  0.00    -0.257 N 
ATOM      2  N   UNL d   1      -1.819   1.481  -0.451  0.00  0.00    -0.298 N 
ATOM      3  HN  UNL d   1      -1.501   2.378  -0.820  1.00  0.00     0.187 HD
ATOM      4  C   UNL d   1      -1.083   0.493  -0.050  0.00  0.00     0.043 C 
ATOM      5  C   UNL d   1      -1.813  -0.668   0.583  0.00  0.00     0.068 C 
ATOM      6  C   UNL d   1      -3.222  -0.374   0.085  0.00  0.00     0.160 C 
ATOM      7  C   UNL d   1       0.380   0.439  -0.088  0.00  0.00    -0.005 A 
ATOM      8  C   UNL d   1      -1.165  -2.034   0.376  0.00  0.00     0.018 C 
ATOM      9  C   UNL d   1       0.963  -0.827  -0.244  0.00  0.00    -0.046 A 
ATOM     10  C   UNL d   1       0.080  -2.018  -0.517  0.00  0.00     0.040 C 
ATOM     11  C   UNL d   1       1.154   1.587   0.074  0.00  0.00     0.014 A 
ATOM     12  C   UNL d   1       2.357  -0.929  -0.234  0.00  0.00     0.008 A 
ATOM     13  C   UNL d   1       2.543   1.467   0.102  0.00  0.00     0.001 A 
ATOM     14  C   UNL d   1       3.141   0.213  -0.048  0.00  0.00     0.001 A 
ENDROOT
BRANCH   1  15
ATOM     15  C   UNL d   1      -4.201   1.963  -0.394  0.00  0.00     0.189 C 
ATOM     16  S   UNL d   1      -5.782   1.616   0.049  0.00  0.00    -0.039 SA
BRANCH  15  17
ATOM     17  N   UNL d   1      -3.784   3.187  -0.886  0.00  0.00    -0.361 N 
ATOM     18  H   UNL d   1      -2.802   3.175  -1.155  0.00  0.00     0.162 HD
BRANCH  17  19
ATOM     19  C   UNL d   1      -4.534   4.441  -0.919  0.00  0.00     0.083 C 
ATOM     20  C   UNL d   1      -5.359   4.612  -2.208  0.00  0.00     0.025 C 
ATOM     21  C   UNL d   1      -4.569   5.155  -3.397  0.00  0.00     0.002 C 
ATOM     22  C   UNL d   1      -3.772   6.398  -3.025  0.00  0.00     0.000 C 
ATOM     23  C   UNL d   1      -2.826   6.096  -1.871  0.00  0.00     0.002 C 
ATOM     24  C   UNL d   1      -3.601   5.628  -0.642  0.00  0.00     0.025 C 
ENDBRANCH  17  19
ENDBRANCH  15  17
ENDBRANCH   1  15
BRANCH   6  25
ATOM     25  C   UNL d   1      -3.657  -1.141  -1.142  0.00  0.00     0.008 A 
ATOM     26  S   UNL d   1      -4.976  -2.237  -1.029  0.00  0.00    -0.104 SA
ATOM     27  C   UNL d   1      -4.951  -2.547  -2.707  0.00  0.00     0.050 A 
ATOM     28  C   UNL d   1      -3.927  -1.880  -3.341  0.00  0.00     0.008 A 
ATOM     29  C   UNL d   1      -3.176  -1.075  -2.438  0.00  0.00     0.017 A 
ENDBRANCH   6  25
TORSDOF 4
