REMARK  6 active torsions:
REMARK  status: ('A' for Active; 'I' for Inactive)
REMARK    1  A    between atoms: C_3  and  N_1 
REMARK    2  A    between atoms: C_5  and  N_1 
REMARK    3  A    between atoms: C_6  and  N_1 
REMARK    4  A    between atoms: C_2  and  C_3 
REMARK    5  A    between atoms: C_4  and  C_2 
REMARK    6  A    between atoms: C_10  and  C_5 
ROOT
ATOM      1  N   UNL d   1       1.355  -0.109  -0.071  0.00  0.00    -0.369 N 
ENDROOT
BRANCH   1   2
ATOM      2  C   UNL d   1       0.391  -1.199   0.190  0.00  0.00     0.207 C 
BRANCH   2   3
ATOM      3  C   UNL d   1       0.891  -2.634   0.057  0.00  0.00     0.177 C 
ATOM      4  O   UNL d   1       1.069  -3.347   1.051  0.00  0.00    -0.291 OA
BRANCH   3   5
ATOM      5  C   UNL d   1       1.012  -3.257  -1.287  0.00  0.00     0.011 A 
ATOM      6  C   UNL d   1       1.269  -2.521  -2.443  0.00  0.00     0.016 A 
ATOM      7  C   UNL d   1       1.258  -3.159  -3.689  0.00  0.00     0.007 A 
ATOM      8  C   UNL d   1       0.985  -4.531  -3.788  0.00  0.00    -0.062 A 
ATOM      9  C   UNL d   1       0.785  -5.272  -2.622  0.00  0.00     0.007 A 
ATOM     10  C   UNL d   1       0.883  -5.185  -5.135  0.00  0.00     0.048 C 
ATOM     11  C   UNL d   1       0.806  -4.641  -1.378  0.00  0.00     0.016 A 
ENDBRANCH   3   5
ENDBRANCH   2   3
ENDBRANCH   1   2
BRANCH   1  12
ATOM     12  C   UNL d   1       0.761   1.245  -0.143  0.00  0.00     0.162 C 
BRANCH  12  13
ATOM     13  C   UNL d   1       0.187   1.802   1.153  0.00  0.00    -0.040 A 
ATOM     14  C   UNL d   1       0.516   1.319   2.428  0.00  0.00     0.009 A 
ATOM     15  C   UNL d   1      -0.046   1.878   3.579  0.00  0.00     0.001 A 
ATOM     16  C   UNL d   1      -0.924   2.955   3.479  0.00  0.00     0.000 A 
ATOM     17  C   UNL d   1      -1.236   3.474   2.228  0.00  0.00     0.001 A 
ATOM     18  C   UNL d   1      -0.685   2.904   1.076  0.00  0.00     0.009 A 
ENDBRANCH  12  13
ENDBRANCH   1  12
BRANCH   1  19
ATOM     19  C   UNL d   1       2.714  -0.199   0.221  0.00  0.00     0.030 A 
ATOM     20  C   UNL d   1       3.651   0.554  -0.510  0.00  0.00     0.029 A 
ATOM     21  C   UNL d   1       5.030   0.445  -0.288  0.00  0.00     0.002 A 
ATOM     22  C   UNL d   1       5.511  -0.434   0.673  0.00  0.00     0.000 A 
ATOM     23  C   UNL d   1       4.611  -1.178   1.425  0.00  0.00     0.002 A 
ATOM     24  C   UNL d   1       3.234  -1.050   1.206  0.00  0.00     0.029 A 
ENDBRANCH   1  19
TORSDOF 6
