REMARK  4 active torsions:
REMARK  status: ('A' for Active; 'I' for Inactive)
REMARK    1  A    between atoms: C_6  and  C_1 
REMARK    2  A    between atoms: O_13  and  C_3 
REMARK    3  A    between atoms: C_14  and  N_4 
REMARK    4  A    between atoms: C_12  and  C_14 
ROOT
ATOM      1  C   UNL d   1       1.041  -1.097  -0.011  0.00  0.00     0.023 A 
ATOM      2  C   UNL d   1      -0.321  -0.672  -0.023  0.00  0.00    -0.012 A 
ATOM      3  C   UNL d   1       2.080  -0.148   0.003  0.00  0.00     0.078 A 
ATOM      4  C   UNL d   1      -0.579   0.725  -0.024  0.00  0.00    -0.025 A 
ATOM      5  C   UNL d   1       1.804   1.210  -0.005  0.00  0.00     0.038 A 
ATOM      6  C   UNL d   1       0.483   1.643  -0.016  0.00  0.00     0.015 A 
ATOM      7  C   UNL d   1      -1.449  -1.535  -0.008  0.00  0.00     0.013 A 
ATOM      8  C   UNL d   1      -1.900   1.203  -0.021  0.00  0.00     0.012 A 
ATOM      9  C   UNL d   1      -2.757  -1.042  -0.006  0.00  0.00     0.001 A 
ATOM     10  C   UNL d   1      -2.982   0.327  -0.014  0.00  0.00     0.001 A 
ENDROOT
BRANCH   1  11
ATOM     11  C   UNL d   1       1.393  -2.540   0.011  0.00  0.00     0.098 C 
ATOM     12  N   UNL d   1       2.568  -2.922   0.393  0.00  0.00    -0.394 N 
ATOM     13  HN  UNL d   1       3.302  -2.258   0.638  1.00  0.00     0.159 HD
BRANCH  12  14
ATOM     14  C   UNL d   1       2.776  -4.377   0.451  0.00  0.00     0.159 C 
BRANCH  14  15
ATOM     15  C   UNL d   1       3.575  -4.811   1.656  0.00  0.00    -0.025 A 
ATOM     16  C   UNL d   1       3.958  -6.145   1.784  0.00  0.00     0.096 A 
ATOM     17  N   UNL d   1       4.665  -6.644   2.826  0.00  0.00    -0.375 N 
ATOM     18  C   UNL d   1       5.014  -5.771   3.792  0.00  0.00     0.087 A 
ATOM     19  HN  UNL d   1       4.921  -7.630   2.876  1.00  0.00     0.164 HD
ATOM     20  C   UNL d   1       4.685  -4.426   3.769  0.00  0.00     0.018 A 
ATOM     21  C   UNL d   1       3.953  -3.945   2.685  0.00  0.00     0.011 A 
ENDBRANCH  14  15
ENDBRANCH  12  14
ENDBRANCH   1  11
BRANCH   3  22
ATOM     22  O   UNL d   1       3.408  -0.488   0.024  0.00  0.00    -0.360 OA
ATOM     23  H   UNL d   1       3.453  -1.462   0.167  0.00  0.00     0.217 HD
ENDBRANCH   3  22
TORSDOF 4
