REMARK  2 active torsions:
REMARK  status: ('A' for Active; 'I' for Inactive)
REMARK    1  A    between atoms: C_3  and  N_1 
REMARK    2  A    between atoms: S_13  and  C_2 
ROOT
ATOM      1  C   UNL d   1      -0.378  -2.737   0.076  0.00  0.00     0.080 A 
ATOM      2  C   UNL d   1      -1.069  -3.347  -0.988  0.00  0.00     0.058 A 
ATOM      3  C   UNL d   1       0.108  -3.547   1.119  0.00  0.00     0.064 A 
ATOM      4  C   UNL d   1      -0.114  -4.933   1.094  0.00  0.00     0.051 A 
ATOM      5  C   UNL d   1      -1.301  -4.729  -0.996  0.00  0.00     0.058 A 
ATOM      6  C   UNL d   1      -0.820  -5.523   0.045  0.00  0.00     0.057 A 
ATOM      7 CL   UNL d   1       0.878  -2.949   2.548  0.00  0.00    -0.082 Cl
ATOM      8 CL   UNL d   1      -2.185  -5.383  -2.328  0.00  0.00    -0.082 Cl
ATOM      9 CL   UNL d   1      -1.068  -7.231   0.102  0.00  0.00    -0.082 Cl
ENDROOT
BRANCH   1  10
ATOM     10  N   UNL d   1      -0.141  -1.335   0.041  0.00  0.00    -0.217 N 
ATOM     11  C   UNL d   1      -0.857  -0.283  -0.519  0.00  0.00     0.174 A 
ATOM     12  N   UNL d   1      -0.145   0.816  -0.439  0.00  0.00    -0.264 N 
ATOM     13  N   UNL d   1       1.011   0.473   0.200  0.00  0.00    -0.006 NA
ATOM     14  HN  UNL d   1      -0.403   1.740  -0.784  1.00  0.00     0.186 HD
ATOM     15  N   UNL d   1       1.020  -0.813   0.510  0.00  0.00     0.001 NA
BRANCH  11  16
ATOM     16  S   UNL d   1      -2.495  -0.308  -1.087  0.00  0.00    -0.104 SA
ATOM     17  H   UNL d   1      -2.905  -1.489  -0.607  0.00  0.00     0.110 HD
ENDBRANCH  11  16
ENDBRANCH   1  10
TORSDOF 2
