REMARK  1 active torsions:
REMARK  status: ('A' for Active; 'I' for Inactive)
REMARK    1  A    between atoms: C_7  and  C_3 
ROOT
ATOM      1  N   UNL d   1      -0.162  -1.045  -0.536  0.00  0.00    -0.351 N 
ATOM      2  HN  UNL d   1      -0.429  -1.933  -0.963  1.00  0.00     0.163 HD
ATOM      3  C   UNL d   1       1.002  -0.630  -0.111  0.00  0.00     0.112 C 
ATOM      4  N   UNL d   1       1.071   0.628   0.449  0.00  0.00    -0.152 NA
ATOM      5  O   UNL d   1      -0.176   1.237   0.260  0.00  0.00    -0.274 OA
ATOM      6  C   UNL d   1      -0.978   0.145  -0.220  0.00  0.00     0.241 C 
ATOM      7  C   UNL d   1      -1.708   0.587  -1.476  0.00  0.00     0.065 C 
ATOM      8  H   UNL d   1       1.854   1.204   0.149  0.00  0.00     0.162 HD
ENDROOT
BRANCH   3   9
ATOM      9  C   UNL d   1       2.212  -1.474  -0.250  0.00  0.00     0.004 A 
ATOM     10  C   UNL d   1       2.278  -2.423  -1.277  0.00  0.00     0.016 A 
ATOM     11  C   UNL d   1       3.423  -3.208  -1.429  0.00  0.00     0.024 A 
ATOM     12  C   UNL d   1       4.492  -3.051  -0.546  0.00  0.00     0.034 A 
ATOM     13  C   UNL d   1       4.424  -2.118   0.489  0.00  0.00     0.024 A 
ATOM     14 CL   UNL d   1       5.904  -4.015  -0.734  0.00  0.00    -0.084 Cl
ATOM     15  C   UNL d   1       3.284  -1.324   0.637  0.00  0.00     0.016 A 
ENDBRANCH   3   9
TORSDOF 1
