REMARK  5 active torsions:
REMARK  status: ('A' for Active; 'I' for Inactive)
REMARK    1  A    between atoms: C_3  and  C_1 
REMARK    2  A    between atoms: O_10  and  C_2 
REMARK       I    between atoms: N_7  and  C_3 
REMARK    3  A    between atoms: N_6  and  C_11 
REMARK    4  A    between atoms: C_21  and  N_7 
REMARK    5  A    between atoms: C_9  and  O_10 
ROOT
ATOM      1  C   UNL d   1      -1.948   3.994  -0.685  0.00  0.00     0.280 C 
ATOM      2  N   UNL d   1      -1.953   2.780  -0.022  0.00  0.00    -0.321 N 
ATOM      3  O   UNL d   1      -2.953   4.547  -1.123  0.00  0.00    -0.265 OA
ATOM      4  H   UNL d   1      -1.102   2.512   0.455  0.00  0.00     0.169 HD
ENDROOT
BRANCH   1   5
ATOM      5  C   UNL d   1      -0.663   4.641  -0.851  0.00  0.00     0.146 A 
ATOM      6  O   UNL d   1       0.505   4.107  -0.368  0.00  0.00    -0.282 OA
ATOM      7  C   UNL d   1       1.495   4.997  -0.683  0.00  0.00     0.191 A 
ATOM      8  C   UNL d   1       0.987   6.047  -1.421  0.00  0.00     0.067 A 
ATOM      9  C   UNL d   1      -0.401   5.841  -1.491  0.00  0.00     0.048 A 
BRANCH   7  10
ATOM     10  O   UNL d   1       2.698   4.692  -0.192  0.00  0.00    -0.288 OA
BRANCH  10  11
ATOM     11  C   UNL d   1       3.603   5.705   0.055  0.00  0.00     0.081 A 
ATOM     12  C   UNL d   1       3.211   6.938   0.588  0.00  0.00     0.061 A 
ATOM     13  C   UNL d   1       4.153   7.946   0.776  0.00  0.00     0.038 A 
ATOM     14 CL   UNL d   1       3.640   9.484   1.350  0.00  0.00    -0.084 Cl
ATOM     15  C   UNL d   1       5.495   7.720   0.490  0.00  0.00     0.048 A 
ATOM     16  C   UNL d   1       5.888   6.469   0.017  0.00  0.00     0.038 A 
ATOM     17  C   UNL d   1       4.951   5.457  -0.205  0.00  0.00     0.061 A 
ATOM     18 CL   UNL d   1       7.554   6.177  -0.305  0.00  0.00    -0.084 Cl
ENDBRANCH  10  11
ENDBRANCH   7  10
ENDBRANCH   1   5
BRANCH   2  19
ATOM     19  C   UNL d   1      -3.074   1.915   0.057  0.00  0.00     0.035 A 
ATOM     20  C   UNL d   1      -4.187   2.053  -0.768  0.00  0.00     0.032 A 
ATOM     21  C   UNL d   1      -5.254   1.151  -0.707  0.00  0.00     0.031 A 
ATOM     22  C   UNL d   1      -5.264   0.061   0.166  0.00  0.00     0.030 A 
ATOM     23  C   UNL d   1      -4.148  -0.048   1.013  0.00  0.00     0.031 A 
ATOM     24  C   UNL d   1      -3.063   0.854   0.958  0.00  0.00     0.032 A 
BRANCH  22  25
ATOM     25  N   UNL d   1      -6.309  -0.836   0.178  0.00  0.00    -0.377 N 
ATOM     26  C   UNL d   1      -6.679  -1.629   1.358  0.00  0.00     0.149 C 
ATOM     27  C   UNL d   1      -8.174  -1.412   1.662  0.00  0.00     0.187 C 
ATOM     28  O   UNL d   1      -9.001  -1.730   0.530  0.00  0.00    -0.388 OA
ATOM     29  C   UNL d   1      -8.655  -0.893  -0.586  0.00  0.00     0.187 C 
ATOM     30  C   UNL d   1      -7.184  -1.076  -0.988  0.00  0.00     0.149 C 
ENDBRANCH  22  25
ENDBRANCH   2  19
TORSDOF 5
