REMARK  3 active torsions:
REMARK  status: ('A' for Active; 'I' for Inactive)
REMARK    1  A    between atoms: C_2  and  C_1 
REMARK    2  A    between atoms: C_3  and  C_1 
REMARK    3  A    between atoms: O_6  and  C_2 
ROOT
ATOM      1  C   UNL d   1       0.989  -0.082   0.096  0.00  0.00     0.043 C 
ATOM      2  C   UNL d   1       2.336  -0.056   0.009  0.00  0.00    -0.012 C 
ATOM      3  C   UNL d   1       3.228  -0.996  -0.740  0.00  0.00     0.037 C 
ENDROOT
BRANCH   1   4
ATOM      4  C   UNL d   1       0.337   1.000   0.906  0.00  0.00     0.176 C 
ATOM      5  O   UNL d   1       0.950   1.893   1.470  0.00  0.00    -0.646 OA
BRANCH   4   6
ATOM      6  O   UNL d   1      -1.010   0.915   0.968  0.00  0.00    -0.773 OA
ATOM      7  H   UNL d   1      -1.404   0.164   0.486  0.00  0.00     0.167 HD
ENDBRANCH   4   6
ENDBRANCH   1   4
BRANCH   1   8
ATOM      8  C   UNL d   1       0.200  -1.132  -0.564  0.00  0.00    -0.020 A 
ATOM      9  C   UNL d   1      -0.091  -2.323   0.112  0.00  0.00     0.012 A 
ATOM     10  C   UNL d   1      -0.907  -3.286  -0.484  0.00  0.00     0.001 A 
ATOM     11  C   UNL d   1      -1.432  -3.063  -1.757  0.00  0.00     0.000 A 
ATOM     12  C   UNL d   1      -1.137  -1.884  -2.439  0.00  0.00     0.001 A 
ATOM     13  C   UNL d   1      -0.321  -0.919  -1.847  0.00  0.00     0.012 A 
ENDBRANCH   1   8
TORSDOF 3
