REMARK  5 active torsions:
REMARK  status: ('A' for Active; 'I' for Inactive)
REMARK    1  A    between atoms: C_2  and  C_1 
REMARK    2  A    between atoms: C_14  and  C_7 
REMARK    3  A    between atoms: C_15  and  C_11 
REMARK    4  A    between atoms: C_16  and  C_15 
REMARK    5  A    between atoms: O_19  and  C_18 
ROOT
ATOM      1  C   UNL d   1      -0.234  -1.020   0.045  0.00  0.00     0.179 A 
ATOM      2  N   UNL d   1       0.811  -0.627   0.749  0.00  0.00    -0.277 N 
ATOM      3  HN  UNL d   1       1.472  -1.230   1.238  1.00  0.00     0.189 HD
ATOM      4  O   UNL d   1      -0.919   0.050  -0.485  0.00  0.00    -0.277 OA
ATOM      5  N   UNL d   1       0.842   0.749   0.701  0.00  0.00    -0.281 N 
ATOM      6  HN  UNL d   1       1.541   1.360   1.122  1.00  0.00     0.189 HD
ATOM      7  C   UNL d   1      -0.212   1.115   0.004  0.00  0.00     0.144 A 
ENDROOT
BRANCH   1   8
ATOM      8  C   UNL d   1      -0.647  -2.438  -0.090  0.00  0.00     0.077 A 
ATOM      9  C   UNL d   1      -1.484  -3.070  -1.052  0.00  0.00     0.082 A 
ATOM     10  N   UNL d   1      -1.653  -4.365  -0.718  0.00  0.00    -0.259 N 
ATOM     11  O   UNL d   1      -0.903  -4.585   0.414  0.00  0.00    -0.241 OA
ATOM     12  HN  UNL d   1      -2.227  -5.050  -1.210  1.00  0.00     0.195 HD
ATOM     13  C   UNL d   1      -0.287  -3.434   0.786  0.00  0.00     0.089 A 
ATOM     14  C   UNL d   1       0.528  -3.492   2.014  0.00  0.00     0.080 C 
BRANCH   9  15
ATOM     15  C   UNL d   1      -2.078  -2.546  -2.286  0.00  0.00    -0.006 A 
ATOM     16  C   UNL d   1      -3.297  -3.056  -2.757  0.00  0.00     0.014 A 
ATOM     17  C   UNL d   1      -3.853  -2.586  -3.951  0.00  0.00     0.001 A 
ATOM     18  C   UNL d   1      -3.200  -1.598  -4.684  0.00  0.00     0.000 A 
ATOM     19  C   UNL d   1      -1.983  -1.091  -4.236  0.00  0.00     0.001 A 
ATOM     20  C   UNL d   1      -1.419  -1.574  -3.051  0.00  0.00     0.014 A 
ENDBRANCH   9  15
ENDBRANCH   1   8
BRANCH   7  21
ATOM     21  C   UNL d   1      -0.798   2.469  -0.146  0.00  0.00     0.124 C 
BRANCH  21  22
ATOM     22  C   UNL d   1      -0.600   3.124  -1.494  0.00  0.00    -0.048 A 
ATOM     23  C   UNL d   1       0.691   3.405  -1.978  0.00  0.00     0.044 A 
ATOM     24  C   UNL d   1       0.863   4.089  -3.185  0.00  0.00     0.068 A 
ATOM     25  C   UNL d   1      -0.260   4.500  -3.907  0.00  0.00     0.037 A 
ATOM     26  C   UNL d   1      -1.544   4.229  -3.438  0.00  0.00     0.003 A 
ATOM     27  C   UNL d   1      -1.714   3.543  -2.237  0.00  0.00     0.007 A 
BRANCH  24  28
ATOM     28  O   UNL d   1       2.058   4.428  -3.757  0.00  0.00    -0.356 OA
ATOM     29  C   UNL d   1       3.238   4.042  -3.065  0.00  0.00     0.210 C 
ENDBRANCH  24  28
ENDBRANCH  21  22
ENDBRANCH   7  21
TORSDOF 5
