REMARK  4 active torsions:
REMARK  status: ('A' for Active; 'I' for Inactive)
REMARK    1  A    between atoms: C_4  and  C_1 
REMARK    2  A    between atoms: C_5  and  C_1 
REMARK    3  A    between atoms: C_6  and  C_2 
REMARK    4  A    between atoms: C_7  and  C_2 
ROOT
ATOM      1  C   UNL d   1       0.208   1.047  -0.114  0.00  0.00     0.031 A 
ATOM      2  C   UNL d   1       1.038  -0.264   0.110  0.00  0.00     0.031 A 
ATOM      3  C   UNL d   1      -0.479  -0.304   0.034  0.00  0.00     0.041 A 
ENDROOT
BRANCH   1   4
ATOM      4  C   UNL d   1      -0.010   2.076   1.028  0.00  0.00    -0.043 A 
ATOM      5  C   UNL d   1       0.985   3.015   1.367  0.00  0.00     0.008 A 
ATOM      6  C   UNL d   1       0.738   4.086   2.229  0.00  0.00     0.001 A 
ATOM      7  C   UNL d   1      -0.513   4.231   2.809  0.00  0.00     0.000 A 
ATOM      8  C   UNL d   1      -1.509   3.299   2.537  0.00  0.00     0.001 A 
ATOM      9  C   UNL d   1      -1.261   2.241   1.653  0.00  0.00     0.008 A 
ENDBRANCH   1   4
BRANCH   1  10
ATOM     10  C   UNL d   1       0.119   1.724  -1.514  0.00  0.00    -0.043 A 
ATOM     11  C   UNL d   1      -0.999   1.570  -2.357  0.00  0.00     0.008 A 
ATOM     12  C   UNL d   1      -1.157   2.326  -3.525  0.00  0.00     0.001 A 
ATOM     13  C   UNL d   1      -0.210   3.284  -3.870  0.00  0.00     0.000 A 
ATOM     14  C   UNL d   1       0.915   3.448  -3.074  0.00  0.00     0.001 A 
ATOM     15  C   UNL d   1       1.087   2.660  -1.931  0.00  0.00     0.008 A 
ENDBRANCH   1  10
BRANCH   2  16
ATOM     16  C   UNL d   1       1.852  -0.888  -1.048  0.00  0.00    -0.043 A 
ATOM     17  C   UNL d   1       3.156  -0.436  -1.321  0.00  0.00     0.008 A 
ATOM     18  C   UNL d   1       4.005  -1.122  -2.198  0.00  0.00     0.001 A 
ATOM     19  C   UNL d   1       3.552  -2.263  -2.850  0.00  0.00     0.000 A 
ATOM     20  C   UNL d   1       2.254  -2.708  -2.639  0.00  0.00     0.001 A 
ATOM     21  C   UNL d   1       1.418  -2.033  -1.741  0.00  0.00     0.008 A 
ENDBRANCH   2  16
BRANCH   2  22
ATOM     22  C   UNL d   1       1.628  -0.665   1.482  0.00  0.00    -0.043 A 
ATOM     23  C   UNL d   1       1.257  -1.887   2.091  0.00  0.00     0.008 A 
ATOM     24  C   UNL d   1       1.891  -2.357   3.246  0.00  0.00     0.001 A 
ATOM     25  C   UNL d   1       2.917  -1.617   3.822  0.00  0.00     0.000 A 
ATOM     26  C   UNL d   1       3.298  -0.406   3.249  0.00  0.00     0.001 A 
ATOM     27  C   UNL d   1       2.661   0.054   2.096  0.00  0.00     0.008 A 
ENDBRANCH   2  22
TORSDOF 4
