REMARK  5 active torsions:
REMARK  status: ('A' for Active; 'I' for Inactive)
REMARK    1  A    between atoms: C_2  and  C_1 
REMARK    2  A    between atoms: O_8  and  C_2 
REMARK    3  A    between atoms: C_7  and  C_3 
REMARK    4  A    between atoms: C_16  and  O_8 
REMARK    5  A    between atoms: S_10  and  C_9 
ROOT
ATOM      1  C   UNL d   1       1.018  -0.196   0.001  0.00  0.00     0.120 C 
ATOM      2  C   UNL d   1       0.316   0.923   0.258  0.00  0.00     0.040 C 
ATOM      3  C   UNL d   1       0.411  -1.462  -0.223  0.00  0.00     0.105 C 
ATOM      4  N   UNL d   1      -0.094  -2.491  -0.412  0.00  0.00    -0.191 NA
ENDROOT
BRANCH   1   5
ATOM      5  C   UNL d   1       2.491  -0.048  -0.117  0.00  0.00     0.303 C 
ATOM      6  O   UNL d   1       3.087   1.011   0.015  0.00  0.00    -0.258 OA
BRANCH   5   7
ATOM      7  O   UNL d   1       3.057  -1.229  -0.471  0.00  0.00    -0.317 OA
BRANCH   7   8
ATOM      8  C   UNL d   1       4.409  -1.157  -0.946  0.00  0.00     0.174 C 
ATOM      9  C   UNL d   1       4.373  -0.914  -2.444  0.00  0.00     0.034 C 
ENDBRANCH   7   8
ENDBRANCH   5   7
ENDBRANCH   1   5
BRANCH   2  10
ATOM     10  C   UNL d   1      -1.144   0.988   0.338  0.00  0.00    -0.035 A 
ATOM     11  C   UNL d   1      -1.792   0.750   1.551  0.00  0.00     0.013 A 
ATOM     12  C   UNL d   1      -3.187   0.824   1.628  0.00  0.00     0.019 A 
ATOM     13  C   UNL d   1      -3.950   1.123   0.495  0.00  0.00    -0.000 A 
ATOM     14  C   UNL d   1      -3.290   1.365  -0.716  0.00  0.00     0.019 A 
ATOM     15  C   UNL d   1      -1.896   1.295  -0.798  0.00  0.00     0.013 A 
BRANCH  13  16
ATOM     16  S   UNL d   1      -5.729   1.275   0.520  0.00  0.00    -0.134 SA
ATOM     17  C   UNL d   1      -6.196   0.037   1.761  0.00  0.00     0.095 C 
ENDBRANCH  13  16
ENDBRANCH   2  10
TORSDOF 5
