REMARK  2 active torsions:
REMARK  status: ('A' for Active; 'I' for Inactive)
REMARK    1  A    between atoms: C_4  and  C_1 
REMARK       I    between atoms: N_5  and  C_4 
REMARK    2  A    between atoms: C_8  and  N_5 
ROOT
ATOM      1  C   UNL d   1       2.209   0.721   0.346  0.00  0.00     0.117 A 
ATOM      2  N   UNL d   1       2.243  -0.620   0.124  0.00  0.00    -0.349 N 
ATOM      3  HN  UNL d   1       3.104  -1.110  -0.119  1.00  0.00     0.166 HD
ATOM      4  N   UNL d   1      -0.160   0.777   0.702  0.00  0.00    -0.362 N 
ATOM      5  HN  UNL d   1      -1.024   1.289   0.879  1.00  0.00     0.165 HD
ATOM      6  C   UNL d   1       1.057  -1.260   0.248  0.00  0.00     0.059 A 
ATOM      7  C   UNL d   1       1.036   1.403   0.620  0.00  0.00     0.123 A 
ATOM      8  C   UNL d   1      -0.146  -0.557   0.536  0.00  0.00     0.059 A 
ATOM      9  C   UNL d   1       0.997  -2.643   0.117  0.00  0.00     0.032 A 
ATOM     10  C   UNL d   1      -1.335  -1.260   0.672  0.00  0.00     0.032 A 
ATOM     11  C   UNL d   1      -0.204  -3.341   0.271  0.00  0.00     0.002 A 
ATOM     12  C   UNL d   1      -1.375  -2.647   0.548  0.00  0.00     0.002 A 
ENDROOT
BRANCH   1  13
ATOM     13  C   UNL d   1       3.492   1.471   0.353  0.00  0.00     0.274 C 
ATOM     14  N   UNL d   1       4.559   0.831  -0.250  0.00  0.00    -0.320 N 
ATOM     15  H   UNL d   1       4.341  -0.010  -0.782  0.00  0.00     0.169 HD
ATOM     16  O   UNL d   1       3.509   2.598   0.841  0.00  0.00    -0.266 OA
BRANCH  14  17
ATOM     17  C   UNL d   1       5.876   1.343  -0.354  0.00  0.00     0.057 A 
ATOM     18  C   UNL d   1       6.738   0.856  -1.355  0.00  0.00     0.063 A 
ATOM     19  C   UNL d   1       8.025   1.378  -1.506  0.00  0.00     0.068 A 
ATOM     20 CL   UNL d   1       6.217  -0.363  -2.467  0.00  0.00    -0.082 Cl
ATOM     21  C   UNL d   1       8.466   2.365  -0.635  0.00  0.00     0.118 A 
ATOM     22  C   UNL d   1       7.650   2.834   0.385  0.00  0.00     0.044 A 
ATOM     23  F   UNL d   1       9.697   2.872  -0.778  0.00  0.00    -0.206 F 
ATOM     24  C   UNL d   1       6.357   2.325   0.523  0.00  0.00     0.034 A 
ENDBRANCH  14  17
ENDBRANCH   1  13
TORSDOF 2
