REMARK  4 active torsions:
REMARK  status: ('A' for Active; 'I' for Inactive)
REMARK    1  A    between atoms: C_6  and  C_1 
REMARK    2  A    between atoms: N_15  and  C_2 
REMARK       I    between atoms: N_14  and  C_6 
REMARK    3  A    between atoms: N_10  and  N_14 
REMARK    4  A    between atoms: C_18  and  C_17 
ROOT
ATOM      1  C   UNL d   1       2.478  -0.047   0.008  0.00  0.00     0.103 A 
ATOM      2  C   UNL d   1       1.635   1.063  -0.009  0.00  0.00     0.062 A 
ATOM      3  C   UNL d   1       0.224   0.735   0.006  0.00  0.00     0.032 A 
ATOM      4  S   UNL d   1       1.574  -1.493   0.038  0.00  0.00    -0.064 SA
ATOM      5  C   UNL d   1       0.091  -0.654   0.022  0.00  0.00     0.088 A 
ATOM      6  N   UNL d   1      -1.049  -1.373   0.027  0.00  0.00    -0.354 N 
ATOM      7  HN  UNL d   1      -1.053  -2.393   0.041  1.00  0.00     0.166 HD
ATOM      8  C   UNL d   1      -0.998   1.477   0.002  0.00  0.00    -0.045 A 
ATOM      9  C   UNL d   1      -2.200   0.737   0.004  0.00  0.00     0.032 A 
ATOM     10  C   UNL d   1      -2.179  -0.649   0.013  0.00  0.00     0.006 A 
ATOM     11  C   UNL d   1      -1.157   2.977  -0.002  0.00  0.00     0.049 C 
ATOM     12  C   UNL d   1      -3.472  -1.413   0.010  0.00  0.00     0.068 C 
ENDROOT
BRANCH   1  13
ATOM     13  C   UNL d   1       3.944  -0.049   0.004  0.00  0.00     0.279 C 
ATOM     14  N   UNL d   1       4.583  -1.295   0.013  0.00  0.00    -0.266 N 
ATOM     15  H   UNL d   1       4.038  -2.152   0.008  0.00  0.00     0.190 HD
ATOM     16  O   UNL d   1       4.590   1.005  -0.007  0.00  0.00    -0.265 OA
BRANCH  14  17
ATOM     17  N   UNL d   1       5.947  -1.337  -0.049  0.00  0.00    -0.308 N 
ATOM     18  C   UNL d   1       6.527  -2.493  -0.039  0.00  0.00     0.118 C 
ATOM     19  HN  UNL d   1       6.495  -0.478  -0.101  1.00  0.00     0.186 HD
BRANCH  18  20
ATOM     20  C   UNL d   1       8.004  -2.591  -0.151  0.00  0.00    -0.019 A 
ATOM     21  C   UNL d   1       8.781  -1.428  -0.246  0.00  0.00     0.014 A 
ATOM     22  C   UNL d   1      10.168  -1.518  -0.396  0.00  0.00     0.024 A 
ATOM     23  C   UNL d   1      10.777  -2.769  -0.450  0.00  0.00     0.034 A 
ATOM     24  C   UNL d   1      10.011  -3.932  -0.347  0.00  0.00     0.024 A 
ATOM     25 CL   UNL d   1      12.482  -2.882  -0.654  0.00  0.00    -0.084 Cl
ATOM     26  C   UNL d   1       8.621  -3.845  -0.194  0.00  0.00     0.014 A 
ENDBRANCH  18  20
ENDBRANCH  14  17
ENDBRANCH   1  13
BRANCH   2  27
ATOM     27  N   UNL d   1       2.146   2.314  -0.044  0.00  0.00    -0.397 N 
ATOM     28  H   UNL d   1       3.162   2.458  -0.020  0.00  0.00     0.156 HD
ATOM     29  H   UNL d   1       1.620   3.172   0.026  0.00  0.00     0.156 HD
ENDBRANCH   2  27
TORSDOF 4
