REMARK  3 active torsions:
REMARK  status: ('A' for Active; 'I' for Inactive)
REMARK    1  A    between atoms: C_6  and  C_1 
REMARK    2  A    between atoms: C_10  and  N_3 
REMARK    3  A    between atoms: O_13  and  C_5 
ROOT
ATOM      1  C   UNL d   1      -0.001   2.650   0.002  0.00  0.00     0.015 A 
ATOM      2  C   UNL d   1       1.084   0.494   0.196  0.00  0.00     0.041 A 
ATOM      3  C   UNL d   1       1.160   1.892   0.194  0.00  0.00     0.093 A 
ATOM      4  C   UNL d   1      -0.143  -0.146   0.004  0.00  0.00     0.039 A 
ATOM      5  C   UNL d   1      -1.234   2.012  -0.185  0.00  0.00     0.033 A 
ATOM      6  C   UNL d   1      -1.295   0.619  -0.186  0.00  0.00     0.008 A 
ATOM      7  I   UNL d   1       2.787  -0.684   0.491  0.00  0.00    -0.042 I 
ATOM      8  I   UNL d   1      -3.120  -0.335  -0.480  0.00  0.00    -0.045 I 
ENDROOT
BRANCH   1   9
ATOM      9  C   UNL d   1       0.074   4.125  -0.005  0.00  0.00     0.102 C 
ATOM     10  N   UNL d   1      -0.987   4.866   0.052  0.00  0.00    -0.364 N 
ATOM     11  HN  UNL d   1      -1.916   4.447   0.094  1.00  0.00     0.165 HD
BRANCH  10  12
ATOM     12  C   UNL d   1      -0.823   6.270   0.054  0.00  0.00     0.053 A 
ATOM     13  C   UNL d   1      -1.629   7.096  -0.749  0.00  0.00     0.060 A 
ATOM     14 CL   UNL d   1      -2.826   6.430  -1.807  0.00  0.00    -0.082 Cl
ATOM     15  C   UNL d   1      -1.486   8.489  -0.720  0.00  0.00     0.026 A 
ATOM     16  C   UNL d   1      -0.538   9.079   0.116  0.00  0.00     0.002 A 
ATOM     17  C   UNL d   1       0.257   8.278   0.930  0.00  0.00     0.002 A 
ATOM     18  C   UNL d   1       0.105   6.889   0.909  0.00  0.00     0.031 A 
ENDBRANCH  10  12
ENDBRANCH   1   9
BRANCH   3  19
ATOM     19  O   UNL d   1       2.353   2.538   0.391  0.00  0.00    -0.358 OA
ATOM     20  H   UNL d   1       3.042   1.861   0.521  0.00  0.00     0.217 HD
ENDBRANCH   3  19
TORSDOF 3
