REMARK  4 active torsions:
REMARK  status: ('A' for Active; 'I' for Inactive)
REMARK    1  A    between atoms: C_2  and  C_1 
REMARK       I    between atoms: N_6  and  C_1 
REMARK    2  A    between atoms: O_9  and  C_3 
REMARK    3  A    between atoms: N_16  and  N_6 
REMARK    4  A    between atoms: C_8  and  O_9 
ROOT
ATOM      1  C   UNL d   1       0.432   0.069   1.354  0.00  0.00     0.147 A 
ATOM      2  C   UNL d   1      -1.032  -0.338   2.944  0.00  0.00     0.191 A 
ATOM      3  O   UNL d   1      -0.704  -0.643   1.650  0.00  0.00    -0.282 OA
ATOM      4  C   UNL d   1       0.835   0.786   2.464  0.00  0.00     0.048 A 
ATOM      5  C   UNL d   1      -0.084   0.498   3.492  0.00  0.00     0.067 A 
ENDROOT
BRANCH   2   6
ATOM      6  O   UNL d   1      -2.175  -0.878   3.373  0.00  0.00    -0.288 OA
BRANCH   6   7
ATOM      7  C   UNL d   1      -2.881  -0.266   4.389  0.00  0.00     0.081 A 
ATOM      8  C   UNL d   1      -3.045   1.122   4.450  0.00  0.00     0.061 A 
ATOM      9  C   UNL d   1      -3.760   1.692   5.502  0.00  0.00     0.038 A 
ATOM     10 CL   UNL d   1      -3.901   3.404   5.599  0.00  0.00    -0.084 Cl
ATOM     11  C   UNL d   1      -4.352   0.891   6.472  0.00  0.00     0.048 A 
ATOM     12  C   UNL d   1      -4.225  -0.494   6.380  0.00  0.00     0.038 A 
ATOM     13  C   UNL d   1      -3.492  -1.080   5.343  0.00  0.00     0.061 A 
ATOM     14 CL   UNL d   1      -4.981  -1.491   7.561  0.00  0.00    -0.084 Cl
ENDBRANCH   6   7
ENDBRANCH   2   6
BRANCH   1  15
ATOM     15  C   UNL d   1       1.032   0.039   0.033  0.00  0.00     0.289 C 
ATOM     16  N   UNL d   1       0.432  -0.834  -0.870  0.00  0.00    -0.284 N 
ATOM     17  H   UNL d   1      -0.366  -1.384  -0.558  0.00  0.00     0.184 HD
ATOM     18  O   UNL d   1       1.999   0.745  -0.244  0.00  0.00    -0.264 OA
BRANCH  16  19
ATOM     19  N   UNL d   1       0.858  -0.985  -2.221  0.00  0.00    -0.237 NA
ATOM     20  C   UNL d   1       0.662   0.240  -3.003  0.00  0.00     0.135 C 
ATOM     21  C   UNL d   1       2.244  -1.452  -2.326  0.00  0.00     0.135 C 
ENDBRANCH  16  19
ENDBRANCH   1  15
TORSDOF 4
