REMARK  2 active torsions:
REMARK  status: ('A' for Active; 'I' for Inactive)
REMARK    1  A    between atoms: C_8  and  C_4 
REMARK    2  A    between atoms: C_11  and  N_7 
ROOT
ATOM      1  N   UNL d   1       1.416  -0.546  -0.044  0.00  0.00    -0.335 N 
ATOM      2  HN  UNL d   1       2.322  -1.005  -0.137  1.00  0.00     0.168 HD
ATOM      3  C   UNL d   1       0.270  -1.181   0.012  0.00  0.00     0.149 A 
ATOM      4  C   UNL d   1       1.244   0.823   0.038  0.00  0.00     0.051 A 
ATOM      5  S   UNL d   1      -1.099  -0.144   0.201  0.00  0.00    -0.064 SA
ATOM      6  C   UNL d   1      -0.071   1.227   0.143  0.00  0.00     0.083 A 
ATOM      7  N   UNL d   1       0.080  -2.518  -0.096  0.00  0.00    -0.335 N 
ATOM      8  H   UNL d   1      -0.879  -2.839  -0.087  0.00  0.00     0.168 HD
ENDROOT
BRANCH   7   9
ATOM      9  C   UNL d   1       1.009  -3.461  -0.572  0.00  0.00     0.049 A 
ATOM     10  C   UNL d   1       2.390  -3.258  -0.653  0.00  0.00     0.117 A 
ATOM     11  N   UNL d   1       3.279  -4.146  -1.169  0.00  0.00    -0.373 N 
ATOM     12  C   UNL d   1       2.777  -5.307  -1.627  0.00  0.00     0.088 A 
ATOM     13  HN  UNL d   1       4.278  -3.942  -1.207  1.00  0.00     0.164 HD
ATOM     14  C   UNL d   1       1.434  -5.631  -1.577  0.00  0.00     0.019 A 
ATOM     15  C   UNL d   1       0.548  -4.699  -1.036  0.00  0.00     0.032 A 
ENDBRANCH   7   9
BRANCH   4  16
ATOM     16  C   UNL d   1       2.389   1.722  -0.031  0.00  0.00    -0.009 A 
ATOM     17  C   UNL d   1       3.558   1.295  -0.681  0.00  0.00     0.014 A 
ATOM     18  C   UNL d   1       4.672   2.133  -0.771  0.00  0.00     0.001 A 
ATOM     19  C   UNL d   1       4.634   3.404  -0.205  0.00  0.00     0.000 A 
ATOM     20  C   UNL d   1       3.485   3.834   0.459  0.00  0.00     0.001 A 
ATOM     21  C   UNL d   1       2.369   2.998   0.547  0.00  0.00     0.014 A 
ENDBRANCH   4  16
TORSDOF 2
