REMARK  4 active torsions:
REMARK  status: ('A' for Active; 'I' for Inactive)
REMARK    1  A    between atoms: C_9  and  N_2 
REMARK    2  A    between atoms: C_6  and  C_7 
REMARK    3  A    between atoms: C_16  and  C_9 
REMARK    4  A    between atoms: C_17  and  C_16 
ROOT
ATOM      1  C   UNL d   1      -2.352  -0.011   0.120  0.00  0.00     0.179 A 
ATOM      2  N   UNL d   1      -1.493  -1.143   0.072  0.00  0.00    -0.322 N 
ATOM      3  N   UNL d   1      -1.533   1.127   0.154  0.00  0.00    -0.331 N 
ATOM      4  C   UNL d   1      -0.206   0.731   0.086  0.00  0.00     0.062 A 
ATOM      5  C   UNL d   1      -0.163  -0.662   0.009  0.00  0.00     0.063 A 
ATOM      6  C   UNL d   1       2.163   0.884  -0.022  0.00  0.00     0.050 A 
ATOM      7  C   UNL d   1       0.919   1.527   0.069  0.00  0.00     0.048 A 
ATOM      8  S   UNL d   1      -4.006   0.076   0.121  0.00  0.00    -0.040 SA
ATOM      9  C   UNL d   1       1.046  -1.310  -0.116  0.00  0.00     0.033 A 
ATOM     10  C   UNL d   1       2.213  -0.531  -0.114  0.00  0.00     0.018 A 
ATOM     11  H   UNL d   1      -1.879   2.075   0.172  0.00  0.00     0.168 HD
ENDROOT
BRANCH   2  12
ATOM     12  C   UNL d   1      -1.908  -2.530  -0.099  0.00  0.00     0.136 C 
BRANCH  12  13
ATOM     13  C   UNL d   1      -1.262  -3.542   0.857  0.00  0.00     0.058 C 
BRANCH  13  14
ATOM     14  C   UNL d   1      -1.843  -4.926   0.704  0.00  0.00    -0.057 A 
ATOM     15  C   UNL d   1      -1.463  -5.745  -0.371  0.00  0.00     0.007 A 
ATOM     16  C   UNL d   1      -1.990  -7.032  -0.501  0.00  0.00     0.001 A 
ATOM     17  C   UNL d   1      -2.900  -7.512   0.438  0.00  0.00     0.000 A 
ATOM     18  C   UNL d   1      -3.290  -6.702   1.504  0.00  0.00     0.001 A 
ATOM     19  C   UNL d   1      -2.765  -5.416   1.638  0.00  0.00     0.007 A 
ENDBRANCH  13  14
ENDBRANCH  12  13
ENDBRANCH   2  12
BRANCH   6  20
ATOM     20  C   UNL d   1       3.450   1.673  -0.016  0.00  0.00     0.417 C 
ATOM     21  F   UNL d   1       3.263   3.022  -0.024  0.00  0.00    -0.166 F 
ATOM     22  F   UNL d   1       4.215   1.407   1.078  0.00  0.00    -0.166 F 
ATOM     23  F   UNL d   1       4.233   1.398  -1.096  0.00  0.00    -0.166 F 
ENDBRANCH   6  20
TORSDOF 4
