REMARK  4 active torsions:
REMARK  status: ('A' for Active; 'I' for Inactive)
REMARK    1  A    between atoms: N_6  and  C_2 
REMARK    2  A    between atoms: C_16  and  C_4 
REMARK    3  A    between atoms: C_8  and  C_12 
REMARK    4  A    between atoms: O_19  and  C_11 
ROOT
ATOM      1  C   UNL d   1      -0.297  -1.152   0.146  0.00  0.00     0.085 A 
ATOM      2  C   UNL d   1       1.047  -0.836   0.218  0.00  0.00     0.096 A 
ATOM      3  S   UNL d   1       1.241   0.868   0.235  0.00  0.00    -0.070 SA
ATOM      4  C   UNL d   1      -0.439   1.194   0.061  0.00  0.00     0.024 A 
ATOM      5  C   UNL d   1      -1.171   0.008   0.066  0.00  0.00    -0.020 A 
ATOM      6  C   UNL d   1      -0.781  -2.505   0.115  0.00  0.00     0.103 C 
ATOM      7  N   UNL d   1      -1.197  -3.585   0.112  0.00  0.00    -0.191 NA
ATOM      8  C   UNL d   1      -2.662  -0.137  -0.048  0.00  0.00     0.051 C 
ENDROOT
BRANCH   2   9
ATOM      9  N   UNL d   1       2.202  -1.559   0.205  0.00  0.00    -0.358 N 
ATOM     10  C   UNL d   1       2.297  -2.628   0.926  0.00  0.00     0.103 C 
ATOM     11  HN  UNL d   1       2.988  -1.258  -0.372  1.00  0.00     0.166 HD
BRANCH  10  12
ATOM     12  C   UNL d   1       3.562  -3.399   0.951  0.00  0.00     0.016 A 
ATOM     13  C   UNL d   1       3.643  -4.606   1.649  0.00  0.00     0.099 A 
ATOM     14  C   UNL d   1       4.846  -5.321   1.661  0.00  0.00     0.069 A 
ATOM     15 CL   UNL d   1       4.959  -6.820   2.510  0.00  0.00    -0.081 Cl
ATOM     16  C   UNL d   1       5.968  -4.837   0.991  0.00  0.00     0.050 A 
ATOM     17  C   UNL d   1       5.882  -3.631   0.300  0.00  0.00     0.036 A 
ATOM     18  C   UNL d   1       4.689  -2.910   0.275  0.00  0.00     0.039 A 
ATOM     19 CL   UNL d   1       7.263  -3.026  -0.529  0.00  0.00    -0.084 Cl
BRANCH  13  20
ATOM     20  O   UNL d   1       2.541  -5.080   2.311  0.00  0.00    -0.358 OA
ATOM     21  H   UNL d   1       2.771  -5.948   2.696  0.00  0.00     0.217 HD
ENDBRANCH  13  20
ENDBRANCH  10  12
ENDBRANCH   2   9
BRANCH   4  22
ATOM     22  C   UNL d   1      -0.865   2.610  -0.062  0.00  0.00    -0.018 A 
ATOM     23  C   UNL d   1      -2.056   3.064   0.523  0.00  0.00     0.013 A 
ATOM     24  C   UNL d   1      -2.495   4.382   0.353  0.00  0.00     0.001 A 
ATOM     25  C   UNL d   1      -1.719   5.291  -0.359  0.00  0.00     0.000 A 
ATOM     26  C   UNL d   1      -0.510   4.880  -0.908  0.00  0.00     0.001 A 
ATOM     27  C   UNL d   1      -0.096   3.550  -0.774  0.00  0.00     0.013 A 
ENDBRANCH   4  22
TORSDOF 4
