REMARK  4 active torsions:
REMARK  status: ('A' for Active; 'I' for Inactive)
REMARK    1  A    between atoms: O_2  and  C_1 
REMARK    2  A    between atoms: C_6  and  O_2 
REMARK    3  A    between atoms: N_7  and  C_5 
REMARK    4  A    between atoms: O_13  and  C_8 
ROOT
ATOM      1  C   UNL d   1       0.218  -1.250   0.329  0.00  0.00     0.169 A 
ATOM      2  N   UNL d   1      -1.055  -1.588   0.668  0.00  0.00    -0.345 N 
ATOM      3  HN  UNL d   1      -1.399  -2.539   0.542  1.00  0.00     0.167 HD
ATOM      4  C   UNL d   1       0.744   0.050   0.496  0.00  0.00     0.058 A 
ATOM      5  C   UNL d   1      -1.845  -0.623   1.175  0.00  0.00     0.090 A 
ATOM      6  C   UNL d   1      -0.125   1.011   1.029  0.00  0.00     0.029 A 
ATOM      7  C   UNL d   1      -1.429   0.678   1.382  0.00  0.00     0.019 A 
ENDROOT
BRANCH   1   8
ATOM      8  O   UNL d   1       0.880  -2.285  -0.288  0.00  0.00    -0.292 OA
BRANCH   8   9
ATOM      9  C   UNL d   1       2.191  -2.569   0.011  0.00  0.00     0.078 A 
ATOM     10  C   UNL d   1       2.821  -2.309   1.229  0.00  0.00     0.040 A 
ATOM     11  C   UNL d   1       4.196  -2.537   1.367  0.00  0.00     0.039 A 
ATOM     12  C   UNL d   1       4.932  -3.069   0.306  0.00  0.00     0.068 A 
ATOM     13  C   UNL d   1       4.275  -3.419  -0.874  0.00  0.00     0.039 A 
ATOM     14  C   UNL d   1       2.911  -3.170  -1.022  0.00  0.00     0.040 A 
BRANCH  12  15
ATOM     15  O   UNL d   1       6.279  -3.303   0.299  0.00  0.00    -0.356 OA
ATOM     16  C   UNL d   1       7.036  -2.707   1.345  0.00  0.00     0.210 C 
ENDBRANCH  12  15
ENDBRANCH   8   9
ENDBRANCH   1   8
BRANCH   4  17
ATOM     17  N   UNL d   1       1.956   0.510  -0.051  0.00  0.00    -0.299 NA
ATOM     18  H   UNL d   1       2.636  -0.215  -0.257  0.00  0.00     0.124 HD
ATOM     19  H   UNL d   1       2.370   1.283   0.461  0.00  0.00     0.124 HD
ENDBRANCH   4  17
TORSDOF 4
