REMARK  6 active torsions:
REMARK  status: ('A' for Active; 'I' for Inactive)
REMARK    1  A    between atoms: N_2  and  S_1 
REMARK    2  A    between atoms: C_17  and  S_1 
REMARK    3  A    between atoms: C_5  and  C_6 
REMARK    4  A    between atoms: C_14  and  C_7 
REMARK    5  A    between atoms: C_9  and  C_8 
REMARK    6  A    between atoms: O_25  and  C_14 
ROOT
ATOM      1  N   UNL d   1      -0.016   1.621   0.003  0.00  0.00    -0.188 N 
ATOM      2  N   UNL d   1       0.076   2.841  -0.594  0.00  0.00    -0.282 N 
ATOM      3  HN  UNL d   1      -0.023   3.068  -1.584  1.00  0.00     0.188 HD
ATOM      4  C   UNL d   1       0.326   3.673   0.426  0.00  0.00     0.084 C 
ATOM      5  C   UNL d   1      -0.057   1.710   1.376  0.00  0.00     0.132 C 
ATOM      6  C   UNL d   1       0.225   3.023   1.676  0.00  0.00     0.054 C 
ENDROOT
BRANCH   4   7
ATOM      7  C   UNL d   1       0.675   5.109   0.228  0.00  0.00     0.104 A 
ATOM      8  O   UNL d   1       1.001   5.979   1.229  0.00  0.00    -0.308 OA
ATOM      9  C   UNL d   1       1.329   7.179   0.664  0.00  0.00     0.088 A 
ATOM     10  C   UNL d   1       1.151   7.089  -0.705  0.00  0.00     0.041 A 
ATOM     11  C   UNL d   1       0.747   5.762  -0.985  0.00  0.00     0.042 A 
BRANCH   9  12
ATOM     12  C   UNL d   1       1.789   8.396   1.412  0.00  0.00     0.021 A 
ATOM     13  C   UNL d   1       1.991   8.460   2.784  0.00  0.00     0.093 A 
ATOM     14  S   UNL d   1       2.463  10.055   3.260  0.00  0.00    -0.095 SA
ATOM     15  C   UNL d   1       2.426  10.633   1.661  0.00  0.00     0.051 A 
ATOM     16  C   UNL d   1       2.060   9.651   0.772  0.00  0.00     0.023 A 
BRANCH  13  17
ATOM     17  C   UNL d   1       1.914   7.423   3.801  0.00  0.00     0.300 C 
ATOM     18  O   UNL d   1       2.193   6.237   3.654  0.00  0.00    -0.259 OA
BRANCH  17  19
ATOM     19  O   UNL d   1       1.484   7.949   4.989  0.00  0.00    -0.322 OA
ATOM     20  C   UNL d   1       1.397   7.009   6.059  0.00  0.00     0.213 C 
ENDBRANCH  17  19
ENDBRANCH  13  17
ENDBRANCH   9  12
ENDBRANCH   4   7
BRANCH   1  21
ATOM     21  S   UNL d   1      -0.199   0.111  -0.821  0.00  0.00     0.282 S 
ATOM     22  O   UNL d   1       0.274  -0.899   0.111  0.00  0.00    -0.198 OA
ATOM     23  O   UNL d   1       0.383   0.277  -2.139  0.00  0.00    -0.198 OA
BRANCH  21  24
ATOM     24  C   UNL d   1      -1.951  -0.084  -1.018  0.00  0.00     0.081 A 
ATOM     25  C   UNL d   1      -2.674   0.862  -1.750  0.00  0.00     0.027 A 
ATOM     26  C   UNL d   1      -4.046   0.677  -1.943  0.00  0.00     0.025 A 
ATOM     27  C   UNL d   1      -4.679  -0.449  -1.412  0.00  0.00     0.034 A 
ATOM     28  C   UNL d   1      -3.954  -1.396  -0.691  0.00  0.00     0.025 A 
ATOM     29 CL   UNL d   1      -6.367  -0.675  -1.659  0.00  0.00    -0.084 Cl
ATOM     30  C   UNL d   1      -2.583  -1.219  -0.493  0.00  0.00     0.027 A 
ENDBRANCH  21  24
ENDBRANCH   1  21
TORSDOF 6
