REMARK  4 active torsions:
REMARK  status: ('A' for Active; 'I' for Inactive)
REMARK    1  A    between atoms: C_10  and  C_2 
REMARK    2  A    between atoms: C_11  and  C_9 
REMARK       I    between atoms: N_13  and  C_11 
REMARK    3  A    between atoms: C_12  and  C_14 
REMARK    4  A    between atoms: C_24  and  N_13 
ROOT
ATOM      1  C   UNL d   1       0.026  -0.330  -0.252  0.00  0.00     0.034 A 
ATOM      2  C   UNL d   1      -1.181  -1.001  -0.446  0.00  0.00     0.145 A 
ATOM      3  C   UNL d   1      -0.239   0.960  -0.038  0.00  0.00     0.104 A 
ATOM      4  N   UNL d   1      -2.199  -0.099  -0.318  0.00  0.00    -0.293 N 
ATOM      5  HN  UNL d   1      -3.201  -0.276  -0.397  1.00  0.00     0.187 HD
ATOM      6  N   UNL d   1      -1.582   1.090  -0.061  0.00  0.00    -0.288 N 
ATOM      7  S   UNL d   1       1.098   1.918   0.166  0.00  0.00    -0.065 SA
ATOM      8  C   UNL d   1       1.380  -0.650  -0.240  0.00  0.00     0.041 A 
ATOM      9  C   UNL d   1       2.128   0.521  -0.046  0.00  0.00     0.076 A 
ATOM     10  C   UNL d   1      -2.372   2.273   0.168  0.00  0.00     0.178 C 
ENDROOT
BRANCH   9  11
ATOM     11  C   UNL d   1       3.586   0.629  -0.052  0.00  0.00     0.263 C 
ATOM     12  N   UNL d   1       4.088   1.912   0.109  0.00  0.00    -0.323 N 
ATOM     13  H   UNL d   1       3.409   2.624   0.352  0.00  0.00     0.169 HD
ATOM     14  O   UNL d   1       4.285  -0.370  -0.200  0.00  0.00    -0.267 OA
BRANCH  12  15
ATOM     15  C   UNL d   1       5.415   2.346  -0.090  0.00  0.00     0.035 A 
ATOM     16  C   UNL d   1       6.411   1.538  -0.641  0.00  0.00     0.030 A 
ATOM     17  C   UNL d   1       7.686   2.050  -0.902  0.00  0.00     0.018 A 
ATOM     18  C   UNL d   1       7.995   3.382  -0.610  0.00  0.00     0.048 A 
ATOM     19  C   UNL d   1       7.008   4.186  -0.021  0.00  0.00     0.018 A 
ATOM     20  C   UNL d   1       5.727   3.673   0.228  0.00  0.00     0.030 A 
BRANCH  18  21
ATOM     21  C   UNL d   1       9.352   3.952  -0.946  0.00  0.00     0.417 C 
ATOM     22  F   UNL d   1      10.187   3.056  -1.544  0.00  0.00    -0.166 F 
ATOM     23  F   UNL d   1       9.271   5.009  -1.803  0.00  0.00    -0.166 F 
ATOM     24  F   UNL d   1      10.017   4.409   0.150  0.00  0.00    -0.166 F 
ENDBRANCH  18  21
ENDBRANCH  12  15
ENDBRANCH   9  11
BRANCH   2  25
ATOM     25  C   UNL d   1      -1.420  -2.447  -0.769  0.00  0.00     0.434 C 
ATOM     26  F   UNL d   1      -0.262  -3.154  -0.881  0.00  0.00    -0.165 F 
ATOM     27  F   UNL d   1      -2.159  -3.076   0.183  0.00  0.00    -0.165 F 
ATOM     28  F   UNL d   1      -2.078  -2.611  -1.950  0.00  0.00    -0.165 F 
ENDBRANCH   2  25
TORSDOF 4
