REMARK  4 active torsions:
REMARK  status: ('A' for Active; 'I' for Inactive)
REMARK    1  A    between atoms: O_10  and  C_4 
REMARK    2  A    between atoms: C_11  and  C_7 
REMARK    3  A    between atoms: C_15  and  C_11 
REMARK    4  A    between atoms: C_16  and  C_15 
ROOT
ATOM      1  N   UNL d   1      -0.715   1.223  -0.032  0.00  0.00    -0.170 N 
ATOM      2  HN  UNL d   1      -1.159   2.141  -0.052  1.00  0.00     0.186 HD
ATOM      3  C   UNL d   1      -1.425   0.098   0.045  0.00  0.00     0.682 A 
ATOM      4  C   UNL d   1       0.615   1.081  -0.082  0.00  0.00     0.163 A 
ATOM      5  N   UNL d   1      -0.852  -1.116   0.074  0.00  0.00    -0.195 N 
ATOM      6  HN  UNL d   1      -1.428  -1.956   0.121  1.00  0.00     0.184 HD
ATOM      7  C   UNL d   1       1.320  -0.104  -0.053  0.00  0.00     0.016 A 
ATOM      8  N   UNL d   1      -2.781   0.176   0.070  0.00  0.00    -0.218 N 
ATOM      9  C   UNL d   1       0.501  -1.215   0.042  0.00  0.00     0.033 A 
ATOM     10  C   UNL d   1      -3.642  -0.975   0.181  0.00  0.00     0.141 C 
ATOM     11  C   UNL d   1      -3.494   1.431   0.207  0.00  0.00     0.141 C 
ATOM     12  C   UNL d   1       0.987  -2.629   0.112  0.00  0.00     0.069 C 
ATOM     13  C   UNL d   1      -4.969   1.021   0.214  0.00  0.00     0.022 C 
ATOM     14  C   UNL d   1      -4.979  -0.416  -0.300  0.00  0.00     0.022 C 
ENDROOT
BRANCH   4  15
ATOM     15  O   UNL d   1       1.250   2.281  -0.151  0.00  0.00    -0.345 OA
ATOM     16  H   UNL d   1       0.477   2.875  -0.151  0.00  0.00     0.219 HD
ENDBRANCH   4  15
BRANCH   7  17
ATOM     17  C   UNL d   1       2.825  -0.108  -0.019  0.00  0.00     0.045 C 
BRANCH  17  18
ATOM     18  C   UNL d   1       3.576  -0.851  -1.129  0.00  0.00     0.004 C 
BRANCH  18  19
ATOM     19  C   UNL d   1       3.270  -0.370  -2.545  0.00  0.00    -0.004 C 
ATOM     20  C   UNL d   1       4.090  -1.159  -3.558  0.00  0.00     0.005 C 
ENDBRANCH  18  19
ENDBRANCH  17  18
ENDBRANCH   7  17
TORSDOF 4
