REMARK  1 active torsions:
REMARK  status: ('A' for Active; 'I' for Inactive)
REMARK    1  A    between atoms: C_4  and  N_1 
ROOT
ATOM      1  C   UNL d   1       0.005   2.309  -0.048  0.00  0.00     0.057 A 
ATOM      2  C   UNL d   1       0.623   3.020  -1.107  0.00  0.00    -0.034 A 
ATOM      3  C   UNL d   1      -0.622   3.027   1.000  0.00  0.00    -0.034 A 
ATOM      4  C   UNL d   1      -0.028   5.128  -0.077  0.00  0.00     0.001 A 
ATOM      5  C   UNL d   1      -0.634   4.433   0.963  0.00  0.00     0.009 A 
ATOM      6  C   UNL d   1       0.599   4.426  -1.100  0.00  0.00     0.009 A 
ATOM      7  C   UNL d   1      -1.235   2.386   2.218  0.00  0.00     0.050 C 
ATOM      8  C   UNL d   1       1.261   2.372  -2.309  0.00  0.00     0.050 C 
ENDROOT
BRANCH   1   9
ATOM      9  N   UNL d   1       0.008   0.899  -0.040  0.00  0.00    -0.244 N 
ATOM     10  C   UNL d   1       1.127   0.120  -0.037  0.00  0.00     0.255 A 
ATOM     11  C   UNL d   1       0.675  -1.278  -0.037  0.00  0.00     0.080 A 
ATOM     12  O   UNL d   1       2.308   0.424  -0.011  0.00  0.00    -0.268 OA
ATOM     13  C   UNL d   1      -0.657  -1.278  -0.036  0.00  0.00     0.080 A 
ATOM     14  C   UNL d   1      -1.111   0.119  -0.040  0.00  0.00     0.255 A 
ATOM     15  O   UNL d   1      -2.292   0.422  -0.071  0.00  0.00    -0.268 OA
ENDBRANCH   1   9
TORSDOF 1
