REMARK  6 active torsions:
REMARK  status: ('A' for Active; 'I' for Inactive)
REMARK    1  A    between atoms: C_3  and  C_1 
REMARK    2  A    between atoms: N_4  and  C_2 
REMARK    3  A    between atoms: O_16  and  C_3 
REMARK       I    between atoms: C_6  and  N_4 
REMARK    4  A    between atoms: C_14  and  C_6 
REMARK    5  A    between atoms: C_8  and  O_9 
REMARK    6  A    between atoms: O_9  and  C_14 
ROOT
ATOM      1  N   UNL d   1       1.108  -2.559  -0.366  0.00  0.00    -0.324 N 
ATOM      2  C   UNL d   1       2.405  -3.034  -0.463  0.00  0.00     0.246 C 
ATOM      3  O   UNL d   1       3.409  -2.330  -0.542  0.00  0.00    -0.271 OA
ATOM      4  H   UNL d   1       0.349  -3.189  -0.631  0.00  0.00     0.169 HD
ENDROOT
BRANCH   1   5
ATOM      5  C   UNL d   1       0.719  -1.226  -0.085  0.00  0.00     0.051 A 
ATOM      6  C   UNL d   1      -0.585  -0.785  -0.403  0.00  0.00     0.066 A 
ATOM      7  C   UNL d   1      -0.981   0.525  -0.081  0.00  0.00     0.020 A 
ATOM      8  C   UNL d   1      -0.093   1.394   0.553  0.00  0.00     0.001 A 
ATOM      9  C   UNL d   1       1.190   0.963   0.871  0.00  0.00     0.002 A 
ATOM     10  C   UNL d   1       1.593  -0.337   0.554  0.00  0.00     0.030 A 
BRANCH   6  11
ATOM     11  C   UNL d   1      -1.527  -1.697  -1.111  0.00  0.00     0.295 C 
ATOM     12  O   UNL d   1      -1.408  -2.913  -1.117  0.00  0.00    -0.259 OA
BRANCH  11  13
ATOM     13  O   UNL d   1      -2.456  -0.980  -1.789  0.00  0.00    -0.322 OA
ATOM     14  C   UNL d   1      -3.340  -1.744  -2.611  0.00  0.00     0.213 C 
ENDBRANCH  11  13
ENDBRANCH   6  11
ENDBRANCH   1   5
BRANCH   2  15
ATOM     15  C   UNL d   1       2.498  -4.557  -0.450  0.00  0.00     0.278 C 
BRANCH  15  16
ATOM     16  O   UNL d   1       3.245  -4.888   0.718  0.00  0.00    -0.340 OA
BRANCH  16  17
ATOM     17  C   UNL d   1       3.570  -6.204   0.895  0.00  0.00     0.091 A 
ATOM     18  C   UNL d   1       4.793  -6.490   1.523  0.00  0.00     0.069 A 
ATOM     19  C   UNL d   1       5.156  -7.806   1.814  0.00  0.00     0.050 A 
ATOM     20 CL   UNL d   1       5.898  -5.231   1.952  0.00  0.00    -0.081 Cl
ATOM     21  C   UNL d   1       4.286  -8.841   1.489  0.00  0.00     0.035 A 
ATOM     22  C   UNL d   1       3.067  -8.573   0.870  0.00  0.00     0.026 A 
ATOM     23 CL   UNL d   1       4.709 -10.464   1.870  0.00  0.00    -0.084 Cl
ATOM     24  C   UNL d   1       2.706  -7.255   0.573  0.00  0.00     0.040 A 
ENDBRANCH  16  17
ENDBRANCH  15  16
ENDBRANCH   2  15
TORSDOF 6
