REMARK  6 active torsions:
REMARK  status: ('A' for Active; 'I' for Inactive)
REMARK    1  A    between atoms: C_7  and  C_1 
REMARK    2  A    between atoms: C_8  and  C_3 
REMARK    3  A    between atoms: O_9  and  C_7 
REMARK    4  A    between atoms: O_10  and  C_8 
REMARK    5  A    between atoms: C_13  and  O_9 
REMARK    6  A    between atoms: C_14  and  O_10 
ROOT
ATOM      1  C   UNL d   1      -0.161  -1.153  -0.258  0.00  0.00     0.104 A 
ATOM      2  S   UNL d   1       1.358  -0.368  -0.431  0.00  0.00    -0.058 SA
ATOM      3  C   UNL d   1       0.598   1.166  -0.298  0.00  0.00     0.151 A 
ATOM      4  N   UNL d   1      -0.715   1.124  -0.182  0.00  0.00    -0.348 N 
ATOM      5  HN  UNL d   1      -1.319   1.943  -0.111  1.00  0.00     0.166 HD
ATOM      6  C   UNL d   1      -1.161  -0.191  -0.171  0.00  0.00     0.029 A 
ATOM      7  C   UNL d   1      -2.625  -0.431  -0.043  0.00  0.00     0.070 C 
ENDROOT
BRANCH   1   8
ATOM      8  C   UNL d   1      -0.313  -2.599  -0.193  0.00  0.00     0.307 C 
ATOM      9  O   UNL d   1      -1.381  -3.177  -0.026  0.00  0.00    -0.258 OA
BRANCH   8  10
ATOM     10  O   UNL d   1       0.922  -3.244  -0.330  0.00  0.00    -0.275 OA
BRANCH  10  11
ATOM     11  C   UNL d   1       1.072  -4.628  -0.079  0.00  0.00     0.079 A 
ATOM     12  C   UNL d   1       2.027  -5.294  -0.849  0.00  0.00     0.039 A 
ATOM     13  C   UNL d   1       2.327  -6.630  -0.576  0.00  0.00     0.026 A 
ATOM     14  C   UNL d   1       1.676  -7.287   0.469  0.00  0.00     0.034 A 
ATOM     15  C   UNL d   1       0.718  -6.620   1.234  0.00  0.00     0.026 A 
ATOM     16 CL   UNL d   1       2.076  -8.921   0.834  0.00  0.00    -0.084 Cl
ATOM     17  C   UNL d   1       0.417  -5.283   0.965  0.00  0.00     0.039 A 
ENDBRANCH  10  11
ENDBRANCH   8  10
ENDBRANCH   1   8
BRANCH   3  18
ATOM     18  C   UNL d   1       1.388   2.393  -0.333  0.00  0.00     0.322 C 
ATOM     19  O   UNL d   1       2.588   2.475  -0.565  0.00  0.00    -0.257 OA
BRANCH  18  20
ATOM     20  O   UNL d   1       0.556   3.490  -0.056  0.00  0.00    -0.273 OA
BRANCH  20  21
ATOM     21  C   UNL d   1       0.986   4.818  -0.277  0.00  0.00     0.079 A 
ATOM     22  C   UNL d   1       1.721   5.181  -1.405  0.00  0.00     0.039 A 
ATOM     23  C   UNL d   1       1.982   6.531  -1.653  0.00  0.00     0.026 A 
ATOM     24  C   UNL d   1       1.500   7.505  -0.778  0.00  0.00     0.034 A 
ATOM     25  C   UNL d   1       0.772   7.140   0.355  0.00  0.00     0.026 A 
ATOM     26 CL   UNL d   1       1.774   9.169  -1.121  0.00  0.00    -0.084 Cl
ATOM     27  C   UNL d   1       0.510   5.788   0.606  0.00  0.00     0.039 A 
ENDBRANCH  20  21
ENDBRANCH  18  20
ENDBRANCH   3  18
TORSDOF 6
