REMARK  2 active torsions:
REMARK  status: ('A' for Active; 'I' for Inactive)
REMARK    1  A    between atoms: S_11  and  C_5 
REMARK    2  A    between atoms: C_9  and  N_8 
ROOT
ATOM      1  C   UNL d   1       2.910  -0.796   1.152  0.00  0.00     0.166 A 
ATOM      2  S   UNL d   1       1.336  -1.502   1.033  0.00  0.00    -0.027 SA
ATOM      3  N   UNL d   1       3.380  -0.804   2.384  0.00  0.00    -0.278 N 
ATOM      4  HN  UNL d   1       4.304  -0.453   2.635  1.00  0.00     0.189 HD
ATOM      5  C   UNL d   1       1.382  -1.724   2.728  0.00  0.00     0.127 A 
ATOM      6  N   UNL d   1       2.496  -1.336   3.300  0.00  0.00    -0.286 N 
ATOM      7  HN  UNL d   1       2.685  -1.417   4.299  1.00  0.00     0.188 HD
ATOM      8  N   UNL d   1       3.534  -0.329   0.043  0.00  0.00    -0.335 N 
ATOM      9  H   UNL d   1       3.067  -0.435  -0.848  0.00  0.00     0.168 HD
ENDROOT
BRANCH   8  10
ATOM     10  C   UNL d   1       4.540   0.673   0.014  0.00  0.00     0.045 A 
ATOM     11  C   UNL d   1       5.476   0.719  -1.063  0.00  0.00     0.001 A 
ATOM     12  C   UNL d   1       6.469   1.734  -1.070  0.00  0.00    -0.024 A 
ATOM     13  C   UNL d   1       5.493  -0.213  -2.128  0.00  0.00     0.014 A 
ATOM     14  C   UNL d   1       7.407   1.798  -2.114  0.00  0.00     0.012 A 
ATOM     15  C   UNL d   1       6.524   2.667  -0.026  0.00  0.00     0.012 A 
ATOM     16  C   UNL d   1       7.391   0.868  -3.151  0.00  0.00     0.001 A 
ATOM     17  C   UNL d   1       6.436  -0.139  -3.158  0.00  0.00     0.001 A 
ATOM     18  C   UNL d   1       5.625   2.605   1.031  0.00  0.00     0.003 A 
ATOM     19  C   UNL d   1       4.650   1.613   1.054  0.00  0.00     0.030 A 
ENDBRANCH   8  10
BRANCH   5  20
ATOM     20  S   UNL d   1       0.062  -2.397   3.647  0.00  0.00    -0.117 SA
ATOM     21  H   UNL d   1      -0.835  -2.433   2.655  0.00  0.00     0.109 HD
ENDBRANCH   5  20
TORSDOF 2
