REMARK  6 active torsions:
REMARK  status: ('A' for Active; 'I' for Inactive)
REMARK    1  A    between atoms: C_2  and  C_1 
REMARK       I    between atoms: N_3  and  C_1 
REMARK    2  A    between atoms: C_6  and  N_3 
REMARK    3  A    between atoms: C_16  and  N_3 
REMARK    4  A    between atoms: C_4  and  C_5 
REMARK    5  A    between atoms: C_23  and  C_8 
REMARK    6  A    between atoms: C_22  and  C_9 
ROOT
ATOM      1  C   UNL d   1       0.841  -0.223   0.321  0.00  0.00     0.260 C 
ATOM      2  N   UNL d   1       0.126   0.675   1.138  0.00  0.00    -0.313 N 
ATOM      3  O   UNL d   1       2.067  -0.348   0.327  0.00  0.00    -0.267 OA
ENDROOT
BRANCH   1   4
ATOM      4  C   UNL d   1       0.126  -1.124  -0.627  0.00  0.00     0.062 A 
ATOM      5  C   UNL d   1       0.347  -2.508  -0.681  0.00  0.00     0.066 A 
ATOM      6  C   UNL d   1      -0.330  -3.260  -1.667  0.00  0.00     0.034 A 
ATOM      7  C   UNL d   1      -1.181  -2.619  -2.547  0.00  0.00     0.088 A 
ATOM      8  N   UNL d   1      -1.379  -1.291  -2.535  0.00  0.00    -0.374 N 
ATOM      9  C   UNL d   1      -0.700  -0.577  -1.604  0.00  0.00     0.105 A 
ATOM     10  HN  UNL d   1      -2.012  -0.840  -3.196  1.00  0.00     0.164 HD
BRANCH   5  11
ATOM     11  C   UNL d   1       1.295  -3.275   0.206  0.00  0.00     0.418 C 
ATOM     12  F   UNL d   1       1.757  -2.639   1.307  0.00  0.00    -0.166 F 
ATOM     13  F   UNL d   1       0.693  -4.405   0.692  0.00  0.00    -0.166 F 
ATOM     14  F   UNL d   1       2.383  -3.726  -0.477  0.00  0.00    -0.166 F 
ENDBRANCH   5  11
ENDBRANCH   1   4
BRANCH   2  15
ATOM     15  C   UNL d   1       0.877   1.509   2.036  0.00  0.00     0.050 A 
ATOM     16  C   UNL d   1       1.556   2.660   1.579  0.00  0.00    -0.031 A 
ATOM     17  C   UNL d   1       2.110   3.545   2.527  0.00  0.00     0.009 A 
ATOM     18  C   UNL d   1       2.033   3.284   3.892  0.00  0.00     0.001 A 
ATOM     19  C   UNL d   1       1.419   2.122   4.333  0.00  0.00     0.009 A 
ATOM     20  C   UNL d   1       0.837   1.221   3.422  0.00  0.00    -0.031 A 
BRANCH  16  21
ATOM     21  C   UNL d   1       1.724   3.022   0.117  0.00  0.00     0.036 C 
ATOM     22  C   UNL d   1       3.189   3.148  -0.298  0.00  0.00     0.010 C 
ENDBRANCH  16  21
BRANCH  20  23
ATOM     23  C   UNL d   1       0.242  -0.049   3.994  0.00  0.00     0.036 C 
ATOM     24  C   UNL d   1       1.314  -1.090   4.281  0.00  0.00     0.010 C 
ENDBRANCH  20  23
ENDBRANCH   2  15
BRANCH   2  25
ATOM     25  C   UNL d   1      -1.288   1.059   0.926  0.00  0.00     0.128 C 
ATOM     26  C   UNL d   1      -2.029   1.797   2.039  0.00  0.00     0.027 C 
ENDBRANCH   2  25
TORSDOF 6
