REMARK  5 active torsions:
REMARK  status: ('A' for Active; 'I' for Inactive)
REMARK    1  A    between atoms: C_10  and  C_1 
REMARK    2  A    between atoms: C_2  and  C_5 
REMARK    3  A    between atoms: C_5  and  C_9 
REMARK    4  A    between atoms: O_18  and  C_5 
REMARK    5  A    between atoms: C_9  and  N_7 
ROOT
ATOM      1  N   UNL d   1      -2.726  -5.369  -0.432  0.00  0.00     0.091 N 
ATOM      2  C   UNL d   1      -1.715  -2.626  -0.230  0.00  0.00     0.024 C 
ATOM      3  C   UNL d   1      -1.631  -3.571   0.964  0.00  0.00     0.039 C 
ATOM      4  C   UNL d   1      -3.011  -2.943  -0.980  0.00  0.00     0.039 C 
ATOM      5  C   UNL d   1      -2.949  -4.372  -1.495  0.00  0.00     0.273 C 
ATOM      6  C   UNL d   1      -1.597  -5.022   0.453  0.00  0.00     0.273 C 
ENDROOT
BRANCH   2   7
ATOM      7  C   UNL d   1      -1.595  -1.156   0.045  0.00  0.00    -0.026 A 
ATOM      8  C   UNL d   1      -1.826  -0.449   1.208  0.00  0.00     0.096 A 
ATOM      9  N   UNL d   1      -1.640   0.885   0.943  0.00  0.00    -0.365 N 
ATOM     10  C   UNL d   1      -1.300   1.071  -0.378  0.00  0.00     0.042 A 
ATOM     11  H   UNL d   1      -1.757   1.632   1.612  0.00  0.00     0.165 HD
ATOM     12  C   UNL d   1      -1.234  -0.195  -0.958  0.00  0.00    -0.001 A 
ATOM     13  C   UNL d   1      -1.051   2.244  -1.103  0.00  0.00     0.030 A 
ATOM     14  C   UNL d   1      -0.889  -0.296  -2.322  0.00  0.00     0.014 A 
ATOM     15  C   UNL d   1      -0.642   0.861  -3.062  0.00  0.00     0.001 A 
ATOM     16  C   UNL d   1      -0.729   2.112  -2.462  0.00  0.00     0.002 A 
ENDBRANCH   2   7
BRANCH   1  17
ATOM     17  C   UNL d   1      -2.549  -6.686  -1.082  0.00  0.00     0.313 C 
BRANCH  17  18
ATOM     18  C   UNL d   1      -2.386  -7.920  -0.183  0.00  0.00     0.253 C 
BRANCH  18  19
ATOM     19  C   UNL d   1      -3.630  -8.223   0.665  0.00  0.00     0.414 C 
ATOM     20  F   UNL d   1      -4.627  -7.327   0.537  0.00  0.00    -0.168 F 
ATOM     21  F   UNL d   1      -4.144  -9.428   0.294  0.00  0.00    -0.168 F 
ATOM     22  F   UNL d   1      -3.315  -8.318   1.977  0.00  0.00    -0.168 F 
ENDBRANCH  18  19
BRANCH  18  23
ATOM     23  O   UNL d   1      -2.027  -9.031  -1.052  0.00  0.00    -0.385 OA
ATOM     24  H   UNL d   1      -2.845  -9.538  -1.226  0.00  0.00     0.210 HD
ENDBRANCH  18  23
ENDBRANCH  17  18
ENDBRANCH   1  17
TORSDOF 5
