REMARK  3 active torsions:
REMARK  status: ('A' for Active; 'I' for Inactive)
REMARK    1  A    between atoms: N_8  and  S_1 
REMARK    2  A    between atoms: C_13  and  S_1 
REMARK    3  A    between atoms: C_11  and  N_8 
ROOT
ATOM      1  N   UNL d   1       0.458   0.312   1.542  0.00  0.00    -0.281 N 
ATOM      2  H   UNL d   1       1.118   0.942   1.993  0.00  0.00     0.179 HD
ENDROOT
BRANCH   1   3
ATOM      3  S   UNL d   1       0.930  -0.107  -0.024  0.00  0.00     0.263 S 
ATOM      4  O   UNL d   1       0.194  -1.279  -0.441  0.00  0.00    -0.200 OA
ATOM      5  O   UNL d   1       2.379  -0.086  -0.023  0.00  0.00    -0.200 OA
BRANCH   3   6
ATOM      6  C   UNL d   1       0.386   1.273  -1.008  0.00  0.00     0.079 A 
ATOM      7  C   UNL d   1       1.213   2.394  -1.140  0.00  0.00     0.026 A 
ATOM      8  C   UNL d   1       0.826   3.443  -1.976  0.00  0.00     0.008 A 
ATOM      9  C   UNL d   1      -0.378   3.375  -2.691  0.00  0.00    -0.062 A 
ATOM     10  C   UNL d   1      -1.201   2.251  -2.543  0.00  0.00     0.008 A 
ATOM     11  C   UNL d   1      -0.751   4.484  -3.633  0.00  0.00     0.048 C 
ATOM     12  C   UNL d   1      -0.820   1.196  -1.710  0.00  0.00     0.026 A 
ENDBRANCH   3   6
ENDBRANCH   1   3
BRANCH   1  13
ATOM     13  C   UNL d   1      -0.925   0.461   1.840  0.00  0.00     0.044 A 
ATOM     14  C   UNL d   1      -1.498   1.740   1.757  0.00  0.00     0.062 A 
ATOM     15  C   UNL d   1      -2.872   1.817   2.080  0.00  0.00     0.069 A 
ATOM     16  N   UNL d   1      -3.618   2.932   2.064  0.00  0.00    -0.310 N 
ATOM     17  C   UNL d   1      -3.646   0.591   2.493  0.00  0.00     0.067 A 
ATOM     18  S   UNL d   1      -5.147   2.480   2.536  0.00  0.00     0.068 SA
ATOM     19  HN  UNL d   1      -3.309   3.871   1.812  1.00  0.00     0.176 HD
ATOM     20  N   UNL d   1      -4.930   0.851   2.779  0.00  0.00    -0.310 N 
ATOM     21  HN  UNL d   1      -5.635   0.180   3.086  1.00  0.00     0.176 HD
ATOM     22  C   UNL d   1      -3.018  -0.674   2.555  0.00  0.00     0.035 A 
ATOM     23  C   UNL d   1      -1.653  -0.697   2.206  0.00  0.00     0.032 A 
ENDBRANCH   1  13
TORSDOF 3
