REMARK  8 active torsions:
REMARK  status: ('A' for Active; 'I' for Inactive)
REMARK    1  A    between atoms: N_6  and  C_1 
REMARK    2  A    between atoms: C_12  and  C_2 
REMARK    3  A    between atoms: C_3  and  N_6 
REMARK    4  A    between atoms: N_5  and  C_3 
REMARK       I    between atoms: C_10  and  N_9 
REMARK    5  A    between atoms: O_22  and  C_10 
REMARK    6  A    between atoms: O_23  and  C_12 
REMARK    7  A    between atoms: C_26  and  O_22 
REMARK    8  A    between atoms: C_27  and  O_23 
ROOT
ATOM      1  C   UNL d   1       1.875   1.069  -0.416  0.00  0.00     0.093 C 
ATOM      2  C   UNL d   1       0.713   1.792  -0.619  0.00  0.00     0.080 C 
ATOM      3  C   UNL d   1      -0.070  -0.383  -0.168  0.00  0.00     0.010 C 
ATOM      4  C   UNL d   1      -0.424   0.950  -0.308  0.00  0.00    -0.023 C 
ATOM      5  S   UNL d   1       1.611  -0.607  -0.254  0.00  0.00    -0.074 SA
ATOM      6  N   UNL d   1      -2.390  -1.043  -0.162  0.00  0.00    -0.323 N 
ATOM      7  C   UNL d   1      -3.110  -1.535  -1.234  0.00  0.00     0.363 C 
ATOM      8  C   UNL d   1      -1.025  -1.529   0.053  0.00  0.00     0.174 C 
ATOM      9  C   UNL d   1      -1.869   1.371  -0.216  0.00  0.00     0.061 C 
ATOM     10  C   UNL d   1      -2.704   0.259   0.447  0.00  0.00     0.133 C 
ATOM     11  O   UNL d   1      -2.736  -2.436  -1.968  0.00  0.00    -0.238 OA
ENDROOT
BRANCH   1  12
ATOM     12  N   UNL d   1       3.217   1.391  -0.395  0.00  0.00    -0.326 N 
ATOM     13  H   UNL d   1       3.847   0.603  -0.480  0.00  0.00     0.169 HD
BRANCH  12  14
ATOM     14  C   UNL d   1       3.782   2.462   0.286  0.00  0.00     0.179 C 
ATOM     15  S   UNL d   1       3.060   3.231   1.607  0.00  0.00    -0.040 SA
BRANCH  14  16
ATOM     16  N   UNL d   1       5.091   2.744  -0.120  0.00  0.00    -0.323 N 
ATOM     17  C   UNL d   1       5.716   2.405  -1.342  0.00  0.00     0.043 A 
ATOM     18  C   UNL d   1       7.086   2.658  -1.269  0.00  0.00    -0.030 A 
ATOM     19  C   UNL d   1       5.159   1.907  -2.510  0.00  0.00     0.030 A 
ATOM     20  C   UNL d   1       7.940   2.320  -2.310  0.00  0.00     0.009 A 
ATOM     21  C   UNL d   1       7.445   3.352   0.004  0.00  0.00     0.061 C 
ATOM     22  C   UNL d   1       7.393   1.736  -3.453  0.00  0.00     0.001 A 
ATOM     23  C   UNL d   1       6.008   1.554  -3.563  0.00  0.00     0.002 A 
ATOM     24  C   UNL d   1       6.132   3.277   0.788  0.00  0.00     0.136 C 
ENDBRANCH  14  16
ENDBRANCH  12  14
ENDBRANCH   1  12
BRANCH   2  25
ATOM     25  C   UNL d   1       0.608   3.171  -1.114  0.00  0.00     0.296 C 
ATOM     26  O   UNL d   1      -0.469   3.745  -1.248  0.00  0.00    -0.259 OA
BRANCH  25  27
ATOM     27  O   UNL d   1       1.799   3.708  -1.500  0.00  0.00    -0.318 OA
BRANCH  27  28
ATOM     28  C   UNL d   1       1.770   5.038  -2.037  0.00  0.00     0.174 C 
ATOM     29  C   UNL d   1       1.488   6.078  -0.965  0.00  0.00     0.034 C 
ENDBRANCH  27  28
ENDBRANCH  25  27
ENDBRANCH   2  25
BRANCH   7  30
ATOM     30  O   UNL d   1      -4.278  -0.852  -1.401  0.00  0.00    -0.304 OA
BRANCH  30  31
ATOM     31  C   UNL d   1      -4.920  -0.988  -2.673  0.00  0.00     0.176 C 
ATOM     32  C   UNL d   1      -4.368   0.092  -3.583  0.00  0.00     0.034 C 
ENDBRANCH  30  31
ENDBRANCH   7  30
TORSDOF 8
