REMARK  4 active torsions:
REMARK  status: ('A' for Active; 'I' for Inactive)
REMARK       I    between atoms: N_2  and  C_1 
REMARK    1  A    between atoms: C_3  and  C_1 
REMARK    2  A    between atoms: C_7  and  C_3 
REMARK    3  A    between atoms: O_14  and  C_7 
REMARK    4  A    between atoms: C_8  and  O_14 
ROOT
ATOM      1  C   UNL d   1       0.246  -1.014  -0.672  0.00  0.00     0.129 C 
ENDROOT
BRANCH   1   2
ATOM      2  C   UNL d   1       0.911   0.136   0.056  0.00  0.00     0.221 C 
ATOM      3  N   UNL d   1       1.179   0.042   1.412  0.00  0.00    -0.351 N 
ATOM      4  C   UNL d   1       1.803   1.189   2.082  0.00  0.00     0.136 C 
ATOM      5  C   UNL d   1       0.802  -1.062   2.302  0.00  0.00     0.136 C 
ATOM      6  C   UNL d   1       0.864   1.861   3.083  0.00  0.00     0.093 C 
ATOM      7  S   UNL d   1       0.367   0.710   4.413  0.00  0.00    -0.166 SA
ATOM      8  C   UNL d   1      -0.230  -0.649   3.355  0.00  0.00     0.093 C 
ATOM      9  O   UNL d   1       1.189   1.152  -0.592  0.00  0.00    -0.273 OA
ENDBRANCH   1   2
BRANCH   1  10
ATOM     10  C   UNL d   1      -1.210  -0.666  -0.942  0.00  0.00     0.185 C 
BRANCH  10  11
ATOM     11  O   UNL d   1      -1.972  -0.799   0.261  0.00  0.00    -0.351 OA
BRANCH  11  12
ATOM     12  C   UNL d   1      -3.315  -0.548   0.147  0.00  0.00     0.069 A 
ATOM     13  C   UNL d   1      -4.099  -1.020   1.205  0.00  0.00     0.040 A 
ATOM     14  C   UNL d   1      -5.485  -0.843   1.193  0.00  0.00     0.045 A 
ATOM     15  C   UNL d   1      -6.080  -0.179   0.128  0.00  0.00     0.116 A 
ATOM     16  C   UNL d   1      -5.314   0.318  -0.918  0.00  0.00     0.045 A 
ATOM     17  F   UNL d   1      -7.409  -0.013   0.108  0.00  0.00    -0.206 F 
ATOM     18  C   UNL d   1      -3.928   0.136  -0.908  0.00  0.00     0.040 A 
ENDBRANCH  11  12
ENDBRANCH  10  11
ENDBRANCH   1  10
TORSDOF 4
