REMARK  4 active torsions:
REMARK  status: ('A' for Active; 'I' for Inactive)
REMARK       I    between atoms: N_2  and  C_1 
REMARK    1  A    between atoms: C_3  and  C_1 
REMARK    2  A    between atoms: C_16  and  N_2 
REMARK    3  A    between atoms: C_4  and  C_6 
REMARK    4  A    between atoms: C_15  and  C_16 
ROOT
ATOM      1  C   UNL d   1       0.340   0.839   0.540  0.00  0.00     0.078 C 
ATOM      2  C   UNL d   1      -1.216   2.285  -1.613  0.00  0.00     0.018 C 
ATOM      3  C   UNL d   1      -1.144   0.559   0.267  0.00  0.00     0.015 C 
ATOM      4  C   UNL d   1       0.708   2.268   0.116  0.00  0.00     0.015 C 
ATOM      5  C   UNL d   1      -1.515   0.833  -1.190  0.00  0.00     0.010 C 
ATOM      6  C   UNL d   1       0.264   2.612  -1.315  0.00  0.00     0.010 C 
ENDROOT
BRANCH   1   7
ATOM      7  C   UNL d   1       1.266  -0.181  -0.124  0.00  0.00     0.222 C 
ATOM      8  N   UNL d   1       1.048  -1.488   0.237  0.00  0.00    -0.356 N 
ATOM      9  H   UNL d   1       0.364  -1.710   0.948  0.00  0.00     0.162 HD
ATOM     10  O   UNL d   1       2.162   0.140  -0.903  0.00  0.00    -0.273 OA
BRANCH   8  11
ATOM     11  C   UNL d   1       1.850  -2.563  -0.302  0.00  0.00     0.162 C 
BRANCH  11  12
ATOM     12  C   UNL d   1       2.642  -3.248   0.770  0.00  0.00    -0.025 A 
ATOM     13  C   UNL d   1       2.463  -4.601   1.042  0.00  0.00     0.096 A 
ATOM     14  N   UNL d   1       3.151  -5.283   1.984  0.00  0.00    -0.375 N 
ATOM     15  C   UNL d   1       4.074  -4.588   2.684  0.00  0.00     0.087 A 
ATOM     16  HN  UNL d   1       2.982  -6.274   2.158  1.00  0.00     0.164 HD
ATOM     17  C   UNL d   1       4.338  -3.245   2.487  0.00  0.00     0.018 A 
ATOM     18  C   UNL d   1       3.611  -2.567   1.512  0.00  0.00     0.011 A 
ENDBRANCH  11  12
ENDBRANCH   8  11
ENDBRANCH   1   7
BRANCH   2  19
ATOM     19  C   UNL d   1      -2.240   3.292  -1.087  0.00  0.00    -0.054 A 
ATOM     20  C   UNL d   1      -1.884   4.419  -0.331  0.00  0.00     0.009 A 
ATOM     21  C   UNL d   1      -2.835   5.364   0.062  0.00  0.00     0.024 A 
ATOM     22  C   UNL d   1      -4.163   5.204  -0.310  0.00  0.00     0.034 A 
ATOM     23  C   UNL d   1      -4.550   4.093  -1.051  0.00  0.00     0.024 A 
ATOM     24 CL   UNL d   1      -5.321   6.397   0.130  0.00  0.00    -0.084 Cl
ATOM     25  C   UNL d   1      -3.596   3.145  -1.437  0.00  0.00     0.009 A 
ENDBRANCH   2  19
TORSDOF 4
