REMARK  4 active torsions:
REMARK  status: ('A' for Active; 'I' for Inactive)
REMARK    1  A    between atoms: C_3  and  C_1 
REMARK       I    between atoms: N_10  and  C_3 
REMARK    2  A    between atoms: C_19  and  N_10 
REMARK    3  A    between atoms: O_18  and  C_14 
REMARK    4  A    between atoms: C_22  and  O_18 
ROOT
ATOM      1  C   UNL d   1      -0.487  -4.785  -0.967  0.00  0.00     0.258 C 
ATOM      2  N   UNL d   1      -0.182  -3.712  -0.147  0.00  0.00    -0.322 N 
ATOM      3  O   UNL d   1       0.338  -5.493  -1.537  0.00  0.00    -0.267 OA
ATOM      4  H   UNL d   1      -0.950  -3.268   0.353  0.00  0.00     0.169 HD
ENDROOT
BRANCH   2   5
ATOM      5  C   UNL d   1       1.113  -3.173   0.044  0.00  0.00     0.050 A 
ATOM      6  C   UNL d   1       2.237  -3.547  -0.689  0.00  0.00     0.119 A 
ATOM      7  N   UNL d   1       3.471  -3.009  -0.532  0.00  0.00    -0.344 N 
ATOM      8  C   UNL d   1       3.610  -2.061   0.416  0.00  0.00     0.148 A 
ATOM      9  HN  UNL d   1       4.260  -3.307  -1.106  1.00  0.00     0.167 HD
ATOM     10  C   UNL d   1       2.554  -1.607   1.194  0.00  0.00     0.059 A 
ATOM     11  C   UNL d   1       1.289  -2.173   1.003  0.00  0.00     0.035 A 
BRANCH   8  12
ATOM     12  O   UNL d   1       4.846  -1.456   0.612  0.00  0.00    -0.294 OA
BRANCH  12  13
ATOM     13  C   UNL d   1       5.955  -2.151   0.184  0.00  0.00     0.077 A 
ATOM     14  C   UNL d   1       6.852  -1.493  -0.658  0.00  0.00     0.037 A 
ATOM     15  C   UNL d   1       8.014  -2.144  -1.080  0.00  0.00     0.003 A 
ATOM     16  C   UNL d   1       8.284  -3.443  -0.648  0.00  0.00     0.000 A 
ATOM     17  C   UNL d   1       7.398  -4.092   0.212  0.00  0.00     0.003 A 
ATOM     18  C   UNL d   1       6.238  -3.443   0.638  0.00  0.00     0.037 A 
ENDBRANCH  12  13
ENDBRANCH   8  12
ENDBRANCH   2   5
BRANCH   1  19
ATOM     19  C   UNL d   1      -1.914  -5.116  -1.179  0.00  0.00     0.061 A 
ATOM     20  C   UNL d   1      -3.006  -4.396  -0.631  0.00  0.00     0.082 A 
ATOM     21  N   UNL d   1      -2.959  -3.330   0.193  0.00  0.00    -0.310 N 
ATOM     22  C   UNL d   1      -4.427  -4.809  -0.963  0.00  0.00     0.068 A 
ATOM     23  S   UNL d   1      -4.535  -2.892   0.497  0.00  0.00     0.068 SA
ATOM     24  HN  UNL d   1      -2.121  -2.879   0.559  1.00  0.00     0.176 HD
ATOM     25  N   UNL d   1      -5.353  -4.033  -0.382  0.00  0.00    -0.310 N 
ATOM     26  HN  UNL d   1      -6.365  -4.127  -0.465  1.00  0.00     0.176 HD
ATOM     27  C   UNL d   1      -4.696  -5.910  -1.811  0.00  0.00     0.032 A 
ATOM     28  C   UNL d   1      -3.580  -6.590  -2.319  0.00  0.00     0.003 A 
ATOM     29  C   UNL d   1      -2.253  -6.209  -2.017  0.00  0.00     0.019 A 
ENDBRANCH   1  19
TORSDOF 4
