REMARK  2 active torsions:
REMARK  status: ('A' for Active; 'I' for Inactive)
REMARK    1  A    between atoms: C_9  and  N_1 
REMARK    2  A    between atoms: C_11  and  C_6 
ROOT
ATOM      1  N   UNL d   1      -3.051   1.085  -0.070  0.00  0.00    -0.282 N 
ATOM      2  N   UNL d   1      -1.767   1.501  -0.319  0.00  0.00    -0.300 N 
ATOM      3  HN  UNL d   1      -1.471   2.398  -0.704  1.00  0.00     0.187 HD
ATOM      4  C   UNL d   1      -1.011   0.510   0.041  0.00  0.00     0.043 C 
ATOM      5  C   UNL d   1      -1.722  -0.664   0.665  0.00  0.00     0.067 C 
ATOM      6  C   UNL d   1      -3.153  -0.357   0.198  0.00  0.00     0.151 C 
ATOM      7  C   UNL d   1       0.450   0.460  -0.042  0.00  0.00    -0.005 A 
ATOM      8  C   UNL d   1      -1.087  -2.028   0.405  0.00  0.00     0.018 C 
ATOM      9  C   UNL d   1       1.031  -0.805  -0.221  0.00  0.00    -0.046 A 
ATOM     10  C   UNL d   1       0.147  -1.992  -0.501  0.00  0.00     0.040 C 
ATOM     11  C   UNL d   1       1.225   1.606   0.114  0.00  0.00     0.014 A 
ATOM     12  C   UNL d   1       2.425  -0.907  -0.228  0.00  0.00     0.008 A 
ATOM     13  C   UNL d   1       2.615   1.486   0.124  0.00  0.00     0.001 A 
ATOM     14  C   UNL d   1       3.211   0.232  -0.039  0.00  0.00     0.001 A 
ENDROOT
BRANCH   1  15
ATOM     15  C   UNL d   1      -4.146   1.923  -0.245  0.00  0.00     0.051 A 
ATOM     16  C   UNL d   1      -4.150   2.914  -1.237  0.00  0.00     0.031 A 
ATOM     17  C   UNL d   1      -5.252   3.759  -1.418  0.00  0.00     0.002 A 
ATOM     18  C   UNL d   1      -6.358   3.651  -0.580  0.00  0.00     0.000 A 
ATOM     19  C   UNL d   1      -6.370   2.691   0.426  0.00  0.00     0.002 A 
ATOM     20  C   UNL d   1      -5.278   1.829   0.579  0.00  0.00     0.031 A 
ENDBRANCH   1  15
BRANCH   6  21
ATOM     21  C   UNL d   1      -3.639  -1.114  -1.032  0.00  0.00    -0.033 A 
ATOM     22  C   UNL d   1      -4.788  -1.918  -0.941  0.00  0.00     0.009 A 
ATOM     23  C   UNL d   1      -5.241  -2.646  -2.044  0.00  0.00     0.001 A 
ATOM     24  C   UNL d   1      -4.554  -2.583  -3.253  0.00  0.00     0.000 A 
ATOM     25  C   UNL d   1      -3.426  -1.776  -3.368  0.00  0.00     0.001 A 
ATOM     26  C   UNL d   1      -2.978  -1.039  -2.270  0.00  0.00     0.009 A 
ENDBRANCH   6  21
TORSDOF 2
