REMARK  5 active torsions:
REMARK  status: ('A' for Active; 'I' for Inactive)
REMARK    1  A    between atoms: N_4  and  C_1 
REMARK    2  A    between atoms: C_8  and  C_2 
REMARK    3  A    between atoms: C_10  and  C_3 
REMARK    4  A    between atoms: N_9  and  C_8 
REMARK    5  A    between atoms: O_18  and  C_15 
ROOT
ATOM      1  C   UNL d   1      -0.098  -1.008   0.128  0.00  0.00     0.143 A 
ATOM      2  C   UNL d   1       0.747   0.150   0.029  0.00  0.00     0.081 A 
ATOM      3  C   UNL d   1      -1.390  -0.722   0.336  0.00  0.00     0.025 A 
ATOM      4  N   UNL d   1      -0.079   1.245   0.154  0.00  0.00    -0.362 N 
ATOM      5  HN  UNL d   1       0.185   2.230   0.121  1.00  0.00     0.165 HD
ATOM      6  C   UNL d   1      -1.265   0.750   0.324  0.00  0.00     0.103 A 
ENDROOT
BRANCH   3   7
ATOM      7  C   UNL d   1      -2.631  -1.460   0.548  0.00  0.00    -0.022 A 
ATOM      8  C   UNL d   1      -3.651  -0.878   1.319  0.00  0.00     0.015 A 
ATOM      9  C   UNL d   1      -4.869  -1.533   1.532  0.00  0.00     0.037 A 
ATOM     10  C   UNL d   1      -5.085  -2.794   0.988  0.00  0.00     0.068 A 
ATOM     11  C   UNL d   1      -4.092  -3.374   0.199  0.00  0.00     0.037 A 
ATOM     12  C   UNL d   1      -2.874  -2.717  -0.018  0.00  0.00     0.015 A 
BRANCH  10  13
ATOM     13  O   UNL d   1      -6.232  -3.522   1.129  0.00  0.00    -0.356 OA
ATOM     14  C   UNL d   1      -6.959  -3.285   2.331  0.00  0.00     0.210 C 
ENDBRANCH  10  13
ENDBRANCH   3   7
BRANCH   1  15
ATOM     15  N   UNL d   1       0.366  -2.353   0.056  0.00  0.00    -0.112 N 
ATOM     16  O   UNL d   1       0.493  -2.840  -1.075  0.00  0.00    -0.532 OA
ATOM     17  O   UNL d   1       0.605  -2.929   1.123  0.00  0.00    -0.532 OA
ENDBRANCH   1  15
BRANCH   2  18
ATOM     18  C   UNL d   1       2.084   0.197  -0.110  0.00  0.00     0.117 C 
BRANCH  18  19
ATOM     19  N   UNL d   1       2.961   1.281  -0.199  0.00  0.00    -0.388 N 
ATOM     20  C   UNL d   1       4.415   1.071  -0.298  0.00  0.00     0.122 C 
ATOM     21  C   UNL d   1       5.154   2.123   0.527  0.00  0.00     0.020 C 
ATOM     22  C   UNL d   1       4.753   3.537   0.118  0.00  0.00     0.003 C 
ATOM     23  C   UNL d   1       3.239   3.702   0.165  0.00  0.00     0.020 C 
ATOM     24  C   UNL d   1       2.536   2.620  -0.649  0.00  0.00     0.122 C 
ENDBRANCH  18  19
ENDBRANCH   2  18
TORSDOF 5
