REMARK  2 active torsions:
REMARK  status: ('A' for Active; 'I' for Inactive)
REMARK    1  A    between atoms: C_6  and  C_1 
REMARK    2  A    between atoms: C_13  and  N_9 
ROOT
ATOM      1  C   UNL d   1      -2.641  -2.804  -2.386  0.00  0.00     0.177 A 
ATOM      2  S   UNL d   1      -2.323  -2.513  -0.719  0.00  0.00    -0.029 SA
ATOM      3  N   UNL d   1      -1.550  -2.975  -3.105  0.00  0.00    -0.288 N 
ATOM      4  HN  UNL d   1      -1.552  -3.127  -4.113  1.00  0.00     0.187 HD
ATOM      5  C   UNL d   1      -0.642  -2.731  -1.057  0.00  0.00     0.166 A 
ATOM      6  N   UNL d   1      -0.409  -2.925  -2.339  0.00  0.00    -0.279 N 
ATOM      7  HN  UNL d   1       0.529  -3.029  -2.726  1.00  0.00     0.189 HD
ATOM      8  N   UNL d   1       0.260  -2.674  -0.046  0.00  0.00    -0.336 N 
ATOM      9  H   UNL d   1      -0.087  -2.430   0.872  0.00  0.00     0.168 HD
ENDROOT
BRANCH   8  10
ATOM     10  C   UNL d   1       1.578  -3.172  -0.045  0.00  0.00     0.034 A 
ATOM     11  C   UNL d   1       2.116  -3.952  -1.079  0.00  0.00     0.031 A 
ATOM     12  C   UNL d   1       3.444  -4.394  -1.042  0.00  0.00     0.026 A 
ATOM     13  C   UNL d   1       4.260  -4.041   0.026  0.00  0.00     0.034 A 
ATOM     14  C   UNL d   1       3.761  -3.248   1.054  0.00  0.00     0.026 A 
ATOM     15 CL   UNL d   1       5.892  -4.583   0.074  0.00  0.00    -0.084 Cl
ATOM     16  C   UNL d   1       2.430  -2.814   1.014  0.00  0.00     0.031 A 
ENDBRANCH   8  10
BRANCH   1  17
ATOM     17  C   UNL d   1      -4.034  -2.858  -2.914  0.00  0.00     0.440 C 
ATOM     18  F   UNL d   1      -4.983  -2.731  -1.946  0.00  0.00    -0.164 F 
ATOM     19  F   UNL d   1      -4.279  -1.872  -3.818  0.00  0.00    -0.164 F 
ATOM     20  F   UNL d   1      -4.295  -4.037  -3.543  0.00  0.00    -0.164 F 
ENDBRANCH   1  17
TORSDOF 2
