REMARK  2 active torsions:
REMARK  status: ('A' for Active; 'I' for Inactive)
REMARK       I    between atoms: N_2  and  C_1 
REMARK       I    between atoms: N_4  and  C_1 
REMARK    1  A    between atoms: C_9  and  N_4 
REMARK    2  A    between atoms: C_6  and  C_7 
ROOT
ATOM      1  C   UNL d   1       0.889   0.087  -0.006  0.00  0.00     0.327 C 
ATOM      2  N   UNL d   1       2.266  -0.097   0.238  0.00  0.00    -0.299 N 
ATOM      3  C   UNL d   1       3.119   1.053   0.455  0.00  0.00     0.045 A 
ATOM      4  N   UNL d   1       0.148  -1.064  -0.213  0.00  0.00    -0.309 N 
ATOM      5  O   UNL d   1       0.377   1.205  -0.085  0.00  0.00    -0.246 OA
ATOM      6  C   UNL d   1       4.474   1.010   0.064  0.00  0.00    -0.031 A 
ATOM      7  C   UNL d   1       3.002  -1.369   0.139  0.00  0.00     0.134 C 
ATOM      8  C   UNL d   1       2.639   2.232   1.048  0.00  0.00     0.030 A 
ATOM      9  C   UNL d   1       4.083  -1.280  -0.923  0.00  0.00     0.025 C 
ATOM     10  C   UNL d   1       5.103  -0.225  -0.528  0.00  0.00     0.042 C 
ATOM     11  C   UNL d   1       5.286   2.147   0.227  0.00  0.00     0.009 A 
ATOM     12  C   UNL d   1       3.453   3.356   1.202  0.00  0.00     0.002 A 
ATOM     13  C   UNL d   1       4.775   3.318   0.780  0.00  0.00     0.001 A 
ATOM     14  H   UNL d   1       0.620  -1.946  -0.213  0.00  0.00     0.170 HD
ENDROOT
BRANCH   4  15
ATOM     15  C   UNL d   1      -1.222  -1.137  -0.567  0.00  0.00     0.036 A 
ATOM     16  C   UNL d   1      -2.090  -0.049  -0.588  0.00  0.00     0.030 A 
ATOM     17  C   UNL d   1      -3.412  -0.194  -1.021  0.00  0.00     0.010 A 
ATOM     18  C   UNL d   1      -3.917  -1.431  -1.450  0.00  0.00    -0.051 A 
ATOM     19  C   UNL d   1      -3.049  -2.530  -1.381  0.00  0.00     0.010 A 
ATOM     20  C   UNL d   1      -1.724  -2.386  -0.943  0.00  0.00     0.030 A 
BRANCH  18  21
ATOM     21  C   UNL d   1      -5.354  -1.527  -1.988  0.00  0.00    -0.024 C 
ATOM     22  C   UNL d   1      -5.748  -2.947  -2.449  0.00  0.00     0.019 C 
ATOM     23  C   UNL d   1      -6.354  -1.100  -0.893  0.00  0.00     0.019 C 
ATOM     24  C   UNL d   1      -5.510  -0.591  -3.208  0.00  0.00     0.019 C 
ENDBRANCH  18  21
ENDBRANCH   4  15
TORSDOF 2
