REMARK  5 active torsions:
REMARK  status: ('A' for Active; 'I' for Inactive)
REMARK    1  A    between atoms: C_4  and  C_1 
REMARK    2  A    between atoms: C_2  and  C_3 
REMARK       I    between atoms: N_7  and  C_4 
REMARK    3  A    between atoms: O_20  and  C_5 
REMARK    4  A    between atoms: C_12  and  N_7 
REMARK    5  A    between atoms: C_8  and  C_12 
ROOT
ATOM      1  C   UNL d   1       0.421   1.401   0.237  0.00  0.00     0.098 A 
ATOM      2  C   UNL d   1      -0.917   1.110  -0.049  0.00  0.00     0.069 A 
ATOM      3  C   UNL d   1       1.209   0.403   0.803  0.00  0.00     0.158 A 
ATOM      4  N   UNL d   1       0.775  -0.861   1.027  0.00  0.00    -0.346 N 
ATOM      5  HN  UNL d   1       1.382  -1.565   1.447  1.00  0.00     0.167 HD
ATOM      6  C   UNL d   1      -0.492  -1.146   0.672  0.00  0.00     0.091 A 
ATOM      7  C   UNL d   1      -1.370  -0.205   0.161  0.00  0.00     0.034 A 
ENDROOT
BRANCH   1   8
ATOM      8  C   UNL d   1       1.035   2.654  -0.193  0.00  0.00     0.257 C 
ATOM      9  N   UNL d   1       1.003   3.705   0.701  0.00  0.00    -0.352 N 
ATOM     10  H   UNL d   1       0.451   3.614   1.544  0.00  0.00     0.163 HD
ATOM     11  O   UNL d   1       1.448   2.726  -1.342  0.00  0.00    -0.267 OA
BRANCH   9  12
ATOM     12  C   UNL d   1       1.211   5.048   0.202  0.00  0.00     0.163 C 
BRANCH  12  13
ATOM     13  C   UNL d   1       1.816   5.977   1.223  0.00  0.00    -0.019 A 
ATOM     14  C   UNL d   1       1.172   6.326   2.421  0.00  0.00     0.043 A 
ATOM     15  C   UNL d   1       1.754   7.240   3.305  0.00  0.00     0.048 A 
ATOM     16 CL   UNL d   1      -0.362   5.658   2.855  0.00  0.00    -0.084 Cl
ATOM     17  C   UNL d   1       2.981   7.818   2.994  0.00  0.00     0.035 A 
ATOM     18  C   UNL d   1       3.639   7.487   1.814  0.00  0.00     0.024 A 
ATOM     19 CL   UNL d   1       3.688   8.958   4.072  0.00  0.00    -0.084 Cl
ATOM     20  C   UNL d   1       3.061   6.569   0.936  0.00  0.00     0.012 A 
ENDBRANCH  12  13
ENDBRANCH   9  12
ENDBRANCH   1   8
BRANCH   2  21
ATOM     21  C   UNL d   1      -1.887   2.130  -0.577  0.00  0.00     0.418 C 
ATOM     22  F   UNL d   1      -1.469   3.420  -0.522  0.00  0.00    -0.166 F 
ATOM     23  F   UNL d   1      -2.250   1.894  -1.864  0.00  0.00    -0.166 F 
ATOM     24  F   UNL d   1      -3.049   2.111   0.142  0.00  0.00    -0.166 F 
ENDBRANCH   2  21
BRANCH   3  25
ATOM     25  O   UNL d   1       2.510   0.658   1.155  0.00  0.00    -0.340 OA
ATOM     26  C   UNL d   1       2.593   0.742   2.577  0.00  0.00     0.211 C 
ENDBRANCH   3  25
TORSDOF 5
