REMARK  3 active torsions:
REMARK  status: ('A' for Active; 'I' for Inactive)
REMARK    1  A    between atoms: C_11  and  C_3 
REMARK    2  A    between atoms: C_9  and  C_6 
REMARK    3  A    between atoms: C_12  and  C_9 
ROOT
ATOM      1  N   UNL d   1      -0.679   1.134  -0.070  0.00  0.00    -0.339 N 
ATOM      2  HN  UNL d   1      -1.207   2.005  -0.125  1.00  0.00     0.167 HD
ATOM      3  C   UNL d   1      -1.321  -0.083  -0.028  0.00  0.00     0.130 A 
ATOM      4  N   UNL d   1      -0.713  -1.233   0.024  0.00  0.00    -0.282 N 
ATOM      5  HN  UNL d   1      -1.249  -2.101   0.049  1.00  0.00     0.188 HD
ATOM      6  C   UNL d   1       0.618   1.140  -0.038  0.00  0.00     0.085 A 
ATOM      7  C   UNL d   1       1.421  -0.138   0.020  0.00  0.00     0.282 A 
ATOM      8  N   UNL d   1       0.644  -1.260   0.043  0.00  0.00    -0.263 N 
ATOM      9  O   UNL d   1       2.640  -0.129   0.026  0.00  0.00    -0.265 OA
ATOM     10  H   UNL d   1       1.092  -2.167   0.086  0.00  0.00     0.190 HD
ENDROOT
BRANCH   6  11
ATOM     11  C   UNL d   1       1.390   2.438  -0.023  0.00  0.00     0.101 C 
BRANCH  11  12
ATOM     12  C   UNL d   1       1.617   2.938   1.385  0.00  0.00    -0.052 A 
ATOM     13  C   UNL d   1       2.751   2.534   2.105  0.00  0.00     0.009 A 
ATOM     14  C   UNL d   1       2.930   2.937   3.430  0.00  0.00     0.024 A 
ATOM     15  C   UNL d   1       1.978   3.748   4.041  0.00  0.00     0.034 A 
ATOM     16  C   UNL d   1       0.854   4.171   3.334  0.00  0.00     0.024 A 
ATOM     17 CL   UNL d   1       2.183   4.218   5.684  0.00  0.00    -0.084 Cl
ATOM     18  C   UNL d   1       0.672   3.764   2.010  0.00  0.00     0.009 A 
ENDBRANCH  11  12
ENDBRANCH   6  11
BRANCH   3  19
ATOM     19  C   UNL d   1      -2.815  -0.038  -0.029  0.00  0.00     0.009 A 
ATOM     20  C   UNL d   1      -3.495   1.185  -0.101  0.00  0.00     0.015 A 
ATOM     21  C   UNL d   1      -4.891   1.215  -0.098  0.00  0.00     0.001 A 
ATOM     22  C   UNL d   1      -5.615   0.026  -0.018  0.00  0.00     0.000 A 
ATOM     23  C   UNL d   1      -4.946  -1.196   0.059  0.00  0.00     0.001 A 
ATOM     24  C   UNL d   1      -3.551  -1.229   0.053  0.00  0.00     0.015 A 
ENDBRANCH   3  19
TORSDOF 3
