REMARK  4 active torsions:
REMARK  status: ('A' for Active; 'I' for Inactive)
REMARK    1  A    between atoms: C_3  and  C_1 
REMARK    2  A    between atoms: C_6  and  C_2 
REMARK    3  A    between atoms: C_12  and  C_5 
REMARK    4  A    between atoms: O_19  and  C_6 
ROOT
ATOM      1  C   UNL d   1       6.424   1.631  -2.022  0.00  0.00     0.127 C 
ATOM      2  N   UNL d   1       5.521  -0.770  -2.339  0.00  0.00    -0.191 NA
ATOM      3  N   UNL d   1       8.591   2.278  -3.273  0.00  0.00    -0.191 NA
ATOM      4  C   UNL d   1       5.871   2.559  -1.219  0.00  0.00     0.071 C 
ATOM      5  C   UNL d   1       5.909   0.316  -2.192  0.00  0.00     0.111 C 
ATOM      6  C   UNL d   1       7.618   1.970  -2.721  0.00  0.00     0.111 C 
ENDROOT
BRANCH   4   7
ATOM      7  C   UNL d   1       4.676   2.377  -0.469  0.00  0.00     0.078 A 
ATOM      8  O   UNL d   1       3.710   1.440  -0.745  0.00  0.00    -0.310 OA
ATOM      9  C   UNL d   1       2.649   1.622   0.099  0.00  0.00     0.088 A 
ATOM     10  C   UNL d   1       2.970   2.614   0.998  0.00  0.00     0.041 A 
ATOM     11  C   UNL d   1       4.245   3.104   0.630  0.00  0.00     0.040 A 
BRANCH   9  12
ATOM     12  C   UNL d   1       1.392   0.808   0.028  0.00  0.00     0.021 A 
ATOM     13  C   UNL d   1       0.151   1.171   0.532  0.00  0.00     0.093 A 
ATOM     14  S   UNL d   1      -0.991  -0.105   0.322  0.00  0.00    -0.095 SA
ATOM     15  C   UNL d   1       0.134  -1.083  -0.506  0.00  0.00     0.051 A 
ATOM     16  C   UNL d   1       1.361  -0.471  -0.616  0.00  0.00     0.023 A 
BRANCH  13  17
ATOM     17  C   UNL d   1      -0.291   2.445   1.077  0.00  0.00     0.300 C 
ATOM     18  O   UNL d   1       0.188   3.540   0.806  0.00  0.00    -0.259 OA
BRANCH  17  19
ATOM     19  O   UNL d   1      -1.313   2.277   1.969  0.00  0.00    -0.322 OA
ATOM     20  C   UNL d   1      -1.774   3.494   2.556  0.00  0.00     0.213 C 
ENDBRANCH  17  19
ENDBRANCH  13  17
ENDBRANCH   9  12
ENDBRANCH   4   7
TORSDOF 4
