REMARK  8 active torsions:
REMARK  status: ('A' for Active; 'I' for Inactive)
REMARK    1  A    between atoms: C_2  and  C_1 
REMARK       I    between atoms: N_6  and  C_2 
REMARK    2  A    between atoms: O_16  and  C_3 
REMARK    3  A    between atoms: O_18  and  C_4 
REMARK    4  A    between atoms: O_19  and  C_5 
REMARK    5  A    between atoms: N_8  and  N_6 
REMARK       I    between atoms: C_7  and  N_8 
REMARK    6  A    between atoms: C_17  and  C_7 
REMARK    7  A    between atoms: C_13  and  C_22 
REMARK    8  A    between atoms: C_22  and  C_17 
ROOT
ATOM      1  C   UNL d   1       3.739   3.258   0.298  0.00  0.00     0.236 C 
ATOM      2  N   UNL d   1       2.627   2.575   0.750  0.00  0.00    -0.267 N 
ATOM      3  O   UNL d   1       3.726   4.463   0.056  0.00  0.00    -0.272 OA
ATOM      4  H   UNL d   1       2.553   1.558   0.738  0.00  0.00     0.190 HD
ENDROOT
BRANCH   1   5
ATOM      5  C   UNL d   1       4.958   2.377   0.135  0.00  0.00     0.109 C 
BRANCH   5   6
ATOM      6  C   UNL d   1       6.237   3.210   0.093  0.00  0.00     0.048 C 
BRANCH   6   7
ATOM      7  C   UNL d   1       7.469   2.342   0.022  0.00  0.00    -0.052 A 
ATOM      8  C   UNL d   1       8.021   1.991  -1.212  0.00  0.00     0.047 A 
ATOM      9  C   UNL d   1       9.151   1.165  -1.295  0.00  0.00     0.104 A 
ATOM     10  C   UNL d   1       9.760   0.693  -0.119  0.00  0.00     0.135 A 
ATOM     11  C   UNL d   1       9.254   1.108   1.133  0.00  0.00     0.104 A 
ATOM     12  C   UNL d   1       8.088   1.885   1.191  0.00  0.00     0.047 A 
BRANCH   9  13
ATOM     13  O   UNL d   1       9.581   0.984  -2.585  0.00  0.00    -0.353 OA
ATOM     14  C   UNL d   1      10.142  -0.282  -2.899  0.00  0.00     0.210 C 
ENDBRANCH   9  13
BRANCH  10  15
ATOM     15  O   UNL d   1      10.936  -0.010  -0.219  0.00  0.00    -0.351 OA
ATOM     16  C   UNL d   1      10.940  -1.273   0.447  0.00  0.00     0.210 C 
ENDBRANCH  10  15
BRANCH  11  17
ATOM     17  O   UNL d   1       9.964   0.744   2.252  0.00  0.00    -0.353 OA
ATOM     18  C   UNL d   1       9.749   1.516   3.428  0.00  0.00     0.210 C 
ENDBRANCH  11  17
ENDBRANCH   6   7
ENDBRANCH   5   6
ENDBRANCH   1   5
BRANCH   2  19
ATOM     19  N   UNL d   1       1.424   3.277   0.878  0.00  0.00    -0.263 N 
ATOM     20  C   UNL d   1       0.244   2.570   0.850  0.00  0.00     0.273 C 
ATOM     21  O   UNL d   1       0.291   1.345   0.757  0.00  0.00    -0.266 OA
ATOM     22  H   UNL d   1       1.494   4.294   0.867  0.00  0.00     0.190 HD
BRANCH  20  23
ATOM     23  C   UNL d   1      -1.067   3.327   0.947  0.00  0.00     0.077 A 
ATOM     24  C   UNL d   1      -1.154   4.737   1.032  0.00  0.00     0.051 A 
ATOM     25 CL   UNL d   1       0.192   5.830   1.022  0.00  0.00    -0.083 Cl
ATOM     26  C   UNL d   1      -2.398   5.391   1.133  0.00  0.00     0.025 A 
ATOM     27  C   UNL d   1      -3.581   4.670   1.157  0.00  0.00     0.003 A 
ATOM     28  C   UNL d   1      -3.529   3.288   1.069  0.00  0.00     0.025 A 
ATOM     29  C   UNL d   1      -2.294   2.617   0.966  0.00  0.00     0.051 A 
ATOM     30 CL   UNL d   1      -2.453   0.891   0.872  0.00  0.00    -0.083 Cl
ENDBRANCH  20  23
ENDBRANCH   2  19
TORSDOF 8
