REMARK  4 active torsions:
REMARK  status: ('A' for Active; 'I' for Inactive)
REMARK    1  A    between atoms: C_15  and  N_3 
REMARK    2  A    between atoms: C_10  and  C_4 
REMARK       I    between atoms: C_8  and  N_9 
REMARK    3  A    between atoms: C_11  and  C_8 
REMARK       I    between atoms: N_9  and  C_12 
REMARK       I    between atoms: N_13  and  C_10 
REMARK       I    between atoms: C_12  and  N_14 
REMARK    4  A    between atoms: N_14  and  N_13 
ROOT
ATOM      1  C   UNL d   1      -2.175   0.290  -1.259  0.00  0.00     0.290 C 
ATOM      2  N   UNL d   1      -2.957   1.429  -1.228  0.00  0.00    -0.261 N 
ATOM      3  O   UNL d   1      -2.517  -0.740  -1.837  0.00  0.00    -0.264 OA
ATOM      4  H   UNL d   1      -2.632   2.279  -0.767  0.00  0.00     0.190 HD
ENDROOT
BRANCH   2   5
ATOM      5  N   UNL d   1      -4.207   1.447  -1.861  0.00  0.00    -0.248 N 
ATOM      6  C   UNL d   1      -4.899   2.622  -1.947  0.00  0.00     0.341 C 
ATOM      7  N   UNL d   1      -6.163   2.567  -2.491  0.00  0.00    -0.274 N 
ATOM      8  O   UNL d   1      -4.458   3.695  -1.536  0.00  0.00    -0.245 OA
ATOM      9  C   UNL d   1      -6.923   1.446  -2.773  0.00  0.00     0.261 C 
ATOM     10  H   UNL d   1      -6.619   3.468  -2.461  0.00  0.00     0.173 HD
ATOM     11  O   UNL d   1      -6.433   0.320  -2.840  0.00  0.00    -0.267 OA
ATOM     12  H   UNL d   1      -4.604   0.565  -2.196  0.00  0.00     0.192 HD
BRANCH   9  13
ATOM     13  C   UNL d   1      -8.377   1.635  -3.081  0.00  0.00     0.054 A 
ATOM     14  C   UNL d   1      -9.175   2.714  -2.663  0.00  0.00     0.049 A 
ATOM     15 CL   UNL d   1      -8.589   4.036  -1.716  0.00  0.00    -0.083 Cl
ATOM     16  C   UNL d   1     -10.541   2.752  -2.986  0.00  0.00     0.025 A 
ATOM     17  C   UNL d   1     -11.129   1.722  -3.720  0.00  0.00     0.002 A 
ATOM     18  C   UNL d   1     -10.353   0.648  -4.143  0.00  0.00     0.001 A 
ATOM     19  C   UNL d   1      -8.991   0.606  -3.824  0.00  0.00     0.019 A 
ENDBRANCH   9  13
ENDBRANCH   2   5
BRANCH   1  20
ATOM     20  C   UNL d   1      -0.905   0.411  -0.534  0.00  0.00     0.143 C 
ATOM     21  N   UNL d   1      -0.588   1.474   0.236  0.00  0.00    -0.272 N 
ATOM     22  N   UNL d   1       0.602   1.092   0.785  0.00  0.00    -0.196 N 
ATOM     23  HN  UNL d   1      -1.106   2.342   0.373  1.00  0.00     0.189 HD
ATOM     24  N   UNL d   1       1.139  -0.051   0.292  0.00  0.00    -0.281 N 
ATOM     25  C   UNL d   1       0.151  -0.532  -0.469  0.00  0.00     0.057 C 
ATOM     26  HN  UNL d   1       2.065  -0.445   0.459  1.00  0.00     0.189 HD
ATOM     27  C   UNL d   1       0.260  -1.890  -1.046  0.00  0.00     0.072 C 
BRANCH  22  28
ATOM     28  C   UNL d   1       1.184   1.745   1.904  0.00  0.00     0.074 A 
ATOM     29  C   UNL d   1       0.505   2.784   2.554  0.00  0.00     0.033 A 
ATOM     30  C   UNL d   1       1.029   3.323   3.732  0.00  0.00     0.002 A 
ATOM     31  C   UNL d   1       2.235   2.846   4.250  0.00  0.00     0.000 A 
ATOM     32  C   UNL d   1       2.932   1.839   3.586  0.00  0.00     0.002 A 
ATOM     33  C   UNL d   1       2.410   1.288   2.415  0.00  0.00     0.033 A 
ENDBRANCH  22  28
ENDBRANCH   1  20
TORSDOF 4
