REMARK  3 active torsions:
REMARK  status: ('A' for Active; 'I' for Inactive)
REMARK    1  A    between atoms: C_11  and  N_5 
REMARK    2  A    between atoms: N_12  and  C_7 
REMARK    3  A    between atoms: C_13  and  C_11 
ROOT
ATOM      1  C   UNL d   1      -0.339  -0.812  -0.041  0.00  0.00     0.146 A 
ATOM      2  C   UNL d   1      -0.587   0.526  -0.038  0.00  0.00     0.151 A 
ATOM      3  N   UNL d   1      -1.480  -1.540  -0.007  0.00  0.00    -0.316 N 
ATOM      4  HN  UNL d   1      -1.563  -2.557  -0.031  1.00  0.00     0.170 HD
ATOM      5  N   UNL d   1      -1.957   0.636   0.032  0.00  0.00    -0.311 N 
ATOM      6  N   UNL d   1       0.935  -1.318  -0.044  0.00  0.00    -0.287 N 
ATOM      7  C   UNL d   1      -2.462  -0.663   0.065  0.00  0.00     0.164 A 
ATOM      8  N   UNL d   1       1.738   0.932  -0.053  0.00  0.00    -0.269 N 
ATOM      9  C   UNL d   1       2.024  -0.445  -0.030  0.00  0.00     0.332 A 
ATOM     10  C   UNL d   1       0.455   1.500  -0.061  0.00  0.00     0.282 A 
ATOM     11  O   UNL d   1       3.182  -0.870   0.010  0.00  0.00    -0.246 OA
ATOM     12  O   UNL d   1       0.251   2.706  -0.062  0.00  0.00    -0.265 OA
ATOM     13  C   UNL d   1       1.187  -2.745  -0.004  0.00  0.00     0.163 C 
ATOM     14  C   UNL d   1       2.850   1.860  -0.027  0.00  0.00     0.164 C 
ENDROOT
BRANCH   5  15
ATOM     15  C   UNL d   1      -2.713   1.884  -0.045  0.00  0.00     0.172 C 
BRANCH  15  16
ATOM     16  C   UNL d   1      -2.969   2.578   1.284  0.00  0.00    -0.018 A 
ATOM     17  C   UNL d   1      -3.988   3.543   1.400  0.00  0.00     0.042 A 
ATOM     18 CL   UNL d   1      -5.023   3.944   0.072  0.00  0.00    -0.084 Cl
ATOM     19  C   UNL d   1      -4.203   4.231   2.601  0.00  0.00     0.024 A 
ATOM     20  C   UNL d   1      -3.399   3.979   3.709  0.00  0.00     0.002 A 
ATOM     21  C   UNL d   1      -2.380   3.039   3.617  0.00  0.00     0.001 A 
ATOM     22  C   UNL d   1      -2.164   2.351   2.418  0.00  0.00     0.010 A 
ENDBRANCH  15  16
ENDBRANCH   5  15
BRANCH   7  23
ATOM     23  N   UNL d   1      -3.794  -0.964   0.207  0.00  0.00    -0.254 NA
ATOM     24  C   UNL d   1      -4.178  -2.279  -0.369  0.00  0.00     0.098 C 
ATOM     25  C   UNL d   1      -5.489  -2.174  -1.152  0.00  0.00     0.015 C 
ATOM     26  C   UNL d   1      -6.759  -1.909  -0.344  0.00  0.00     0.001 C 
ATOM     27  C   UNL d   1      -6.662  -0.805   0.706  0.00  0.00     0.001 C 
ATOM     28  C   UNL d   1      -5.717  -1.182   1.842  0.00  0.00     0.015 C 
ATOM     29  C   UNL d   1      -4.259  -0.798   1.603  0.00  0.00     0.098 C 
ENDBRANCH   7  23
TORSDOF 3
