REMARK  2 active torsions:
REMARK  status: ('A' for Active; 'I' for Inactive)
REMARK    1  A    between atoms: C_12  and  C_2 
REMARK    2  A    between atoms: C_13  and  C_3 
ROOT
ATOM      1  C   UNL d   1      -0.098  -0.423   0.106  0.00  0.00     0.046 C 
ATOM      2  C   UNL d   1      -2.805   0.308   0.442  0.00  0.00     0.294 C 
ATOM      3  C   UNL d   1       2.668   0.072  -0.412  0.00  0.00     0.294 C 
ATOM      4  O   UNL d   1      -1.769   1.205   0.836  0.00  0.00    -0.356 OA
ATOM      5  O   UNL d   1       2.259  -0.630   0.766  0.00  0.00    -0.356 OA
ATOM      6  O   UNL d   1      -2.403  -0.490  -0.670  0.00  0.00    -0.356 OA
ATOM      7  O   UNL d   1       1.671   1.020  -0.796  0.00  0.00    -0.356 OA
ATOM      8  C   UNL d   1      -0.588   0.502   1.229  0.00  0.00     0.187 C 
ATOM      9  C   UNL d   1       1.032  -1.326   0.597  0.00  0.00     0.187 C 
ATOM     10  C   UNL d   1      -1.280  -1.290  -0.337  0.00  0.00     0.187 C 
ATOM     11  C   UNL d   1       0.406   0.421  -1.072  0.00  0.00     0.187 C 
ENDROOT
BRANCH   2  12
ATOM     12  C   UNL d   1      -4.017   1.102   0.012  0.00  0.00    -0.004 A 
ATOM     13  C   UNL d   1      -5.272   0.862   0.593  0.00  0.00     0.012 A 
ATOM     14  C   UNL d   1      -6.398   1.575   0.174  0.00  0.00     0.001 A 
ATOM     15  C   UNL d   1      -6.283   2.532  -0.832  0.00  0.00     0.000 A 
ATOM     16  C   UNL d   1      -5.044   2.779  -1.421  0.00  0.00     0.001 A 
ATOM     17  C   UNL d   1      -3.919   2.068  -1.002  0.00  0.00     0.012 A 
ENDBRANCH   2  12
BRANCH   3  18
ATOM     18  C   UNL d   1       3.147  -0.821  -1.555  0.00  0.00    -0.004 A 
ATOM     19  C   UNL d   1       3.146  -0.347  -2.878  0.00  0.00     0.012 A 
ATOM     20  C   UNL d   1       3.546  -1.168  -3.934  0.00  0.00     0.001 A 
ATOM     21  C   UNL d   1       3.976  -2.468  -3.682  0.00  0.00     0.000 A 
ATOM     22  C   UNL d   1       4.030  -2.939  -2.372  0.00  0.00     0.001 A 
ATOM     23  C   UNL d   1       3.636  -2.116  -1.315  0.00  0.00     0.012 A 
ENDBRANCH   3  18
TORSDOF 2
