REMARK  4 active torsions:
REMARK  status: ('A' for Active; 'I' for Inactive)
REMARK    1  A    between atoms: C_7  and  C_1 
REMARK    2  A    between atoms: N_9  and  C_2 
REMARK    3  A    between atoms: C_8  and  N_3 
REMARK       I    between atoms: N_11  and  C_7 
REMARK    4  A    between atoms: C_12  and  C_8 
ROOT
ATOM      1  C   UNL d   1      -0.784  -0.609  -0.040  0.00  0.00     0.159 A 
ATOM      2  C   UNL d   1       0.188   0.058  -0.769  0.00  0.00     0.148 A 
ATOM      3  N   UNL d   1       1.016   0.574   0.201  0.00  0.00    -0.254 N 
ATOM      4  N   UNL d   1       0.596   0.236   1.440  0.00  0.00    -0.018 NA
ATOM      5  N   UNL d   1      -0.501  -0.494   1.304  0.00  0.00    -0.276 N 
ATOM      6  HN  UNL d   1      -1.044  -0.901   2.065  1.00  0.00     0.184 HD
ENDROOT
BRANCH   3   7
ATOM      7  C   UNL d   1       2.124   1.500   0.044  0.00  0.00     0.187 C 
BRANCH   7   8
ATOM      8  C   UNL d   1       3.421   0.789  -0.256  0.00  0.00    -0.039 A 
ATOM      9  C   UNL d   1       4.144   1.095  -1.419  0.00  0.00     0.009 A 
ATOM     10  C   UNL d   1       5.332   0.422  -1.711  0.00  0.00     0.001 A 
ATOM     11  C   UNL d   1       5.814  -0.555  -0.843  0.00  0.00     0.000 A 
ATOM     12  C   UNL d   1       5.123  -0.845   0.331  0.00  0.00     0.001 A 
ATOM     13  C   UNL d   1       3.938  -0.172   0.628  0.00  0.00     0.009 A 
ENDBRANCH   7   8
ENDBRANCH   3   7
BRANCH   2  14
ATOM     14  N   UNL d   1       0.370   0.259  -2.100  0.00  0.00    -0.382 N 
ATOM     15  H   UNL d   1      -0.257  -0.241  -2.736  0.00  0.00     0.157 HD
ATOM     16  H   UNL d   1       1.314   0.314  -2.482  0.00  0.00     0.157 HD
ENDBRANCH   2  14
BRANCH   1  17
ATOM     17  C   UNL d   1      -1.938  -1.335  -0.537  0.00  0.00     0.270 C 
ATOM     18  O   UNL d   1      -2.186  -1.518  -1.727  0.00  0.00    -0.266 OA
ATOM     19  N   UNL d   1      -2.771  -1.811   0.439  0.00  0.00    -0.365 N 
ATOM     20  H   UNL d   1      -2.571  -1.635   1.416  0.00  0.00     0.159 HD
ATOM     21  H   UNL d   1      -3.613  -2.297   0.172  0.00  0.00     0.159 HD
ENDBRANCH   1  17
TORSDOF 4
