REMARK  3 active torsions:
REMARK  status: ('A' for Active; 'I' for Inactive)
REMARK    1  A    between atoms: C_2  and  N_1 
REMARK    2  A    between atoms: N_4  and  C_3 
REMARK    3  A    between atoms: O_11  and  C_5 
ROOT
ATOM      1  C   UNL d   1       0.349   0.302  -1.169  0.00  0.00     0.105 A 
ATOM      2  C   UNL d   1      -1.107   0.916  -3.521  0.00  0.00     0.064 A 
ATOM      3  C   UNL d   1      -0.005   0.014  -3.555  0.00  0.00     0.097 A 
ATOM      4  C   UNL d   1       0.718  -0.279  -2.387  0.00  0.00     0.075 A 
ATOM      5  C   UNL d   1      -1.430   1.488  -2.272  0.00  0.00     0.034 A 
ATOM      6  C   UNL d   1      -0.724   1.186  -1.104  0.00  0.00     0.038 A 
ENDROOT
BRANCH   2   7
ATOM      7  N   UNL d   1      -1.883   1.210  -4.637  0.00  0.00    -0.379 N 
ATOM      8  C   UNL d   1      -3.301   1.556  -4.528  0.00  0.00     0.123 C 
ATOM      9  C   UNL d   1      -4.082   0.766  -5.580  0.00  0.00     0.020 C 
ATOM     10  C   UNL d   1      -3.509   0.963  -6.982  0.00  0.00     0.003 C 
ATOM     11  C   UNL d   1      -2.003   0.695  -7.014  0.00  0.00     0.020 C 
ATOM     12  C   UNL d   1      -1.276   1.504  -5.939  0.00  0.00     0.123 C 
ENDBRANCH   2   7
BRANCH   3  13
ATOM     13  O   UNL d   1       0.259  -0.601  -4.759  0.00  0.00    -0.354 OA
ATOM     14  C   UNL d   1       1.395  -1.449  -4.852  0.00  0.00     0.210 C 
ENDBRANCH   3  13
BRANCH   1  15
ATOM     15  N   UNL d   1       1.089  -0.035   0.054  0.00  0.00    -0.116 N 
ATOM     16  O   UNL d   1       2.050  -0.811  -0.049  0.00  0.00    -0.532 OA
ATOM     17  O   UNL d   1       0.710   0.476   1.116  0.00  0.00    -0.532 OA
ENDBRANCH   1  15
TORSDOF 3
