REMARK  2 active torsions:
REMARK  status: ('A' for Active; 'I' for Inactive)
REMARK    1  A    between atoms: C_2  and  C_1 
REMARK    2  A    between atoms: C_4  and  C_2 
ROOT
ATOM      1  C   UNL d   1      -1.648   3.141  -0.011  0.00  0.00     0.015 A 
ATOM      2  C   UNL d   1      -2.109   3.930  -1.076  0.00  0.00     0.017 A 
ATOM      3  C   UNL d   1      -2.507   2.862   1.060  0.00  0.00     0.017 A 
ATOM      4  C   UNL d   1      -4.287   4.069  -0.043  0.00  0.00     0.034 A 
ATOM      5  C   UNL d   1      -3.831   3.312   1.035  0.00  0.00     0.025 A 
ATOM      6  C   UNL d   1      -3.429   4.390  -1.093  0.00  0.00     0.025 A 
ATOM      7 CL   UNL d   1      -5.917   4.618  -0.071  0.00  0.00    -0.084 Cl
ENDROOT
BRANCH   1   8
ATOM      8  C   UNL d   1      -0.226   2.685  -0.029  0.00  0.00     0.199 C 
ATOM      9  O   UNL d   1       0.594   3.470  -0.504  0.00  0.00    -0.286 OA
BRANCH   8  10
ATOM     10  C   UNL d   1       0.170   1.392   0.518  0.00  0.00     0.055 A 
ATOM     11  S   UNL d   1      -0.868   0.027   0.539  0.00  0.00    -0.098 SA
ATOM     12  C   UNL d   1       0.315  -0.953   1.288  0.00  0.00     0.050 A 
ATOM     13  C   UNL d   1       1.505  -0.285   1.456  0.00  0.00     0.009 A 
ATOM     14  C   UNL d   1       1.428   1.060   0.992  0.00  0.00     0.023 A 
ENDBRANCH   8  10
ENDBRANCH   1   8
TORSDOF 2
