REMARK  3 active torsions:
REMARK  status: ('A' for Active; 'I' for Inactive)
REMARK    1  A    between atoms: N_8  and  C_1 
REMARK       I    between atoms: C_7  and  N_8 
REMARK       I    between atoms: N_14  and  C_7 
REMARK    2  A    between atoms: C_9  and  C_16 
REMARK    3  A    between atoms: C_16  and  N_14 
ROOT
ATOM      1  C   UNL d   1      -0.359  -3.865   0.031  0.00  0.00     0.321 C 
ATOM      2  N   UNL d   1       0.643  -2.927   0.024  0.00  0.00    -0.308 N 
ATOM      3  N   UNL d   1      -1.538  -3.354   0.530  0.00  0.00    -0.337 N 
ATOM      4  O   UNL d   1      -0.296  -5.032  -0.334  0.00  0.00    -0.247 OA
ATOM      5  H   UNL d   1       0.363  -1.997   0.296  0.00  0.00     0.170 HD
ATOM      6  H   UNL d   1      -1.750  -2.382   0.349  0.00  0.00     0.164 HD
ENDROOT
BRANCH   2   7
ATOM      7  C   UNL d   1       1.943  -3.054  -0.473  0.00  0.00     0.054 C 
ATOM      8  C   UNL d   1       2.718  -4.225  -0.863  0.00  0.00     0.008 A 
ATOM      9  C   UNL d   1       3.926  -3.852  -1.472  0.00  0.00     0.017 A 
ATOM     10  C   UNL d   1       2.493  -5.624  -0.746  0.00  0.00     0.015 A 
ATOM     11  C   UNL d   1       4.814  -4.795  -2.036  0.00  0.00     0.020 A 
ATOM     12  S   UNL d   1       4.172  -2.151  -1.416  0.00  0.00    -0.099 SA
ATOM     13  C   UNL d   1       4.511  -6.151  -1.957  0.00  0.00     0.001 A 
ATOM     14  C   UNL d   1       3.369  -6.566  -1.297  0.00  0.00     0.001 A 
ATOM     15  C   UNL d   1       2.678  -1.896  -0.650  0.00  0.00     0.081 C 
ENDBRANCH   2   7
BRANCH   3  16
ATOM     16  C   UNL d   1      -2.687  -4.233   0.571  0.00  0.00     0.183 C 
BRANCH  16  17
ATOM     17  C   UNL d   1      -3.880  -3.557   1.149  0.00  0.00     0.052 A 
ATOM     18  N   UNL d   1      -4.012  -2.221   1.157  0.00  0.00    -0.264 N 
ATOM     19  O   UNL d   1      -5.225  -1.969   1.780  0.00  0.00    -0.243 OA
ATOM     20  HN  UNL d   1      -3.357  -1.534   0.782  1.00  0.00     0.194 HD
ATOM     21  C   UNL d   1      -5.811  -3.147   2.125  0.00  0.00     0.074 A 
ATOM     22  C   UNL d   1      -5.009  -4.185   1.725  0.00  0.00     0.063 A 
ATOM     23  C   UNL d   1      -7.107  -3.069   2.820  0.00  0.00     0.079 C 
ENDBRANCH  16  17
ENDBRANCH   3  16
TORSDOF 3
