REMARK  4 active torsions:
REMARK  status: ('A' for Active; 'I' for Inactive)
REMARK    1  A    between atoms: C_2  and  N_1 
REMARK    2  A    between atoms: N_4  and  C_3 
REMARK    3  A    between atoms: C_8  and  C_12 
REMARK    4  A    between atoms: O_17  and  C_13 
ROOT
ATOM      1  N   UNL d   1      -1.255  -0.714  -2.153  0.00  0.00    -0.365 N 
ATOM      2  C   UNL d   1      -0.299   0.086  -2.916  0.00  0.00     0.125 C 
ATOM      3  C   UNL d   1      -2.612  -0.178  -1.973  0.00  0.00     0.125 C 
ATOM      4  C   UNL d   1      -2.227   1.239  -4.120  0.00  0.00     0.024 C 
ATOM      5  C   UNL d   1      -3.195   0.420  -3.254  0.00  0.00     0.029 C 
ATOM      6  C   UNL d   1      -0.888   0.506  -4.257  0.00  0.00     0.029 C 
ENDROOT
BRANCH   1   7
ATOM      7  C   UNL d   1      -0.855  -1.566  -1.128  0.00  0.00     0.136 A 
ATOM      8  C   UNL d   1       0.332  -1.530  -0.392  0.00  0.00     0.146 A 
ATOM      9  C   UNL d   1       0.657  -2.522   0.549  0.00  0.00     0.041 A 
ATOM     10  C   UNL d   1      -0.235  -3.558   0.763  0.00  0.00     0.020 A 
ATOM     11  C   UNL d   1      -1.409  -3.539   0.041  0.00  0.00     0.090 A 
ATOM     12  N   UNL d   1      -1.722  -2.584  -0.870  0.00  0.00    -0.350 N 
ATOM     13  HN  UNL d   1      -2.613  -2.629  -1.364  1.00  0.00     0.166 HD
BRANCH   8  14
ATOM     14  N   UNL d   1       1.230  -0.409  -0.449  0.00  0.00    -0.112 N 
ATOM     15  O   UNL d   1       0.847   0.654   0.060  0.00  0.00    -0.532 OA
ATOM     16  O   UNL d   1       2.347  -0.607  -0.947  0.00  0.00    -0.532 OA
ENDBRANCH   8  14
ENDBRANCH   1   7
BRANCH   4  17
ATOM     17  C   UNL d   1      -2.068   2.712  -3.735  0.00  0.00    -0.021 A 
ATOM     18  C   UNL d   1      -2.214   3.734  -4.701  0.00  0.00     0.074 A 
ATOM     19  C   UNL d   1      -1.992   5.075  -4.354  0.00  0.00     0.037 A 
ATOM     20  C   UNL d   1      -1.659   5.424  -3.047  0.00  0.00     0.003 A 
ATOM     21  C   UNL d   1      -1.541   4.436  -2.082  0.00  0.00     0.001 A 
ATOM     22  C   UNL d   1      -1.741   3.097  -2.422  0.00  0.00     0.010 A 
BRANCH  18  23
ATOM     23  O   UNL d   1      -2.536   3.346  -5.979  0.00  0.00    -0.355 OA
ATOM     24  C   UNL d   1      -3.185   4.322  -6.788  0.00  0.00     0.210 C 
ENDBRANCH  18  23
ENDBRANCH   4  17
TORSDOF 4
