REMARK  3 active torsions:
REMARK  status: ('A' for Active; 'I' for Inactive)
REMARK    1  A    between atoms: C_11  and  N_1 
REMARK    2  A    between atoms: C_7  and  N_3 
REMARK    3  A    between atoms: C_21  and  C_11 
ROOT
ATOM      1  N   UNL d   1      -0.392   1.018   0.025  0.00  0.00    -0.293 N 
ATOM      2  C   UNL d   1       0.894   0.578   0.180  0.00  0.00     0.150 C 
ATOM      3  N   UNL d   1       1.919   1.325  -0.067  0.00  0.00    -0.335 N 
ATOM      4  HN  UNL d   1       1.756   2.307  -0.288  1.00  0.00     0.168 HD
ATOM      5  C   UNL d   1      -1.364   0.046  -0.072  0.00  0.00     0.235 C 
ATOM      6  S   UNL d   1       0.873  -1.094   0.696  0.00  0.00    -0.084 SA
ATOM      7  C   UNL d   1      -0.791  -1.341   0.054  0.00  0.00     0.185 C 
ATOM      8  O   UNL d   1      -2.551   0.250  -0.327  0.00  0.00    -0.272 OA
ENDROOT
BRANCH   1   9
ATOM      9  C   UNL d   1      -0.737   2.424  -0.133  0.00  0.00     0.172 C 
BRANCH   9  10
ATOM     10  C   UNL d   1      -0.963   3.088   1.210  0.00  0.00    -0.037 A 
ATOM     11  C   UNL d   1      -2.244   3.127   1.785  0.00  0.00     0.048 A 
ATOM     12  C   UNL d   1      -2.380   3.699   3.035  0.00  0.00     0.105 A 
ATOM     13  O   UNL d   1      -3.540   3.812   3.737  0.00  0.00    -0.323 OA
ATOM     14  C   UNL d   1      -1.306   4.220   3.717  0.00  0.00     0.105 A 
ATOM     15  C   UNL d   1      -3.061   4.410   4.959  0.00  0.00     0.352 A 
ATOM     16  O   UNL d   1      -1.652   4.717   4.934  0.00  0.00    -0.323 OA
ATOM     17  C   UNL d   1      -0.037   4.207   3.185  0.00  0.00     0.040 A 
ATOM     18  C   UNL d   1       0.131   3.635   1.921  0.00  0.00     0.012 A 
ENDBRANCH   9  10
ENDBRANCH   1   9
BRANCH   3  19
ATOM     19  C   UNL d   1       3.253   0.857  -0.049  0.00  0.00     0.057 A 
ATOM     20  C   UNL d   1       3.613  -0.326  -0.713  0.00  0.00     0.057 A 
ATOM     21  C   UNL d   1       4.925  -0.808  -0.701  0.00  0.00     0.058 A 
ATOM     22 CL   UNL d   1       5.212  -2.350  -1.423  0.00  0.00    -0.082 Cl
ATOM     23  C   UNL d   1       5.934  -0.050  -0.110  0.00  0.00     0.057 A 
ATOM     24  C   UNL d   1       5.621   1.175   0.480  0.00  0.00     0.051 A 
ATOM     25 CL   UNL d   1       7.584  -0.558  -0.102  0.00  0.00    -0.082 Cl
ATOM     26  C   UNL d   1       4.291   1.618   0.519  0.00  0.00     0.062 A 
ATOM     27 CL   UNL d   1       3.989   3.151   1.259  0.00  0.00    -0.082 Cl
ENDBRANCH   3  19
TORSDOF 3
