REMARK  3 active torsions:
REMARK  status: ('A' for Active; 'I' for Inactive)
REMARK    1  A    between atoms: C_7  and  C_1 
REMARK    2  A    between atoms: C_8  and  C_7 
REMARK    3  A    between atoms: O_10  and  C_8 
ROOT
ATOM      1  C   UNL d   1       0.643  -1.420  -0.018  0.00  0.00     0.032 A 
ATOM      2  N   UNL d   1      -0.741  -1.373  -0.091  0.00  0.00    -0.356 N 
ATOM      3  HN  UNL d   1      -1.350  -2.188  -0.165  1.00  0.00     0.166 HD
ATOM      4  S   UNL d   1       0.086   1.060  -0.018  0.00  0.00    -0.080 SA
ATOM      5  C   UNL d   1       1.266  -0.182  -0.008  0.00  0.00     0.004 A 
ATOM      6  C   UNL d   1      -1.155  -0.124  -0.049  0.00  0.00     0.047 A 
ATOM      7  C   UNL d   1       2.719   0.145   0.012  0.00  0.00     0.058 C 
ATOM      8  C   UNL d   1      -2.583   0.296  -0.027  0.00  0.00     0.076 C 
ENDROOT
BRANCH   1   9
ATOM      9  C   UNL d   1       1.293  -2.763   0.029  0.00  0.00     0.168 C 
BRANCH   9  10
ATOM     10  C   UNL d   1       2.126  -3.033  -1.198  0.00  0.00     0.145 C 
ATOM     11  O   UNL d   1       3.312  -3.327  -1.162  0.00  0.00    -0.650 OA
BRANCH  10  12
ATOM     12  O   UNL d   1       1.437  -2.953  -2.362  0.00  0.00    -0.776 OA
ATOM     13  H   UNL d   1       0.502  -2.690  -2.236  0.00  0.00     0.167 HD
ENDBRANCH  10  12
ENDBRANCH   9  10
ENDBRANCH   1   9
TORSDOF 3
