REMARK  6 active torsions:
REMARK  status: ('A' for Active; 'I' for Inactive)
REMARK       I    between atoms: N_2  and  C_1 
REMARK    1  A    between atoms: C_5  and  C_1 
REMARK       I    between atoms: C_4  and  N_3 
REMARK    2  A    between atoms: C_19  and  C_4 
REMARK    3  A    between atoms: C_6  and  C_23 
REMARK    4  A    between atoms: O_18  and  C_6 
REMARK    5  A    between atoms: S_16  and  C_19 
REMARK    6  A    between atoms: C_23  and  S_16 
ROOT
ATOM      1  C   UNL d   1       0.799  -0.057   0.058  0.00  0.00     0.253 C 
ATOM      2  N   UNL d   1       0.186  -1.291   0.304  0.00  0.00    -0.345 N 
ATOM      3  N   UNL d   1      -0.602  -4.045   0.624  0.00  0.00    -0.348 N 
ATOM      4  C   UNL d   1      -1.430  -5.032   1.122  0.00  0.00     0.229 C 
ATOM      5  C   UNL d   1       0.650  -2.065   1.466  0.00  0.00     0.146 C 
ATOM      6  C   UNL d   1      -1.038  -1.802  -0.332  0.00  0.00     0.146 C 
ATOM      7  C   UNL d   1      -0.993  -3.314  -0.580  0.00  0.00     0.145 C 
ATOM      8  C   UNL d   1       0.668  -3.582   1.205  0.00  0.00     0.145 C 
ATOM      9  O   UNL d   1       1.846   0.274   0.616  0.00  0.00    -0.267 OA
ATOM     10  O   UNL d   1      -2.542  -5.269   0.628  0.00  0.00    -0.273 OA
ENDROOT
BRANCH   1  11
ATOM     11  C   UNL d   1       0.227   0.909  -0.925  0.00  0.00     0.032 A 
ATOM     12  C   UNL d   1      -1.146   1.168  -1.021  0.00  0.00     0.018 A 
ATOM     13  C   UNL d   1      -1.634   2.050  -1.990  0.00  0.00     0.025 A 
ATOM     14  C   UNL d   1      -0.746   2.739  -2.812  0.00  0.00     0.034 A 
ATOM     15  C   UNL d   1       0.628   2.557  -2.670  0.00  0.00     0.025 A 
ATOM     16 CL   UNL d   1      -1.351   3.833  -3.993  0.00  0.00    -0.084 Cl
ATOM     17  C   UNL d   1       1.114   1.640  -1.731  0.00  0.00     0.018 A 
ENDBRANCH   1  11
BRANCH   4  18
ATOM     18  C   UNL d   1      -1.006  -5.819   2.351  0.00  0.00     0.177 C 
BRANCH  18  19
ATOM     19  S   UNL d   1      -1.659  -5.029   3.860  0.00  0.00    -0.149 SA
BRANCH  19  20
ATOM     20  C   UNL d   1      -3.456  -5.078   3.534  0.00  0.00     0.184 C 
BRANCH  20  21
ATOM     21  C   UNL d   1      -3.979  -6.481   3.330  0.00  0.00     0.149 C 
ATOM     22  O   UNL d   1      -4.279  -7.239   4.245  0.00  0.00    -0.649 OA
BRANCH  21  23
ATOM     23  O   UNL d   1      -4.075  -6.858   2.035  0.00  0.00    -0.776 OA
ATOM     24  H   UNL d   1      -3.741  -6.196   1.380  0.00  0.00     0.167 HD
ENDBRANCH  21  23
ENDBRANCH  20  21
ENDBRANCH  19  20
ENDBRANCH  18  19
ENDBRANCH   4  18
TORSDOF 6
