REMARK  7 active torsions:
REMARK  status: ('A' for Active; 'I' for Inactive)
REMARK    1  A    between atoms: O_12  and  C_1 
REMARK    2  A    between atoms: C_2  and  C_8 
REMARK    3  A    between atoms: O_14  and  C_3 
REMARK    4  A    between atoms: N_5  and  C_16 
REMARK    5  A    between atoms: O_13  and  C_7 
REMARK    6  A    between atoms: C_18  and  C_10 
REMARK    7  A    between atoms: C_16  and  C_18 
ROOT
ATOM      1  C   UNL d   1      -2.652   2.594   0.417  0.00  0.00     0.123 C 
ENDROOT
BRANCH   1   2
ATOM      2  N   UNL d   1      -3.076   3.989   0.586  0.00  0.00    -0.398 N 
ATOM      3  C   UNL d   1      -4.360   4.105   0.728  0.00  0.00     0.097 C 
ATOM      4  HN  UNL d   1      -2.432   4.780   0.593  1.00  0.00     0.158 HD
BRANCH   3   5
ATOM      5  C   UNL d   1      -4.989   5.426   0.894  0.00  0.00     0.012 A 
ATOM      6  C   UNL d   1      -4.237   6.609   0.908  0.00  0.00     0.077 A 
ATOM      7  C   UNL d   1      -4.866   7.841   1.043  0.00  0.00     0.037 A 
ATOM      8  C   UNL d   1      -6.255   7.900   1.167  0.00  0.00     0.003 A 
ATOM      9  C   UNL d   1      -7.011   6.726   1.159  0.00  0.00     0.001 A 
ATOM     10  C   UNL d   1      -6.381   5.487   1.022  0.00  0.00     0.015 A 
BRANCH   6  11
ATOM     11  O   UNL d   1      -2.873   6.617   0.792  0.00  0.00    -0.360 OA
ATOM     12  H   UNL d   1      -2.592   5.678   0.692  0.00  0.00     0.217 HD
ENDBRANCH   6  11
ENDBRANCH   3   5
ENDBRANCH   1   2
BRANCH   1  13
ATOM     13  C   UNL d   1      -1.135   2.569   0.237  0.00  0.00     0.058 C 
BRANCH  13  14
ATOM     14  C   UNL d   1      -0.618   1.162   0.088  0.00  0.00    -0.054 A 
ATOM     15  C   UNL d   1      -0.245   0.425   1.221  0.00  0.00     0.046 A 
ATOM     16  C   UNL d   1       0.281  -0.874   1.113  0.00  0.00     0.102 A 
ATOM     17  C   UNL d   1       0.367  -1.469  -0.156  0.00  0.00     0.101 A 
ATOM     18  C   UNL d   1      -0.029  -0.735  -1.284  0.00  0.00     0.040 A 
ATOM     19  C   UNL d   1      -0.513   0.567  -1.169  0.00  0.00     0.010 A 
BRANCH  16  20
ATOM     20  O   UNL d   1       0.719  -1.567   2.209  0.00  0.00    -0.353 OA
ATOM     21  C   UNL d   1       1.169  -0.783   3.312  0.00  0.00     0.210 C 
ENDBRANCH  16  20
BRANCH  17  22
ATOM     22  O   UNL d   1       0.889  -2.693  -0.483  0.00  0.00    -0.353 OA
ATOM     23  C   UNL d   1       0.806  -3.740   0.472  0.00  0.00     0.210 C 
ENDBRANCH  17  22
ENDBRANCH  13  14
ENDBRANCH   1  13
TORSDOF 7
