REMARK  1 active torsions:
REMARK  status: ('A' for Active; 'I' for Inactive)
REMARK    1  A    between atoms: C_2  and  N_1 
ROOT
ATOM      1  C   UNL d   1       0.074   0.825   0.833  0.00  0.00     0.103 A 
ATOM      2  C   UNL d   1      -1.078   0.283   1.421  0.00  0.00     0.045 A 
ATOM      3  C   UNL d   1      -1.836   1.114   2.229  0.00  0.00    -0.034 A 
ATOM      4  C   UNL d   1      -1.477   2.443   2.458  0.00  0.00     0.014 A 
ATOM      5  N   UNL d   1      -2.317   3.084   3.396  0.00  0.00    -0.292 NA
ATOM      6  C   UNL d   1       0.452   2.164   1.070  0.00  0.00     0.038 A 
ATOM      7  C   UNL d   1      -0.328   2.976   1.902  0.00  0.00     0.026 A 
ATOM      8  C   UNL d   1      -3.501   2.208   3.444  0.00  0.00     0.097 C 
ATOM      9  C   UNL d   1      -3.062   0.795   3.014  0.00  0.00     0.055 C 
ATOM     10  H   UNL d   1      -2.501   4.053   3.150  0.00  0.00     0.127 HD
ENDROOT
BRANCH   1  11
ATOM     11  N   UNL d   1       0.909  -0.019  -0.030  0.00  0.00    -0.116 N 
ATOM     12  O   UNL d   1       0.549  -1.191  -0.214  0.00  0.00    -0.532 OA
ATOM     13  O   UNL d   1       1.922   0.490  -0.531  0.00  0.00    -0.532 OA
ENDBRANCH   1  11
TORSDOF 1
