REMARK  7 active torsions:
REMARK  status: ('A' for Active; 'I' for Inactive)
REMARK    1  A    between atoms: O_12  and  C_2 
REMARK    2  A    between atoms: C_8  and  C_3 
REMARK    3  A    between atoms: C_16  and  C_6 
REMARK    4  A    between atoms: C_19  and  O_12 
REMARK    5  A    between atoms: C_13  and  C_19 
REMARK    6  A    between atoms: O_20  and  C_13 
REMARK    7  A    between atoms: C_23  and  O_20 
ROOT
ATOM      1  C   UNL d   1       0.573   0.043   0.065  0.00  0.00     0.107 A 
ATOM      2  C   UNL d   1      -0.222  -1.101   0.121  0.00  0.00     0.165 A 
ATOM      3  C   UNL d   1      -0.072   1.289   0.039  0.00  0.00     0.008 A 
ATOM      4  N   UNL d   1      -1.573  -1.098   0.086  0.00  0.00    -0.335 N 
ATOM      5  HN  UNL d   1      -2.103  -1.970   0.112  1.00  0.00     0.168 HD
ATOM      6  C   UNL d   1      -2.199   0.096   0.017  0.00  0.00     0.045 A 
ATOM      7  C   UNL d   1      -1.480   1.288   0.037  0.00  0.00     0.044 A 
ATOM      8  C   UNL d   1       1.995  -0.100   0.025  0.00  0.00     0.104 C 
ATOM      9  N   UNL d   1       3.156  -0.198  -0.004  0.00  0.00    -0.191 NA
ENDROOT
BRANCH   2  10
ATOM     10  O   UNL d   1       0.408  -2.330   0.155  0.00  0.00    -0.325 OA
BRANCH  10  11
ATOM     11  C   UNL d   1      -0.389  -3.361   0.733  0.00  0.00     0.288 C 
BRANCH  11  12
ATOM     12  C   UNL d   1      -0.580  -3.232   2.240  0.00  0.00     0.283 C 
ATOM     13  O   UNL d   1      -0.145  -2.325   2.937  0.00  0.00    -0.263 OA
BRANCH  12  14
ATOM     14  O   UNL d   1      -1.212  -4.350   2.711  0.00  0.00    -0.320 OA
BRANCH  14  15
ATOM     15  C   UNL d   1      -1.073  -4.582   4.120  0.00  0.00     0.174 C 
ATOM     16  C   UNL d   1       0.209  -5.364   4.347  0.00  0.00     0.034 C 
ENDBRANCH  14  15
ENDBRANCH  12  14
ENDBRANCH  11  12
ENDBRANCH  10  11
ENDBRANCH   2  10
BRANCH   3  17
ATOM     17  C   UNL d   1       0.647   2.588   0.018  0.00  0.00     0.016 A 
ATOM     18  S   UNL d   1      -0.001   3.921  -0.873  0.00  0.00    -0.101 SA
ATOM     19  C   UNL d   1       1.256   4.966  -0.392  0.00  0.00     0.050 A 
ATOM     20  C   UNL d   1       2.191   4.321   0.380  0.00  0.00     0.008 A 
ATOM     21  C   UNL d   1       1.835   2.961   0.625  0.00  0.00     0.020 A 
ENDBRANCH   3  17
BRANCH   6  22
ATOM     22  C   UNL d   1      -3.668   0.059  -0.127  0.00  0.00    -0.009 A 
ATOM     23  C   UNL d   1      -4.358   1.037  -0.872  0.00  0.00     0.013 A 
ATOM     24  C   UNL d   1      -5.746   0.997  -1.022  0.00  0.00     0.001 A 
ATOM     25  C   UNL d   1      -6.479  -0.029  -0.437  0.00  0.00     0.000 A 
ATOM     26  C   UNL d   1      -5.824  -1.016   0.296  0.00  0.00     0.001 A 
ATOM     27  C   UNL d   1      -4.434  -0.972   0.447  0.00  0.00     0.013 A 
ENDBRANCH   6  22
TORSDOF 7
