REMARK  3 active torsions:
REMARK  status: ('A' for Active; 'I' for Inactive)
REMARK    1  A    between atoms: N_6  and  C_1 
REMARK    2  A    between atoms: C_12  and  N_6 
REMARK    3  A    between atoms: C_9  and  C_10 
ROOT
ATOM      1  C   UNL d   1      -0.631   1.695  -0.027  0.00  0.00     0.047 A 
ATOM      2  N   UNL d   1      -1.031  -1.076   0.010  0.00  0.00    -0.359 N 
ATOM      3  HN  UNL d   1      -1.182  -2.085   0.031  1.00  0.00     0.166 HD
ATOM      4  C   UNL d   1       0.483   0.815  -0.000  0.00  0.00     0.017 A 
ATOM      5  C   UNL d   1       0.212  -0.572   0.014  0.00  0.00     0.044 A 
ATOM      6  C   UNL d   1      -1.919   1.149  -0.052  0.00  0.00     0.055 A 
ATOM      7  C   UNL d   1      -2.077  -0.227  -0.022  0.00  0.00     0.007 A 
ATOM      8  C   UNL d   1       1.838   1.236  -0.007  0.00  0.00     0.016 A 
ATOM      9  C   UNL d   1       1.271  -1.467   0.035  0.00  0.00     0.030 A 
ATOM     10  C   UNL d   1      -3.453  -0.825  -0.005  0.00  0.00     0.068 C 
ATOM     11  C   UNL d   1       2.886   0.313   0.013  0.00  0.00     0.001 A 
ATOM     12  C   UNL d   1       2.601  -1.042   0.036  0.00  0.00     0.002 A 
ENDROOT
BRANCH   1  13
ATOM     13  N   UNL d   1      -0.461   3.099  -0.079  0.00  0.00    -0.355 N 
ATOM     14  H   UNL d   1       0.352   3.448   0.415  0.00  0.00     0.166 HD
BRANCH  13  15
ATOM     15  C   UNL d   1      -1.220   4.089  -0.724  0.00  0.00     0.032 A 
ATOM     16  C   UNL d   1      -1.319   5.363  -0.150  0.00  0.00     0.030 A 
ATOM     17  C   UNL d   1      -2.074   6.368  -0.763  0.00  0.00     0.017 A 
ATOM     18  C   UNL d   1      -2.736   6.117  -1.970  0.00  0.00     0.009 A 
ATOM     19  C   UNL d   1      -2.684   4.838  -2.527  0.00  0.00     0.017 A 
ATOM     20  C   UNL d   1      -1.938   3.833  -1.899  0.00  0.00     0.030 A 
BRANCH  18  21
ATOM     21  C   UNL d   1      -3.478   7.234  -2.612  0.00  0.00     0.155 C 
ATOM     22  O   UNL d   1      -3.944   8.131  -1.911  0.00  0.00    -0.293 OA
ATOM     23  C   UNL d   1      -3.604   7.280  -4.114  0.00  0.00     0.096 C 
ENDBRANCH  18  21
ENDBRANCH  13  15
ENDBRANCH   1  13
TORSDOF 3
