REMARK  4 active torsions:
REMARK  status: ('A' for Active; 'I' for Inactive)
REMARK    1  A    between atoms: C_6  and  C_1 
REMARK    2  A    between atoms: C_9  and  N_2 
REMARK    3  A    between atoms: C_8  and  C_4 
REMARK       I    between atoms: N_7  and  C_6 
REMARK    4  A    between atoms: C_12  and  N_7 
ROOT
ATOM      1  C   UNL d   1      -0.098   1.040  -0.092  0.00  0.00     0.057 C 
ATOM      2  N   UNL d   1       1.072  -0.938   0.146  0.00  0.00    -0.318 N 
ATOM      3  C   UNL d   1       1.110   0.470   0.313  0.00  0.00     0.029 C 
ATOM      4  C   UNL d   1      -0.312  -1.254  -0.007  0.00  0.00     0.025 C 
ATOM      5  C   UNL d   1      -0.972  -0.051  -0.262  0.00  0.00     0.045 C 
ATOM      6  C   UNL d   1       2.256   1.246   0.895  0.00  0.00     0.070 C 
ENDROOT
BRANCH   1   7
ATOM      7  C   UNL d   1      -0.356   2.496  -0.201  0.00  0.00     0.258 C 
ATOM      8  N   UNL d   1      -1.694   2.861  -0.294  0.00  0.00    -0.323 N 
ATOM      9  H   UNL d   1      -2.368   2.112  -0.352  0.00  0.00     0.169 HD
ATOM     10  O   UNL d   1       0.577   3.296  -0.206  0.00  0.00    -0.267 OA
BRANCH   8  11
ATOM     11  C   UNL d   1      -2.228   4.172  -0.273  0.00  0.00     0.035 A 
ATOM     12  C   UNL d   1      -1.461   5.331  -0.097  0.00  0.00     0.029 A 
ATOM     13  C   UNL d   1      -2.067   6.592  -0.036  0.00  0.00     0.002 A 
ATOM     14  C   UNL d   1      -3.449   6.717  -0.158  0.00  0.00     0.000 A 
ATOM     15  C   UNL d   1      -4.223   5.575  -0.342  0.00  0.00     0.002 A 
ATOM     16  C   UNL d   1      -3.617   4.314  -0.399  0.00  0.00     0.029 A 
ENDBRANCH   8  11
ENDBRANCH   1   7
BRANCH   2  17
ATOM     17  C   UNL d   1       2.257  -1.812   0.164  0.00  0.00     0.039 A 
ATOM     18  C   UNL d   1       3.549  -1.282  -0.015  0.00  0.00     0.030 A 
ATOM     19  C   UNL d   1       4.712  -2.066   0.096  0.00  0.00     0.002 A 
ATOM     20  C   UNL d   1       4.620  -3.429   0.318  0.00  0.00     0.000 A 
ATOM     21  C   UNL d   1       3.365  -4.002   0.405  0.00  0.00     0.002 A 
ATOM     22  C   UNL d   1       2.212  -3.202   0.326  0.00  0.00     0.030 A 
ENDBRANCH   2  17
BRANCH   4  23
ATOM     23  C   UNL d   1      -1.009  -2.627   0.031  0.00  0.00    -0.008 C 
ATOM     24  C   UNL d   1      -2.560  -2.499  -0.095  0.00  0.00     0.021 C 
ATOM     25  C   UNL d   1      -0.609  -3.479  -1.196  0.00  0.00     0.021 C 
ATOM     26  C   UNL d   1      -0.828  -3.294   1.419  0.00  0.00     0.021 C 
ENDBRANCH   4  23
TORSDOF 4
