REMARK  4 active torsions:
REMARK  status: ('A' for Active; 'I' for Inactive)
REMARK    1  A    between atoms: C_3  and  N_10 
REMARK    2  A    between atoms: C_14  and  C_6 
REMARK    3  A    between atoms: C_15  and  C_9 
REMARK    4  A    between atoms: N_13  and  C_15 
ROOT
ATOM      1  N   UNL d   1       3.762  -1.938  -0.350  0.00  0.00     0.105 N 
ATOM      2  N   UNL d   1       3.333   1.057  -0.005  0.00  0.00     0.097 N 
ATOM      3  C   UNL d   1       3.829  -1.315   0.971  0.00  0.00     0.304 C 
ATOM      4  C   UNL d   1       2.896  -1.142  -1.232  0.00  0.00     0.304 C 
ATOM      5  C   UNL d   1       3.971   0.230   1.038  0.00  0.00     0.303 C 
ATOM      6  C   UNL d   1       3.225   0.362  -1.298  0.00  0.00     0.303 C 
ENDROOT
BRANCH   2   7
ATOM      7  C   UNL d   1       2.040   1.607   0.403  0.00  0.00     0.329 C 
BRANCH   7   8
ATOM      8  C   UNL d   1       2.208   2.694   1.423  0.00  0.00     0.045 A 
ATOM      9  N   UNL d   1       1.340   2.704   2.501  0.00  0.00    -0.351 N 
ATOM     10  C   UNL d   1       1.520   3.779   3.241  0.00  0.00     0.084 A 
ATOM     11  HN  UNL d   1       0.652   1.976   2.696  1.00  0.00     0.166 HD
ATOM     12  S   UNL d   1       2.836   4.775   2.750  0.00  0.00    -0.081 SA
ATOM     13  C   UNL d   1       3.098   3.756   1.399  0.00  0.00     0.078 A 
BRANCH  10  14
ATOM     14  C   UNL d   1       0.595   4.165   4.322  0.00  0.00    -0.002 A 
ATOM     15  C   UNL d   1       0.948   5.003   5.385  0.00  0.00     0.016 A 
ATOM     16  C   UNL d   1      -0.004   5.367   6.345  0.00  0.00     0.024 A 
ATOM     17  C   UNL d   1      -1.312   4.892   6.245  0.00  0.00     0.034 A 
ATOM     18  C   UNL d   1      -1.677   4.045   5.206  0.00  0.00     0.024 A 
ATOM     19 CL   UNL d   1      -2.487   5.362   7.409  0.00  0.00    -0.084 Cl
ATOM     20  C   UNL d   1      -0.722   3.680   4.253  0.00  0.00     0.016 A 
ENDBRANCH  10  14
ENDBRANCH   7   8
ENDBRANCH   2   7
BRANCH   1  21
ATOM     21  C   UNL d   1       5.042  -2.411  -0.923  0.00  0.00     0.290 C 
ATOM     22  C   UNL d   1       4.762  -3.288  -2.153  0.00  0.00    -0.009 A 
ATOM     23  C   UNL d   1       5.245  -2.655  -3.320  0.00  0.00    -0.017 A 
ATOM     24  C   UNL d   1       4.048  -4.476  -2.214  0.00  0.00     0.010 A 
ATOM     25  C   UNL d   1       4.999  -3.205  -4.567  0.00  0.00     0.013 A 
ATOM     26  C   UNL d   1       5.943  -1.445  -2.940  0.00  0.00    -0.017 C 
ATOM     27  C   UNL d   1       4.263  -4.393  -4.638  0.00  0.00     0.001 A 
ATOM     28  C   UNL d   1       3.797  -5.026  -3.473  0.00  0.00     0.001 A 
ATOM     29  C   UNL d   1       5.953  -1.348  -1.530  0.00  0.00    -0.009 C 
ATOM     30  C   UNL d   1       6.511  -0.449  -3.716  0.00  0.00     0.013 C 
ATOM     31  C   UNL d   1       6.679  -0.353  -0.892  0.00  0.00     0.010 C 
ATOM     32  C   UNL d   1       7.236   0.661  -1.672  0.00  0.00     0.001 C 
ATOM     33  C   UNL d   1       7.126   0.629  -3.071  0.00  0.00     0.001 C 
ENDBRANCH   1  21
TORSDOF 4
