REMARK  10 active torsions:
REMARK  status: ('A' for Active; 'I' for Inactive)
REMARK       I    between atoms: N_11  and  C1_1 
REMARK       I    between atoms: N2_3  and  C1_1 
REMARK    1  A    between atoms: C6_4  and  N2_3 
REMARK    2  A    between atoms: C9_5  and  C6_4 
REMARK    3  A    between atoms: C12_8  and  C9_5 
REMARK    4  A    between atoms: C10_6  and  C11_7 
REMARK    5  A    between atoms: C11_7  and  C12_8 
REMARK    6  A    between atoms: CA_12  and  N_11 
REMARK    7  A    between atoms: C_13  and  CA_12 
REMARK    8  A    between atoms: CB_14  and  CA_12 
REMARK    9  A    between atoms: OXT_16  and  C_13 
REMARK   10  A    between atoms: CG_17  and  CB_14 
ROOT
ATOM      1  C1  <1> d   1       1.006  -0.259   0.093  0.00  0.00     0.316 C 
ATOM      2  O1  <1> d   1       0.341  -0.648  -0.856  0.00  0.00    -0.247 OA
ATOM      3  N2  <1> d   1       2.375  -0.227   0.147  0.00  0.00    -0.343 N 
ATOM      4  H5  <1> d   1       2.747   0.463   0.784  0.00  0.00     0.164 HD
ATOM      5  N   PHE d   1       0.432   0.124   1.268  0.00  0.00    -0.328 N 
ATOM      6  H   PHE d   1       0.990   0.024   2.104  0.00  0.00     0.165 HD
ENDROOT
BRANCH   5   7
ATOM      7  CA  PHE d   1      -1.026   0.310   1.429  0.00  0.00     0.188 C 
BRANCH   7   8
ATOM      8  C   PHE d   1      -1.710  -0.972   1.937  0.00  0.00     0.163 C 
ATOM      9  O   PHE d   1      -2.695  -0.997   2.660  0.00  0.00    -0.648 OA
BRANCH   8  10
ATOM     10  OXT PHE d   1      -1.182  -2.109   1.421  0.00  0.00    -0.775 OA
ATOM     11  HXT PHE d   1      -0.534  -1.918   0.708  0.00  0.00     0.167 HD
ENDBRANCH   8  10
ENDBRANCH   7   8
BRANCH   7  12
ATOM     12  CB  PHE d   1      -1.339   1.484   2.376  0.00  0.00     0.074 C 
BRANCH  12  13
ATOM     13  CG  PHE d   1      -0.872   2.808   1.812  0.00  0.00    -0.056 A 
ATOM     14  CD1 PHE d   1      -1.708   3.555   0.971  0.00  0.00     0.007 A 
ATOM     15  CE1 PHE d   1      -1.248   4.737   0.389  0.00  0.00     0.001 A 
ATOM     16  CZ  PHE d   1       0.048   5.182   0.641  0.00  0.00     0.000 A 
ATOM     17  CE2 PHE d   1       0.881   4.455   1.487  0.00  0.00     0.001 A 
ATOM     18  CD2 PHE d   1       0.423   3.275   2.074  0.00  0.00     0.007 A 
ENDBRANCH  12  13
ENDBRANCH   7  12
ENDBRANCH   5   7
BRANCH   3  19
ATOM     19  C6  <1> d   1       3.153  -0.442  -1.064  0.00  0.00     0.124 C 
BRANCH  19  20
ATOM     20  C9  <1> d   1       4.564  -0.960  -0.777  0.00  0.00     0.020 C 
BRANCH  20  21
ATOM     21  C12 <1> d   1       5.360  -1.098  -2.080  0.00  0.00     0.002 C 
BRANCH  21  22
ATOM     22  C11 <1> d   1       6.763  -1.663  -1.853  0.00  0.00    -0.000 C 
BRANCH  22  23
ATOM     23  C10 <1> d   1       7.531  -1.795  -3.171  0.00  0.00    -0.005 C 
ATOM     24  C13 <1> d   1       8.923  -2.366  -2.951  0.00  0.00     0.005 C 
ENDBRANCH  22  23
ENDBRANCH  21  22
ENDBRANCH  20  21
ENDBRANCH  19  20
ENDBRANCH   3  19
TORSDOF 10
