REMARK  5 active torsions:
REMARK  status: ('A' for Active; 'I' for Inactive)
REMARK    1  A    between atoms: C_7  and  C_1 
REMARK    2  A    between atoms: N_17  and  C_3 
REMARK    3  A    between atoms: C_13  and  C_6 
REMARK    4  A    between atoms: C_12  and  C_7 
REMARK    5  A    between atoms: C_22  and  C_10 
ROOT
ATOM      1  C   UNL d   1       2.396   0.145  -0.018  0.00  0.00     0.156 A 
ATOM      2  C   UNL d   1       0.262   0.925  -0.012  0.00  0.00     0.058 A 
ATOM      3  C   UNL d   1       1.633   1.298   0.045  0.00  0.00     0.080 A 
ATOM      4  C   UNL d   1       0.276  -0.468  -0.084  0.00  0.00     0.162 A 
ATOM      5  O   UNL d   1       1.560  -0.934  -0.092  0.00  0.00    -0.286 OA
ATOM      6  C   UNL d   1      -1.005   1.544   0.019  0.00  0.00     0.017 A 
ATOM      7  N   UNL d   1      -0.783  -1.297  -0.135  0.00  0.00    -0.335 N 
ATOM      8  HN  UNL d   1      -0.686  -2.311  -0.187  1.00  0.00     0.168 HD
ATOM      9  C   UNL d   1      -1.985  -0.677  -0.112  0.00  0.00     0.045 A 
ATOM     10  C   UNL d   1      -2.130   0.709  -0.021  0.00  0.00     0.045 A 
ENDROOT
BRANCH   1  11
ATOM     11  C   UNL d   1       3.841  -0.003   0.047  0.00  0.00     0.225 C 
ATOM     12  O   UNL d   1       4.524   0.830   0.650  0.00  0.00    -0.284 OA
BRANCH  11  13
ATOM     13  C   UNL d   1       4.436  -1.109  -0.703  0.00  0.00     0.057 A 
ATOM     14  S   UNL d   1       6.157  -1.272  -0.641  0.00  0.00    -0.098 SA
ATOM     15  C   UNL d   1       6.153  -2.585  -1.729  0.00  0.00     0.050 A 
ATOM     16  C   UNL d   1       4.882  -2.922  -2.122  0.00  0.00     0.009 A 
ATOM     17  C   UNL d   1       3.893  -2.075  -1.533  0.00  0.00     0.023 A 
ENDBRANCH  11  13
ENDBRANCH   1  11
BRANCH   3  18
ATOM     18  N   UNL d   1       2.130   2.544   0.140  0.00  0.00    -0.396 N 
ATOM     19  H   UNL d   1       1.533   3.367   0.079  0.00  0.00     0.156 HD
ATOM     20  H   UNL d   1       3.126   2.740   0.231  0.00  0.00     0.156 HD
ENDBRANCH   3  18
BRANCH   6  21
ATOM     21  C   UNL d   1      -1.158   2.987   0.124  0.00  0.00     0.086 A 
ATOM     22  O   UNL d   1      -0.243   3.762  -0.531  0.00  0.00    -0.322 OA
ATOM     23  C   UNL d   1      -0.579   5.060  -0.321  0.00  0.00     0.142 A 
ATOM     24  C   UNL d   1      -1.713   5.142   0.450  0.00  0.00     0.027 A 
ATOM     25  C   UNL d   1      -2.096   3.806   0.726  0.00  0.00     0.040 A 
ENDBRANCH   6  21
BRANCH   9  26
ATOM     26  C   UNL d   1      -3.167  -1.568  -0.187  0.00  0.00    -0.009 A 
ATOM     27  C   UNL d   1      -3.179  -2.817   0.460  0.00  0.00     0.013 A 
ATOM     28  C   UNL d   1      -4.297  -3.657   0.406  0.00  0.00     0.001 A 
ATOM     29  C   UNL d   1      -5.430  -3.267  -0.305  0.00  0.00     0.000 A 
ATOM     30  C   UNL d   1      -5.443  -2.042  -0.963  0.00  0.00     0.001 A 
ATOM     31  C   UNL d   1      -4.324  -1.204  -0.905  0.00  0.00     0.013 A 
ENDBRANCH   9  26
TORSDOF 5
