REMARK  4 active torsions:
REMARK  status: ('A' for Active; 'I' for Inactive)
REMARK    1  A    between atoms: C_5  and  C_1 
REMARK    2  A    between atoms: O_8  and  C_5 
REMARK    3  A    between atoms: C_14  and  O_8 
REMARK    4  A    between atoms: C_9  and  C_10 
ROOT
ATOM      1  C   UNL d   1       4.295   2.933   0.214  0.00  0.00    -0.050 A 
ATOM      2  C   UNL d   1       3.430   2.273   1.105  0.00  0.00     0.011 A 
ATOM      3  C   UNL d   1       4.988   2.136  -0.720  0.00  0.00     0.011 A 
ATOM      4  C   UNL d   1       3.928   0.132   0.109  0.00  0.00     0.079 A 
ATOM      5  C   UNL d   1       4.802   0.750  -0.779  0.00  0.00     0.038 A 
ATOM      6  C   UNL d   1       3.235   0.888   1.047  0.00  0.00     0.038 A 
ENDROOT
BRANCH   4   7
ATOM      7  O   UNL d   1       3.711  -1.248  -0.081  0.00  0.00    -0.274 OA
BRANCH   7   8
ATOM      8  C   UNL d   1       3.404  -2.099   0.983  0.00  0.00     0.316 C 
ATOM      9  O   UNL d   1       3.433  -1.792   2.171  0.00  0.00    -0.257 OA
BRANCH   8  10
ATOM     10  C   UNL d   1       3.026  -3.430   0.529  0.00  0.00     0.128 A 
ATOM     11  N   UNL d   1       3.054  -3.789  -0.819  0.00  0.00    -0.287 N 
ATOM     12  N   UNL d   1       2.664  -5.038  -1.007  0.00  0.00    -0.061 NA
ATOM     13  HN  UNL d   1       3.340  -3.162  -1.571  1.00  0.00     0.183 HD
ATOM     14  S   UNL d   1       2.249  -5.814   0.413  0.00  0.00    -0.010 SA
ATOM     15  C   UNL d   1       2.598  -4.442   1.376  0.00  0.00     0.102 A 
ENDBRANCH   8  10
ENDBRANCH   7   8
ENDBRANCH   4   7
BRANCH   1  16
ATOM     16  C   UNL d   1       4.463   4.464   0.209  0.00  0.00    -0.024 C 
ATOM     17  C   UNL d   1       3.606   5.187   1.274  0.00  0.00     0.019 C 
ATOM     18  C   UNL d   1       5.935   4.840   0.475  0.00  0.00     0.019 C 
ATOM     19  C   UNL d   1       4.039   5.022  -1.167  0.00  0.00     0.019 C 
ENDBRANCH   1  16
TORSDOF 4
