REMARK  7 active torsions:
REMARK  status: ('A' for Active; 'I' for Inactive)
REMARK    1  A    between atoms: C_20  and  N_1 
REMARK    2  A    between atoms: N_3  and  C_2 
REMARK    3  A    between atoms: C_17  and  C_8 
REMARK    4  A    between atoms: N_9  and  C_13 
REMARK    5  A    between atoms: C_14  and  N_23 
REMARK    6  A    between atoms: C_26  and  C_17 
REMARK    7  A    between atoms: N_23  and  N_21 
ROOT
ATOM      1  N   UNL d   1      -4.634  -1.791   0.056  0.00  0.00    -0.315 N 
ATOM      2  HN  UNL d   1      -5.229  -1.026  -0.262  1.00  0.00     0.185 HD
ATOM      3  C   UNL d   1      -3.361  -1.634   0.230  0.00  0.00     0.087 C 
ENDROOT
BRANCH   1   4
ATOM      4  N   UNL d   1      -5.138  -3.022   0.318  0.00  0.00    -0.299 N 
ATOM      5  H   UNL d   1      -4.585  -3.750   0.782  0.00  0.00     0.187 HD
BRANCH   4   6
ATOM      6  C   UNL d   1      -6.223  -3.480  -0.468  0.00  0.00     0.081 A 
ATOM      7  C   UNL d   1      -6.798  -4.765  -0.342  0.00  0.00     0.133 A 
ATOM      8  C   UNL d   1      -7.852  -5.181  -1.185  0.00  0.00     0.074 A 
ATOM      9  C   UNL d   1      -8.359  -4.295  -2.143  0.00  0.00     0.105 A 
ATOM     10  C   UNL d   1      -7.863  -2.996  -2.235  0.00  0.00     0.038 A 
ATOM     11  C   UNL d   1      -6.819  -2.600  -1.397  0.00  0.00     0.036 A 
BRANCH   7  12
ATOM     12  N   UNL d   1      -6.318  -5.726   0.669  0.00  0.00    -0.113 N 
ATOM     13  O   UNL d   1      -6.923  -6.802   0.772  0.00  0.00    -0.532 OA
ATOM     14  O   UNL d   1      -5.331  -5.416   1.355  0.00  0.00    -0.532 OA
ENDBRANCH   7  12
BRANCH   9  15
ATOM     15  N   UNL d   1      -9.413  -4.734  -3.067  0.00  0.00    -0.116 N 
ATOM     16  O   UNL d   1      -9.806  -5.902  -2.973  0.00  0.00    -0.532 OA
ATOM     17  O   UNL d   1      -9.834  -3.911  -3.893  0.00  0.00    -0.532 OA
ENDBRANCH   9  15
ENDBRANCH   4   6
ENDBRANCH   1   4
BRANCH   3  18
ATOM     18  C   UNL d   1      -2.757  -0.271  -0.002  0.00  0.00     0.126 C 
BRANCH  18  19
ATOM     19  C   UNL d   1      -1.802  -0.306  -1.134  0.00  0.00     0.125 A 
ATOM     20  N   UNL d   1      -1.394   0.774  -1.919  0.00  0.00    -0.227 N 
ATOM     21  N   UNL d   1      -0.600   0.273  -2.902  0.00  0.00    -0.220 N 
ATOM     22  N   UNL d   1      -0.481  -1.022  -2.676  0.00  0.00    -0.226 N 
ATOM     23  HN  UNL d   1      -0.177   0.798  -3.668  1.00  0.00     0.210 HD
ATOM     24  N   UNL d   1      -1.205  -1.395  -1.586  0.00  0.00    -0.271 N 
ATOM     25  HN  UNL d   1       0.079  -1.659  -3.244  1.00  0.00     0.210 HD
ATOM     26  HN  UNL d   1      -1.274  -2.334  -1.194  1.00  0.00     0.190 HD
BRANCH  20  27
ATOM     27  C   UNL d   1      -1.661   2.174  -1.864  0.00  0.00     0.059 A 
ATOM     28  C   UNL d   1      -1.236   2.986  -2.934  0.00  0.00     0.031 A 
ATOM     29  C   UNL d   1      -1.518   4.355  -2.953  0.00  0.00     0.002 A 
ATOM     30  C   UNL d   1      -2.220   4.935  -1.902  0.00  0.00     0.000 A 
ATOM     31  C   UNL d   1      -2.613   4.152  -0.820  0.00  0.00     0.002 A 
ATOM     32  C   UNL d   1      -2.325   2.782  -0.792  0.00  0.00     0.031 A 
ENDBRANCH  20  27
ENDBRANCH  18  19
ENDBRANCH   3  18
TORSDOF 7
