REMARK  4 active torsions:
REMARK  status: ('A' for Active; 'I' for Inactive)
REMARK    1  A    between atoms: C_2  and  S_1 
REMARK    2  A    between atoms: N_8  and  S_1 
REMARK    3  A    between atoms: C_13  and  N_8 
REMARK    4  A    between atoms: N_9  and  C_12 
ROOT
ATOM      1  N   UNL d   1       0.759   1.637  -0.332  0.00  0.00    -0.281 N 
ATOM      2  H   UNL d   1       0.122   0.979   0.118  0.00  0.00     0.179 HD
ENDROOT
BRANCH   1   3
ATOM      3  S   UNL d   1       0.545   1.627  -2.004  0.00  0.00     0.267 S 
ATOM      4  O   UNL d   1       0.194   0.265  -2.353  0.00  0.00    -0.200 OA
ATOM      5  O   UNL d   1      -0.272   2.746  -2.405  0.00  0.00    -0.200 OA
BRANCH   3   6
ATOM      6  C   UNL d   1       2.066   1.848  -2.740  0.00  0.00     0.135 A 
ATOM      7  C   UNL d   1       3.206   1.124  -2.486  0.00  0.00     0.098 A 
ATOM      8  O   UNL d   1       4.206   1.589  -3.280  0.00  0.00    -0.241 OA
ATOM      9  C   UNL d   1       3.561   0.001  -1.599  0.00  0.00     0.081 C 
ATOM     10  N   UNL d   1       3.727   2.613  -4.075  0.00  0.00    -0.264 N 
ATOM     11  C   UNL d   1       2.433   2.757  -3.755  0.00  0.00     0.054 A 
ATOM     12  HN  UNL d   1       4.252   3.151  -4.764  1.00  0.00     0.194 HD
ATOM     13  C   UNL d   1       1.618   3.771  -4.465  0.00  0.00     0.072 C 
ENDBRANCH   3   6
ENDBRANCH   1   3
BRANCH   1  14
ATOM     14  C   UNL d   1       0.929   2.869   0.357  0.00  0.00     0.042 A 
ATOM     15  C   UNL d   1      -0.138   3.708   0.647  0.00  0.00     0.032 A 
ATOM     16  C   UNL d   1       0.047   4.799   1.516  0.00  0.00     0.031 A 
ATOM     17  C   UNL d   1       1.286   5.076   2.120  0.00  0.00     0.030 A 
ATOM     18  C   UNL d   1       2.351   4.236   1.758  0.00  0.00     0.031 A 
ATOM     19  C   UNL d   1       2.180   3.146   0.893  0.00  0.00     0.032 A 
BRANCH  17  20
ATOM     20  N   UNL d   1       1.444   6.121   3.018  0.00  0.00    -0.381 N 
ATOM     21  C   UNL d   1       2.736   6.780   3.243  0.00  0.00     0.123 C 
ATOM     22  C   UNL d   1       3.250   6.480   4.653  0.00  0.00     0.020 C 
ATOM     23  C   UNL d   1       2.212   6.844   5.707  0.00  0.00     0.003 C 
ATOM     24  C   UNL d   1       0.876   6.165   5.409  0.00  0.00     0.020 C 
ATOM     25  C   UNL d   1       0.393   6.461   3.985  0.00  0.00     0.123 C 
ENDBRANCH  17  20
ENDBRANCH   1  14
TORSDOF 4
