REMARK  4 active torsions:
REMARK  status: ('A' for Active; 'I' for Inactive)
REMARK    1  A    between atoms: C_3  and  C_1 
REMARK    2  A    between atoms: C_2  and  C_4 
REMARK       I    between atoms: N_15  and  C_3 
REMARK       I    between atoms: C_4  and  N_16 
REMARK    3  A    between atoms: C_21  and  C_9 
REMARK    4  A    between atoms: C_22  and  C_10 
ROOT
ATOM      1  C   UNL d   1       0.422  -2.801  -0.149  0.00  0.00     0.258 C 
ATOM      2  C   UNL d   1      -2.731  -7.331   0.987  0.00  0.00     0.258 C 
ATOM      3  N   UNL d   1      -0.597  -3.776   0.028  0.00  0.00    -0.346 N 
ATOM      4  N   UNL d   1      -1.637  -6.652   0.420  0.00  0.00    -0.346 N 
ATOM      5  O   UNL d   1       1.293  -2.682   0.715  0.00  0.00    -0.267 OA
ATOM      6  O   UNL d   1      -2.837  -7.399   2.212  0.00  0.00    -0.267 OA
ATOM      7  C   UNL d   1      -0.695  -4.469   1.340  0.00  0.00     0.146 C 
ATOM      8  C   UNL d   1      -0.636  -6.012   1.297  0.00  0.00     0.146 C 
ATOM      9  C   UNL d   1      -1.748  -5.227  -1.652  0.00  0.00     0.040 C 
ATOM     10  C   UNL d   1      -1.769  -3.952  -0.819  0.00  0.00     0.127 C 
ATOM     11  C   UNL d   1      -1.350  -6.527  -0.989  0.00  0.00     0.127 C 
ENDROOT
BRANCH   1  12
ATOM     12  C   UNL d   1       0.446  -1.891  -1.301  0.00  0.00     0.092 C 
ATOM     13  C   UNL d   1       0.806  -0.480  -1.309  0.00  0.00     0.083 C 
ATOM     14  N   UNL d   1       0.726   0.011  -2.558  0.00  0.00    -0.259 N 
ATOM     15  O   UNL d   1       0.435  -1.026  -3.376  0.00  0.00    -0.241 OA
ATOM     16  HN  UNL d   1       0.858   0.983  -2.837  1.00  0.00     0.195 HD
ATOM     17  C   UNL d   1       0.326  -2.167  -2.659  0.00  0.00     0.090 C 
ATOM     18  C   UNL d   1       0.162  -3.333  -3.535  0.00  0.00     0.080 C 
BRANCH  13  19
ATOM     19  C   UNL d   1       1.205   0.472  -0.264  0.00  0.00    -0.006 A 
ATOM     20  C   UNL d   1       0.684   0.447   1.030  0.00  0.00     0.014 A 
ATOM     21  C   UNL d   1       1.000   1.467   1.938  0.00  0.00     0.001 A 
ATOM     22  C   UNL d   1       1.838   2.523   1.564  0.00  0.00     0.000 A 
ATOM     23  C   UNL d   1       2.386   2.546   0.290  0.00  0.00     0.001 A 
ATOM     24  C   UNL d   1       2.076   1.531  -0.614  0.00  0.00     0.014 A 
ENDBRANCH  13  19
ENDBRANCH   1  12
BRANCH   2  25
ATOM     25  C   UNL d   1      -3.789  -7.885   0.141  0.00  0.00     0.092 C 
ATOM     26  C   UNL d   1      -5.216  -7.773   0.354  0.00  0.00     0.083 C 
ATOM     27  N   UNL d   1      -5.883  -8.393  -0.633  0.00  0.00    -0.259 N 
ATOM     28  O   UNL d   1      -4.950  -9.024  -1.402  0.00  0.00    -0.241 OA
ATOM     29  HN  UNL d   1      -6.893  -8.393  -0.778  1.00  0.00     0.195 HD
ATOM     30  C   UNL d   1      -3.708  -8.792  -0.909  0.00  0.00     0.090 C 
ATOM     31  C   UNL d   1      -2.661  -9.600  -1.577  0.00  0.00     0.080 C 
BRANCH  26  32
ATOM     32  C   UNL d   1      -5.986  -7.158   1.440  0.00  0.00    -0.006 A 
ATOM     33  C   UNL d   1      -7.196  -7.752   1.850  0.00  0.00     0.014 A 
ATOM     34  C   UNL d   1      -7.949  -7.224   2.899  0.00  0.00     0.001 A 
ATOM     35  C   UNL d   1      -7.505  -6.082   3.561  0.00  0.00     0.000 A 
ATOM     36  C   UNL d   1      -6.317  -5.470   3.162  0.00  0.00     0.001 A 
ATOM     37  C   UNL d   1      -5.569  -5.996   2.103  0.00  0.00     0.014 A 
ENDBRANCH  26  32
ENDBRANCH   2  25
TORSDOF 4
