REMARK  2 active torsions:
REMARK  status: ('A' for Active; 'I' for Inactive)
REMARK    1  A    between atoms: C_7  and  C_1 
REMARK    2  A    between atoms: N_2  and  C_6 
ROOT
ATOM      1  C   UNL d   1       1.050  -0.019   0.160  0.00  0.00     0.078 C 
ATOM      2  C   UNL d   1       0.295   0.322  -0.909  0.00  0.00     0.058 C 
ATOM      3  C   UNL d   1       0.475  -0.259   1.449  0.00  0.00     0.102 C 
ATOM      4  N   UNL d   1       0.035  -0.468   2.502  0.00  0.00    -0.191 NA
ATOM      5  S   UNL d   1      -1.421   0.660  -0.796  0.00  0.00    -0.121 SA
ATOM      6  S   UNL d   1       0.953   0.563  -2.516  0.00  0.00    -0.121 SA
ATOM      7  C   UNL d   1      -1.611   1.421  -2.440  0.00  0.00     0.090 C 
ATOM      8  C   UNL d   1      -0.252   1.833  -2.978  0.00  0.00     0.090 C 
ENDROOT
BRANCH   1   9
ATOM      9  C   UNL d   1       2.528  -0.072   0.084  0.00  0.00    -0.013 A 
ATOM     10  C   UNL d   1       3.264   1.120   0.208  0.00  0.00     0.015 A 
ATOM     11  C   UNL d   1       4.657   1.110   0.107  0.00  0.00     0.037 A 
ATOM     12  C   UNL d   1       5.322  -0.102  -0.112  0.00  0.00     0.102 A 
ATOM     13  C   UNL d   1       4.601  -1.300  -0.220  0.00  0.00     0.037 A 
ATOM     14  C   UNL d   1       3.204  -1.282  -0.121  0.00  0.00     0.015 A 
BRANCH  12  15
ATOM     15  N   UNL d   1       6.784  -0.116  -0.243  0.00  0.00    -0.116 N 
ATOM     16  O   UNL d   1       7.380   0.970  -0.153  0.00  0.00    -0.532 OA
ATOM     17  O   UNL d   1       7.336  -1.205  -0.439  0.00  0.00    -0.532 OA
ENDBRANCH  12  15
ENDBRANCH   1   9
TORSDOF 2
