REMARK  4 active torsions:
REMARK  status: ('A' for Active; 'I' for Inactive)
REMARK    1  A    between atoms: S_4  and  C_1 
REMARK    2  A    between atoms: C_3  and  C_2 
REMARK    3  A    between atoms: O_9  and  C_3 
REMARK    4  A    between atoms: C_8  and  S_4 
ROOT
ATOM      1  C   UNL d   1      -0.592   1.245   0.079  0.00  0.00     0.090 A 
ATOM      2  C   UNL d   1       0.791   1.242   0.278  0.00  0.00     0.073 A 
ATOM      3  N   UNL d   1      -1.286   0.089  -0.147  0.00  0.00    -0.359 N 
ATOM      4  HN  UNL d   1      -2.298   0.106  -0.275  1.00  0.00     0.166 HD
ATOM      5  C   UNL d   1       1.463   0.009   0.209  0.00  0.00     0.022 A 
ATOM      6  C   UNL d   1      -0.605  -1.075  -0.197  0.00  0.00     0.089 A 
ATOM      7  C   UNL d   1       0.762  -1.165  -0.041  0.00  0.00     0.018 A 
ENDROOT
BRANCH   1   8
ATOM      8  S   UNL d   1      -1.621   2.691  -0.048  0.00  0.00    -0.072 SA
BRANCH   8   9
ATOM      9  C   UNL d   1      -2.152   2.987   1.623  0.00  0.00     0.007 A 
ATOM     10  C   UNL d   1      -1.942   4.256   2.173  0.00  0.00     0.019 A 
ATOM     11  C   UNL d   1      -2.494   4.598   3.409  0.00  0.00     0.008 A 
ATOM     12  C   UNL d   1      -3.275   3.676   4.115  0.00  0.00    -0.062 A 
ATOM     13  C   UNL d   1      -3.452   2.393   3.584  0.00  0.00     0.008 A 
ATOM     14  C   UNL d   1      -3.930   4.087   5.401  0.00  0.00     0.048 C 
ATOM     15  C   UNL d   1      -2.898   2.052   2.346  0.00  0.00     0.019 A 
ENDBRANCH   8   9
ENDBRANCH   1   8
BRANCH   2  16
ATOM     16  C   UNL d   1       1.635   2.416   0.603  0.00  0.00     0.295 C 
ATOM     17  O   UNL d   1       2.664   2.302   1.255  0.00  0.00    -0.259 OA
BRANCH  16  18
ATOM     18  O   UNL d   1       1.177   3.558   0.052  0.00  0.00    -0.322 OA
ATOM     19  C   UNL d   1       1.907   4.753   0.344  0.00  0.00     0.213 C 
ENDBRANCH  16  18
ENDBRANCH   2  16
TORSDOF 4
