REMARK  8 active torsions:
REMARK  status: ('A' for Active; 'I' for Inactive)
REMARK    1  A    between atoms: N_2  and  C_1 
REMARK    2  A    between atoms: C_5  and  C_1 
REMARK       I    between atoms: C_3  and  N_2 
REMARK    3  A    between atoms: C_11  and  C_3 
REMARK    4  A    between atoms: C_7  and  C_4 
REMARK    5  A    between atoms: O_15  and  C_5 
REMARK    6  A    between atoms: O_16  and  C_6 
REMARK    7  A    between atoms: O_17  and  C_9 
REMARK    8  A    between atoms: C_20  and  O_15 
ROOT
ATOM      1  C   UNL d   1       1.013  -0.049  -0.145  0.00  0.00     0.092 C 
ATOM      2  C   UNL d   1       0.287   1.006   0.259  0.00  0.00     0.041 C 
ENDROOT
BRANCH   1   3
ATOM      3  N   UNL d   1       0.456  -1.246  -0.584  0.00  0.00    -0.220 NA
ATOM      4  C   UNL d   1       0.069  -1.364  -1.915  0.00  0.00     0.235 C 
ATOM      5  O   UNL d   1       0.176  -0.476  -2.756  0.00  0.00    -0.274 OA
ATOM      6  H   UNL d   1       0.989  -2.066  -0.309  0.00  0.00     0.137 HD
BRANCH   4   7
ATOM      7  C   UNL d   1      -0.447  -2.705  -2.312  0.00  0.00     0.026 A 
ATOM      8  C   UNL d   1      -1.154  -3.502  -1.403  0.00  0.00     0.016 A 
ATOM      9  C   UNL d   1      -1.677  -4.732  -1.812  0.00  0.00     0.001 A 
ATOM     10  C   UNL d   1      -1.499  -5.167  -3.125  0.00  0.00     0.000 A 
ATOM     11  C   UNL d   1      -0.796  -4.377  -4.034  0.00  0.00     0.001 A 
ATOM     12  C   UNL d   1      -0.275  -3.144  -3.631  0.00  0.00     0.016 A 
ENDBRANCH   4   7
ENDBRANCH   1   3
BRANCH   1  13
ATOM     13  C   UNL d   1       2.501   0.130  -0.169  0.00  0.00     0.304 C 
ATOM     14  O   UNL d   1       3.086   1.135   0.210  0.00  0.00    -0.258 OA
BRANCH  13  15
ATOM     15  O   UNL d   1       3.085  -0.960  -0.739  0.00  0.00    -0.317 OA
BRANCH  15  16
ATOM     16  C   UNL d   1       4.446  -0.761  -1.149  0.00  0.00     0.174 C 
ATOM     17  C   UNL d   1       4.458  -0.254  -2.581  0.00  0.00     0.034 C 
ENDBRANCH  15  16
ENDBRANCH  13  15
ENDBRANCH   1  13
BRANCH   2  18
ATOM     18  C   UNL d   1      -1.174   1.040   0.352  0.00  0.00    -0.032 A 
ATOM     19  C   UNL d   1      -1.919   1.516  -0.732  0.00  0.00     0.051 A 
ATOM     20  C   UNL d   1      -3.312   1.645  -0.653  0.00  0.00     0.102 A 
ATOM     21  C   UNL d   1      -3.961   1.245   0.529  0.00  0.00     0.101 A 
ATOM     22  C   UNL d   1      -3.205   0.767   1.611  0.00  0.00     0.040 A 
ATOM     23  C   UNL d   1      -1.820   0.662   1.526  0.00  0.00     0.014 A 
BRANCH  20  24
ATOM     24  O   UNL d   1      -4.073   2.177  -1.660  0.00  0.00    -0.353 OA
ATOM     25  C   UNL d   1      -3.399   2.686  -2.805  0.00  0.00     0.210 C 
ENDBRANCH  20  24
BRANCH  21  26
ATOM     26  O   UNL d   1      -5.303   1.311   0.810  0.00  0.00    -0.353 OA
ATOM     27  C   UNL d   1      -6.198   1.194  -0.287  0.00  0.00     0.210 C 
ENDBRANCH  21  26
ENDBRANCH   2  18
TORSDOF 8
