REMARK  1 active torsions:
REMARK  status: ('A' for Active; 'I' for Inactive)
REMARK    1  A    between atoms: S_11  and  C_5 
ROOT
ATOM      1  N   UNL d   1      -0.249  -1.232   0.023  0.00  0.00    -0.314 N 
ATOM      2  C   UNL d   1       1.009  -0.680   0.085  0.00  0.00     0.158 A 
ATOM      3  N   UNL d   1       0.897   0.627   0.224  0.00  0.00    -0.281 N 
ATOM      4  HN  UNL d   1       1.668   1.286   0.328  1.00  0.00     0.188 HD
ATOM      5  C   UNL d   1      -1.115  -0.170   0.079  0.00  0.00     0.159 A 
ATOM      6  N   UNL d   1      -0.439   0.947   0.204  0.00  0.00    -0.278 N 
ATOM      7  HN  UNL d   1      -0.835   1.885   0.275  1.00  0.00     0.189 HD
ATOM      8  C   UNL d   1       2.262  -1.366   0.027  0.00  0.00     0.120 A 
ATOM      9  O   UNL d   1       2.438  -2.595  -0.557  0.00  0.00    -0.319 OA
ATOM     10  C   UNL d   1       3.489  -0.931   0.506  0.00  0.00     0.043 A 
ATOM     11  C   UNL d   1       3.748  -2.927  -0.442  0.00  0.00     0.142 A 
ATOM     12  C   UNL d   1       4.438  -1.939   0.216  0.00  0.00     0.027 A 
ATOM     13  C   UNL d   1      -0.595  -2.627  -0.015  0.00  0.00     0.160 C 
ENDROOT
BRANCH   5  14
ATOM     14  S   UNL d   1      -2.838  -0.272   0.005  0.00  0.00    -0.105 SA
ATOM     15  H   UNL d   1      -3.005  -1.595  -0.088  0.00  0.00     0.110 HD
ENDBRANCH   5  14
TORSDOF 1
