REMARK  0 active torsions:
REMARK  status: ('A' for Active; 'I' for Inactive)
ROOT
ATOM      1  C   UNL d   1      -0.159  -1.104   0.000  0.00  0.00     0.088 A 
ATOM      2  C   UNL d   1      -0.408   0.324   0.001  0.00  0.00     0.010 A 
ATOM      3  C   UNL d   1       0.575   1.225   0.002  0.00  0.00     0.029 A 
ATOM      4  O   UNL d   1       1.117  -1.607   0.000  0.00  0.00    -0.309 OA
ATOM      5  C   UNL d   1      -1.315  -1.786  -0.000  0.00  0.00     0.050 A 
ATOM      6  C   UNL d   1      -1.852   0.513   0.001  0.00  0.00    -0.013 A 
ATOM      7  C   UNL d   1      -2.394  -0.790   0.000  0.00  0.00    -0.022 A 
ATOM      8  C   UNL d   1       1.942   0.700   0.002  0.00  0.00    -0.001 A 
ATOM      9  C   UNL d   1       2.157  -0.692   0.001  0.00  0.00     0.086 A 
ATOM     10  C   UNL d   1      -2.655   1.638   0.002  0.00  0.00     0.013 A 
ATOM     11  C   UNL d   1      -3.765  -0.981  -0.000  0.00  0.00     0.012 A 
ATOM     12  C   UNL d   1       3.040   1.565   0.002  0.00  0.00     0.014 A 
ATOM     13  C   UNL d   1       3.453  -1.206  -0.000  0.00  0.00     0.038 A 
ATOM     14  C   UNL d   1      -4.039   1.447   0.001  0.00  0.00     0.001 A 
ATOM     15  C   UNL d   1      -4.588   0.152   0.000  0.00  0.00     0.001 A 
ATOM     16  C   UNL d   1       4.337   1.046   0.001  0.00  0.00     0.001 A 
ATOM     17  C   UNL d   1       4.543  -0.335   0.000  0.00  0.00     0.003 A 
ENDROOT
TORSDOF 0
