REMARK  7 active torsions:
REMARK  status: ('A' for Active; 'I' for Inactive)
REMARK    1  A    between atoms: C_2  and  C_1 
REMARK    2  A    between atoms: O_12  and  C_2 
REMARK    3  A    between atoms: O_6  and  C_3 
REMARK    4  A    between atoms: C_5  and  C_10 
REMARK    5  A    between atoms: O_14  and  C_5 
REMARK    6  A    between atoms: C_10  and  O_6 
REMARK    7  A    between atoms: C_16  and  O_14 
ROOT
ATOM      1  C   UNL d   1       1.669   1.335   0.111  0.00  0.00     0.074 A 
ATOM      2  C   UNL d   1       2.311   0.081   0.180  0.00  0.00     0.085 A 
ATOM      3  C   UNL d   1       0.269   1.391  -0.049  0.00  0.00     0.044 A 
ATOM      4  C   UNL d   1       1.527  -1.082   0.042  0.00  0.00     0.039 A 
ATOM      5  C   UNL d   1      -0.482   0.227  -0.160  0.00  0.00     0.035 A 
ATOM      6  C   UNL d   1       0.142  -1.010  -0.124  0.00  0.00     0.026 A 
ATOM      7 CL   UNL d   1      -2.190   0.315  -0.340  0.00  0.00    -0.084 Cl
ENDROOT
BRANCH   2   8
ATOM      8  O   UNL d   1       3.669   0.035   0.387  0.00  0.00    -0.340 OA
BRANCH   8   9
ATOM      9  C   UNL d   1       4.216  -1.228   0.742  0.00  0.00     0.286 C 
BRANCH   9  10
ATOM     10  C   UNL d   1       5.714  -1.247   1.023  0.00  0.00     0.283 C 
ATOM     11  O   UNL d   1       6.509  -0.343   0.826  0.00  0.00    -0.263 OA
BRANCH  10  12
ATOM     12  O   UNL d   1       6.029  -2.499   1.483  0.00  0.00    -0.320 OA
BRANCH  12  13
ATOM     13  C   UNL d   1       7.421  -2.800   1.647  0.00  0.00     0.174 C 
ATOM     14  C   UNL d   1       7.938  -3.435   0.370  0.00  0.00     0.034 C 
ENDBRANCH  12  13
ENDBRANCH  10  12
ENDBRANCH   9  10
ENDBRANCH   8   9
ENDBRANCH   2   8
BRANCH   1  15
ATOM     15  C   UNL d   1       2.342   2.661   0.227  0.00  0.00     0.295 C 
ATOM     16  O   UNL d   1       1.717   3.687   0.466  0.00  0.00    -0.259 OA
BRANCH  15  17
ATOM     17  O   UNL d   1       3.669   2.604  -0.023  0.00  0.00    -0.322 OA
ATOM     18  C   UNL d   1       4.332   3.868   0.053  0.00  0.00     0.213 C 
ENDBRANCH  15  17
ENDBRANCH   1  15
TORSDOF 7
