REMARK  3 active torsions:
REMARK  status: ('A' for Active; 'I' for Inactive)
REMARK    1  A    between atoms: C_6  and  C_1 
REMARK    2  A    between atoms: C_7  and  N_2 
REMARK    3  A    between atoms: O_15  and  C_5 
ROOT
ATOM      1  N   UNL d   1       0.794   4.312   0.046  0.00  0.00    -0.365 N 
ATOM      2  HN  UNL d   1       0.865   3.805   0.928  1.00  0.00     0.165 HD
ATOM      3  C   UNL d   1       0.927   3.699  -1.089  0.00  0.00     0.102 C 
ENDROOT
BRANCH   3   4
ATOM      4  C   UNL d   1       1.219   2.252  -1.164  0.00  0.00     0.016 A 
ATOM      5  C   UNL d   1       1.605   1.678  -2.379  0.00  0.00     0.099 A 
ATOM      6  C   UNL d   1       1.878   0.307  -2.441  0.00  0.00     0.069 A 
ATOM      7 CL   UNL d   1       2.366  -0.415  -3.930  0.00  0.00    -0.081 Cl
ATOM      8  C   UNL d   1       1.764  -0.491  -1.304  0.00  0.00     0.050 A 
ATOM      9  C   UNL d   1       1.381   0.092  -0.097  0.00  0.00     0.036 A 
ATOM     10  C   UNL d   1       1.111   1.457  -0.017  0.00  0.00     0.039 A 
ATOM     11 CL   UNL d   1       1.235  -0.890   1.308  0.00  0.00    -0.084 Cl
BRANCH   5  12
ATOM     12  O   UNL d   1       1.729   2.464  -3.495  0.00  0.00    -0.358 OA
ATOM     13  H   UNL d   1       2.029   1.895  -4.230  0.00  0.00     0.217 HD
ENDBRANCH   5  12
ENDBRANCH   3   4
BRANCH   1  14
ATOM     14  C   UNL d   1       0.549   5.702   0.025  0.00  0.00     0.038 A 
ATOM     15  C   UNL d   1      -0.413   6.264   0.881  0.00  0.00    -0.035 A 
ATOM     16  C   UNL d   1      -0.638   7.653   0.853  0.00  0.00     0.009 A 
ATOM     17  C   UNL d   1      -1.229   5.436   1.835  0.00  0.00     0.050 C 
ATOM     18  C   UNL d   1       0.091   8.481  -0.001  0.00  0.00     0.007 A 
ATOM     19  C   UNL d   1       1.069   7.940  -0.836  0.00  0.00    -0.060 A 
ATOM     20  C   UNL d   1       1.300   6.559  -0.800  0.00  0.00     0.036 A 
ATOM     21  C   UNL d   1       1.861   8.829  -1.747  0.00  0.00     0.048 C 
ENDBRANCH   1  14
TORSDOF 3
