REMARK  9 active torsions:
REMARK  status: ('A' for Active; 'I' for Inactive)
REMARK    1  A    between atoms: C_3  and  C_1 
REMARK    2  A    between atoms: C_2  and  O_13 
REMARK       I    between atoms: N_12  and  C_2 
REMARK    3  A    between atoms: O_15  and  C_4 
REMARK    4  A    between atoms: C_17  and  N_12 
REMARK    5  A    between atoms: O_13  and  C_18 
REMARK    6  A    between atoms: C_19  and  O_15 
REMARK    7  A    between atoms: C_20  and  C_17 
REMARK    8  A    between atoms: C_18  and  C_19 
REMARK    9  A    between atoms: C_21  and  C_20 
ROOT
ATOM      1  O   UNL d   1       0.432   4.041  -2.884  0.00  0.00    -0.334 OA
ENDROOT
BRANCH   1   2
ATOM      2  C   UNL d   1       0.295   2.707  -2.547  0.00  0.00     0.142 A 
ATOM      3  C   UNL d   1      -0.218   1.862  -3.516  0.00  0.00     0.072 A 
ATOM      4  C   UNL d   1      -0.387   0.507  -3.198  0.00  0.00     0.053 A 
ATOM      5  C   UNL d   1      -0.019   0.068  -1.922  0.00  0.00     0.033 A 
ATOM      6  C   UNL d   1       0.490   0.990  -1.025  0.00  0.00     0.091 A 
ATOM      7  N   UNL d   1       0.647   2.294  -1.311  0.00  0.00    -0.347 N 
ATOM      8  HN  UNL d   1       1.018   2.947  -0.620  1.00  0.00     0.167 HD
BRANCH   4   9
ATOM      9  C   UNL d   1      -0.957  -0.472  -4.187  0.00  0.00     0.417 C 
ATOM     10  F   UNL d   1      -1.290   0.085  -5.383  0.00  0.00    -0.166 F 
ATOM     11  F   UNL d   1      -2.090  -1.069  -3.723  0.00  0.00    -0.166 F 
ATOM     12  F   UNL d   1      -0.092  -1.484  -4.470  0.00  0.00    -0.166 F 
ENDBRANCH   4   9
ENDBRANCH   1   2
BRANCH   1  13
ATOM     13  C   UNL d   1       0.983   4.810  -1.808  0.00  0.00     0.204 C 
BRANCH  13  14
ATOM     14  C   UNL d   1       1.115   6.272  -2.218  0.00  0.00     0.207 C 
BRANCH  14  15
ATOM     15  O   UNL d   1       1.672   7.035  -1.133  0.00  0.00    -0.302 OA
BRANCH  15  16
ATOM     16  C   UNL d   1       3.027   7.069  -1.096  0.00  0.00     0.360 C 
ATOM     17  O   UNL d   1       3.770   6.550  -1.916  0.00  0.00    -0.239 OA
ATOM     18  N   UNL d   1       3.430   7.781  -0.008  0.00  0.00    -0.337 N 
ATOM     19  H   UNL d   1       2.696   8.193   0.550  0.00  0.00     0.164 HD
BRANCH  18  20
ATOM     20  C   UNL d   1       4.804   8.184   0.184  0.00  0.00     0.125 C 
BRANCH  20  21
ATOM     21  C   UNL d   1       5.112   9.506  -0.521  0.00  0.00     0.019 C 
BRANCH  21  22
ATOM     22  C   UNL d   1       4.324  10.676   0.075  0.00  0.00    -0.003 C 
ATOM     23  C   UNL d   1       4.655  11.987  -0.619  0.00  0.00     0.005 C 
ENDBRANCH  21  22
ENDBRANCH  20  21
ENDBRANCH  18  20
ENDBRANCH  15  16
ENDBRANCH  14  15
ENDBRANCH  13  14
ENDBRANCH   1  13
TORSDOF 9
