REMARK  2 active torsions:
REMARK  status: ('A' for Active; 'I' for Inactive)
REMARK    1  A    between atoms: C_11  and  C_4 
REMARK    2  A    between atoms: C_10  and  C_5 
ROOT
ATOM      1  C   UNL d   1      -0.462  -1.198   0.129  0.00  0.00     0.098 A 
ATOM      2  C   UNL d   1       0.977   0.788  -0.158  0.00  0.00     0.098 A 
ATOM      3  S   UNL d   1       1.208  -0.895  -0.027  0.00  0.00    -0.066 SA
ATOM      4  C   UNL d   1      -0.362   1.152  -0.054  0.00  0.00     0.015 A 
ATOM      5  C   UNL d   1      -1.224  -0.036   0.050  0.00  0.00     0.015 A 
ATOM      6  C   UNL d   1      -0.927  -2.543   0.309  0.00  0.00     0.108 C 
ATOM      7  C   UNL d   1       2.110   1.649  -0.346  0.00  0.00     0.108 C 
ATOM      8  N   UNL d   1      -1.291  -3.638   0.424  0.00  0.00    -0.191 NA
ATOM      9  N   UNL d   1       3.037   2.335  -0.469  0.00  0.00    -0.191 NA
ENDROOT
BRANCH   5  10
ATOM     10  C   UNL d   1      -2.700  -0.082   0.121  0.00  0.00    -0.023 A 
ATOM     11  C   UNL d   1      -3.434  -0.996  -0.656  0.00  0.00     0.012 A 
ATOM     12  C   UNL d   1      -4.830  -1.048  -0.582  0.00  0.00     0.001 A 
ATOM     13  C   UNL d   1      -5.515  -0.153   0.234  0.00  0.00     0.000 A 
ATOM     14  C   UNL d   1      -4.807   0.776   0.989  0.00  0.00     0.001 A 
ATOM     15  C   UNL d   1      -3.408   0.798   0.950  0.00  0.00     0.012 A 
ENDBRANCH   5  10
BRANCH   4  16
ATOM     16  C   UNL d   1      -0.777   2.569  -0.096  0.00  0.00    -0.023 A 
ATOM     17  C   UNL d   1      -0.124   3.538   0.686  0.00  0.00     0.012 A 
ATOM     18  C   UNL d   1      -0.514   4.880   0.644  0.00  0.00     0.001 A 
ATOM     19  C   UNL d   1      -1.594   5.267  -0.142  0.00  0.00     0.000 A 
ATOM     20  C   UNL d   1      -2.269   4.316  -0.904  0.00  0.00     0.001 A 
ATOM     21  C   UNL d   1      -1.850   2.981  -0.898  0.00  0.00     0.012 A 
ENDBRANCH   4  16
TORSDOF 2
