REMARK  5 active torsions:
REMARK  status: ('A' for Active; 'I' for Inactive)
REMARK    1  A    between atoms: C_8  and  C_3 
REMARK    2  A    between atoms: S_4  and  N_9 
REMARK    3  A    between atoms: C_11  and  S_4 
REMARK    4  A    between atoms: C_12  and  N_5 
REMARK       I    between atoms: N_10  and  C_8 
REMARK    5  A    between atoms: N_9  and  N_10 
ROOT
ATOM      1  C   UNL d   1      -0.773  -2.552   0.011  0.00  0.00     0.288 C 
ATOM      2  N   UNL d   1       0.260  -3.469  -0.030  0.00  0.00    -0.255 N 
ATOM      3  O   UNL d   1      -1.953  -2.903   0.076  0.00  0.00    -0.264 OA
ATOM      4  H   UNL d   1       1.226  -3.160  -0.127  0.00  0.00     0.191 HD
ENDROOT
BRANCH   2   5
ATOM      5  N   UNL d   1      -0.078  -4.877   0.030  0.00  0.00    -0.220 N 
ATOM      6  H   UNL d   1      -1.064  -5.150   0.110  0.00  0.00     0.200 HD
BRANCH   5   7
ATOM      7  S   UNL d   1       1.063  -6.101  -0.037  0.00  0.00     0.276 S 
ATOM      8  O   UNL d   1       0.367  -7.361   0.095  0.00  0.00    -0.199 OA
ATOM      9  O   UNL d   1       1.946  -5.819  -1.149  0.00  0.00    -0.199 OA
BRANCH   7  10
ATOM     10  C   UNL d   1       1.974  -5.835   1.466  0.00  0.00     0.081 A 
ATOM     11  C   UNL d   1       1.317  -5.947   2.697  0.00  0.00     0.028 A 
ATOM     12  C   UNL d   1       2.031  -5.718   3.875  0.00  0.00     0.044 A 
ATOM     13  C   UNL d   1       3.381  -5.388   3.806  0.00  0.00     0.116 A 
ATOM     14  C   UNL d   1       4.039  -5.289   2.583  0.00  0.00     0.044 A 
ATOM     15  F   UNL d   1       4.061  -5.163   4.937  0.00  0.00    -0.206 F 
ATOM     16  C   UNL d   1       3.335  -5.516   1.402  0.00  0.00     0.028 A 
ENDBRANCH   7  10
ENDBRANCH   5   7
ENDBRANCH   2   5
BRANCH   1  17
ATOM     17  C   UNL d   1      -0.364  -1.142  -0.011  0.00  0.00     0.119 A 
ATOM     18  N   UNL d   1       0.913  -0.720  -0.010  0.00  0.00    -0.292 N 
ATOM     19  N   UNL d   1       0.838   0.647  -0.003  0.00  0.00    -0.287 N 
ATOM     20  HN  UNL d   1       1.756  -1.294  -0.015  1.00  0.00     0.187 HD
ATOM     21  C   UNL d   1      -0.473   1.089   0.000  0.00  0.00     0.028 A 
ATOM     22  C   UNL d   1      -0.968   2.489   0.020  0.00  0.00     0.070 C 
ATOM     23  C   UNL d   1      -1.251  -0.048  -0.014  0.00  0.00     0.063 A 
BRANCH  19  24
ATOM     24  C   UNL d   1       2.090   1.442   0.011  0.00  0.00     0.043 C 
ATOM     25  C   UNL d   1       3.349   0.536  -0.022  0.00  0.00     0.039 C 
ATOM     26  C   UNL d   1       2.176   2.353  -1.232  0.00  0.00     0.039 C 
ATOM     27  C   UNL d   1       2.192   2.281   1.302  0.00  0.00     0.039 C 
ENDBRANCH  19  24
ENDBRANCH   1  17
TORSDOF 5
