REMARK  4 active torsions:
REMARK  status: ('A' for Active; 'I' for Inactive)
REMARK    1  A    between atoms: C_2  and  C_1 
REMARK    2  A    between atoms: N_7  and  C_3 
REMARK    3  A    between atoms: O_15  and  C_6 
REMARK       I    between atoms: C_10  and  N_7 
REMARK    4  A    between atoms: C_16  and  C_10 
ROOT
ATOM      1  C   UNL d   1       0.574   1.111   0.767  0.00  0.00     0.065 A 
ATOM      2  C   UNL d   1      -0.474   1.764   2.857  0.00  0.00     0.087 A 
ATOM      3  N   UNL d   1       0.522   3.443   1.400  0.00  0.00    -0.344 N 
ATOM      4  HN  UNL d   1       0.751   4.417   1.202  1.00  0.00     0.167 HD
ATOM      5  C   UNL d   1      -0.133   3.084   2.530  0.00  0.00     0.169 A 
ATOM      6  C   UNL d   1      -0.104   0.776   1.944  0.00  0.00     0.051 A 
ATOM      7  C   UNL d   1       0.858   2.450   0.546  0.00  0.00     0.106 A 
ENDROOT
BRANCH   2   8
ATOM      8  N   UNL d   1      -1.160   1.497   4.068  0.00  0.00    -0.324 N 
ATOM      9  C   UNL d   1      -1.569   0.260   4.532  0.00  0.00     0.221 C 
ATOM     10  O   UNL d   1      -1.402  -0.810   3.955  0.00  0.00    -0.273 OA
ATOM     11  H   UNL d   1      -1.360   2.317   4.633  0.00  0.00     0.169 HD
BRANCH   9  12
ATOM     12  C   UNL d   1      -2.273   0.335   5.874  0.00  0.00     0.098 C 
ATOM     13  C   UNL d   1      -2.708  -1.044   6.354  0.00  0.00     0.014 C 
ENDBRANCH   9  12
ENDBRANCH   2   8
BRANCH   5  14
ATOM     14  O   UNL d   1      -0.499   4.073   3.432  0.00  0.00    -0.339 OA
ATOM     15  C   UNL d   1      -0.081   5.374   3.018  0.00  0.00     0.211 C 
ENDBRANCH   5  14
BRANCH   1  16
ATOM     16  C   UNL d   1       0.987   0.084  -0.238  0.00  0.00     0.418 C 
ATOM     17  F   UNL d   1       0.686  -1.194   0.121  0.00  0.00    -0.166 F 
ATOM     18  F   UNL d   1       2.329   0.098  -0.472  0.00  0.00    -0.166 F 
ATOM     19  F   UNL d   1       0.398   0.279  -1.450  0.00  0.00    -0.166 F 
ENDBRANCH   1  16
TORSDOF 4
