REMARK  2 active torsions:
REMARK  status: ('A' for Active; 'I' for Inactive)
REMARK    1  A    between atoms: N_8  and  C_1 
REMARK    2  A    between atoms: S_16  and  C_5 
ROOT
ATOM      1  C   UNL d   1      -0.763   1.192  -0.004  0.00  0.00     0.136 A 
ATOM      2  C   UNL d   1      -1.501   0.019   0.068  0.00  0.00     0.122 A 
ATOM      3  N   UNL d   1       0.593   1.197  -0.109  0.00  0.00    -0.331 N 
ATOM      4  HN  UNL d   1       1.112   2.069  -0.218  1.00  0.00     0.168 HD
ATOM      5  C   UNL d   1      -0.752  -1.151   0.070  0.00  0.00     0.095 A 
ATOM      6  N   UNL d   1       0.597  -1.161   0.028  0.00  0.00    -0.339 N 
ATOM      7  HN  UNL d   1       1.120  -2.036   0.067  1.00  0.00     0.167 HD
ATOM      8  C   UNL d   1       1.224   0.016  -0.065  0.00  0.00     0.079 A 
ATOM      9  C   UNL d   1      -2.924  -0.031   0.014  0.00  0.00     0.106 C 
ATOM     10  N   UNL d   1      -4.085  -0.062  -0.033  0.00  0.00    -0.191 NA
ATOM     11  C   UNL d   1       2.720   0.014  -0.081  0.00  0.00     0.089 C 
ENDROOT
BRANCH   1  12
ATOM     12  N   UNL d   1      -1.376   2.486   0.017  0.00  0.00    -0.318 N 
ATOM     13  C   UNL d   1      -2.545   2.876   0.641  0.00  0.00     0.098 A 
ATOM     14  C   UNL d   1      -2.792   4.200   0.350  0.00  0.00     0.019 A 
ATOM     15  C   UNL d   1      -1.713   4.666  -0.428  0.00  0.00     0.019 A 
ATOM     16  C   UNL d   1      -0.832   3.617  -0.568  0.00  0.00     0.098 A 
ENDBRANCH   1  12
BRANCH   5  17
ATOM     17  S   UNL d   1      -1.536  -2.770   0.115  0.00  0.00    -0.115 SA
ATOM     18  C   UNL d   1      -0.091  -3.862   0.034  0.00  0.00     0.097 C 
ENDBRANCH   5  17
TORSDOF 2
