REMARK  5 active torsions:
REMARK  status: ('A' for Active; 'I' for Inactive)
REMARK    1  A    between atoms: C_3  and  N_1 
REMARK    2  A    between atoms: C_4  and  C_2 
REMARK       I    between atoms: N_10  and  C_4 
REMARK    3  A    between atoms: C_14  and  N_10 
REMARK    4  A    between atoms: C_16  and  C_14 
REMARK    5  A    between atoms: C_15  and  C_16 
ROOT
ATOM      1  C   UNL d   1      -1.274  -0.042   1.703  0.00  0.00     0.254 C 
ATOM      2  O   UNL d   1      -2.272   0.081   2.402  0.00  0.00    -0.268 OA
ATOM      3  N   UNL d   1      -0.611  -1.236   1.554  0.00  0.00    -0.356 N 
ATOM      4  H   UNL d   1       0.256  -1.288   1.026  0.00  0.00     0.162 HD
ENDROOT
BRANCH   1   5
ATOM      5  C   UNL d   1      -0.702   1.164   1.037  0.00  0.00     0.065 A 
ATOM      6  C   UNL d   1      -0.090   1.214  -0.220  0.00  0.00     0.120 A 
ATOM      7  C   UNL d   1       0.401   2.413  -0.767  0.00  0.00     0.060 A 
ATOM      8  C   UNL d   1       0.267   3.591  -0.039  0.00  0.00     0.036 A 
ATOM      9  C   UNL d   1      -0.355   3.579   1.207  0.00  0.00     0.025 A 
ATOM     10 CL   UNL d   1       0.867   5.066  -0.684  0.00  0.00    -0.084 Cl
ATOM     11  C   UNL d   1      -0.840   2.377   1.738  0.00  0.00     0.021 A 
BRANCH   6  12
ATOM     12  N   UNL d   1       0.050   0.037  -1.042  0.00  0.00    -0.115 N 
ATOM     13  O   UNL d   1       0.859  -0.819  -0.657  0.00  0.00    -0.532 OA
ATOM     14  O   UNL d   1      -0.599   0.004  -2.094  0.00  0.00    -0.532 OA
ENDBRANCH   6  12
ENDBRANCH   1   5
BRANCH   3  15
ATOM     15  C   UNL d   1      -1.031  -2.449   2.246  0.00  0.00     0.127 C 
BRANCH  15  16
ATOM     16  C   UNL d   1      -0.103  -3.614   1.896  0.00  0.00     0.058 C 
BRANCH  16  17
ATOM     17  C   UNL d   1      -0.446  -4.927   2.553  0.00  0.00    -0.057 A 
ATOM     18  C   UNL d   1      -0.800  -6.034   1.769  0.00  0.00     0.007 A 
ATOM     19  C   UNL d   1      -1.039  -7.277   2.358  0.00  0.00     0.001 A 
ATOM     20  C   UNL d   1      -0.928  -7.426   3.738  0.00  0.00     0.000 A 
ATOM     21  C   UNL d   1      -0.587  -6.332   4.530  0.00  0.00     0.001 A 
ATOM     22  C   UNL d   1      -0.347  -5.088   3.942  0.00  0.00     0.007 A 
ENDBRANCH  16  17
ENDBRANCH  15  16
ENDBRANCH   3  15
TORSDOF 5
