REMARK  4 active torsions:
REMARK  status: ('A' for Active; 'I' for Inactive)
REMARK    1  A    between atoms: C_6  and  C_1 
REMARK    2  A    between atoms: O_7  and  C_2 
REMARK    3  A    between atoms: O_13  and  C_6 
REMARK    4  A    between atoms: C_15  and  O_7 
ROOT
ATOM      1  C   UNL d   1       2.446   0.088   0.121  0.00  0.00     0.115 A 
ATOM      2  C   UNL d   1       1.513   1.108   0.031  0.00  0.00     0.104 A 
ATOM      3  S   UNL d   1       1.683  -1.440   0.174  0.00  0.00    -0.081 SA
ATOM      4  C   UNL d   1       0.149   0.624  -0.084  0.00  0.00     0.016 A 
ATOM      5  C   UNL d   1       0.113  -0.771   0.026  0.00  0.00     0.020 A 
ATOM      6  C   UNL d   1      -1.093  -1.502   0.000  0.00  0.00     0.043 A 
ATOM      7  C   UNL d   1      -1.100   1.277  -0.275  0.00  0.00     0.017 A 
ATOM      8  C   UNL d   1      -2.293  -0.813  -0.143  0.00  0.00     0.035 A 
ATOM      9  C   UNL d   1      -2.304   0.562  -0.288  0.00  0.00     0.025 A 
ATOM     10 CL   UNL d   1      -3.777  -1.683  -0.151  0.00  0.00    -0.084 Cl
ENDROOT
BRANCH   1  11
ATOM     11  C   UNL d   1       3.898   0.199   0.168  0.00  0.00     0.302 C 
ATOM     12  O   UNL d   1       4.555   1.194  -0.115  0.00  0.00    -0.259 OA
BRANCH  11  13
ATOM     13  O   UNL d   1       4.466  -0.972   0.596  0.00  0.00    -0.322 OA
ATOM     14  C   UNL d   1       5.890  -0.946   0.689  0.00  0.00     0.213 C 
ENDBRANCH  11  13
ENDBRANCH   1  11
BRANCH   2  15
ATOM     15  O   UNL d   1       1.968   2.390   0.006  0.00  0.00    -0.344 OA
BRANCH  15  16
ATOM     16  C   UNL d   1       1.228   3.382   0.722  0.00  0.00     0.120 C 
ATOM     17  C   UNL d   1       0.969   3.035   2.189  0.00  0.00     0.040 C 
ATOM     18  C   UNL d   1       2.060   4.664   0.653  0.00  0.00     0.040 C 
ENDBRANCH  15  16
ENDBRANCH   2  15
TORSDOF 4
