REMARK  9 active torsions:
REMARK  status: ('A' for Active; 'I' for Inactive)
REMARK    1  A    between atoms: C_6  and  C_1 
REMARK    2  A    between atoms: C_14  and  N_2 
REMARK    3  A    between atoms: C_8  and  C_3 
REMARK    4  A    between atoms: O_15  and  C_6 
REMARK       I    between atoms: C_7  and  N_13 
REMARK    5  A    between atoms: O_9  and  C_7 
REMARK    6  A    between atoms: C_12  and  O_9 
REMARK    7  A    between atoms: N_13  and  C_21 
REMARK    8  A    between atoms: C_17  and  C_14 
REMARK    9  A    between atoms: C_21  and  C_17 
ROOT
ATOM      1  C   UNL d   1      -0.903   0.580  -0.927  0.00  0.00     0.061 A 
ATOM      2  N   UNL d   1       0.780  -0.604   0.012  0.00  0.00    -0.352 N 
ATOM      3  C   UNL d   1      -0.013  -0.160   1.069  0.00  0.00     0.020 A 
ATOM      4  C   UNL d   1       0.258  -0.136  -1.190  0.00  0.00     0.025 A 
ATOM      5  C   UNL d   1      -1.045   0.568   0.486  0.00  0.00     0.046 A 
ATOM      6  C   UNL d   1       0.872  -0.384  -2.536  0.00  0.00     0.069 C 
ENDROOT
BRANCH   2   7
ATOM      7  C   UNL d   1       1.993  -1.411   0.102  0.00  0.00     0.130 C 
BRANCH   7   8
ATOM      8  C   UNL d   1       1.744  -2.903  -0.139  0.00  0.00     0.040 C 
BRANCH   8   9
ATOM      9  C   UNL d   1       3.035  -3.704  -0.022  0.00  0.00     0.126 C 
BRANCH   9  10
ATOM     10  N   UNL d   1       2.834  -5.102  -0.339  0.00  0.00    -0.337 N 
ATOM     11  C   UNL d   1       2.608  -6.156   0.504  0.00  0.00     0.361 C 
ATOM     12  O   UNL d   1       2.574  -7.291   0.061  0.00  0.00    -0.238 OA
ATOM     13  H   UNL d   1       2.923  -5.396  -1.301  0.00  0.00     0.164 HD
BRANCH  11  14
ATOM     14  O   UNL d   1       2.455  -5.808   1.809  0.00  0.00    -0.294 OA
BRANCH  14  15
ATOM     15  C   UNL d   1       2.348  -6.862   2.816  0.00  0.00     0.061 C 
ATOM     16  C   UNL d   1       3.622  -7.722   2.837  0.00  0.00     0.046 C 
ATOM     17  C   UNL d   1       2.200  -6.138   4.167  0.00  0.00     0.046 C 
ATOM     18  C   UNL d   1       1.101  -7.736   2.609  0.00  0.00     0.046 C 
ENDBRANCH  14  15
ENDBRANCH  11  14
ENDBRANCH   9  10
ENDBRANCH   8   9
ENDBRANCH   7   8
ENDBRANCH   2   7
BRANCH   3  19
ATOM     19  C   UNL d   1       0.205  -0.427   2.575  0.00  0.00    -0.009 C 
ATOM     20  C   UNL d   1      -1.029   0.046   3.393  0.00  0.00     0.021 C 
ATOM     21  C   UNL d   1       0.388  -1.926   2.877  0.00  0.00     0.021 C 
ATOM     22  C   UNL d   1       1.410   0.374   3.107  0.00  0.00     0.021 C 
ENDBRANCH   3  19
BRANCH   1  23
ATOM     23  C   UNL d   1      -1.754   1.209  -1.952  0.00  0.00     0.178 C 
ATOM     24  O   UNL d   1      -1.505   1.217  -3.147  0.00  0.00    -0.646 OA
BRANCH  23  25
ATOM     25  O   UNL d   1      -2.885   1.803  -1.476  0.00  0.00    -0.773 OA
ATOM     26  H   UNL d   1      -2.984   1.701  -0.519  0.00  0.00     0.167 HD
ENDBRANCH  23  25
ENDBRANCH   1  23
TORSDOF 9
