REMARK  2 active torsions:
REMARK  status: ('A' for Active; 'I' for Inactive)
REMARK    1  A    between atoms: O_12  and  N_6 
REMARK    2  A    between atoms: C_11  and  C_10 
ROOT
ATOM      1  C   UNL d   1      -0.139  -0.683   0.013  0.00  0.00     0.105 A 
ATOM      2  C   UNL d   1      -0.164   0.693   0.022  0.00  0.00     0.105 A 
ATOM      3  O   UNL d   1      -1.387  -1.223   0.032  0.00  0.00    -0.323 OA
ATOM      4  O   UNL d   1      -1.429   1.189   0.047  0.00  0.00    -0.323 OA
ATOM      5  C   UNL d   1      -2.199  -0.031   0.086  0.00  0.00     0.352 A 
ATOM      6  C   UNL d   1       1.044  -1.392  -0.009  0.00  0.00     0.052 A 
ATOM      7  C   UNL d   1       0.992   1.442   0.009  0.00  0.00     0.040 A 
ATOM      8  C   UNL d   1       2.233  -0.655  -0.019  0.00  0.00    -0.016 A 
ATOM      9  C   UNL d   1       2.210   0.756  -0.010  0.00  0.00     0.016 A 
ENDROOT
BRANCH   8  10
ATOM     10  C   UNL d   1       3.517  -1.381  -0.034  0.00  0.00     0.125 C 
ATOM     11  N   UNL d   1       4.655  -0.762  -0.039  0.00  0.00    -0.280 N 
ATOM     12  HN  UNL d   1       4.779   0.250  -0.034  1.00  0.00     0.193 HD
BRANCH  11  13
ATOM     13  O   UNL d   1       5.687  -1.707  -0.052  0.00  0.00    -0.290 OA
ATOM     14  H   UNL d   1       6.484  -1.144  -0.054  0.00  0.00     0.244 HD
ENDBRANCH  11  13
ENDBRANCH   8  10
TORSDOF 2
