REMARK  5 active torsions:
REMARK  status: ('A' for Active; 'I' for Inactive)
REMARK    1  A    between atoms: C_9  and  C_1 
REMARK    2  A    between atoms: N_13  and  C_3 
REMARK    3  A    between atoms: C_12  and  C_6 
REMARK       I    between atoms: N_15  and  C_9 
REMARK    4  A    between atoms: C_16  and  C_10 
REMARK    5  A    between atoms: N_17  and  N_15 
ROOT
ATOM      1  C   UNL d   1       2.382   0.106   0.092  0.00  0.00     0.173 A 
ATOM      2  C   UNL d   1       0.259   0.906   0.051  0.00  0.00     0.056 A 
ATOM      3  C   UNL d   1       1.638   1.267   0.162  0.00  0.00     0.081 A 
ATOM      4  C   UNL d   1       0.265  -0.491   0.033  0.00  0.00     0.162 A 
ATOM      5  O   UNL d   1       1.539  -0.969   0.047  0.00  0.00    -0.285 OA
ATOM      6  C   UNL d   1      -1.004   1.544  -0.042  0.00  0.00    -0.007 A 
ATOM      7  N   UNL d   1      -0.788  -1.323  -0.016  0.00  0.00    -0.335 N 
ATOM      8  HN  UNL d   1      -0.691  -2.338  -0.002  1.00  0.00     0.168 HD
ATOM      9  C   UNL d   1      -1.986  -0.706  -0.083  0.00  0.00     0.045 A 
ATOM     10  C   UNL d   1      -2.123   0.685  -0.094  0.00  0.00     0.043 A 
ENDROOT
BRANCH   1  11
ATOM     11  C   UNL d   1       3.810  -0.118   0.063  0.00  0.00     0.291 C 
ATOM     12  O   UNL d   1       4.653   0.781   0.078  0.00  0.00    -0.264 OA
ATOM     13  N   UNL d   1       4.178  -1.462   0.004  0.00  0.00    -0.288 N 
ATOM     14  H   UNL d   1       3.452  -2.173   0.082  0.00  0.00     0.183 HD
BRANCH  13  15
ATOM     15  N   UNL d   1       5.543  -1.834   0.006  0.00  0.00    -0.247 NA
ATOM     16  H   UNL d   1       6.086  -0.978   0.191  0.00  0.00     0.143 HD
ATOM     17  H   UNL d   1       5.800  -2.089  -0.951  0.00  0.00     0.143 HD
ENDBRANCH  13  15
ENDBRANCH   1  11
BRANCH   3  18
ATOM     18  N   UNL d   1       2.161   2.504   0.294  0.00  0.00    -0.396 N 
ATOM     19  H   UNL d   1       1.608   3.285   0.640  0.00  0.00     0.156 HD
ATOM     20  H   UNL d   1       3.165   2.630   0.439  0.00  0.00     0.156 HD
ENDBRANCH   3  18
BRANCH   6  21
ATOM     21  C   UNL d   1      -1.168   3.009  -0.129  0.00  0.00    -0.025 A 
ATOM     22  C   UNL d   1      -0.340   3.799  -0.945  0.00  0.00     0.012 A 
ATOM     23  C   UNL d   1      -0.485   5.188  -1.012  0.00  0.00     0.001 A 
ATOM     24  C   UNL d   1      -1.510   5.816  -0.312  0.00  0.00     0.000 A 
ATOM     25  C   UNL d   1      -2.382   5.054   0.458  0.00  0.00     0.001 A 
ATOM     26  C   UNL d   1      -2.205   3.669   0.556  0.00  0.00     0.012 A 
ENDBRANCH   6  21
BRANCH   9  27
ATOM     27  C   UNL d   1      -3.161  -1.604  -0.169  0.00  0.00    -0.009 A 
ATOM     28  C   UNL d   1      -3.185  -2.835   0.512  0.00  0.00     0.013 A 
ATOM     29  C   UNL d   1      -4.293  -3.689   0.440  0.00  0.00     0.001 A 
ATOM     30  C   UNL d   1      -5.403  -3.328  -0.319  0.00  0.00     0.000 A 
ATOM     31  C   UNL d   1      -5.403  -2.122  -1.007  0.00  0.00     0.001 A 
ATOM     32  C   UNL d   1      -4.294  -1.271  -0.936  0.00  0.00     0.013 A 
ENDBRANCH   9  27
TORSDOF 5
