REMARK  4 active torsions:
REMARK  status: ('A' for Active; 'I' for Inactive)
REMARK    1  A    between atoms: N_6  and  C_1 
REMARK       I    between atoms: C_8  and  N_6 
REMARK    2  A    between atoms: C_10  and  C_8 
REMARK    3  A    between atoms: C_11  and  C_12 
REMARK    4  A    between atoms: O_15  and  C_11 
ROOT
ATOM      1  C   UNL d   1       1.288  -1.423   0.360  0.00  0.00     0.098 C 
ATOM      2  C   UNL d   1       1.185  -0.086   0.708  0.00  0.00     0.085 C 
ATOM      3  S   UNL d   1      -0.247  -2.077  -0.000  0.00  0.00    -0.075 SA
ATOM      4  C   UNL d   1      -0.114   0.446   0.412  0.00  0.00    -0.021 C 
ATOM      5  C   UNL d   1      -1.007  -0.571   0.143  0.00  0.00    -0.007 C 
ATOM      6  C   UNL d   1       2.264   0.667   1.274  0.00  0.00     0.103 C 
ATOM      7  N   UNL d   1       3.132   1.246   1.781  0.00  0.00    -0.191 NA
ATOM      8  C   UNL d   1      -0.533   1.886   0.372  0.00  0.00     0.041 C 
ATOM      9  C   UNL d   1      -2.486  -0.408   0.002  0.00  0.00     0.047 C 
ATOM     10  C   UNL d   1      -2.054   2.053   0.505  0.00  0.00     0.005 C 
ATOM     11  C   UNL d   1      -2.834   1.044  -0.352  0.00  0.00     0.005 C 
ENDROOT
BRANCH   1  12
ATOM     12  N   UNL d   1       2.445  -2.191   0.240  0.00  0.00    -0.317 N 
ATOM     13  C   UNL d   1       2.481  -3.537  -0.052  0.00  0.00     0.246 C 
ATOM     14  O   UNL d   1       1.550  -4.340  -0.004  0.00  0.00    -0.268 OA
ATOM     15  H   UNL d   1       3.325  -1.690   0.304  0.00  0.00     0.169 HD
BRANCH  13  16
ATOM     16  C   UNL d   1       3.830  -4.008  -0.461  0.00  0.00     0.081 C 
ATOM     17  C   UNL d   1       3.974  -5.313  -0.739  0.00  0.00     0.086 C 
BRANCH  17  18
ATOM     18  C   UNL d   1       5.270  -5.825  -1.207  0.00  0.00     0.165 C 
ATOM     19  O   UNL d   1       6.256  -5.133  -1.378  0.00  0.00    -0.647 OA
BRANCH  18  20
ATOM     20  O   UNL d   1       5.234  -7.156  -1.427  0.00  0.00    -0.773 OA
ATOM     21  H   UNL d   1       4.384  -7.598  -1.253  0.00  0.00     0.167 HD
ENDBRANCH  18  20
ENDBRANCH  17  18
ENDBRANCH  13  16
ENDBRANCH   1  12
TORSDOF 4
