REMARK  2 active torsions:
REMARK  status: ('A' for Active; 'I' for Inactive)
REMARK    1  A    between atoms: C_10  and  C_8 
REMARK    2  A    between atoms: O_17  and  C_10 
ROOT
ATOM      1  C   UNL d   1      -1.693   0.460   1.028  0.00  0.00     0.056 C 
ATOM      2  C   UNL d   1      -1.222  -0.751   0.566  0.00  0.00    -0.018 C 
ATOM      3  N   UNL d   1      -0.596   1.229   1.333  0.00  0.00    -0.356 N 
ATOM      4  C   UNL d   1      -3.143   0.898   1.081  0.00  0.00     0.204 C 
ATOM      5  N   UNL d   1      -3.858   0.118   0.017  0.00  0.00     0.114 N 
ATOM      6  C   UNL d   1       0.196  -0.687   0.512  0.00  0.00    -0.001 A 
ATOM      7  C   UNL d   1      -2.130  -1.807   0.052  0.00  0.00     0.087 C 
ATOM      8  C   UNL d   1      -3.618  -1.372   0.127  0.00  0.00     0.325 C 
ATOM      9  C   UNL d   1       0.555   0.595   0.923  0.00  0.00     0.043 A 
ATOM     10  N   UNL d   1      -5.055   2.782   2.454  0.00  0.00     0.084 N 
ATOM     11  C   UNL d   1      -3.762   0.631   2.475  0.00  0.00     0.078 C 
ATOM     12  C   UNL d   1      -3.228   2.423   0.775  0.00  0.00     0.078 C 
ATOM     13  C   UNL d   1      -4.573   3.068   1.099  0.00  0.00     0.275 C 
ATOM     14  C   UNL d   1      -5.113   1.328   2.660  0.00  0.00     0.275 C 
ATOM     15  C   UNL d   1       1.204  -1.568   0.075  0.00  0.00     0.014 A 
ATOM     16  C   UNL d   1       1.872   1.065   0.863  0.00  0.00     0.030 A 
ATOM     17  C   UNL d   1      -4.296   3.463   3.501  0.00  0.00     0.309 C 
ATOM     18  C   UNL d   1       2.526  -1.117   0.017  0.00  0.00     0.001 A 
ATOM     19  C   UNL d   1       2.850   0.187   0.387  0.00  0.00     0.002 A 
ATOM     20  H   UNL d   1      -0.612   2.172   1.691  0.00  0.00     0.166 HD
ATOM     21  H   UNL d   1      -3.471   0.412  -0.881  0.00  0.00     0.318 HD
ENDROOT
BRANCH   8  22
ATOM     22  C   UNL d   1      -4.393  -2.168  -0.940  0.00  0.00     0.292 C 
ATOM     23  O   UNL d   1      -3.915  -3.069  -1.617  0.00  0.00    -0.263 OA
BRANCH  22  24
ATOM     24  O   UNL d   1      -5.713  -1.832  -0.949  0.00  0.00    -0.325 OA
ATOM     25  C   UNL d   1      -6.521  -2.682  -1.771  0.00  0.00     0.213 C 
ENDBRANCH  22  24
ENDBRANCH   8  22
TORSDOF 2
