REMARK  4 active torsions:
REMARK  status: ('A' for Active; 'I' for Inactive)
REMARK    1  A    between atoms: C_2  and  N_1 
REMARK       I    between atoms: C_3  and  N_1 
REMARK    2  A    between atoms: N_5  and  C_2 
REMARK    3  A    between atoms: C_12  and  C_3 
REMARK    4  A    between atoms: C_9  and  N_5 
ROOT
ATOM      1  C   UNL d   1       0.422   0.406   1.149  0.00  0.00     0.179 C 
ATOM      2  S   UNL d   1       1.431  -0.277   0.002  0.00  0.00    -0.040 SA
ENDROOT
BRANCH   1   3
ATOM      3  N   UNL d   1      -0.933   0.254   0.917  0.00  0.00    -0.299 N 
ATOM      4  C   UNL d   1      -2.016   0.740   1.638  0.00  0.00     0.257 C 
ATOM      5  O   UNL d   1      -1.913   1.465   2.622  0.00  0.00    -0.267 OA
ATOM      6  H   UNL d   1      -1.119  -0.245   0.058  0.00  0.00     0.171 HD
BRANCH   4   7
ATOM      7  C   UNL d   1      -3.354   0.389   1.085  0.00  0.00     0.032 A 
ATOM      8  C   UNL d   1      -3.589  -0.812   0.401  0.00  0.00     0.017 A 
ATOM      9  C   UNL d   1      -4.836  -1.049  -0.182  0.00  0.00     0.001 A 
ATOM     10  C   UNL d   1      -5.852  -0.100  -0.069  0.00  0.00     0.000 A 
ATOM     11  C   UNL d   1      -5.634   1.077   0.645  0.00  0.00     0.001 A 
ATOM     12  C   UNL d   1      -4.390   1.320   1.229  0.00  0.00     0.017 A 
ENDBRANCH   4   7
ENDBRANCH   1   3
BRANCH   1  13
ATOM     13  N   UNL d   1       0.748   1.145   2.260  0.00  0.00    -0.333 N 
ATOM     14  H   UNL d   1      -0.024   1.702   2.622  0.00  0.00     0.168 HD
BRANCH  13  15
ATOM     15  C   UNL d   1       1.988   1.337   2.905  0.00  0.00     0.037 A 
ATOM     16  C   UNL d   1       3.026   0.404   2.877  0.00  0.00     0.069 A 
ATOM     17  C   UNL d   1       4.198   0.633   3.600  0.00  0.00     0.104 A 
ATOM     18  O   UNL d   1       5.137  -0.368   3.577  0.00  0.00    -0.346 OA
ATOM     19  C   UNL d   1       4.366   1.818   4.318  0.00  0.00     0.102 A 
ATOM     20  C   UNL d   1       6.051  -0.228   4.668  0.00  0.00     0.202 C 
ATOM     21  C   UNL d   1       6.565   1.200   4.742  0.00  0.00     0.202 C 
ATOM     22  O   UNL d   1       5.500   2.115   5.029  0.00  0.00    -0.346 OA
ATOM     23  C   UNL d   1       3.333   2.749   4.361  0.00  0.00     0.042 A 
ATOM     24  C   UNL d   1       2.140   2.498   3.675  0.00  0.00     0.032 A 
ENDBRANCH  13  15
ENDBRANCH   1  13
TORSDOF 4
