REMARK  3 active torsions:
REMARK  status: ('A' for Active; 'I' for Inactive)
REMARK    1  A    between atoms: N_5  and  C_1 
REMARK       I    between atoms: C_2  and  N_3 
REMARK    2  A    between atoms: C_4  and  C_2 
REMARK    3  A    between atoms: N_3  and  N_5 
ROOT
ATOM      1  C   UNL d   1       0.189  -3.466  -0.825  0.00  0.00     0.270 C 
ATOM      2  N   UNL d   1       0.830  -3.002  -1.963  0.00  0.00    -0.264 N 
ATOM      3  O   UNL d   1       0.776  -3.807   0.194  0.00  0.00    -0.266 OA
ATOM      4  H   UNL d   1       0.394  -3.139  -2.868  0.00  0.00     0.190 HD
ENDROOT
BRANCH   1   5
ATOM      5  C   UNL d   1      -1.291  -3.546  -0.907  0.00  0.00     0.035 A 
ATOM      6  C   UNL d   1      -2.023  -2.573  -1.598  0.00  0.00     0.041 A 
ATOM      7  C   UNL d   1      -3.415  -2.642  -1.605  0.00  0.00     0.035 A 
ATOM      8 CL   UNL d   1      -4.320  -1.434  -2.432  0.00  0.00    -0.084 Cl
ATOM      9  C   UNL d   1      -4.081  -3.670  -0.937  0.00  0.00     0.024 A 
ATOM     10  C   UNL d   1      -3.350  -4.638  -0.247  0.00  0.00     0.003 A 
ATOM     11  C   UNL d   1      -1.955  -4.572  -0.225  0.00  0.00     0.017 A 
ENDBRANCH   1   5
BRANCH   2  12
ATOM     12  N   UNL d   1       2.228  -2.990  -1.930  0.00  0.00    -0.274 N 
ATOM     13  H   UNL d   1       2.661  -3.260  -1.044  0.00  0.00     0.189 HD
BRANCH  12  14
ATOM     14  C   UNL d   1       2.997  -2.491  -2.932  0.00  0.00     0.184 C 
ATOM     15  S   UNL d   1       4.648  -2.394  -2.800  0.00  0.00    -0.040 SA
ATOM     16  N   UNL d   1       2.371  -2.111  -4.072  0.00  0.00    -0.375 N 
ATOM     17  H   UNL d   1       1.413  -1.803  -4.036  0.00  0.00     0.158 HD
ATOM     18  H   UNL d   1       2.952  -1.659  -4.769  0.00  0.00     0.158 HD
ENDBRANCH  12  14
ENDBRANCH   2  12
TORSDOF 3
