REMARK  3 active torsions:
REMARK  status: ('A' for Active; 'I' for Inactive)
REMARK    1  A    between atoms: O_4  and  S_1 
REMARK    2  A    between atoms: C_6  and  S_1 
REMARK    3  A    between atoms: C_3  and  O_4 
ROOT
ATOM      1  S   UNL d   1       1.433   1.609  -0.529  0.00  0.00     0.298 S 
ATOM      2  O   UNL d   1       2.748   1.024  -0.678  0.00  0.00    -0.193 OA
ATOM      3  O   UNL d   1       1.289   3.032  -0.281  0.00  0.00    -0.193 OA
ENDROOT
BRANCH   1   4
ATOM      4  O   UNL d   1       0.639   0.815   0.645  0.00  0.00    -0.266 OA
BRANCH   4   5
ATOM      5  C   UNL d   1       1.016   1.018   1.994  0.00  0.00     0.149 C 
ATOM      6  C   UNL d   1       0.017   0.336   2.967  0.00  0.00     0.050 C 
ATOM      7  C   UNL d   1      -0.271  -1.112   2.550  0.00  0.00     0.177 C 
ATOM      8  C   UNL d   1       0.884   0.085   4.204  0.00  0.00     0.014 C 
ATOM      9  C   UNL d   1       1.092  -1.791   2.712  0.00  0.00     0.042 C 
ATOM     10  F   UNL d   1      -0.734  -1.212   1.290  0.00  0.00    -0.249 F 
ATOM     11  C   UNL d   1       1.931  -0.701   3.412  0.00  0.00    -0.009 C 
ATOM     12  C   UNL d   1       2.351   0.338   2.361  0.00  0.00     0.038 C 
ENDBRANCH   4   5
ENDBRANCH   1   4
BRANCH   1  13
ATOM     13  C   UNL d   1       0.526   1.237  -2.019  0.00  0.00     0.086 A 
ATOM     14  C   UNL d   1      -0.444   2.130  -2.479  0.00  0.00     0.026 A 
ATOM     15  C   UNL d   1      -1.013   1.942  -3.741  0.00  0.00     0.008 A 
ATOM     16  C   UNL d   1      -0.611   0.869  -4.551  0.00  0.00    -0.062 A 
ATOM     17  C   UNL d   1       0.332  -0.043  -4.060  0.00  0.00     0.008 A 
ATOM     18  C   UNL d   1      -1.154   0.743  -5.945  0.00  0.00     0.048 C 
ATOM     19  C   UNL d   1       0.904   0.138  -2.798  0.00  0.00     0.026 A 
ENDBRANCH   1  13
TORSDOF 3
