REMARK  5 active torsions:
REMARK  status: ('A' for Active; 'I' for Inactive)
REMARK    1  A    between atoms: C_3  and  S_1 
REMARK    2  A    between atoms: N_9  and  S_1 
REMARK    3  A    between atoms: S_2  and  C_4 
REMARK    4  A    between atoms: N_10  and  S_2 
REMARK    5  A    between atoms: C_8  and  C_7 
ROOT
ATOM      1  C   UNL d   1       0.957  -1.153   2.216  0.00  0.00     0.116 A 
ATOM      2  S   UNL d   1       0.949  -1.314   3.912  0.00  0.00    -0.076 SA
ATOM      3  C   UNL d   1      -0.376  -0.227   4.096  0.00  0.00     0.023 A 
ATOM      4  C   UNL d   1      -0.058  -0.328   1.781  0.00  0.00     0.034 A 
ATOM      5  C   UNL d   1      -0.826   0.202   2.861  0.00  0.00     0.022 A 
ENDROOT
BRANCH   3   6
ATOM      6  C   UNL d   1      -0.874   0.137   5.408  0.00  0.00     0.023 A 
ATOM      7  S   UNL d   1      -2.406   0.895   5.634  0.00  0.00    -0.076 SA
ATOM      8  C   UNL d   1      -2.216   0.964   7.328  0.00  0.00     0.116 A 
ATOM      9  C   UNL d   1      -1.005   0.436   7.724  0.00  0.00     0.034 A 
ATOM     10  C   UNL d   1      -0.238  -0.039   6.625  0.00  0.00     0.022 A 
BRANCH   8  11
ATOM     11  S   UNL d   1      -3.540   1.674   8.272  0.00  0.00     0.250 S 
ATOM     12  O   UNL d   1      -4.703   0.857   8.002  0.00  0.00    -0.205 OA
ATOM     13  O   UNL d   1      -3.001   1.784   9.613  0.00  0.00    -0.205 OA
BRANCH  11  14
ATOM     14  N   UNL d   1      -3.862   3.259   7.728  0.00  0.00    -0.206 NA
ATOM     15  C   UNL d   1      -2.720   4.204   7.735  0.00  0.00     0.107 C 
ATOM     16  C   UNL d   1      -2.903   5.038   8.985  0.00  0.00     0.017 C 
ATOM     17  C   UNL d   1      -4.407   5.183   9.096  0.00  0.00     0.017 C 
ATOM     18  C   UNL d   1      -4.981   3.913   8.475  0.00  0.00     0.107 C 
ENDBRANCH  11  14
ENDBRANCH   8  11
ENDBRANCH   3   6
BRANCH   1  19
ATOM     19  S   UNL d   1       2.235  -2.016   1.339  0.00  0.00     0.250 S 
ATOM     20  O   UNL d   1       2.188  -1.458   0.002  0.00  0.00    -0.205 OA
ATOM     21  O   UNL d   1       1.988  -3.423   1.571  0.00  0.00    -0.205 OA
BRANCH  19  22
ATOM     22  N   UNL d   1       3.754  -1.614   2.010  0.00  0.00    -0.206 NA
ATOM     23  C   UNL d   1       4.085  -0.172   2.090  0.00  0.00     0.107 C 
ATOM     24  C   UNL d   1       4.876   0.112   0.831  0.00  0.00     0.017 C 
ATOM     25  C   UNL d   1       5.684  -1.155   0.623  0.00  0.00     0.017 C 
ATOM     26  C   UNL d   1       4.900  -2.270   1.312  0.00  0.00     0.107 C 
ENDBRANCH  19  22
ENDBRANCH   1  19
TORSDOF 5
