REMARK  3 active torsions:
REMARK  status: ('A' for Active; 'I' for Inactive)
REMARK    1  A    between atoms: C_11  and  N_3 
REMARK    2  A    between atoms: C_7  and  C_4 
REMARK    3  A    between atoms: C_10  and  C_5 
ROOT
ATOM      1  N   UNL d   1       1.151  -0.177   0.106  0.00  0.00    -0.301 N 
ATOM      2  HN  UNL d   1       2.152  -0.364   0.157  1.00  0.00     0.187 HD
ATOM      3  N   UNL d   1       0.151  -1.106   0.096  0.00  0.00    -0.283 N 
ATOM      4  C   UNL d   1      -1.189  -0.525   0.005  0.00  0.00     0.147 A 
ATOM      5  C   UNL d   1       0.586   0.989   0.038  0.00  0.00     0.038 A 
ATOM      6  C   UNL d   1      -0.919   0.978   0.024  0.00  0.00     0.091 A 
ENDROOT
BRANCH   4   7
ATOM      7  C   UNL d   1      -2.095  -0.956   1.150  0.00  0.00    -0.030 A 
ATOM      8  C   UNL d   1      -3.477  -1.090   0.925  0.00  0.00     0.049 A 
ATOM      9  C   UNL d   1      -4.262  -1.554   1.960  0.00  0.00     0.105 A 
ATOM     10  O   UNL d   1      -5.603  -1.774   1.899  0.00  0.00    -0.323 OA
ATOM     11  C   UNL d   1      -3.737  -1.868   3.191  0.00  0.00     0.105 A 
ATOM     12  C   UNL d   1      -5.849  -2.311   3.216  0.00  0.00     0.352 A 
ATOM     13  O   UNL d   1      -4.677  -2.332   4.056  0.00  0.00    -0.323 OA
ATOM     14  C   UNL d   1      -2.396  -1.721   3.465  0.00  0.00     0.040 A 
ATOM     15  C   UNL d   1      -1.575  -1.252   2.436  0.00  0.00     0.012 A 
ENDBRANCH   4   7
BRANCH   3  16
ATOM     16  C   UNL d   1       0.432  -2.470   0.027  0.00  0.00     0.051 A 
ATOM     17  C   UNL d   1       1.635  -2.980   0.541  0.00  0.00     0.031 A 
ATOM     18  C   UNL d   1       1.907  -4.352   0.542  0.00  0.00     0.002 A 
ATOM     19  C   UNL d   1       0.989  -5.246  -0.002  0.00  0.00     0.000 A 
ATOM     20  C   UNL d   1      -0.200  -4.766  -0.537  0.00  0.00     0.002 A 
ATOM     21  C   UNL d   1      -0.475  -3.395  -0.514  0.00  0.00     0.031 A 
ENDBRANCH   3  16
BRANCH   5  22
ATOM     22  C   UNL d   1       1.347   2.261  -0.040  0.00  0.00    -0.012 A 
ATOM     23  C   UNL d   1       2.747   2.218  -0.067  0.00  0.00     0.015 A 
ATOM     24  C   UNL d   1       3.487   3.401  -0.168  0.00  0.00     0.024 A 
ATOM     25  C   UNL d   1       2.827   4.625  -0.242  0.00  0.00     0.034 A 
ATOM     26  C   UNL d   1       1.435   4.679  -0.216  0.00  0.00     0.024 A 
ATOM     27 CL   UNL d   1       3.734   6.081  -0.370  0.00  0.00    -0.084 Cl
ATOM     28  C   UNL d   1       0.693   3.497  -0.114  0.00  0.00     0.015 A 
ENDBRANCH   5  22
TORSDOF 3
