REMARK  6 active torsions:
REMARK  status: ('A' for Active; 'I' for Inactive)
REMARK    1  A    between atoms: C_4  and  C_1 
REMARK    2  A    between atoms: C_2  and  C_3 
REMARK    3  A    between atoms: C_7  and  O_17 
REMARK    4  A    between atoms: N_14  and  C_12 
REMARK       I    between atoms: C_13  and  N_14 
REMARK    5  A    between atoms: C_25  and  C_13 
REMARK    6  A    between atoms: O_17  and  C_25 
ROOT
ATOM      1  C   UNL d   1       0.871  -4.889  -1.487  0.00  0.00     0.246 C 
ATOM      2  N   UNL d   1       0.259  -4.059  -2.414  0.00  0.00    -0.325 N 
ATOM      3  O   UNL d   1       1.526  -4.525  -0.511  0.00  0.00    -0.271 OA
ATOM      4  H   UNL d   1      -0.288  -4.517  -3.134  0.00  0.00     0.169 HD
ENDROOT
BRANCH   2   5
ATOM      5  C   UNL d   1       0.217  -2.647  -2.384  0.00  0.00     0.036 A 
ATOM      6  C   UNL d   1       0.864  -1.874  -1.417  0.00  0.00     0.045 A 
ATOM      7  C   UNL d   1       0.735  -0.474  -1.389  0.00  0.00     0.050 A 
ATOM      8  C   UNL d   1      -0.041   0.156  -2.370  0.00  0.00     0.032 A 
ATOM      9  C   UNL d   1      -0.682  -0.595  -3.367  0.00  0.00     0.050 A 
ATOM     10  C   UNL d   1      -0.539  -1.996  -3.366  0.00  0.00     0.045 A 
BRANCH   7  11
ATOM     11  C   UNL d   1       1.423   0.310  -0.297  0.00  0.00     0.417 C 
ATOM     12  F   UNL d   1       1.146   1.643  -0.334  0.00  0.00    -0.166 F 
ATOM     13  F   UNL d   1       2.779   0.209  -0.357  0.00  0.00    -0.166 F 
ATOM     14  F   UNL d   1       1.067  -0.107   0.950  0.00  0.00    -0.166 F 
ENDBRANCH   7  11
BRANCH   9  15
ATOM     15  C   UNL d   1      -1.526   0.076  -4.425  0.00  0.00     0.417 C 
ATOM     16  F   UNL d   1      -1.661   1.418  -4.244  0.00  0.00    -0.166 F 
ATOM     17  F   UNL d   1      -1.012  -0.085  -5.675  0.00  0.00    -0.166 F 
ATOM     18  F   UNL d   1      -2.791  -0.425  -4.472  0.00  0.00    -0.166 F 
ENDBRANCH   9  15
ENDBRANCH   2   5
BRANCH   1  19
ATOM     19  C   UNL d   1       0.708  -6.375  -1.780  0.00  0.00     0.278 C 
BRANCH  19  20
ATOM     20  O   UNL d   1      -0.660  -6.738  -1.646  0.00  0.00    -0.340 OA
BRANCH  20  21
ATOM     21  C   UNL d   1      -0.977  -8.071  -1.630  0.00  0.00     0.092 A 
ATOM     22  C   UNL d   1      -0.056  -9.109  -1.440  0.00  0.00     0.064 A 
ATOM     23  C   UNL d   1      -0.478 -10.445  -1.432  0.00  0.00     0.058 A 
ATOM     24 CL   UNL d   1       0.727 -11.662  -1.191  0.00  0.00    -0.082 Cl
ATOM     25  C   UNL d   1      -1.829 -10.756  -1.615  0.00  0.00     0.057 A 
ATOM     26  C   UNL d   1      -2.756  -9.731  -1.791  0.00  0.00     0.052 A 
ATOM     27 CL   UNL d   1      -2.409 -12.384  -1.638  0.00  0.00    -0.082 Cl
ATOM     28  C   UNL d   1      -2.333  -8.401  -1.793  0.00  0.00     0.069 A 
ATOM     29 CL   UNL d   1      -3.530  -7.171  -2.020  0.00  0.00    -0.081 Cl
ENDBRANCH  20  21
ENDBRANCH  19  20
ENDBRANCH   1  19
TORSDOF 6
