REMARK  6 active torsions:
REMARK  status: ('A' for Active; 'I' for Inactive)
REMARK    1  A    between atoms: N_2  and  C_1 
REMARK       I    between atoms: C_4  and  N_3 
REMARK    2  A    between atoms: C_10  and  C_4 
REMARK    3  A    between atoms: C_5  and  C_10 
REMARK    4  A    between atoms: C_17  and  C_5 
REMARK    5  A    between atoms: C_11  and  C_17 
REMARK    6  A    between atoms: O_19  and  C_11 
ROOT
ATOM      1  N   UNL d   1      -0.240   2.724   0.354  0.00  0.00    -0.251 NA
ATOM      2  N   UNL d   1       0.390   5.522   0.319  0.00  0.00    -0.350 N 
ATOM      3  C   UNL d   1       1.197   6.564   0.759  0.00  0.00     0.220 C 
ATOM      4  C   UNL d   1      -0.612   3.563   1.514  0.00  0.00     0.118 C 
ATOM      5  C   UNL d   1       0.894   3.231  -0.440  0.00  0.00     0.118 C 
ATOM      6  C   UNL d   1       0.645   4.683  -0.858  0.00  0.00     0.140 C 
ATOM      7  C   UNL d   1      -0.752   5.055   1.116  0.00  0.00     0.140 C 
ATOM      8  O   UNL d   1       0.954   7.201   1.782  0.00  0.00    -0.273 OA
ENDROOT
BRANCH   3   9
ATOM      9  C   UNL d   1       2.412   6.873  -0.112  0.00  0.00     0.113 C 
BRANCH   9  10
ATOM     10  C   UNL d   1       3.305   8.089   0.247  0.00  0.00    -0.023 C 
ATOM     11  C   UNL d   1       2.517   9.409   0.067  0.00  0.00     0.010 C 
ATOM     12  C   UNL d   1       3.430  10.406  -0.644  0.00  0.00     0.001 C 
ATOM     13  C   UNL d   1       4.717   9.678  -0.989  0.00  0.00     0.001 C 
ATOM     14  C   UNL d   1       4.418   8.200  -0.826  0.00  0.00     0.010 C 
BRANCH  10  15
ATOM     15  C   UNL d   1       3.909   8.046   1.677  0.00  0.00     0.119 C 
BRANCH  15  16
ATOM     16  C   UNL d   1       4.773   6.847   2.006  0.00  0.00     0.140 C 
ATOM     17  O   UNL d   1       4.915   5.855   1.306  0.00  0.00    -0.650 OA
BRANCH  16  18
ATOM     18  O   UNL d   1       5.411   6.982   3.193  0.00  0.00    -0.776 OA
ATOM     19  H   UNL d   1       5.192   7.812   3.659  0.00  0.00     0.167 HD
ENDBRANCH  16  18
ENDBRANCH  15  16
ENDBRANCH  10  15
ENDBRANCH   9  10
ENDBRANCH   3   9
BRANCH   1  20
ATOM     20  C   UNL d   1      -0.069   1.364   0.649  0.00  0.00     0.159 A 
ATOM     21  N   UNL d   1      -0.499   0.875   1.827  0.00  0.00    -0.343 N 
ATOM     22  C   UNL d   1      -0.263  -0.427   2.081  0.00  0.00     0.092 A 
ATOM     23  HN  UNL d   1      -0.984   1.467   2.501  1.00  0.00     0.167 HD
ATOM     24  C   UNL d   1       0.368  -1.276   1.210  0.00  0.00     0.034 A 
ATOM     25  C   UNL d   1       0.744  -0.706   0.022  0.00  0.00     0.092 A 
ATOM     26  N   UNL d   1       0.534   0.589  -0.270  0.00  0.00    -0.343 N 
ATOM     27  HN  UNL d   1       0.826   0.975  -1.168  1.00  0.00     0.167 HD
ENDBRANCH   1  20
TORSDOF 6
