REMARK  4 active torsions:
REMARK  status: ('A' for Active; 'I' for Inactive)
REMARK    1  A    between atoms: C_7  and  C_2 
REMARK    2  A    between atoms: S_8  and  C_13 
REMARK    3  A    between atoms: C_11  and  S_8 
REMARK    4  A    between atoms: C_13  and  C_14 
ROOT
ATOM      1  C   UNL d   1       2.405  -1.604   0.047  0.00  0.00    -0.008 A 
ATOM      2  C   UNL d   1       2.532  -2.563  -0.967  0.00  0.00     0.014 A 
ATOM      3  C   UNL d   1       3.441  -1.487   0.981  0.00  0.00     0.014 A 
ATOM      4  C   UNL d   1       4.687  -3.290  -0.088  0.00  0.00    -0.049 A 
ATOM      5  C   UNL d   1       3.659  -3.391  -1.037  0.00  0.00     0.009 A 
ATOM      6  C   UNL d   1       4.572  -2.304   0.904  0.00  0.00     0.009 A 
ENDROOT
BRANCH   4   7
ATOM      7  C   UNL d   1       5.908  -4.179  -0.206  0.00  0.00     0.117 C 
BRANCH   7   8
ATOM      8  S   UNL d   1       6.538  -4.775   1.404  0.00  0.00    -0.125 SA
BRANCH   8   9
ATOM      9  C   UNL d   1       7.880  -5.815   0.870  0.00  0.00     0.001 A 
ATOM     10  C   UNL d   1       8.948  -5.320   0.114  0.00  0.00     0.020 A 
ATOM     11  C   UNL d   1      10.001  -6.165  -0.255  0.00  0.00     0.025 A 
ATOM     12  C   UNL d   1       9.990  -7.501   0.141  0.00  0.00     0.034 A 
ATOM     13  C   UNL d   1       8.938  -7.999   0.907  0.00  0.00     0.025 A 
ATOM     14 CL   UNL d   1      11.285  -8.539  -0.309  0.00  0.00    -0.084 Cl
ATOM     15  C   UNL d   1       7.888  -7.154   1.275  0.00  0.00     0.020 A 
ENDBRANCH   8   9
ENDBRANCH   7   8
ENDBRANCH   4   7
BRANCH   1  16
ATOM     16  C   UNL d   1       1.210  -0.771   0.114  0.00  0.00     0.063 A 
ATOM     17  N   UNL d   1       0.013  -1.180  -0.468  0.00  0.00    -0.292 N 
ATOM     18  N   UNL d   1      -0.955  -0.296  -0.291  0.00  0.00    -0.061 NA
ATOM     19  HN  UNL d   1      -0.104  -2.059  -0.972  1.00  0.00     0.183 HD
ATOM     20  S   UNL d   1      -0.455   1.051   0.561  0.00  0.00    -0.010 SA
ATOM     21  C   UNL d   1       1.150   0.468   0.732  0.00  0.00     0.096 A 
ENDBRANCH   1  16
TORSDOF 4
