REMARK  5 active torsions:
REMARK  status: ('A' for Active; 'I' for Inactive)
REMARK    1  A    between atoms: N_2  and  C_16 
REMARK    2  A    between atoms: C_17  and  C_5 
REMARK    3  A    between atoms: S_22  and  C_6 
REMARK    4  A    between atoms: C_15  and  C_25 
REMARK    5  A    between atoms: C_25  and  S_22 
ROOT
ATOM      1  N   UNL d   1       7.932   0.228   0.035  0.00  0.00    -0.277 N 
ATOM      2  HN  UNL d   1       8.892   0.560   0.126  1.00  0.00     0.189 HD
ATOM      3  C   UNL d   1       7.545  -1.017  -0.153  0.00  0.00     0.174 A 
ATOM      4  O   UNL d   1       6.183  -1.130  -0.260  0.00  0.00    -0.277 OA
ATOM      5  N   UNL d   1       6.787   0.996   0.087  0.00  0.00    -0.281 N 
ATOM      6  HN  UNL d   1       6.735   2.006   0.223  1.00  0.00     0.189 HD
ATOM      7  C   UNL d   1       5.774   0.169  -0.073  0.00  0.00     0.150 A 
ENDROOT
BRANCH   7   8
ATOM      8  C   UNL d   1       4.318   0.475  -0.100  0.00  0.00     0.167 C 
BRANCH   8   9
ATOM      9  S   UNL d   1       3.315  -0.852   0.637  0.00  0.00    -0.095 SA
BRANCH   9  10
ATOM     10  C   UNL d   1       1.714  -0.165   0.516  0.00  0.00     0.130 A 
ATOM     11  S   UNL d   1       0.320  -0.996   1.062  0.00  0.00    -0.027 SA
ATOM     12  C   UNL d   1      -0.595   0.378   0.588  0.00  0.00     0.159 A 
ATOM     13  N   UNL d   1       0.128   1.336   0.051  0.00  0.00    -0.279 N 
ATOM     14  N   UNL d   1      -1.929   0.424   0.760  0.00  0.00    -0.379 N 
ATOM     15  N   UNL d   1       1.475   1.021   0.005  0.00  0.00    -0.286 N 
ATOM     16  HN  UNL d   1      -0.261   2.214  -0.294  1.00  0.00     0.189 HD
ATOM     17  HN  UNL d   1       2.193   1.635  -0.379  1.00  0.00     0.188 HD
ATOM     18  H   UNL d   1      -2.438  -0.441   0.885  0.00  0.00     0.158 HD
ATOM     19  H   UNL d   1      -2.432   1.145   0.254  0.00  0.00     0.158 HD
ENDBRANCH   9  10
ENDBRANCH   8   9
ENDBRANCH   7   8
BRANCH   3  20
ATOM     20  C   UNL d   1       8.336  -2.240  -0.252  0.00  0.00     0.017 A 
ATOM     21  C   UNL d   1       7.742  -3.507  -0.386  0.00  0.00     0.025 A 
ATOM     22  C   UNL d   1       8.508  -4.693  -0.477  0.00  0.00    -0.028 A 
ATOM     23  C   UNL d   1       7.758  -5.991  -0.621  0.00  0.00     0.050 C 
ATOM     24  C   UNL d   1       9.915  -4.584  -0.429  0.00  0.00     0.108 A 
ATOM     25  C   UNL d   1      10.516  -3.319  -0.290  0.00  0.00     0.037 A 
ATOM     26  C   UNL d   1       9.732  -2.164  -0.202  0.00  0.00     0.018 A 
BRANCH  24  27
ATOM     27  N   UNL d   1      10.818  -5.755  -0.521  0.00  0.00    -0.115 N 
ATOM     28  O   UNL d   1      10.327  -6.883  -0.643  0.00  0.00    -0.532 OA
ATOM     29  O   UNL d   1      12.039  -5.539  -0.471  0.00  0.00    -0.532 OA
ENDBRANCH  24  27
ENDBRANCH   3  20
TORSDOF 5
