REMARK  8 active torsions:
REMARK  status: ('A' for Active; 'I' for Inactive)
REMARK    1  A    between atoms: C_5  and  C_1 
REMARK    2  A    between atoms: C_9  and  C_2 
REMARK    3  A    between atoms: C_11  and  C_6 
REMARK    4  A    between atoms: N_21  and  C_9 
REMARK    5  A    between atoms: O_23  and  C_11 
REMARK    6  A    between atoms: C_13  and  C_22 
REMARK    7  A    between atoms: O_20  and  N_15 
REMARK    8  A    between atoms: C_22  and  O_20 
ROOT
ATOM      1  C   UNL d   1       0.252  -2.641   0.153  0.00  0.00     0.113 C 
ATOM      2  N   UNL d   1      -0.604  -3.552   0.502  0.00  0.00    -0.255 N 
ATOM      3  HN  UNL d   1      -0.380  -4.502   0.797  1.00  0.00     0.195 HD
ENDROOT
BRANCH   1   4
ATOM      4  C   UNL d   1       1.647  -2.994  -0.005  0.00  0.00     0.065 A 
ATOM      5  C   UNL d   1       2.194  -4.228  -0.530  0.00  0.00     0.084 A 
ATOM      6  N   UNL d   1       3.533  -4.144  -0.586  0.00  0.00    -0.259 N 
ATOM      7  O   UNL d   1       3.879  -2.930  -0.063  0.00  0.00    -0.241 OA
ATOM      8  HN  UNL d   1       4.171  -4.852  -0.950  1.00  0.00     0.195 HD
ATOM      9  C   UNL d   1       2.768  -2.227   0.270  0.00  0.00     0.088 A 
ATOM     10  C   UNL d   1       3.066  -0.892   0.828  0.00  0.00     0.080 C 
BRANCH   5  11
ATOM     11  C   UNL d   1       1.513  -5.453  -0.994  0.00  0.00     0.037 A 
ATOM     12  C   UNL d   1       0.382  -5.406  -1.836  0.00  0.00     0.048 A 
ATOM     13 CL   UNL d   1      -0.121  -3.979  -2.689  0.00  0.00    -0.083 Cl
ATOM     14  C   UNL d   1      -0.355  -6.564  -2.133  0.00  0.00     0.025 A 
ATOM     15  C   UNL d   1       0.086  -7.810  -1.709  0.00  0.00     0.003 A 
ATOM     16  C   UNL d   1       1.268  -7.899  -0.986  0.00  0.00     0.025 A 
ATOM     17  C   UNL d   1       1.964  -6.738  -0.607  0.00  0.00     0.048 A 
ATOM     18 CL   UNL d   1       3.381  -7.021   0.355  0.00  0.00    -0.083 Cl
ENDBRANCH   5  11
ENDBRANCH   1   4
BRANCH   1  19
ATOM     19  N   UNL d   1      -0.078  -1.357  -0.186  0.00  0.00    -0.286 NA
ATOM     20  H   UNL d   1       0.508  -0.614   0.152  0.00  0.00     0.125 HD
ATOM     21  H   UNL d   1      -1.059  -1.187   0.025  0.00  0.00     0.125 HD
ENDBRANCH   1  19
BRANCH   2  22
ATOM     22  O   UNL d   1      -1.898  -3.001   0.402  0.00  0.00    -0.273 OA
BRANCH  22  23
ATOM     23  C   UNL d   1      -2.854  -3.813   1.072  0.00  0.00     0.266 C 
BRANCH  23  24
ATOM     24  C   UNL d   1      -3.949  -2.882   1.444  0.00  0.00     0.080 A 
ATOM     25  O   UNL d   1      -3.574  -1.784   2.160  0.00  0.00    -0.307 OA
ATOM     26  C   UNL d   1      -4.688  -1.015   2.364  0.00  0.00     0.150 A 
ATOM     27  C   UNL d   1      -5.779  -1.642   1.793  0.00  0.00     0.046 A 
ATOM     28  C   UNL d   1      -5.306  -2.840   1.199  0.00  0.00     0.038 A 
BRANCH  26  29
ATOM     29  C   UNL d   1      -4.574   0.228   3.079  0.00  0.00     0.316 C 
ATOM     30  O   UNL d   1      -5.509   0.983   3.348  0.00  0.00    -0.257 OA
BRANCH  29  31
ATOM     31  O   UNL d   1      -3.271   0.469   3.420  0.00  0.00    -0.321 OA
ATOM     32  C   UNL d   1      -3.064   1.677   4.151  0.00  0.00     0.213 C 
ENDBRANCH  29  31
ENDBRANCH  26  29
ENDBRANCH  23  24
ENDBRANCH  22  23
ENDBRANCH   2  22
TORSDOF 8
