REMARK  2 active torsions:
REMARK  status: ('A' for Active; 'I' for Inactive)
REMARK    1  A    between atoms: C_9  and  C_5 
REMARK    2  A    between atoms: C_12  and  C_6 
ROOT
ATOM      1  N   UNL d   1      -0.290   0.673   0.015  0.00  0.00    -0.315 N 
ATOM      2  C   UNL d   1      -0.353  -0.716   0.022  0.00  0.00     0.134 A 
ATOM      3  N   UNL d   1      -1.606  -1.129   0.005  0.00  0.00    -0.339 N 
ATOM      4  HN  UNL d   1      -1.935  -2.094  -0.006  1.00  0.00     0.167 HD
ATOM      5  C   UNL d   1       2.082   0.754   0.016  0.00  0.00     0.065 A 
ATOM      6  C   UNL d   1      -2.378   0.011   0.005  0.00  0.00     0.060 A 
ATOM      7  C   UNL d   1       0.896   1.400   0.009  0.00  0.00     0.114 A 
ATOM      8  C   UNL d   1       0.895  -1.406   0.032  0.00  0.00     0.079 A 
ATOM      9  C   UNL d   1      -1.581   1.135   0.005  0.00  0.00     0.128 A 
ATOM     10  C   UNL d   1       2.052  -0.715   0.028  0.00  0.00     0.045 A 
ATOM     11 CL   UNL d   1       0.896  -3.128   0.047  0.00  0.00    -0.080 Cl
ENDROOT
BRANCH   6  12
ATOM     12  C   UNL d   1      -3.830  -0.005  -0.040  0.00  0.00    -0.008 A 
ATOM     13  C   UNL d   1      -4.492  -1.121  -0.570  0.00  0.00     0.014 A 
ATOM     14  C   UNL d   1      -5.886  -1.149  -0.655  0.00  0.00     0.001 A 
ATOM     15  C   UNL d   1      -6.634  -0.065  -0.199  0.00  0.00     0.000 A 
ATOM     16  C   UNL d   1      -5.989   1.043   0.348  0.00  0.00     0.001 A 
ATOM     17  C   UNL d   1      -4.594   1.073   0.428  0.00  0.00     0.014 A 
ENDBRANCH   6  12
BRANCH   5  18
ATOM     18  C   UNL d   1       3.400   1.474   0.009  0.00  0.00     0.418 C 
ATOM     19  F   UNL d   1       4.465   0.634   0.029  0.00  0.00    -0.166 F 
ATOM     20  F   UNL d   1       3.532   2.253  -1.095  0.00  0.00    -0.166 F 
ATOM     21  F   UNL d   1       3.522   2.292   1.085  0.00  0.00    -0.166 F 
ENDBRANCH   5  18
TORSDOF 2
