REMARK  6 active torsions:
REMARK  status: ('A' for Active; 'I' for Inactive)
REMARK    1  A    between atoms: N_2  and  S_1 
REMARK    2  A    between atoms: C_6  and  S_1 
REMARK       I    between atoms: C_4  and  N_3 
REMARK    3  A    between atoms: O_20  and  C_4 
REMARK    4  A    between atoms: C_5  and  O_13 
REMARK    5  A    between atoms: O_13  and  C_21 
REMARK    6  A    between atoms: C_24  and  O_20 
ROOT
ATOM      1  S   UNL d   1       1.029   0.116  -0.142  0.00  0.00     0.243 S 
ATOM      2  O   UNL d   1       0.044  -0.154  -1.168  0.00  0.00    -0.206 OA
ATOM      3  O   UNL d   1       2.435  -0.123  -0.366  0.00  0.00    -0.206 OA
ENDROOT
BRANCH   1   4
ATOM      4  N   UNL d   1       0.559  -0.685   1.288  0.00  0.00    -0.203 NA
ATOM      5  C   UNL d   1       1.616  -0.847   2.337  0.00  0.00     0.127 C 
ATOM      6  C   UNL d   1       2.571  -2.018   2.017  0.00  0.00     0.143 C 
ATOM      7  N   UNL d   1       1.843  -3.236   1.637  0.00  0.00    -0.326 N 
ATOM      8  C   UNL d   1       0.770  -3.081   0.657  0.00  0.00     0.143 C 
ATOM      9  C   UNL d   1       2.120  -4.490   2.143  0.00  0.00     0.362 C 
ATOM     10  C   UNL d   1      -0.186  -1.966   1.086  0.00  0.00     0.127 C 
ATOM     11  O   UNL d   1       1.505  -5.499   1.828  0.00  0.00    -0.238 OA
BRANCH   9  12
ATOM     12  O   UNL d   1       3.085  -4.455   3.096  0.00  0.00    -0.304 OA
BRANCH  12  13
ATOM     13  C   UNL d   1       3.072  -5.563   4.003  0.00  0.00     0.176 C 
ATOM     14  C   UNL d   1       2.064  -5.254   5.097  0.00  0.00     0.034 C 
ENDBRANCH  12  13
ENDBRANCH   9  12
ENDBRANCH   1   4
BRANCH   1  15
ATOM     15  C   UNL d   1       0.821   1.816   0.314  0.00  0.00     0.074 A 
ATOM     16  C   UNL d   1       1.902   2.697   0.275  0.00  0.00     0.027 A 
ATOM     17  C   UNL d   1       1.710   4.040   0.615  0.00  0.00     0.038 A 
ATOM     18  C   UNL d   1       0.437   4.505   0.951  0.00  0.00     0.078 A 
ATOM     19  C   UNL d   1      -0.632   3.602   1.007  0.00  0.00     0.038 A 
ATOM     20  C   UNL d   1      -0.449   2.259   0.683  0.00  0.00     0.027 A 
BRANCH  18  21
ATOM     21  O   UNL d   1       0.102   5.782   1.282  0.00  0.00    -0.255 OA
BRANCH  21  22
ATOM     22  C   UNL d   1       0.862   6.873   0.784  0.00  0.00     0.530 C 
ATOM     23  F   UNL d   1       1.715   6.548  -0.209  0.00  0.00    -0.144 F 
ATOM     24  F   UNL d   1       0.005   7.801   0.302  0.00  0.00    -0.144 F 
ATOM     25  F   UNL d   1       1.560   7.430   1.796  0.00  0.00    -0.144 F 
ENDBRANCH  21  22
ENDBRANCH  18  21
ENDBRANCH   1  15
TORSDOF 6
