REMARK  4 active torsions:
REMARK  status: ('A' for Active; 'I' for Inactive)
REMARK    1  A    between atoms: N_2  and  C_1 
REMARK    2  A    between atoms: O_4  and  C_1 
REMARK    3  A    between atoms: C_5  and  N_2 
REMARK    4  A    between atoms: C_10  and  O_4 
ROOT
ATOM      1  N   UNL d   1       0.503  -0.124   1.416  0.00  0.00    -0.327 N 
ATOM      2  H   UNL d   1      -0.474  -0.327   1.250  0.00  0.00     0.169 HD
ENDROOT
BRANCH   1   3
ATOM      3  C   UNL d   1       1.202   0.196   0.276  0.00  0.00     0.215 C 
ATOM      4  S   UNL d   1       2.790  -0.108  -0.121  0.00  0.00    -0.033 SA
BRANCH   3   5
ATOM      5  O   UNL d   1       0.428   0.642  -0.739  0.00  0.00    -0.322 OA
BRANCH   5   6
ATOM      6  C   UNL d   1      -0.326   1.876  -0.627  0.00  0.00     0.123 C 
ATOM      7  C   UNL d   1      -1.726   1.609  -0.092  0.00  0.00     0.040 C 
ATOM      8  C   UNL d   1       0.399   2.974   0.147  0.00  0.00     0.040 C 
ENDBRANCH   5   6
ENDBRANCH   3   5
ENDBRANCH   1   3
BRANCH   1   9
ATOM      9  C   UNL d   1       1.013  -0.459   2.685  0.00  0.00     0.036 A 
ATOM     10  C   UNL d   1       2.194   0.092   3.192  0.00  0.00     0.053 A 
ATOM     11  C   UNL d   1       2.663  -0.291   4.447  0.00  0.00     0.036 A 
ATOM     12 CL   UNL d   1       4.115   0.399   5.059  0.00  0.00    -0.084 Cl
ATOM     13  C   UNL d   1       1.960  -1.218   5.213  0.00  0.00     0.024 A 
ATOM     14  C   UNL d   1       0.760  -1.738   4.732  0.00  0.00     0.004 A 
ATOM     15  C   UNL d   1       0.276  -1.342   3.481  0.00  0.00     0.029 A 
ENDBRANCH   1   9
TORSDOF 4
