REMARK  3 active torsions:
REMARK  status: ('A' for Active; 'I' for Inactive)
REMARK    1  A    between atoms: C_2  and  C_1 
REMARK    2  A    between atoms: O_5  and  C_2 
REMARK    3  A    between atoms: C_11  and  O_5 
ROOT
ATOM      1  N   UNL d   1      -6.366  -8.714   1.708  0.00  0.00    -0.191 NA
ATOM      2  C   UNL d   1      -5.703  -7.819   1.382  0.00  0.00     0.099 C 
ATOM      3  C   UNL d   1      -3.221  -4.576   0.283  0.00  0.00     0.079 A 
ATOM      4  C   UNL d   1      -4.872  -6.717   0.989  0.00  0.00     0.044 A 
ATOM      5  C   UNL d   1      -3.699  -6.947   0.262  0.00  0.00     0.025 A 
ATOM      6  C   UNL d   1      -2.872  -5.877  -0.088  0.00  0.00     0.039 A 
ATOM      7  C   UNL d   1      -4.389  -4.335   1.002  0.00  0.00     0.039 A 
ATOM      8  C   UNL d   1      -5.218  -5.409   1.350  0.00  0.00     0.025 A 
ENDROOT
BRANCH   3   9
ATOM      9  O   UNL d   1      -2.259  -3.585  -0.025  0.00  0.00    -0.275 OA
BRANCH   9  10
ATOM     10  C   UNL d   1      -2.506  -2.222  -0.032  0.00  0.00     0.300 C 
ATOM     11  O   UNL d   1      -3.594  -1.667  -0.025  0.00  0.00    -0.259 OA
BRANCH  10  12
ATOM     12  C   UNL d   1      -1.228  -1.487  -0.191  0.00  0.00     0.061 A 
ATOM     13  C   UNL d   1      -0.039  -1.819   0.477  0.00  0.00     0.051 A 
ATOM     14  C   UNL d   1       1.124  -1.071   0.254  0.00  0.00     0.048 A 
ATOM     15 CL   UNL d   1       0.074  -3.083   1.652  0.00  0.00    -0.083 Cl
ATOM     16  C   UNL d   1       1.099   0.018  -0.614  0.00  0.00     0.035 A 
ATOM     17  C   UNL d   1      -0.083   0.382  -1.254  0.00  0.00     0.025 A 
ATOM     18 CL   UNL d   1       2.533   0.929  -0.883  0.00  0.00    -0.084 Cl
ATOM     19  C   UNL d   1      -1.245  -0.367  -1.042  0.00  0.00     0.021 A 
ENDBRANCH  10  12
ENDBRANCH   9  10
ENDBRANCH   3   9
TORSDOF 3
