REMARK  3 active torsions:
REMARK  status: ('A' for Active; 'I' for Inactive)
REMARK    1  A    between atoms: C_7  and  C_3 
REMARK    2  A    between atoms: C_8  and  C_4 
REMARK    3  A    between atoms: C_9  and  C_6 
ROOT
ATOM      1  N   UNL d   1      -1.178   0.000   0.123  0.00  0.00    -0.339 N 
ATOM      2  HN  UNL d   1      -2.195   0.040   0.188  1.00  0.00     0.167 HD
ATOM      3  C   UNL d   1      -0.352   1.025   0.042  0.00  0.00     0.118 A 
ATOM      4  C   UNL d   1      -0.394  -1.138   0.104  0.00  0.00     0.072 A 
ATOM      5  N   UNL d   1       0.945   0.571  -0.004  0.00  0.00    -0.339 N 
ATOM      6  C   UNL d   1       0.954  -0.806   0.004  0.00  0.00     0.072 A 
ATOM      7  H   UNL d   1       1.766   1.155  -0.052  0.00  0.00     0.167 HD
ENDROOT
BRANCH   3   8
ATOM      8  C   UNL d   1      -0.717   2.440   0.030  0.00  0.00     0.023 A 
ATOM      9  C   UNL d   1       0.076   3.417  -0.574  0.00  0.00     0.102 A 
ATOM     10  N   UNL d   1      -0.205   4.742  -0.587  0.00  0.00    -0.374 N 
ATOM     11  C   UNL d   1      -1.351   5.124   0.014  0.00  0.00     0.087 A 
ATOM     12  HN  UNL d   1       0.418   5.417  -1.029  1.00  0.00     0.164 HD
ATOM     13  C   UNL d   1      -2.225   4.236   0.627  0.00  0.00     0.018 A 
ATOM     14  C   UNL d   1      -1.899   2.881   0.629  0.00  0.00     0.018 A 
ENDBRANCH   3   8
BRANCH   4  15
ATOM     15  C   UNL d   1      -0.966  -2.479   0.111  0.00  0.00    -0.007 A 
ATOM     16  C   UNL d   1      -2.150  -2.729  -0.594  0.00  0.00     0.014 A 
ATOM     17  C   UNL d   1      -2.627  -4.034  -0.742  0.00  0.00     0.001 A 
ATOM     18  C   UNL d   1      -1.925  -5.104  -0.188  0.00  0.00     0.000 A 
ATOM     19  C   UNL d   1      -0.781  -4.864   0.567  0.00  0.00     0.001 A 
ATOM     20  C   UNL d   1      -0.325  -3.556   0.745  0.00  0.00     0.014 A 
ENDBRANCH   4  15
BRANCH   6  21
ATOM     21  C   UNL d   1       2.191  -1.586  -0.097  0.00  0.00    -0.007 A 
ATOM     22  C   UNL d   1       2.240  -2.759  -0.862  0.00  0.00     0.014 A 
ATOM     23  C   UNL d   1       3.367  -3.584  -0.843  0.00  0.00     0.001 A 
ATOM     24  C   UNL d   1       4.487  -3.212  -0.107  0.00  0.00     0.000 A 
ATOM     25  C   UNL d   1       4.481  -2.014   0.605  0.00  0.00     0.001 A 
ATOM     26  C   UNL d   1       3.338  -1.208   0.616  0.00  0.00     0.014 A 
ENDBRANCH   6  21
TORSDOF 3
