REMARK  6 active torsions:
REMARK  status: ('A' for Active; 'I' for Inactive)
REMARK    1  A    between atoms: C_9  and  N_1 
REMARK    2  A    between atoms: C_10  and  C_6 
REMARK       I    between atoms: C_8  and  N_11 
REMARK    3  A    between atoms: C_14  and  C_8 
REMARK    4  A    between atoms: N_11  and  C_10 
REMARK    5  A    between atoms: O_13  and  C_14 
REMARK    6  A    between atoms: C_15  and  O_13 
ROOT
ATOM      1  N   UNL d   1      -0.175  -0.996   0.501  0.00  0.00    -0.197 N 
ATOM      2  N   UNL d   1       0.943  -0.340   0.925  0.00  0.00    -0.280 N 
ATOM      3  HN  UNL d   1       1.511  -0.518   1.753  1.00  0.00     0.189 HD
ATOM      4  N   UNL d   1      -0.762  -0.493  -0.620  0.00  0.00    -0.282 N 
ATOM      5  HN  UNL d   1      -1.601  -0.817  -1.101  1.00  0.00     0.189 HD
ATOM      6  C   UNL d   1       1.107   0.599  -0.019  0.00  0.00     0.069 A 
ATOM      7  C   UNL d   1       0.036   0.533  -0.934  0.00  0.00     0.049 A 
ATOM      8  C   UNL d   1      -0.250   1.414  -2.087  0.00  0.00     0.072 C 
ENDROOT
BRANCH   6   9
ATOM      9  C   UNL d   1       2.254   1.552  -0.019  0.00  0.00     0.183 C 
BRANCH   9  10
ATOM     10  N   UNL d   1       3.502   0.827   0.103  0.00  0.00    -0.354 N 
ATOM     11  C   UNL d   1       4.364   0.825   1.166  0.00  0.00     0.242 C 
ATOM     12  O   UNL d   1       5.340   0.077   1.140  0.00  0.00    -0.271 OA
ATOM     13  H   UNL d   1       3.734   0.143  -0.607  0.00  0.00     0.162 HD
BRANCH  11  14
ATOM     14  C   UNL d   1       4.077   1.743   2.346  0.00  0.00     0.278 C 
BRANCH  14  15
ATOM     15  O   UNL d   1       4.323   3.085   1.935  0.00  0.00    -0.342 OA
BRANCH  15  16
ATOM     16  C   UNL d   1       4.110   4.063   2.866  0.00  0.00     0.069 A 
ATOM     17  C   UNL d   1       3.406   3.913   4.060  0.00  0.00     0.037 A 
ATOM     18  C   UNL d   1       3.227   5.007   4.912  0.00  0.00     0.003 A 
ATOM     19  C   UNL d   1       3.754   6.253   4.577  0.00  0.00     0.000 A 
ATOM     20  C   UNL d   1       4.461   6.407   3.387  0.00  0.00     0.003 A 
ATOM     21  C   UNL d   1       4.633   5.316   2.533  0.00  0.00     0.037 A 
ENDBRANCH  15  16
ENDBRANCH  14  15
ENDBRANCH  11  14
ENDBRANCH   9  10
ENDBRANCH   6   9
BRANCH   1  22
ATOM     22  C   UNL d   1      -0.699  -2.127   1.184  0.00  0.00     0.074 A 
ATOM     23  C   UNL d   1      -0.141  -2.532   2.405  0.00  0.00     0.033 A 
ATOM     24  C   UNL d   1      -0.660  -3.643   3.074  0.00  0.00     0.002 A 
ATOM     25  C   UNL d   1      -1.722  -4.361   2.522  0.00  0.00     0.000 A 
ATOM     26  C   UNL d   1      -2.275  -3.966   1.305  0.00  0.00     0.002 A 
ATOM     27  C   UNL d   1      -1.772  -2.846   0.637  0.00  0.00     0.033 A 
ENDBRANCH   1  22
TORSDOF 6
