REMARK  4 active torsions:
REMARK  status: ('A' for Active; 'I' for Inactive)
REMARK    1  A    between atoms: C_2  and  C_1 
REMARK       I    between atoms: N_3  and  C_2 
REMARK    2  A    between atoms: C_4  and  N_3 
REMARK    3  A    between atoms: O_17  and  C_11 
REMARK    4  A    between atoms: O_18  and  C_15 
ROOT
ATOM      1  C   UNL d   1      -0.241   2.679  -0.764  0.00  0.00     0.260 C 
ATOM      2  N   UNL d   1      -1.062   3.115   0.266  0.00  0.00    -0.319 N 
ATOM      3  O   UNL d   1      -0.627   2.039  -1.734  0.00  0.00    -0.267 OA
ATOM      4  H   UNL d   1      -0.613   3.115   1.174  0.00  0.00     0.169 HD
ENDROOT
BRANCH   2   5
ATOM      5  C   UNL d   1      -2.442   2.770   0.298  0.00  0.00     0.090 A 
ATOM      6  C   UNL d   1      -2.933   2.148   1.459  0.00  0.00     0.066 A 
ATOM      7  C   UNL d   1      -4.223   1.620   1.499  0.00  0.00     0.063 A 
ATOM      8 CL   UNL d   1      -1.920   1.936   2.849  0.00  0.00    -0.082 Cl
ATOM      9  C   UNL d   1      -5.059   1.726   0.388  0.00  0.00     0.072 A 
ATOM     10  C   UNL d   1      -4.612   2.416  -0.739  0.00  0.00     0.076 A 
ATOM     11  C   UNL d   1      -3.321   2.963  -0.780  0.00  0.00     0.099 A 
BRANCH   9  12
ATOM     12  O   UNL d   1      -6.278   1.124   0.534  0.00  0.00    -0.356 OA
ATOM     13  C   UNL d   1      -7.117   1.081  -0.614  0.00  0.00     0.210 C 
ENDBRANCH   9  12
BRANCH  11  14
ATOM     14  O   UNL d   1      -3.041   3.645  -1.937  0.00  0.00    -0.353 OA
ATOM     15  C   UNL d   1      -2.447   4.928  -1.753  0.00  0.00     0.210 C 
ENDBRANCH  11  14
ENDBRANCH   2   5
BRANCH   1  16
ATOM     16  C   UNL d   1       1.172   2.949  -0.559  0.00  0.00     0.087 A 
ATOM     17  C   UNL d   1       2.190   2.218  -1.134  0.00  0.00     0.090 A 
ATOM     18  O   UNL d   1       3.391   2.720  -0.754  0.00  0.00    -0.242 OA
ATOM     19  C   UNL d   1       2.231   1.030  -2.016  0.00  0.00     0.080 C 
ATOM     20  N   UNL d   1       3.194   3.804   0.076  0.00  0.00    -0.265 N 
ATOM     21  C   UNL d   1       1.866   3.944   0.188  0.00  0.00     0.047 A 
ATOM     22  HN  UNL d   1       3.912   4.380   0.514  1.00  0.00     0.194 HD
ATOM     23  C   UNL d   1       1.338   5.065   1.003  0.00  0.00     0.071 C 
ENDBRANCH   1  16
TORSDOF 4
