REMARK  7 active torsions:
REMARK  status: ('A' for Active; 'I' for Inactive)
REMARK    1  A    between atoms: C_3  and  S_1 
REMARK    2  A    between atoms: N_6  and  S_1 
REMARK    3  A    between atoms: C_2  and  O_7 
REMARK    4  A    between atoms: C_17  and  N_6 
REMARK    5  A    between atoms: O_7  and  C_15 
REMARK    6  A    between atoms: C_16  and  C_18 
REMARK    7  A    between atoms: C_18  and  C_17 
ROOT
ATOM      1  S   UNL d   1       0.891   0.095   0.005  0.00  0.00     0.258 S 
ATOM      2  O   UNL d   1       0.406   1.458  -0.039  0.00  0.00    -0.201 OA
ATOM      3  O   UNL d   1       0.575  -0.857  -1.033  0.00  0.00    -0.201 OA
ENDROOT
BRANCH   1   4
ATOM      4  C   UNL d   1       0.425  -0.633   1.554  0.00  0.00     0.079 A 
ATOM      5  C   UNL d   1      -0.325   0.097   2.480  0.00  0.00     0.028 A 
ATOM      6  C   UNL d   1      -0.756  -0.516   3.662  0.00  0.00     0.038 A 
ATOM      7  C   UNL d   1      -0.474  -1.862   3.898  0.00  0.00     0.078 A 
ATOM      8  C   UNL d   1       0.323  -2.566   2.986  0.00  0.00     0.038 A 
ATOM      9  C   UNL d   1       0.767  -1.961   1.810  0.00  0.00     0.028 A 
BRANCH   7  10
ATOM     10  O   UNL d   1      -0.866  -2.586   4.982  0.00  0.00    -0.255 OA
BRANCH  10  11
ATOM     11  C   UNL d   1      -2.098  -2.283   5.623  0.00  0.00     0.530 C 
ATOM     12  F   UNL d   1      -2.868  -1.394   4.961  0.00  0.00    -0.144 F 
ATOM     13  F   UNL d   1      -2.808  -3.427   5.749  0.00  0.00    -0.144 F 
ATOM     14  F   UNL d   1      -1.849  -1.805   6.862  0.00  0.00    -0.144 F 
ENDBRANCH  10  11
ENDBRANCH   7  10
ENDBRANCH   1   4
BRANCH   1  15
ATOM     15  N   UNL d   1       2.573   0.140   0.102  0.00  0.00    -0.315 N 
ATOM     16  H   UNL d   1       2.995  -0.191  -0.766  0.00  0.00     0.172 HD
BRANCH  15  17
ATOM     17  C   UNL d   1       3.164   1.315   0.761  0.00  0.00     0.138 C 
BRANCH  17  18
ATOM     18  C   UNL d   1       4.686   1.208   0.808  0.00  0.00     0.077 C 
BRANCH  18  19
ATOM     19  C   UNL d   1       5.239   2.459   1.438  0.00  0.00     0.010 A 
ATOM     20  N   UNL d   1       5.394   2.446   2.783  0.00  0.00    -0.369 N 
ATOM     21  C   UNL d   1       5.766   3.602   3.376  0.00  0.00     0.088 A 
ATOM     22  HN  UNL d   1       5.237   1.598   3.327  1.00  0.00     0.165 HD
ATOM     23  C   UNL d   1       5.980   4.785   2.690  0.00  0.00     0.017 A 
ATOM     24  C   UNL d   1       5.822   4.781   1.310  0.00  0.00     0.003 A 
ATOM     25  C   UNL d   1       5.450   3.603   0.670  0.00  0.00     0.025 A 
ENDBRANCH  18  19
ENDBRANCH  17  18
ENDBRANCH  15  17
ENDBRANCH   1  15
TORSDOF 7
