REMARK  5 active torsions:
REMARK  status: ('A' for Active; 'I' for Inactive)
REMARK    1  A    between atoms: N_7  and  C_1 
REMARK    2  A    between atoms: O_13  and  C_2 
REMARK    3  A    between atoms: C_9  and  O_12 
REMARK    4  A    between atoms: C_14  and  N_10 
REMARK    5  A    between atoms: O_12  and  C_18 
ROOT
ATOM      1  N   UNL d   1      -0.472  -2.752   0.046  0.00  0.00    -0.294 N 
ATOM      2  HN  UNL d   1      -1.427  -3.110   0.012  1.00  0.00     0.187 HD
ATOM      3  N   UNL d   1       0.545  -3.474   0.109  0.00  0.00    -0.300 N 
ATOM      4  HN  UNL d   1       1.487  -3.093   0.198  1.00  0.00     0.187 HD
ENDROOT
BRANCH   3   5
ATOM      5  C   UNL d   1       0.284  -4.855   0.049  0.00  0.00     0.048 A 
ATOM      6  C   UNL d   1      -0.722  -5.433  -0.735  0.00  0.00     0.034 A 
ATOM      7  C   UNL d   1      -0.848  -6.828  -0.839  0.00  0.00     0.039 A 
ATOM      8  C   UNL d   1       0.060  -7.663  -0.191  0.00  0.00     0.078 A 
ATOM      9  C   UNL d   1       1.041  -7.093   0.624  0.00  0.00     0.039 A 
ATOM     10  C   UNL d   1       1.155  -5.705   0.736  0.00  0.00     0.034 A 
BRANCH   8  11
ATOM     11  O   UNL d   1       0.083  -9.022  -0.226  0.00  0.00    -0.255 OA
BRANCH  11  12
ATOM     12  C   UNL d   1      -0.399  -9.715  -1.369  0.00  0.00     0.530 C 
ATOM     13  F   UNL d   1      -0.645  -8.925  -2.434  0.00  0.00    -0.144 F 
ATOM     14  F   UNL d   1       0.532 -10.625  -1.739  0.00  0.00    -0.144 F 
ATOM     15  F   UNL d   1      -1.528 -10.378  -1.046  0.00  0.00    -0.144 F 
ENDBRANCH  11  12
ENDBRANCH   8  11
ENDBRANCH   3   5
BRANCH   1  16
ATOM     16  C   UNL d   1      -0.142  -1.387   0.029  0.00  0.00     0.124 A 
ATOM     17  C   UNL d   1       1.044  -0.806  -0.370  0.00  0.00     0.187 A 
ATOM     18  N   UNL d   1       0.865   0.539  -0.201  0.00  0.00    -0.274 N 
ATOM     19  C   UNL d   1       1.827   1.584  -0.444  0.00  0.00     0.180 C 
ATOM     20  N   UNL d   1      -0.368   0.868   0.248  0.00  0.00    -0.299 N 
ATOM     21  C   UNL d   1      -0.991  -0.314   0.383  0.00  0.00     0.054 A 
ATOM     22  HN  UNL d   1      -0.739   1.799   0.439  1.00  0.00     0.187 HD
ATOM     23  C   UNL d   1      -2.392  -0.361   0.860  0.00  0.00     0.072 C 
BRANCH  17  24
ATOM     24  O   UNL d   1       2.185  -1.323  -0.828  0.00  0.00    -0.343 OA
ATOM     25  H   UNL d   1       2.047  -2.292  -0.832  0.00  0.00     0.219 HD
ENDBRANCH  17  24
ENDBRANCH   1  16
TORSDOF 5
