REMARK  5 active torsions:
REMARK  status: ('A' for Active; 'I' for Inactive)
REMARK    1  A    between atoms: S_15  and  C_11 
REMARK    2  A    between atoms: C_14  and  C_17 
REMARK    3  A    between atoms: O_18  and  C_14 
REMARK    4  A    between atoms: C_17  and  S_15 
REMARK    5  A    between atoms: C_23  and  O_18 
ROOT
ATOM      1  C   UNL d   1      -0.782   1.192  -0.066  0.00  0.00     0.086 A 
ATOM      2  C   UNL d   1      -1.474  -0.028  -0.098  0.00  0.00     0.074 A 
ATOM      3  N   UNL d   1      -1.511   2.327  -0.056  0.00  0.00    -0.296 N 
ATOM      4  HN  UNL d   1      -1.034   3.229  -0.041  1.00  0.00     0.187 HD
ATOM      5  N   UNL d   1      -2.829  -0.064  -0.106  0.00  0.00    -0.333 N 
ATOM      6  HN  UNL d   1      -3.330  -0.952  -0.132  1.00  0.00     0.168 HD
ATOM      7  C   UNL d   1      -0.746  -1.231  -0.104  0.00  0.00     0.004 A 
ATOM      8  C   UNL d   1       0.623   1.220  -0.043  0.00  0.00     0.005 A 
ATOM      9  C   UNL d   1       0.672  -1.233  -0.064  0.00  0.00    -0.012 A 
ATOM     10  C   UNL d   1       1.370   0.014  -0.042  0.00  0.00    -0.012 A 
ATOM     11  C   UNL d   1      -3.490   1.100  -0.080  0.00  0.00     0.160 A 
ATOM     12  N   UNL d   1      -2.878   2.289  -0.067  0.00  0.00    -0.279 N 
ATOM     13  HN  UNL d   1      -3.421   3.152  -0.065  1.00  0.00     0.189 HD
ATOM     14  C   UNL d   1      -1.429  -2.470  -0.139  0.00  0.00     0.014 A 
ATOM     15  C   UNL d   1       1.315   2.454  -0.018  0.00  0.00     0.014 A 
ATOM     16  C   UNL d   1       1.320  -2.497  -0.039  0.00  0.00     0.013 A 
ATOM     17  C   UNL d   1       2.787   0.125  -0.019  0.00  0.00     0.013 A 
ATOM     18  C   UNL d   1       2.706   2.525   0.003  0.00  0.00     0.001 A 
ATOM     19  C   UNL d   1       3.444   1.357   0.002  0.00  0.00     0.001 A 
ATOM     20  C   UNL d   1       0.621  -3.703  -0.057  0.00  0.00     0.001 A 
ATOM     21  C   UNL d   1      -0.762  -3.690  -0.109  0.00  0.00     0.001 A 
ENDROOT
BRANCH  11  22
ATOM     22  S   UNL d   1      -5.264   1.063  -0.109  0.00  0.00    -0.083 SA
BRANCH  22  23
ATOM     23  C   UNL d   1      -5.546  -0.465   0.844  0.00  0.00     0.193 C 
BRANCH  23  24
ATOM     24  C   UNL d   1      -4.907  -0.396   2.214  0.00  0.00     0.268 C 
ATOM     25  O   UNL d   1      -4.740   0.622   2.874  0.00  0.00    -0.264 OA
BRANCH  24  26
ATOM     26  O   UNL d   1      -4.539  -1.649   2.614  0.00  0.00    -0.321 OA
BRANCH  26  27
ATOM     27  C   UNL d   1      -3.700  -1.696   3.779  0.00  0.00     0.174 C 
ATOM     28  C   UNL d   1      -2.253  -1.565   3.345  0.00  0.00     0.034 C 
ENDBRANCH  26  27
ENDBRANCH  24  26
ENDBRANCH  23  24
ENDBRANCH  22  23
ENDBRANCH  11  22
TORSDOF 5
