REMARK  3 active torsions:
REMARK  status: ('A' for Active; 'I' for Inactive)
REMARK    1  A    between atoms: C_2  and  C_1 
REMARK    2  A    between atoms: C_9  and  C_3 
REMARK    3  A    between atoms: O_16  and  C_8 
ROOT
ATOM      1  C   UNL d   1       1.109  -0.606   0.069  0.00  0.00     0.063 A 
ATOM      2  C   UNL d   1      -0.281   1.166  -0.045  0.00  0.00     0.062 A 
ATOM      3  N   UNL d   1      -1.063   0.081   0.086  0.00  0.00    -0.299 N 
ATOM      4  HN  UNL d   1      -2.081   0.054   0.145  1.00  0.00     0.187 HD
ATOM      5  C   UNL d   1       1.084   0.771  -0.048  0.00  0.00     0.063 A 
ATOM      6  N   UNL d   1      -0.215  -0.956   0.123  0.00  0.00    -0.299 N 
ATOM      7  H   UNL d   1      -0.611  -1.885   0.210  0.00  0.00     0.187 HD
ENDROOT
BRANCH   1   8
ATOM      8  C   UNL d   1       2.221  -1.563   0.102  0.00  0.00     0.029 A 
ATOM      9  C   UNL d   1       3.462  -1.266   0.701  0.00  0.00     0.100 A 
ATOM     10  C   UNL d   1       4.529  -2.175   0.632  0.00  0.00     0.069 A 
ATOM     11 CL   UNL d   1       6.067  -1.816   1.333  0.00  0.00    -0.081 Cl
ATOM     12  C   UNL d   1       4.365  -3.408   0.005  0.00  0.00     0.050 A 
ATOM     13  C   UNL d   1       3.136  -3.723  -0.560  0.00  0.00     0.036 A 
ATOM     14  C   UNL d   1       2.076  -2.814  -0.524  0.00  0.00     0.040 A 
ATOM     15 CL   UNL d   1       2.917  -5.251  -1.322  0.00  0.00    -0.084 Cl
BRANCH   9  16
ATOM     16  O   UNL d   1       3.667  -0.096   1.392  0.00  0.00    -0.358 OA
ATOM     17  H   UNL d   1       2.808   0.252   1.683  0.00  0.00     0.217 HD
ENDBRANCH   9  16
ENDBRANCH   1   8
BRANCH   2  18
ATOM     18  C   UNL d   1      -0.856   2.519  -0.091  0.00  0.00     0.014 A 
ATOM     19  C   UNL d   1      -0.276   3.608  -0.765  0.00  0.00     0.046 A 
ATOM     20 CL   UNL d   1       1.137   3.487  -1.759  0.00  0.00    -0.083 Cl
ATOM     21  C   UNL d   1      -0.863   4.881  -0.697  0.00  0.00     0.025 A 
ATOM     22  C   UNL d   1      -2.043   5.084   0.016  0.00  0.00     0.002 A 
ATOM     23  C   UNL d   1      -2.649   4.012   0.659  0.00  0.00     0.001 A 
ATOM     24  C   UNL d   1      -2.062   2.746   0.607  0.00  0.00     0.015 A 
ENDBRANCH   2  18
TORSDOF 3
