REMARK  4 active torsions:
REMARK  status: ('A' for Active; 'I' for Inactive)
REMARK    1  A    between atoms: N_7  and  C_1 
REMARK    2  A    between atoms: O_11  and  C_2 
REMARK    3  A    between atoms: C_13  and  N_9 
REMARK    4  A    between atoms: C_17  and  C_12 
ROOT
ATOM      1  N   UNL d   1       0.481  -2.830  -0.881  0.00  0.00    -0.294 N 
ATOM      2  HN  UNL d   1       0.357  -3.260  -1.798  1.00  0.00     0.187 HD
ATOM      3  N   UNL d   1       0.424  -3.465   0.193  0.00  0.00    -0.300 N 
ATOM      4  HN  UNL d   1       0.473  -3.025   1.112  1.00  0.00     0.187 HD
ENDROOT
BRANCH   1   5
ATOM      5  C   UNL d   1       0.734  -1.462  -0.693  0.00  0.00     0.124 A 
ATOM      6  C   UNL d   1       0.672  -0.719   0.466  0.00  0.00     0.187 A 
ATOM      7  N   UNL d   1       1.075   0.540   0.105  0.00  0.00    -0.274 N 
ATOM      8  C   UNL d   1       1.271   1.675   0.974  0.00  0.00     0.180 C 
ATOM      9  N   UNL d   1       1.336   0.670  -1.216  0.00  0.00    -0.299 N 
ATOM     10  C   UNL d   1       1.128  -0.562  -1.708  0.00  0.00     0.054 A 
ATOM     11  HN  UNL d   1       1.624   1.508  -1.721  1.00  0.00     0.187 HD
ATOM     12  C   UNL d   1       1.327  -0.836  -3.150  0.00  0.00     0.072 C 
BRANCH   6  13
ATOM     13  O   UNL d   1       0.338  -1.033   1.716  0.00  0.00    -0.343 OA
ATOM     14  H   UNL d   1       0.097  -1.981   1.689  0.00  0.00     0.219 HD
ENDBRANCH   6  13
ENDBRANCH   1   5
BRANCH   3  15
ATOM     15  C   UNL d   1       0.283  -4.853   0.001  0.00  0.00     0.048 A 
ATOM     16  C   UNL d   1       1.043  -5.704   0.809  0.00  0.00     0.031 A 
ATOM     17  C   UNL d   1       0.901  -7.092   0.727  0.00  0.00     0.010 A 
ATOM     18  C   UNL d   1      -0.014  -7.665  -0.167  0.00  0.00    -0.055 A 
ATOM     19  C   UNL d   1      -0.774  -6.812  -0.980  0.00  0.00     0.010 A 
ATOM     20  C   UNL d   1      -0.630  -5.422  -0.893  0.00  0.00     0.031 A 
BRANCH  18  21
ATOM     21  C   UNL d   1      -0.203  -9.171  -0.251  0.00  0.00     0.010 C 
ATOM     22  C   UNL d   1       1.088  -9.884  -0.662  0.00  0.00     0.015 C 
ATOM     23  C   UNL d   1      -0.743  -9.741   1.065  0.00  0.00     0.015 C 
ENDBRANCH  18  21
ENDBRANCH   3  15
TORSDOF 4
