REMARK  0 active torsions:
REMARK  status: ('A' for Active; 'I' for Inactive)
ROOT
ATOM      1  C   UNL d   1      -1.303  -0.919   0.034  0.00  0.00     0.000 C 
ATOM      2  C   UNL d   1      -1.732   0.394  -0.245  0.00  0.00     0.027 C 
ATOM      3  C   UNL d   1      -0.779   1.524  -0.147  0.00  0.00     0.194 C 
ATOM      4  C   UNL d   1       0.168  -1.187   0.061  0.00  0.00    -0.012 A 
ATOM      5  C   UNL d   1       0.655   1.231   0.060  0.00  0.00     0.027 A 
ATOM      6  C   UNL d   1       1.082  -0.106   0.105  0.00  0.00    -0.001 A 
ATOM      7  C   UNL d   1      -2.316  -1.924   0.169  0.00  0.00    -0.014 C 
ATOM      8  C   UNL d   1      -3.051   0.668  -0.618  0.00  0.00     0.017 C 
ATOM      9  O   UNL d   1      -1.171   2.682  -0.244  0.00  0.00    -0.287 OA
ATOM     10  C   UNL d   1      -3.608  -1.671  -0.356  0.00  0.00    -0.025 C 
ATOM     11  C   UNL d   1      -3.958  -0.376  -0.752  0.00  0.00     0.013 C 
ATOM     12  C   UNL d   1       2.485  -0.349   0.132  0.00  0.00    -0.024 A 
ATOM     13  C   UNL d   1       0.710  -2.476  -0.110  0.00  0.00     0.013 A 
ATOM     14  C   UNL d   1       1.565   2.297   0.105  0.00  0.00     0.016 A 
ATOM     15  C   UNL d   1      -2.140  -3.171   0.820  0.00  0.00     0.013 C 
ATOM     16  C   UNL d   1       2.084  -2.718  -0.085  0.00  0.00     0.002 A 
ATOM     17  C   UNL d   1       2.930   2.042   0.176  0.00  0.00     0.002 A 
ATOM     18  C   UNL d   1       3.383   0.727   0.182  0.00  0.00     0.012 A 
ATOM     19  C   UNL d   1       2.966  -1.656   0.062  0.00  0.00     0.012 A 
ATOM     20  C   UNL d   1      -4.543  -2.714  -0.462  0.00  0.00     0.012 C 
ATOM     21  C   UNL d   1      -3.097  -4.185   0.764  0.00  0.00     0.001 C 
ATOM     22  C   UNL d   1      -4.276  -3.975   0.068  0.00  0.00     0.001 C 
ENDROOT
TORSDOF 0
