REMARK  3 active torsions:
REMARK  status: ('A' for Active; 'I' for Inactive)
REMARK    1  A    between atoms: C_6  and  N_2 
REMARK    2  A    between atoms: C_7  and  C_6 
REMARK       I    between atoms: N_12  and  C_7 
REMARK    3  A    between atoms: C_11  and  N_12 
ROOT
ATOM      1  C   UNL d   1       2.368  -2.027   0.209  0.00  0.00     0.248 C 
ENDROOT
BRANCH   1   2
ATOM      2  N   UNL d   1       1.303  -1.051   0.456  0.00  0.00    -0.228 N 
ATOM      3  S   UNL d   1      -0.228  -1.494   0.957  0.00  0.00     0.269 S 
ATOM      4  C   UNL d   1      -0.613   0.098   1.535  0.00  0.00     0.095 A 
ATOM      5  O   UNL d   1      -1.051  -1.794  -0.189  0.00  0.00    -0.200 OA
ATOM      6  O   UNL d   1      -0.104  -2.372   2.097  0.00  0.00    -0.200 OA
ATOM      7  C   UNL d   1       0.406   0.986   1.221  0.00  0.00     0.056 A 
ATOM      8  C   UNL d   1      -1.675   0.443   2.350  0.00  0.00     0.026 A 
ATOM      9  C   UNL d   1       0.377   2.290   1.691  0.00  0.00     0.018 A 
ATOM     10  C   UNL d   1       1.537   0.343   0.527  0.00  0.00     0.269 C 
ATOM     11  C   UNL d   1      -0.690   2.667   2.512  0.00  0.00     0.001 A 
ATOM     12  C   UNL d   1      -1.705   1.750   2.844  0.00  0.00     0.002 A 
ATOM     13  O   UNL d   1       2.550   0.907   0.168  0.00  0.00    -0.266 OA
ENDBRANCH   1   2
BRANCH   1  14
ATOM     14  C   UNL d   1       2.051  -3.501   0.058  0.00  0.00     0.241 C 
ATOM     15  N   UNL d   1       1.696  -4.161   1.234  0.00  0.00    -0.324 N 
ATOM     16  H   UNL d   1       1.100  -3.610   1.855  0.00  0.00     0.169 HD
ATOM     17  O   UNL d   1       2.136  -4.054  -1.038  0.00  0.00    -0.271 OA
BRANCH  15  18
ATOM     18  C   UNL d   1       1.380  -5.543   1.162  0.00  0.00     0.058 A 
ATOM     19  C   UNL d   1       2.333  -6.521   0.811  0.00  0.00     0.082 A 
ATOM     20  C   UNL d   1       1.915  -7.845   0.619  0.00  0.00     0.058 A 
ATOM     21 CL   UNL d   1       4.020  -6.104   0.744  0.00  0.00    -0.080 Cl
ATOM     22 CL   UNL d   1       3.006  -9.111   0.168  0.00  0.00    -0.082 Cl
ATOM     23  C   UNL d   1       0.571  -8.190   0.792  0.00  0.00     0.026 A 
ATOM     24  C   UNL d   1      -0.355  -7.231   1.200  0.00  0.00     0.004 A 
ATOM     25  C   UNL d   1       0.051  -5.913   1.405  0.00  0.00     0.031 A 
ENDBRANCH  15  18
ENDBRANCH   1  14
TORSDOF 3
