REMARK  6 active torsions:
REMARK  status: ('A' for Active; 'I' for Inactive)
REMARK    1  A    between atoms: S_2  and  C_1 
REMARK    2  A    between atoms: C_11  and  S_2 
REMARK    3  A    between atoms: C_6  and  C_3 
REMARK    4  A    between atoms: N_13  and  C_4 
REMARK       I    between atoms: N_8  and  C_6 
REMARK    5  A    between atoms: C_14  and  N_8 
REMARK    6  A    between atoms: O_20  and  C_15 
ROOT
ATOM      1  C   UNL d   1      -0.696  -1.272   0.133  0.00  0.00     0.088 A 
ATOM      2  C   UNL d   1      -0.245   1.028   0.250  0.00  0.00     0.095 A 
ATOM      3  C   UNL d   1      -1.230   0.051   0.134  0.00  0.00     0.051 A 
ATOM      4  S   UNL d   1       1.310   0.323   0.379  0.00  0.00    -0.093 SA
ATOM      5  C   UNL d   1       0.676  -1.262   0.280  0.00  0.00     0.075 A 
ENDROOT
BRANCH   2   6
ATOM      6  C   UNL d   1      -0.463   2.480   0.302  0.00  0.00     0.265 C 
ATOM      7  N   UNL d   1       0.673   3.287   0.263  0.00  0.00    -0.322 N 
ATOM      8  H   UNL d   1       1.558   2.819   0.120  0.00  0.00     0.169 HD
ATOM      9  O   UNL d   1      -1.608   2.924   0.334  0.00  0.00    -0.267 OA
BRANCH   7  10
ATOM     10  C   UNL d   1       0.672   4.702   0.194  0.00  0.00     0.035 A 
ATOM     11  C   UNL d   1      -0.454   5.479   0.485  0.00  0.00     0.032 A 
ATOM     12  C   UNL d   1      -0.457   6.861   0.273  0.00  0.00     0.039 A 
ATOM     13  C   UNL d   1       0.676   7.492  -0.226  0.00  0.00     0.068 A 
ATOM     14  C   UNL d   1       1.839   6.745  -0.421  0.00  0.00     0.039 A 
ATOM     15  C   UNL d   1       1.840   5.357  -0.210  0.00  0.00     0.032 A 
BRANCH  13  16
ATOM     16  O   UNL d   1       0.751   8.826  -0.520  0.00  0.00    -0.356 OA
ATOM     17  C   UNL d   1      -0.470   9.402  -0.983  0.00  0.00     0.210 C 
ENDBRANCH  13  16
ENDBRANCH   7  10
ENDBRANCH   2   6
BRANCH   3  18
ATOM     18  N   UNL d   1      -2.551   0.347   0.042  0.00  0.00    -0.300 NA
ATOM     19  H   UNL d   1      -2.810   1.339   0.174  0.00  0.00     0.124 HD
ATOM     20  H   UNL d   1      -3.220  -0.243   0.535  0.00  0.00     0.124 HD
ENDBRANCH   3  18
BRANCH   1  21
ATOM     21  S   UNL d   1      -1.625  -2.736   0.018  0.00  0.00     0.181 S 
ATOM     22  O   UNL d   1      -0.633  -3.796   0.029  0.00  0.00    -0.222 OA
ATOM     23  O   UNL d   1      -2.606  -2.603   1.074  0.00  0.00    -0.222 OA
BRANCH  21  24
ATOM     24  C   UNL d   1      -2.462  -2.727  -1.570  0.00  0.00     0.105 C 
ATOM     25  C   UNL d   1      -1.502  -2.583  -2.744  0.00  0.00     0.026 C 
ATOM     26  C   UNL d   1      -3.273  -4.017  -1.722  0.00  0.00     0.026 C 
ENDBRANCH  21  24
ENDBRANCH   1  21
TORSDOF 6
