REMARK  1 active torsions:
REMARK  status: ('A' for Active; 'I' for Inactive)
REMARK    1  A    between atoms: C_2  and  C_1 
REMARK       I    between atoms: N_3  and  C_1 
ROOT
ATOM      1  C   UNL d   1       0.756  -0.017   0.103  0.00  0.00     0.274 C 
ATOM      2  N   UNL d   1       0.177  -1.038   0.878  0.00  0.00    -0.348 N 
ATOM      3  O   UNL d   1       1.713   0.593   0.620  0.00  0.00    -0.268 OA
ATOM      4  C   UNL d   1       0.560  -1.139   2.286  0.00  0.00     0.126 C 
ATOM      5  C   UNL d   1      -0.966  -1.892   0.555  0.00  0.00     0.126 C 
ATOM      6  C   UNL d   1      -2.189  -1.420   1.346  0.00  0.00     0.020 C 
ATOM      7  C   UNL d   1      -0.600  -0.677   3.178  0.00  0.00     0.020 C 
ATOM      8  C   UNL d   1      -1.891  -1.434   2.850  0.00  0.00     0.003 C 
ENDROOT
BRANCH   1   9
ATOM      9  C   UNL d   1       0.365   0.327  -1.362  0.00  0.00     0.269 C 
ATOM     10 CL   UNL d   1      -1.346   0.146  -1.794  0.00  0.00    -0.073 Cl
ATOM     11 CL   UNL d   1       0.735   2.080  -1.641  0.00  0.00    -0.073 Cl
ATOM     12 CL   UNL d   1       1.400  -0.646  -2.447  0.00  0.00    -0.073 Cl
ENDBRANCH   1   9
TORSDOF 1
