REMARK  6 active torsions:
REMARK  status: ('A' for Active; 'I' for Inactive)
REMARK    1  A    between atoms: C_8  and  N_1 
REMARK    2  A    between atoms: S_16  and  C_2 
REMARK    3  A    between atoms: O_27  and  C_3 
REMARK    4  A    between atoms: C_10  and  C_20 
REMARK    5  A    between atoms: C_20  and  S_16 
REMARK    6  A    between atoms: O_30  and  C_28 
ROOT
ATOM      1  N   UNL d   1      -0.319  -1.379  -0.061  0.00  0.00    -0.255 N 
ATOM      2  C   UNL d   1       0.925  -0.763  -0.121  0.00  0.00     0.169 A 
ATOM      3  C   UNL d   1      -1.205  -0.312  -0.063  0.00  0.00     0.245 A 
ATOM      4  N   UNL d   1       0.790   0.544  -0.099  0.00  0.00    -0.276 N 
ATOM      5  HN  UNL d   1       1.549   1.226  -0.098  1.00  0.00     0.189 HD
ATOM      6  N   UNL d   1      -0.552   0.827  -0.077  0.00  0.00    -0.263 N 
ATOM      7  HN  UNL d   1      -0.969   1.758  -0.073  1.00  0.00     0.190 HD
ENDROOT
BRANCH   2   8
ATOM      8  S   UNL d   1       2.420  -1.587  -0.448  0.00  0.00    -0.087 SA
BRANCH   8   9
ATOM      9  C   UNL d   1       3.631  -0.259  -0.198  0.00  0.00     0.122 C 
BRANCH   9  10
ATOM     10  C   UNL d   1       5.027  -0.831  -0.293  0.00  0.00    -0.030 A 
ATOM     11  C   UNL d   1       5.724  -0.965  -1.584  0.00  0.00     0.005 A 
ATOM     12  C   UNL d   1       7.036  -1.452  -1.590  0.00  0.00     0.092 A 
ATOM     13  C   UNL d   1       5.156  -0.633  -2.823  0.00  0.00     0.017 A 
ATOM     14  C   UNL d   1       7.778  -1.591  -2.763  0.00  0.00     0.074 A 
ATOM     15  O   UNL d   1       7.689  -1.834  -0.402  0.00  0.00    -0.275 OA
ATOM     16  C   UNL d   1       7.195  -1.240  -3.970  0.00  0.00     0.068 A 
ATOM     17  C   UNL d   1       5.889  -0.767  -4.011  0.00  0.00     0.037 A 
ATOM     18  C   UNL d   1       7.052  -1.744   0.821  0.00  0.00     0.288 A 
ATOM     19  C   UNL d   1       5.687  -1.198   0.818  0.00  0.00     0.091 A 
ATOM     20  O   UNL d   1       7.584  -2.089   1.869  0.00  0.00    -0.260 OA
BRANCH  16  21
ATOM     21  O   UNL d   1       7.942  -1.375  -5.102  0.00  0.00    -0.361 OA
ATOM     22  H   UNL d   1       7.420  -1.074  -5.863  0.00  0.00     0.217 HD
ENDBRANCH  16  21
ENDBRANCH   9  10
ENDBRANCH   8   9
ENDBRANCH   2   8
BRANCH   1  23
ATOM     23  C   UNL d   1      -0.629  -2.767  -0.048  0.00  0.00     0.048 A 
ATOM     24  C   UNL d   1       0.191  -3.658   0.657  0.00  0.00     0.069 A 
ATOM     25  C   UNL d   1      -0.028  -5.029   0.564  0.00  0.00     0.104 A 
ATOM     26  O   UNL d   1       0.872  -5.835   1.211  0.00  0.00    -0.346 OA
ATOM     27  C   UNL d   1      -1.106  -5.522  -0.173  0.00  0.00     0.102 A 
ATOM     28  C   UNL d   1       0.843  -7.160   0.668  0.00  0.00     0.202 C 
ATOM     29  C   UNL d   1      -0.591  -7.659   0.589  0.00  0.00     0.202 C 
ATOM     30  O   UNL d   1      -1.371  -6.860  -0.312  0.00  0.00    -0.346 OA
ATOM     31  C   UNL d   1      -1.954  -4.637  -0.837  0.00  0.00     0.042 A 
ATOM     32  C   UNL d   1      -1.720  -3.259  -0.779  0.00  0.00     0.033 A 
ENDBRANCH   1  23
BRANCH   3  33
ATOM     33  O   UNL d   1      -2.529  -0.369   0.031  0.00  0.00    -0.331 OA
ATOM     34  H   UNL d   1      -2.781  -1.237   0.387  0.00  0.00     0.221 HD
ENDBRANCH   3  33
TORSDOF 6
