REMARK  4 active torsions:
REMARK  status: ('A' for Active; 'I' for Inactive)
REMARK    1  A    between atoms: N_4  and  C_1 
REMARK    2  A    between atoms: C_2  and  C_7 
REMARK       I    between atoms: C_3  and  N_4 
REMARK    3  A    between atoms: C_8  and  C_3 
REMARK    4  A    between atoms: N_6  and  C_5 
ROOT
ATOM      1  C   UNL d   1       1.617  -0.206   0.514  0.00  0.00     0.062 A 
ATOM      2  C   UNL d   1       0.631  -1.216   0.341  0.00  0.00     0.057 A 
ATOM      3  C   UNL d   1      -0.055   1.566   0.277  0.00  0.00     0.050 A 
ATOM      4  C   UNL d   1       1.278   1.159   0.411  0.00  0.00     0.048 A 
ATOM      5  C   UNL d   1      -0.700  -0.767   0.222  0.00  0.00     0.032 A 
ATOM      6  C   UNL d   1      -1.044   0.587   0.196  0.00  0.00     0.018 A 
ENDROOT
BRANCH   1   7
ATOM      7  N   UNL d   1       2.969  -0.453   0.884  0.00  0.00    -0.321 N 
ATOM      8  C   UNL d   1       3.290  -1.292   1.946  0.00  0.00     0.256 C 
ATOM      9  O   UNL d   1       2.495  -1.907   2.645  0.00  0.00    -0.267 OA
ATOM     10  H   UNL d   1       3.638   0.264   0.660  0.00  0.00     0.169 HD
BRANCH   8  11
ATOM     11  C   UNL d   1       4.735  -1.426   2.296  0.00  0.00     0.033 A 
ATOM     12  C   UNL d   1       5.124  -2.652   2.864  0.00  0.00     0.027 A 
ATOM     13  C   UNL d   1       6.420  -2.797   3.327  0.00  0.00    -0.022 A 
ATOM     14  C   UNL d   1       7.040  -3.953   4.003  0.00  0.00     0.068 A 
ATOM     15  C   UNL d   1       7.327  -1.763   3.219  0.00  0.00     0.075 A 
ATOM     16  C   UNL d   1       8.424  -3.374   4.310  0.00  0.00     0.180 A 
ATOM     17  O   UNL d   1       8.556  -2.046   3.748  0.00  0.00    -0.350 OA
ATOM     18  C   UNL d   1       6.986  -0.553   2.642  0.00  0.00     0.038 A 
ATOM     19  C   UNL d   1       5.674  -0.380   2.179  0.00  0.00     0.020 A 
ENDBRANCH   8  11
ENDBRANCH   1   7
BRANCH   2  20
ATOM     20  N   UNL d   1       0.904  -2.577   0.263  0.00  0.00    -0.379 N 
ATOM     21  C   UNL d   1      -0.141  -3.591   0.338  0.00  0.00     0.123 C 
ATOM     22  C   UNL d   1       0.639  -4.894   0.336  0.00  0.00     0.021 C 
ATOM     23  C   UNL d   1       1.813  -4.606  -0.586  0.00  0.00     0.021 C 
ATOM     24  C   UNL d   1       2.040  -3.091  -0.501  0.00  0.00     0.123 C 
ENDBRANCH   2  20
BRANCH   3  25
ATOM     25  C   UNL d   1      -0.444   3.021   0.274  0.00  0.00     0.417 C 
ATOM     26  F   UNL d   1       0.614   3.868   0.425  0.00  0.00    -0.166 F 
ATOM     27  F   UNL d   1      -1.057   3.394  -0.883  0.00  0.00    -0.166 F 
ATOM     28  F   UNL d   1      -1.314   3.331   1.274  0.00  0.00    -0.166 F 
ENDBRANCH   3  25
TORSDOF 4
