REMARK  1 active torsions:
REMARK  status: ('A' for Active; 'I' for Inactive)
REMARK    1  A    between atoms: N_10  and  C_6 
ROOT
ATOM      1  C   UNL d   1      -0.237   0.584  -0.899  0.00  0.00     0.138 A 
ATOM      2  N   UNL d   1      -1.382   1.278  -0.834  0.00  0.00    -0.175 N 
ATOM      3  HN  UNL d   1      -1.525   2.115  -1.399  1.00  0.00     0.186 HD
ATOM      4  N   UNL d   1       0.753   1.126  -1.717  0.00  0.00    -0.318 N 
ATOM      5  N   UNL d   1       2.219  -0.586  -1.167  0.00  0.00    -0.323 N 
ATOM      6  C   UNL d   1      -2.334   0.832   0.001  0.00  0.00     0.681 A 
ATOM      7  C   UNL d   1       1.984   0.575  -1.854  0.00  0.00     0.178 A 
ATOM      8  C   UNL d   1       1.317  -1.232  -0.340  0.00  0.00     0.118 A 
ATOM      9  C   UNL d   1       0.007  -0.572  -0.198  0.00  0.00     0.063 A 
ATOM     10  N   UNL d   1      -2.188  -0.292   0.723  0.00  0.00    -0.201 N 
ATOM     11  HN  UNL d   1      -2.929  -0.617   1.343  1.00  0.00     0.183 HD
ATOM     12  C   UNL d   1      -1.029  -0.980   0.603  0.00  0.00     0.124 A 
ATOM     13  S   UNL d   1       1.787  -2.652   0.408  0.00  0.00    -0.059 SA
ATOM     14  S   UNL d   1       3.155   1.273  -2.802  0.00  0.00    -0.040 SA
ATOM     15  H   UNL d   1       0.529   1.991  -2.192  0.00  0.00     0.170 HD
ATOM     16  H   UNL d   1       3.138  -1.004  -1.272  0.00  0.00     0.169 HD
ENDROOT
BRANCH   6  17
ATOM     17  N   UNL d   1      -3.437   1.630   0.194  0.00  0.00    -0.214 N 
ATOM     18  C   UNL d   1      -4.487   1.198   1.115  0.00  0.00     0.171 C 
ATOM     19  C   UNL d   1      -5.270   2.444   1.603  0.00  0.00     0.292 C 
ATOM     20  N   UNL d   1      -5.803   3.278   0.498  0.00  0.00     0.087 N 
ATOM     21  C   UNL d   1      -4.706   3.636  -0.432  0.00  0.00     0.292 C 
ATOM     22  C   UNL d   1      -6.420   4.492   1.032  0.00  0.00     0.310 C 
ATOM     23  C   UNL d   1      -3.919   2.411  -0.947  0.00  0.00     0.171 C 
ENDBRANCH   6  17
TORSDOF 1
