REMARK  4 active torsions:
REMARK  status: ('A' for Active; 'I' for Inactive)
REMARK    1  A    between atoms: C_7  and  C_2 
REMARK    2  A    between atoms: O_14  and  C_3 
REMARK    3  A    between atoms: O_16  and  C_7 
REMARK    4  A    between atoms: C_18  and  O_16 
ROOT
ATOM      1  C   UNL d   1       0.007  -0.738  -0.061  0.00  0.00     0.028 A 
ATOM      2  C   UNL d   1       2.447  -0.759  -0.044  0.00  0.00     0.088 A 
ATOM      3  C   UNL d   1       1.230  -1.441  -0.050  0.00  0.00     0.096 A 
ATOM      4  C   UNL d   1       0.056   0.674  -0.074  0.00  0.00     0.067 A 
ATOM      5  N   UNL d   1       1.241   1.330  -0.094  0.00  0.00    -0.363 N 
ATOM      6  HN  UNL d   1       1.265   2.349  -0.123  1.00  0.00     0.165 HD
ATOM      7  C   UNL d   1       2.394   0.621  -0.075  0.00  0.00     0.109 A 
ATOM      8  C   UNL d   1      -1.167   1.364  -0.053  0.00  0.00     0.062 A 
ATOM      9  C   UNL d   1      -2.400   0.706  -0.028  0.00  0.00     0.045 A 
ATOM     10  C   UNL d   1      -1.240  -1.400  -0.043  0.00  0.00     0.035 A 
ATOM     11  C   UNL d   1      -2.430  -0.679  -0.026  0.00  0.00     0.013 A 
ATOM     12 CL   UNL d   1      -1.199   3.100  -0.043  0.00  0.00    -0.082 Cl
ATOM     13 BR   UNL d   1      -4.084  -1.589   0.010  0.00  0.00    -0.051 Br
ENDROOT
BRANCH   2  14
ATOM     14  C   UNL d   1       3.725  -1.486   0.073  0.00  0.00     0.297 C 
ATOM     15  O   UNL d   1       3.770  -2.708   0.118  0.00  0.00    -0.259 OA
BRANCH  14  16
ATOM     16  O   UNL d   1       4.762  -0.632   0.224  0.00  0.00    -0.318 OA
BRANCH  16  17
ATOM     17  C   UNL d   1       5.985  -1.213   0.700  0.00  0.00     0.174 C 
ATOM     18  C   UNL d   1       5.984  -1.145   2.216  0.00  0.00     0.034 C 
ENDBRANCH  16  17
ENDBRANCH  14  16
ENDBRANCH   2  14
BRANCH   3  19
ATOM     19  O   UNL d   1       1.170  -2.818  -0.022  0.00  0.00    -0.359 OA
ATOM     20  H   UNL d   1       2.081  -3.186   0.014  0.00  0.00     0.217 HD
ENDBRANCH   3  19
TORSDOF 4
