REMARK  7 active torsions:
REMARK  status: ('A' for Active; 'I' for Inactive)
REMARK    1  A    between atoms: C_14  and  C_5 
REMARK    2  A    between atoms: O_17  and  C_6 
REMARK    3  A    between atoms: C_12  and  C_15 
REMARK    4  A    between atoms: C_13  and  C_16 
REMARK    5  A    between atoms: O_29  and  C_14 
REMARK    6  A    between atoms: C_18  and  O_17 
REMARK    7  A    between atoms: C_32  and  O_29 
ROOT
ATOM      1  C   UNL d   1       1.626  -0.876  -0.043  0.00  0.00     0.147 A 
ATOM      2  N   UNL d   1       0.977  -2.079  -0.095  0.00  0.00    -0.320 N 
ATOM      3  HN  UNL d   1       1.485  -2.958  -0.188  1.00  0.00     0.169 HD
ATOM      4  N   UNL d   1       0.943   0.330   0.005  0.00  0.00    -0.238 N 
ATOM      5  C   UNL d   1       2.968  -0.536  -0.060  0.00  0.00     0.102 A 
ATOM      6  C   UNL d   1      -0.320  -2.045  -0.019  0.00  0.00     0.162 A 
ATOM      7  N   UNL d   1       1.752   1.409   0.002  0.00  0.00    -0.302 N 
ATOM      8  HN  UNL d   1       1.491   2.394   0.022  1.00  0.00     0.186 HD
ATOM      9  C   UNL d   1      -1.143  -0.816   0.110  0.00  0.00     0.044 A 
ATOM     10  C   UNL d   1      -0.456   0.402   0.060  0.00  0.00     0.073 A 
ATOM     11  C   UNL d   1       2.977   0.878  -0.033  0.00  0.00     0.129 A 
ATOM     12  C   UNL d   1      -2.535  -0.818   0.216  0.00  0.00     0.018 A 
ATOM     13  C   UNL d   1      -1.138   1.622   0.070  0.00  0.00     0.032 A 
ATOM     14  C   UNL d   1      -3.224   0.399   0.240  0.00  0.00     0.001 A 
ATOM     15  C   UNL d   1      -2.531   1.611   0.153  0.00  0.00     0.002 A 
ENDROOT
BRANCH   6  16
ATOM     16  O   UNL d   1      -1.127  -3.171  -0.091  0.00  0.00    -0.293 OA
BRANCH  16  17
ATOM     17  C   UNL d   1      -0.687  -4.307  -0.801  0.00  0.00     0.079 A 
ATOM     18  C   UNL d   1      -1.010  -5.552  -0.267  0.00  0.00     0.053 A 
ATOM     19  C   UNL d   1      -0.752  -6.719  -1.004  0.00  0.00     0.051 A 
ATOM     20  C   UNL d   1      -0.170  -6.604  -2.280  0.00  0.00     0.032 A 
ATOM     21  C   UNL d   1       0.141  -5.347  -2.827  0.00  0.00     0.051 A 
ATOM     22  C   UNL d   1      -0.120  -4.194  -2.071  0.00  0.00     0.053 A 
BRANCH  19  23
ATOM     23  C   UNL d   1      -1.130  -8.069  -0.440  0.00  0.00     0.417 C 
ATOM     24  F   UNL d   1      -0.940  -9.094  -1.316  0.00  0.00    -0.166 F 
ATOM     25  F   UNL d   1      -0.415  -8.389   0.672  0.00  0.00    -0.166 F 
ATOM     26  F   UNL d   1      -2.441  -8.130  -0.076  0.00  0.00    -0.166 F 
ENDBRANCH  19  23
BRANCH  21  27
ATOM     27  C   UNL d   1       0.716  -5.218  -4.218  0.00  0.00     0.417 C 
ATOM     28  F   UNL d   1       0.723  -6.391  -4.910  0.00  0.00    -0.166 F 
ATOM     29  F   UNL d   1       0.018  -4.338  -4.988  0.00  0.00    -0.166 F 
ATOM     30  F   UNL d   1       2.003  -4.777  -4.216  0.00  0.00    -0.166 F 
ENDBRANCH  21  27
ENDBRANCH  16  17
ENDBRANCH   6  16
BRANCH   5  31
ATOM     31  C   UNL d   1       4.116  -1.405  -0.158  0.00  0.00     0.298 C 
ATOM     32  O   UNL d   1       5.253  -0.981  -0.318  0.00  0.00    -0.259 OA
BRANCH  31  33
ATOM     33  O   UNL d   1       3.780  -2.724  -0.124  0.00  0.00    -0.318 OA
BRANCH  33  34
ATOM     34  C   UNL d   1       4.745  -3.634  -0.659  0.00  0.00     0.174 C 
ATOM     35  C   UNL d   1       4.552  -3.698  -2.163  0.00  0.00     0.034 C 
ENDBRANCH  33  34
ENDBRANCH  31  33
ENDBRANCH   5  31
TORSDOF 7
