REMARK  5 active torsions:
REMARK  status: ('A' for Active; 'I' for Inactive)
REMARK    1  A    between atoms: C_2  and  C_1 
REMARK    2  A    between atoms: O_7  and  C_2 
REMARK    3  A    between atoms: C_8  and  C_3 
REMARK    4  A    between atoms: C_15  and  O_7 
REMARK    5  A    between atoms: C_17  and  C_15 
ROOT
ATOM      1  C   UNL d   1       1.025  -0.037  -0.001  0.00  0.00     0.120 C 
ATOM      2  C   UNL d   1       0.280  -0.338   1.082  0.00  0.00     0.040 C 
ATOM      3  C   UNL d   1       0.441   0.304  -1.254  0.00  0.00     0.105 C 
ATOM      4  N   UNL d   1      -0.083   0.587  -2.250  0.00  0.00    -0.191 NA
ENDROOT
BRANCH   1   5
ATOM      5  C   UNL d   1       2.502  -0.055   0.155  0.00  0.00     0.304 C 
ATOM      6  O   UNL d   1       3.065  -0.266   1.219  0.00  0.00    -0.258 OA
BRANCH   5   7
ATOM      7  O   UNL d   1       3.122   0.204  -1.025  0.00  0.00    -0.312 OA
BRANCH   7   8
ATOM      8  C   UNL d   1       4.560   0.282  -0.992  0.00  0.00     0.217 C 
BRANCH   8   9
ATOM      9  C   UNL d   1       5.151  -0.659  -2.010  0.00  0.00    -0.034 A 
ATOM     10  C   UNL d   1       4.894  -0.482  -3.378  0.00  0.00     0.009 A 
ATOM     11  C   UNL d   1       5.463  -1.338  -4.324  0.00  0.00     0.001 A 
ATOM     12  C   UNL d   1       6.295  -2.379  -3.914  0.00  0.00     0.000 A 
ATOM     13  C   UNL d   1       6.559  -2.564  -2.558  0.00  0.00     0.001 A 
ATOM     14  C   UNL d   1       5.990  -1.709  -1.611  0.00  0.00     0.009 A 
ENDBRANCH   8   9
ENDBRANCH   7   8
ENDBRANCH   5   7
ENDBRANCH   1   5
BRANCH   2  15
ATOM     15  C   UNL d   1      -1.185  -0.374   1.073  0.00  0.00    -0.033 A 
ATOM     16  C   UNL d   1      -1.928   0.758   1.427  0.00  0.00     0.037 A 
ATOM     17  C   UNL d   1      -3.326   0.738   1.343  0.00  0.00     0.056 A 
ATOM     18 CL   UNL d   1      -4.177   2.178   1.777  0.00  0.00    -0.083 Cl
ATOM     19  C   UNL d   1      -3.985  -0.418   0.908  0.00  0.00     0.055 A 
ATOM     20  C   UNL d   1      -3.242  -1.551   0.563  0.00  0.00     0.026 A 
ATOM     21 CL   UNL d   1      -5.704  -0.512   0.771  0.00  0.00    -0.083 Cl
ATOM     22  C   UNL d   1      -1.848  -1.530   0.648  0.00  0.00     0.013 A 
ENDBRANCH   2  15
TORSDOF 5
