REMARK  3 active torsions:
REMARK  status: ('A' for Active; 'I' for Inactive)
REMARK    1  A    between atoms: C_7  and  C_1 
REMARK    2  A    between atoms: C_12  and  C_8 
REMARK    3  A    between atoms: O_17  and  C_12 
ROOT
ATOM      1  C   UNL d   1      -2.471   1.159  -0.016  0.00  0.00     0.145 A 
ATOM      2  C   UNL d   1      -1.118   0.784  -0.007  0.00  0.00     0.076 A 
ATOM      3  C   UNL d   1      -0.691  -0.543   0.003  0.00  0.00     0.008 A 
ATOM      4  N   UNL d   1       0.014   1.572  -0.005  0.00  0.00    -0.353 N 
ATOM      5  N   UNL d   1      -3.390   0.146   0.004  0.00  0.00    -0.346 N 
ATOM      6  HN  UNL d   1      -4.386   0.369   0.002  1.00  0.00     0.166 HD
ATOM      7  C   UNL d   1      -2.996  -1.153   0.025  0.00  0.00     0.109 A 
ATOM      8  C   UNL d   1       0.745  -0.530  -0.005  0.00  0.00     0.003 A 
ATOM      9  C   UNL d   1      -1.665  -1.559   0.019  0.00  0.00     0.050 A 
ATOM     10  C   UNL d   1       1.151   0.804   0.006  0.00  0.00     0.043 A 
ATOM     11  C   UNL d   1       1.743  -1.527  -0.014  0.00  0.00     0.014 A 
ATOM     12  C   UNL d   1       2.494   1.198   0.022  0.00  0.00     0.030 A 
ATOM     13  C   UNL d   1       3.094  -1.152  -0.004  0.00  0.00     0.001 A 
ATOM     14  C   UNL d   1       3.461   0.192   0.019  0.00  0.00     0.002 A 
ATOM     15  H   UNL d   1       0.012   2.583  -0.009  0.00  0.00     0.166 HD
ENDROOT
BRANCH   1  16
ATOM     16  C   UNL d   1      -2.954   2.597  -0.042  0.00  0.00     0.434 C 
ATOM     17  F   UNL d   1      -1.923   3.497  -0.081  0.00  0.00    -0.165 F 
ATOM     18  F   UNL d   1      -3.726   2.887  -1.126  0.00  0.00    -0.165 F 
ATOM     19  F   UNL d   1      -3.687   2.938   1.055  0.00  0.00    -0.165 F 
ENDBRANCH   1  16
BRANCH   7  20
ATOM     20  C   UNL d   1      -4.081  -2.189   0.062  0.00  0.00     0.309 C 
ATOM     21  O   UNL d   1      -3.874  -3.393   0.091  0.00  0.00    -0.258 OA
BRANCH  20  22
ATOM     22  O   UNL d   1      -5.301  -1.591   0.063  0.00  0.00    -0.321 OA
ATOM     23  C   UNL d   1      -6.411  -2.485   0.101  0.00  0.00     0.213 C 
ENDBRANCH  20  22
ENDBRANCH   7  20
TORSDOF 3
