REMARK  5 active torsions:
REMARK  status: ('A' for Active; 'I' for Inactive)
REMARK    1  A    between atoms: C_3  and  C_1 
REMARK    2  A    between atoms: C_4  and  C_2 
REMARK       I    between atoms: N_9  and  C_3 
REMARK    3  A    between atoms: S_11  and  C_8 
REMARK    4  A    between atoms: C_16  and  N_9 
REMARK    5  A    between atoms: C_18  and  S_11 
ROOT
ATOM      1  C   UNL d   1       0.813   1.222  -0.269  0.00  0.00     0.062 A 
ATOM      2  C   UNL d   1       1.588   0.065  -0.108  0.00  0.00     0.067 A 
ATOM      3  C   UNL d   1      -0.563   1.033  -0.444  0.00  0.00     0.106 A 
ATOM      4  N   UNL d   1      -1.204  -0.162  -0.407  0.00  0.00    -0.359 N 
ATOM      5  HN  UNL d   1      -2.214  -0.226  -0.533  1.00  0.00     0.166 HD
ATOM      6  C   UNL d   1      -0.455  -1.258  -0.197  0.00  0.00     0.075 A 
ATOM      7  C   UNL d   1       0.924  -1.185  -0.058  0.00  0.00     0.054 A 
ENDROOT
BRANCH   1   8
ATOM      8  C   UNL d   1       1.235   2.657  -0.251  0.00  0.00     0.258 C 
ATOM      9  N   UNL d   1       2.263   3.022   0.595  0.00  0.00    -0.323 N 
ATOM     10  H   UNL d   1       2.884   2.310   0.948  0.00  0.00     0.169 HD
ATOM     11  O   UNL d   1       0.593   3.429  -0.957  0.00  0.00    -0.267 OA
BRANCH   9  12
ATOM     12  C   UNL d   1       2.627   4.343   0.952  0.00  0.00     0.035 A 
ATOM     13  C   UNL d   1       1.811   5.458   0.735  0.00  0.00     0.031 A 
ATOM     14  C   UNL d   1       2.210   6.726   1.177  0.00  0.00     0.026 A 
ATOM     15  C   UNL d   1       3.431   6.885   1.828  0.00  0.00     0.034 A 
ATOM     16  C   UNL d   1       4.257   5.787   2.041  0.00  0.00     0.026 A 
ATOM     17 CL   UNL d   1       3.912   8.441   2.378  0.00  0.00    -0.084 Cl
ATOM     18  C   UNL d   1       3.852   4.520   1.610  0.00  0.00     0.031 A 
ENDBRANCH   9  12
ENDBRANCH   1   8
BRANCH   2  19
ATOM     19  C   UNL d   1       3.079   0.022   0.034  0.00  0.00     0.418 C 
ATOM     20  F   UNL d   1       3.718   1.182  -0.261  0.00  0.00    -0.166 F 
ATOM     21  F   UNL d   1       3.447  -0.275   1.311  0.00  0.00    -0.166 F 
ATOM     22  F   UNL d   1       3.656  -0.926  -0.752  0.00  0.00    -0.166 F 
ENDBRANCH   2  19
BRANCH   6  23
ATOM     23  S   UNL d   1      -1.305  -2.799   0.040  0.00  0.00    -0.073 SA
BRANCH  23  24
ATOM     24  C   UNL d   1      -1.401  -3.446  -1.616  0.00  0.00     0.007 A 
ATOM     25  C   UNL d   1      -0.899  -4.727  -1.873  0.00  0.00     0.019 A 
ATOM     26  C   UNL d   1      -1.012  -5.291  -3.146  0.00  0.00     0.001 A 
ATOM     27  C   UNL d   1      -1.635  -4.581  -4.169  0.00  0.00     0.000 A 
ATOM     28  C   UNL d   1      -2.146  -3.307  -3.921  0.00  0.00     0.001 A 
ATOM     29  C   UNL d   1      -2.033  -2.743  -2.648  0.00  0.00     0.019 A 
ENDBRANCH  23  24
ENDBRANCH   6  23
TORSDOF 5
