REMARK  2 active torsions:
REMARK  status: ('A' for Active; 'I' for Inactive)
REMARK    1  A    between atoms: N_4  and  N_1 
REMARK       I    between atoms: N_8  and  C_3 
REMARK       I    between atoms: N_9  and  C_3 
REMARK    2  A    between atoms: C_7  and  C_6 
ROOT
ATOM      1  N   UNL d   1       0.994  -0.106  -0.020  0.00  0.00    -0.302 N 
ATOM      2  HN  UNL d   1       0.481  -0.901   0.362  1.00  0.00     0.186 HD
ATOM      3  C   UNL d   1       2.299  -0.029  -0.021  0.00  0.00     0.032 C 
ATOM      4  C   UNL d   1       3.074   1.179  -0.525  0.00  0.00     0.070 C 
ENDROOT
BRANCH   1   5
ATOM      5  N   UNL d   1       0.370   1.005  -0.594  0.00  0.00    -0.281 N 
ATOM      6  C   UNL d   1      -0.921   0.926  -0.607  0.00  0.00     0.141 C 
ATOM      7  N   UNL d   1      -1.678  -0.064  -0.077  0.00  0.00    -0.278 NA
ATOM      8  N   UNL d   1      -1.695   1.868  -1.194  0.00  0.00    -0.278 NA
ATOM      9  H   UNL d   1      -1.057  -0.831   0.168  0.00  0.00     0.126 HD
ATOM     10  H   UNL d   1      -2.410  -0.366  -0.705  0.00  0.00     0.126 HD
ATOM     11  H   UNL d   1      -1.160   2.710  -1.377  0.00  0.00     0.126 HD
ATOM     12  H   UNL d   1      -2.542   2.062  -0.675  0.00  0.00     0.126 HD
ATOM     13  HN  UNL d   1       0.884   1.803  -0.967  1.00  0.00     0.189 HD
ENDBRANCH   1   5
BRANCH   3  14
ATOM     14  C   UNL d   1       3.105  -1.202   0.470  0.00  0.00    -0.013 A 
ATOM     15  C   UNL d   1       2.447  -2.361   0.905  0.00  0.00     0.013 A 
ATOM     16  C   UNL d   1       3.179  -3.493   1.279  0.00  0.00     0.001 A 
ATOM     17  C   UNL d   1       4.570  -3.477   1.225  0.00  0.00     0.000 A 
ATOM     18  C   UNL d   1       5.237  -2.322   0.820  0.00  0.00     0.001 A 
ATOM     19  C   UNL d   1       4.505  -1.189   0.450  0.00  0.00     0.013 A 
ENDBRANCH   3  14
TORSDOF 2
