REMARK  3 active torsions:
REMARK  status: ('A' for Active; 'I' for Inactive)
REMARK    1  A    between atoms: C_3  and  N_1 
REMARK    2  A    between atoms: N_2  and  C_5 
REMARK    3  A    between atoms: C_6  and  C_4 
ROOT
ATOM      1  C   UNL d   1      -1.651  -1.379  -0.800  0.00  0.00     0.113 A 
ATOM      2  C   UNL d   1      -1.853  -0.232  -0.015  0.00  0.00    -0.001 A 
ATOM      3  C   UNL d   1      -2.892   0.636  -0.381  0.00  0.00     0.014 A 
ATOM      4  C   UNL d   1      -2.436  -1.651  -1.930  0.00  0.00     0.037 A 
ATOM      5  C   UNL d   1      -3.688   0.367  -1.500  0.00  0.00     0.001 A 
ATOM      6  C   UNL d   1      -3.456  -0.768  -2.277  0.00  0.00     0.002 A 
ENDROOT
BRANCH   2   7
ATOM      7  C   UNL d   1      -1.014   0.158   1.127  0.00  0.00     0.045 C 
ATOM      8  C   UNL d   1      -1.259  -0.196   2.402  0.00  0.00     0.077 C 
ATOM      9  C   UNL d   1      -2.379  -1.027   2.938  0.00  0.00     0.075 C 
BRANCH   8  10
ATOM     10  N   UNL d   1      -0.330   0.321   3.407  0.00  0.00    -0.120 N 
ATOM     11  O   UNL d   1       0.234   1.401   3.173  0.00  0.00    -0.532 OA
ATOM     12  O   UNL d   1      -0.178  -0.342   4.437  0.00  0.00    -0.532 OA
ENDBRANCH   8  10
ENDBRANCH   2   7
BRANCH   1  13
ATOM     13  N   UNL d   1      -0.611  -2.335  -0.468  0.00  0.00    -0.115 N 
ATOM     14  O   UNL d   1      -0.679  -2.886   0.639  0.00  0.00    -0.532 OA
ATOM     15  O   UNL d   1       0.250  -2.552  -1.330  0.00  0.00    -0.532 OA
ENDBRANCH   1  13
TORSDOF 3
