REMARK  6 active torsions:
REMARK  status: ('A' for Active; 'I' for Inactive)
REMARK    1  A    between atoms: S_13  and  C_1 
REMARK    2  A    between atoms: C_15  and  N_2 
REMARK    3  A    between atoms: C_17  and  N_3 
REMARK    4  A    between atoms: C_7  and  C_16 
REMARK    5  A    between atoms: C_18  and  C_8 
REMARK    6  A    between atoms: C_16  and  S_13 
ROOT
ATOM      1  C   UNL d   1       0.985  -0.642  -0.008  0.00  0.00     0.152 A 
ATOM      2  N   UNL d   1      -0.322  -1.128   0.010  0.00  0.00    -0.301 N 
ATOM      3  N   UNL d   1       1.020   0.665  -0.159  0.00  0.00    -0.335 N 
ATOM      4  HN  UNL d   1       1.851   1.245  -0.277  1.00  0.00     0.168 HD
ATOM      5  C   UNL d   1      -0.281   1.088  -0.128  0.00  0.00     0.060 A 
ATOM      6  C   UNL d   1      -1.120   0.002  -0.096  0.00  0.00     0.130 A 
ENDROOT
BRANCH   1   7
ATOM      7  S   UNL d   1       2.433  -1.613   0.063  0.00  0.00    -0.086 SA
BRANCH   7   8
ATOM      8  C   UNL d   1       3.643  -0.582  -0.817  0.00  0.00     0.160 C 
BRANCH   8   9
ATOM      9  C   UNL d   1       4.083   0.673  -0.091  0.00  0.00     0.115 A 
ATOM     10  N   UNL d   1       4.938   1.605  -0.626  0.00  0.00    -0.275 N 
ATOM     11  C   UNL d   1       5.075   2.559   0.377  0.00  0.00     0.199 A 
ATOM     12  S   UNL d   1       5.806   4.053   0.431  0.00  0.00    -0.039 SA
ATOM     13  N   UNL d   1       4.354   2.084   1.459  0.00  0.00    -0.274 N 
ATOM     14  N   UNL d   1       3.745   0.917   1.149  0.00  0.00    -0.286 N 
ATOM     15  H   UNL d   1       4.172   2.573   2.327  0.00  0.00     0.189 HD
ATOM     16  HN  UNL d   1       3.151   0.349   1.753  1.00  0.00     0.188 HD
BRANCH  10  17
ATOM     17  C   UNL d   1       5.583   1.620  -1.897  0.00  0.00     0.043 A 
ATOM     18  C   UNL d   1       4.938   1.210  -3.071  0.00  0.00     0.030 A 
ATOM     19  C   UNL d   1       5.584   1.257  -4.315  0.00  0.00     0.002 A 
ATOM     20  C   UNL d   1       6.883   1.740  -4.416  0.00  0.00     0.000 A 
ATOM     21  C   UNL d   1       7.545   2.156  -3.269  0.00  0.00     0.002 A 
ATOM     22  C   UNL d   1       6.906   2.081  -2.025  0.00  0.00     0.030 A 
ENDBRANCH  10  17
ENDBRANCH   8   9
ENDBRANCH   7   8
ENDBRANCH   1   7
BRANCH   2  23
ATOM     23  C   UNL d   1      -0.855  -2.446   0.143  0.00  0.00     0.041 A 
ATOM     24  C   UNL d   1      -0.192  -3.452   0.851  0.00  0.00     0.030 A 
ATOM     25  C   UNL d   1      -0.781  -4.713   1.002  0.00  0.00     0.002 A 
ATOM     26  C   UNL d   1      -2.033  -4.981   0.451  0.00  0.00     0.000 A 
ATOM     27  C   UNL d   1      -2.701  -3.989  -0.257  0.00  0.00     0.002 A 
ATOM     28  C   UNL d   1      -2.120  -2.728  -0.409  0.00  0.00     0.030 A 
ENDBRANCH   2  23
BRANCH   5  29
ATOM     29  C   UNL d   1      -0.686   2.487  -0.085  0.00  0.00    -0.008 A 
ATOM     30  C   UNL d   1       0.290   3.486   0.029  0.00  0.00     0.014 A 
ATOM     31  C   UNL d   1      -0.072   4.835   0.099  0.00  0.00     0.001 A 
ATOM     32  C   UNL d   1      -1.417   5.202   0.060  0.00  0.00     0.000 A 
ATOM     33  C   UNL d   1      -2.399   4.222  -0.044  0.00  0.00     0.001 A 
ATOM     34  C   UNL d   1      -2.036   2.873  -0.116  0.00  0.00     0.014 A 
ENDBRANCH   5  29
TORSDOF 6
