REMARK  6 active torsions:
REMARK  status: ('A' for Active; 'I' for Inactive)
REMARK    1  A    between atoms: C_3  and  S_1 
REMARK    2  A    between atoms: C_5  and  S_1 
REMARK    3  A    between atoms: C_2  and  C_3 
REMARK    4  A    between atoms: C_4  and  C_2 
REMARK    5  A    between atoms: C_10  and  C_3 
REMARK    6  A    between atoms: C_8  and  C_4 
ROOT
ATOM      1  C   UNL d   1       0.367   1.629  -0.436  0.00  0.00     0.092 C 
ENDROOT
BRANCH   1   2
ATOM      2  C   UNL d   1       0.694   2.488  -1.665  0.00  0.00     0.104 C 
BRANCH   2   3
ATOM      3  C   UNL d   1       0.528   1.879  -3.042  0.00  0.00     0.161 C 
ATOM      4  O   UNL d   1      -0.138   0.874  -3.267  0.00  0.00    -0.292 OA
BRANCH   3   5
ATOM      5  C   UNL d   1       1.232   2.557  -4.178  0.00  0.00     0.010 A 
ATOM      6  C   UNL d   1       1.430   1.828  -5.364  0.00  0.00     0.016 A 
ATOM      7  C   UNL d   1       2.138   2.391  -6.430  0.00  0.00     0.020 A 
ATOM      8  C   UNL d   1       2.644   3.685  -6.318  0.00  0.00     0.011 A 
ATOM      9  C   UNL d   1       2.430   4.428  -5.159  0.00  0.00     0.020 A 
ATOM     10 BR   UNL d   1       3.639   4.431  -7.741  0.00  0.00    -0.051 Br
ATOM     11  C   UNL d   1       1.720   3.868  -4.093  0.00  0.00     0.016 A 
ENDBRANCH   3   5
ENDBRANCH   2   3
ENDBRANCH   1   2
BRANCH   1  12
ATOM     12  S   UNL d   1       1.209  -0.013  -0.212  0.00  0.00    -0.118 SA
BRANCH  12  13
ATOM     13  C   UNL d   1       2.950   0.138  -0.580  0.00  0.00     0.023 A 
ATOM     14  C   UNL d   1       3.841   1.189  -0.314  0.00  0.00     0.052 A 
ATOM     15  C   UNL d   1       5.199   1.078  -0.659  0.00  0.00     0.049 A 
ATOM     16 CL   UNL d   1       3.407   2.627   0.538  0.00  0.00    -0.083 Cl
ATOM     17  C   UNL d   1       5.696  -0.103  -1.201  0.00  0.00     0.035 A 
ATOM     18  C   UNL d   1       4.851  -1.182  -1.408  0.00  0.00     0.025 A 
ATOM     19 CL   UNL d   1       7.368  -0.241  -1.577  0.00  0.00    -0.084 Cl
ATOM     20  C   UNL d   1       3.492  -1.055  -1.108  0.00  0.00     0.022 A 
ENDBRANCH  12  13
ENDBRANCH   1  12
BRANCH   1  21
ATOM     21  C   UNL d   1      -1.144   1.496  -0.204  0.00  0.00    -0.044 A 
ATOM     22  C   UNL d   1      -1.896   0.410  -0.684  0.00  0.00     0.008 A 
ATOM     23  C   UNL d   1      -3.255   0.285  -0.384  0.00  0.00     0.001 A 
ATOM     24  C   UNL d   1      -3.895   1.262   0.372  0.00  0.00     0.000 A 
ATOM     25  C   UNL d   1      -3.180   2.370   0.818  0.00  0.00     0.001 A 
ATOM     26  C   UNL d   1      -1.817   2.487   0.533  0.00  0.00     0.008 A 
ENDBRANCH   1  21
TORSDOF 6
