REMARK  7 active torsions:
REMARK  status: ('A' for Active; 'I' for Inactive)
REMARK    1  A    between atoms: N_2  and  S_1 
REMARK    2  A    between atoms: C_5  and  S_1 
REMARK       I    between atoms: C_3  and  N_2 
REMARK    3  A    between atoms: O_10  and  C_3 
REMARK    4  A    between atoms: C_13  and  N_4 
REMARK    5  A    between atoms: C_16  and  O_10 
REMARK    6  A    between atoms: C_11  and  C_16 
REMARK    7  A    between atoms: C_22  and  C_13 
ROOT
ATOM      1  O   UNL d   1       0.943  -4.170   2.930  0.00  0.00    -0.301 OA
ENDROOT
BRANCH   1   2
ATOM      2  C   UNL d   1       0.046  -3.896   1.951  0.00  0.00     0.374 C 
ATOM      3  N   UNL d   1      -0.059  -4.949   1.057  0.00  0.00    -0.226 N 
ATOM      4  H   UNL d   1       0.496  -5.781   1.209  0.00  0.00     0.184 HD
ATOM      5  O   UNL d   1      -0.582  -2.857   1.850  0.00  0.00    -0.237 OA
BRANCH   3   6
ATOM      6  S   UNL d   1      -1.276  -5.117  -0.053  0.00  0.00     0.267 S 
ATOM      7  O   UNL d   1      -2.537  -4.776   0.569  0.00  0.00    -0.200 OA
ATOM      8  O   UNL d   1      -1.083  -6.431  -0.635  0.00  0.00    -0.200 OA
BRANCH   6   9
ATOM      9  C   UNL d   1      -0.914  -3.921  -1.317  0.00  0.00     0.080 A 
ATOM     10  C   UNL d   1      -0.168  -4.298  -2.437  0.00  0.00     0.026 A 
ATOM     11  C   UNL d   1       0.000  -3.399  -3.493  0.00  0.00     0.008 A 
ATOM     12  C   UNL d   1      -0.585  -2.126  -3.446  0.00  0.00    -0.062 A 
ATOM     13  C   UNL d   1      -1.328  -1.758  -2.316  0.00  0.00     0.008 A 
ATOM     14  C   UNL d   1      -0.439  -1.191  -4.611  0.00  0.00     0.048 C 
ATOM     15  C   UNL d   1      -1.502  -2.654  -1.257  0.00  0.00     0.026 A 
ENDBRANCH   6   9
ENDBRANCH   3   6
ENDBRANCH   1   2
BRANCH   1  16
ATOM     16  C   UNL d   1       1.143  -3.131   3.917  0.00  0.00     0.214 C 
BRANCH  16  17
ATOM     17  C   UNL d   1       0.434  -3.485   5.235  0.00  0.00     0.174 C 
ATOM     18  O   UNL d   1       1.226  -4.478   5.920  0.00  0.00    -0.380 OA
ATOM     19  C   UNL d   1       0.649  -4.830   7.184  0.00  0.00     0.198 C 
ATOM     20  C   UNL d   1       0.390  -3.608   8.089  0.00  0.00     0.299 C 
ATOM     21  N   UNL d   1      -0.325  -2.485   7.443  0.00  0.00     0.097 N 
ATOM     22  C   UNL d   1       0.305  -2.232   6.128  0.00  0.00     0.306 C 
BRANCH  21  23
ATOM     23  C   UNL d   1      -1.774  -2.748   7.362  0.00  0.00     0.311 C 
BRANCH  23  24
ATOM     24  C   UNL d   1      -2.631  -1.574   6.918  0.00  0.00    -0.030 A 
ATOM     25  C   UNL d   1      -3.836  -1.827   6.238  0.00  0.00     0.009 A 
ATOM     26  C   UNL d   1      -4.682  -0.778   5.868  0.00  0.00     0.001 A 
ATOM     27  C   UNL d   1      -4.344   0.536   6.177  0.00  0.00     0.000 A 
ATOM     28  C   UNL d   1      -3.163   0.803   6.866  0.00  0.00     0.001 A 
ATOM     29  C   UNL d   1      -2.317  -0.247   7.245  0.00  0.00     0.009 A 
ENDBRANCH  23  24
ENDBRANCH  21  23
ENDBRANCH  16  17
ENDBRANCH   1  16
TORSDOF 7
