REMARK  3 active torsions:
REMARK  status: ('A' for Active; 'I' for Inactive)
REMARK    1  A    between atoms: N_10  and  C_2 
REMARK    2  A    between atoms: N_8  and  N_10 
REMARK    3  A    between atoms: C_13  and  C_14 
ROOT
ATOM      1  N   UNL d   1      -1.502   3.707   0.098  0.00  0.00    -0.297 N 
ATOM      2  HN  UNL d   1      -0.554   3.343   0.191  1.00  0.00     0.186 HD
ATOM      3  C   UNL d   1      -1.718   4.993   0.092  0.00  0.00     0.120 C 
ENDROOT
BRANCH   1   4
ATOM      4  N   UNL d   1      -2.558   2.858  -0.021  0.00  0.00    -0.132 N 
ATOM      5  H   UNL d   1      -3.395   3.130  -0.532  0.00  0.00     0.205 HD
BRANCH   4   6
ATOM      6  C   UNL d   1      -2.624   1.618   0.559  0.00  0.00     0.700 A 
ATOM      7  N   UNL d   1      -1.497   1.201   1.207  0.00  0.00    -0.155 N 
ATOM      8  C   UNL d   1      -1.397   0.006   1.842  0.00  0.00     0.261 A 
ATOM      9  H   UNL d   1      -0.706   1.828   1.190  0.00  0.00     0.187 HD
ATOM     10  C   UNL d   1      -2.615  -0.813   1.799  0.00  0.00     0.100 A 
ATOM     11  O   UNL d   1      -0.387  -0.381   2.418  0.00  0.00    -0.268 OA
ATOM     12  C   UNL d   1      -3.683  -0.326   1.151  0.00  0.00     0.028 A 
ATOM     13  C   UNL d   1      -4.963  -1.108   1.083  0.00  0.00     0.069 C 
ATOM     14  N   UNL d   1      -3.703   0.896   0.514  0.00  0.00    -0.194 N 
ATOM     15  HN  UNL d   1      -4.536   1.222   0.024  1.00  0.00     0.184 HD
ENDBRANCH   4   6
ENDBRANCH   1   4
BRANCH   3  16
ATOM     16  C   UNL d   1      -2.996   5.752   0.099  0.00  0.00    -0.008 A 
ATOM     17  C   UNL d   1      -3.080   7.022  -0.540  0.00  0.00    -0.014 A 
ATOM     18  C   UNL d   1      -4.311   7.725  -0.458  0.00  0.00    -0.025 A 
ATOM     19  C   UNL d   1      -2.026   7.646  -1.256  0.00  0.00     0.013 A 
ATOM     20  C   UNL d   1      -4.444   8.990  -1.052  0.00  0.00     0.012 A 
ATOM     21  C   UNL d   1      -5.399   7.163   0.226  0.00  0.00     0.012 A 
ATOM     22  C   UNL d   1      -3.381   9.584  -1.728  0.00  0.00     0.001 A 
ATOM     23  C   UNL d   1      -2.172   8.911  -1.832  0.00  0.00     0.001 A 
ATOM     24  C   UNL d   1      -5.287   5.935   0.868  0.00  0.00     0.002 A 
ATOM     25  C   UNL d   1      -4.082   5.243   0.827  0.00  0.00     0.014 A 
ENDBRANCH   3  16
TORSDOF 3
