REMARK  2 active torsions:
REMARK  status: ('A' for Active; 'I' for Inactive)
REMARK    1  A    between atoms: C_4  and  C_1 
REMARK    2  A    between atoms: O_9  and  C_4 
ROOT
ATOM      1  C   UNL d   1       0.809  -0.031  -0.070  0.00  0.00     0.111 C 
ATOM      2  C   UNL d   1       0.237   0.154   1.131  0.00  0.00     0.082 C 
ATOM      3  C   UNL d   1      -1.272   0.257   1.280  0.00  0.00     0.262 C 
ATOM      4  N   UNL d   1       1.020   0.284   2.297  0.00  0.00    -0.287 NA
ATOM      5  N   UNL d   1      -1.703   1.054   2.313  0.00  0.00    -0.355 N 
ATOM      6  O   UNL d   1      -2.072  -0.362   0.591  0.00  0.00    -0.267 OA
ATOM      7  C   UNL d   1       0.597   1.312   3.262  0.00  0.00     0.112 C 
ATOM      8  C   UNL d   1      -0.912   1.229   3.518  0.00  0.00     0.137 C 
ATOM      9  H   UNL d   1       1.022  -0.625   2.764  0.00  0.00     0.127 HD
ATOM     10  H   UNL d   1      -2.712   1.055   2.400  0.00  0.00     0.162 HD
ENDROOT
BRANCH   1  11
ATOM     11  C   UNL d   1       0.174  -0.067  -1.401  0.00  0.00     0.284 C 
ATOM     12  O   UNL d   1       0.674  -0.696  -2.327  0.00  0.00    -0.260 OA
BRANCH  11  13
ATOM     13  O   UNL d   1      -0.879   0.768  -1.485  0.00  0.00    -0.323 OA
ATOM     14  C   UNL d   1      -1.579   0.742  -2.730  0.00  0.00     0.213 C 
ENDBRANCH  11  13
ENDBRANCH   1  11
TORSDOF 2
