REMARK  7 active torsions:
REMARK  status: ('A' for Active; 'I' for Inactive)
REMARK    1  A    between atoms: C_13  and  N_2 
REMARK    2  A    between atoms: N_8  and  C_7 
REMARK    3  A    between atoms: C_15  and  N_8 
REMARK    4  A    between atoms: C_16  and  N_8 
REMARK    5  A    between atoms: C_17  and  C_13 
REMARK    6  A    between atoms: C_18  and  C_15 
REMARK    7  A    between atoms: C_19  and  C_16 
ROOT
ATOM      1  C   UNL d   1      -1.657  -0.746   1.520  0.00  0.00     0.130 A 
ATOM      2  N   UNL d   1      -2.209   1.010   2.646  0.00  0.00    -0.254 N 
ATOM      3  C   UNL d   1      -1.465   0.624   1.566  0.00  0.00     0.153 A 
ATOM      4  N   UNL d   1      -2.957  -0.011   3.123  0.00  0.00    -0.018 NA
ATOM      5  N   UNL d   1      -2.591  -1.103   2.463  0.00  0.00    -0.277 N 
ATOM      6  HN  UNL d   1      -2.944  -2.046   2.627  1.00  0.00     0.184 HD
ATOM      7  C   UNL d   1      -0.861  -1.484   0.617  0.00  0.00     0.116 A 
ATOM      8  N   UNL d   1      -0.658   1.365   0.789  0.00  0.00    -0.336 N 
ATOM      9  HN  UNL d   1      -0.550   2.377   0.860  1.00  0.00     0.168 HD
ATOM     10  N   UNL d   1      -0.061  -0.761  -0.220  0.00  0.00    -0.341 N 
ATOM     11  HN  UNL d   1       0.494  -1.232  -0.935  1.00  0.00     0.167 HD
ATOM     12  C   UNL d   1      -0.010   0.583  -0.096  0.00  0.00     0.183 A 
ENDROOT
BRANCH   7  13
ATOM     13  N   UNL d   1      -0.792  -2.888   0.643  0.00  0.00    -0.259 NA
BRANCH  13  14
ATOM     14  C   UNL d   1       0.391  -3.486   0.007  0.00  0.00     0.136 C 
BRANCH  14  15
ATOM     15  C   UNL d   1       1.723  -3.134   0.649  0.00  0.00    -0.045 A 
ATOM     16  C   UNL d   1       1.852  -2.797   2.006  0.00  0.00     0.008 A 
ATOM     17  C   UNL d   1       3.100  -2.484   2.548  0.00  0.00     0.001 A 
ATOM     18  C   UNL d   1       4.243  -2.533   1.754  0.00  0.00     0.000 A 
ATOM     19  C   UNL d   1       4.139  -2.897   0.413  0.00  0.00     0.001 A 
ATOM     20  C   UNL d   1       2.891  -3.199  -0.132  0.00  0.00     0.008 A 
ENDBRANCH  14  15
ENDBRANCH  13  14
BRANCH  13  21
ATOM     21  C   UNL d   1      -2.071  -3.525   0.297  0.00  0.00     0.136 C 
BRANCH  21  22
ATOM     22  C   UNL d   1      -2.515  -4.543   1.329  0.00  0.00    -0.045 A 
ATOM     23  C   UNL d   1      -2.342  -4.327   2.704  0.00  0.00     0.008 A 
ATOM     24  C   UNL d   1      -2.877  -5.209   3.644  0.00  0.00     0.001 A 
ATOM     25  C   UNL d   1      -3.589  -6.328   3.223  0.00  0.00     0.000 A 
ATOM     26  C   UNL d   1      -3.761  -6.568   1.862  0.00  0.00     0.001 A 
ATOM     27  C   UNL d   1      -3.234  -5.679   0.921  0.00  0.00     0.008 A 
ENDBRANCH  21  22
ENDBRANCH  13  21
ENDBRANCH   7  13
BRANCH   2  28
ATOM     28  C   UNL d   1      -2.126   2.260   3.371  0.00  0.00     0.187 C 
BRANCH  28  29
ATOM     29  C   UNL d   1      -1.084   2.161   4.462  0.00  0.00    -0.039 A 
ATOM     30  C   UNL d   1       0.244   2.543   4.216  0.00  0.00     0.009 A 
ATOM     31  C   UNL d   1       1.222   2.372   5.197  0.00  0.00     0.001 A 
ATOM     32  C   UNL d   1       0.887   1.817   6.431  0.00  0.00     0.000 A 
ATOM     33  C   UNL d   1      -0.428   1.433   6.687  0.00  0.00     0.001 A 
ATOM     34  C   UNL d   1      -1.409   1.603   5.709  0.00  0.00     0.009 A 
ENDBRANCH  28  29
ENDBRANCH   2  28
TORSDOF 7
