REMARK  4 active torsions:
REMARK  status: ('A' for Active; 'I' for Inactive)
REMARK    1  A    between atoms: C_2  and  C_1 
REMARK    2  A    between atoms: C_6  and  C_2 
REMARK    3  A    between atoms: S_8  and  C_3 
REMARK    4  A    between atoms: C_7  and  S_8 
ROOT
ATOM      1  C   UNL d   1       1.250   0.003   0.050  0.00  0.00     0.063 C 
ATOM      2  C   UNL d   1       0.766  -0.228  -1.179  0.00  0.00     0.056 C 
ENDROOT
BRANCH   1   3
ATOM      3  C   UNL d   1       0.376  -0.151   1.242  0.00  0.00     0.182 C 
ATOM      4  O   UNL d   1      -0.630  -0.851   1.223  0.00  0.00    -0.288 OA
BRANCH   3   5
ATOM      5  C   UNL d   1       0.801   0.530   2.495  0.00  0.00     0.014 A 
ATOM      6  C   UNL d   1       1.474   1.757   2.477  0.00  0.00     0.016 A 
ATOM      7  C   UNL d   1       1.829   2.379   3.678  0.00  0.00     0.007 A 
ATOM      8  C   UNL d   1       1.511   1.791   4.908  0.00  0.00    -0.062 A 
ATOM      9  C   UNL d   1       0.833   0.566   4.922  0.00  0.00     0.007 A 
ATOM     10  C   UNL d   1       1.889   2.481   6.186  0.00  0.00     0.048 C 
ATOM     11  C   UNL d   1       0.473  -0.058   3.723  0.00  0.00     0.016 A 
ENDBRANCH   3   5
ENDBRANCH   1   3
BRANCH   2  12
ATOM     12  S   UNL d   1       1.802  -0.114  -2.565  0.00  0.00    -0.084 SA
BRANCH  12  13
ATOM     13  C   UNL d   1       0.679   0.500  -3.813  0.00  0.00     0.073 A 
ATOM     14  N   UNL d   1      -0.376   1.254  -3.429  0.00  0.00    -0.360 N 
ATOM     15  C   UNL d   1      -1.161   1.763  -4.406  0.00  0.00     0.089 A 
ATOM     16  HN  UNL d   1      -0.571   1.432  -2.444  1.00  0.00     0.166 HD
ATOM     17  C   UNL d   1      -0.941   1.562  -5.759  0.00  0.00     0.017 A 
ATOM     18  C   UNL d   1       0.146   0.785  -6.136  0.00  0.00     0.004 A 
ATOM     19  C   UNL d   1       0.970   0.245  -5.151  0.00  0.00     0.037 A 
ENDBRANCH  12  13
ENDBRANCH   2  12
TORSDOF 4
