REMARK  6 active torsions:
REMARK  status: ('A' for Active; 'I' for Inactive)
REMARK    1  A    between atoms: C_7  and  C_1 
REMARK    2  A    between atoms: N_15  and  C_6 
REMARK    3  A    between atoms: O_16  and  C_8 
REMARK    4  A    between atoms: O_17  and  C_9 
REMARK    5  A    between atoms: O_19  and  C_14 
REMARK    6  A    between atoms: C_22  and  O_16 
ROOT
ATOM      1  C   UNL d   1      -0.309  -0.901   0.199  0.00  0.00     0.026 C 
ATOM      2  C   UNL d   1       0.976  -0.317   0.351  0.00  0.00     0.095 C 
ATOM      3  C   UNL d   1      -1.425  -0.007   0.204  0.00  0.00     0.108 C 
ATOM      4  N   UNL d   1       0.056   1.902   0.186  0.00  0.00    -0.325 N 
ATOM      5  HN  UNL d   1       0.190   2.911   0.118  1.00  0.00     0.169 HD
ATOM      6  C   UNL d   1       1.109   1.073   0.266  0.00  0.00     0.101 C 
ATOM      7  C   UNL d   1      -1.185   1.367   0.199  0.00  0.00     0.165 C 
ATOM      8  C   UNL d   1       2.174  -1.092   0.550  0.00  0.00     0.103 C 
ATOM      9  C   UNL d   1      -2.807  -0.433   0.284  0.00  0.00     0.104 C 
ATOM     10  N   UNL d   1      -3.900  -0.770   0.434  0.00  0.00    -0.191 NA
ATOM     11  N   UNL d   1       3.177  -1.651   0.714  0.00  0.00    -0.191 NA
ENDROOT
BRANCH   1  12
ATOM     12  C   UNL d   1      -0.485  -2.377  -0.025  0.00  0.00     0.014 A 
ATOM     13  C   UNL d   1       0.249  -3.161  -0.973  0.00  0.00     0.112 A 
ATOM     14  C   UNL d   1      -0.025  -4.548  -1.099  0.00  0.00     0.102 A 
ATOM     15  C   UNL d   1      -1.044  -5.136  -0.338  0.00  0.00     0.040 A 
ATOM     16  C   UNL d   1      -1.753  -4.398   0.590  0.00  0.00     0.004 A 
ATOM     17  C   UNL d   1      -1.451  -3.051   0.763  0.00  0.00     0.015 A 
BRANCH  13  18
ATOM     18  O   UNL d   1       1.388  -2.707  -1.593  0.00  0.00    -0.352 OA
ATOM     19  C   UNL d   1       1.344  -1.655  -2.548  0.00  0.00     0.210 C 
ENDBRANCH  13  18
BRANCH  14  20
ATOM     20  O   UNL d   1       0.593  -5.492  -1.879  0.00  0.00    -0.353 OA
ATOM     21  C   UNL d   1       1.708  -5.136  -2.674  0.00  0.00     0.210 C 
ENDBRANCH  14  20
ENDBRANCH   1  12
BRANCH   6  22
ATOM     22  N   UNL d   1       2.337   1.697   0.074  0.00  0.00    -0.287 NA
ATOM     23  H   UNL d   1       3.091   1.396   0.680  0.00  0.00     0.125 HD
ATOM     24  H   UNL d   1       2.213   2.705   0.056  0.00  0.00     0.125 HD
ENDBRANCH   6  22
BRANCH   7  25
ATOM     25  O   UNL d   1      -2.264   2.224   0.116  0.00  0.00    -0.335 OA
BRANCH  25  26
ATOM     26  C   UNL d   1      -1.946   3.588   0.412  0.00  0.00     0.173 C 
ATOM     27  C   UNL d   1      -3.158   4.457   0.123  0.00  0.00     0.034 C 
ENDBRANCH  25  26
ENDBRANCH   7  25
TORSDOF 6
