REMARK  6 active torsions:
REMARK  status: ('A' for Active; 'I' for Inactive)
REMARK    1  A    between atoms: C_5  and  C_1 
REMARK       I    between atoms: C_4  and  N_10 
REMARK    2  A    between atoms: C_19  and  C_4 
REMARK    3  A    between atoms: N_10  and  N_6 
REMARK    4  A    between atoms: C_8  and  O_11 
REMARK    5  A    between atoms: O_11  and  C_19 
REMARK    6  A    between atoms: C_20  and  C_21 
ROOT
ATOM      1  C   UNL d   1      -1.228   3.773   5.426  0.00  0.00     0.260 C 
ATOM      2  N   UNL d   1      -0.150   4.298   4.729  0.00  0.00    -0.269 N 
ATOM      3  O   UNL d   1      -1.749   2.678   5.205  0.00  0.00    -0.269 OA
ATOM      4  H   UNL d   1       0.175   5.239   4.926  0.00  0.00     0.190 HD
ENDROOT
BRANCH   2   5
ATOM      5  N   UNL d   1       0.387   3.574   3.711  0.00  0.00    -0.308 N 
ATOM      6  C   UNL d   1       1.212   4.181   2.922  0.00  0.00     0.118 C 
ATOM      7  HN  UNL d   1       0.148   2.592   3.575  1.00  0.00     0.186 HD
BRANCH   6   8
ATOM      8  C   UNL d   1       1.839   3.453   1.798  0.00  0.00    -0.018 A 
ATOM      9  C   UNL d   1       1.635   2.072   1.658  0.00  0.00     0.029 A 
ATOM     10  C   UNL d   1       2.233   1.367   0.606  0.00  0.00     0.048 A 
ATOM     11  C   UNL d   1       3.041   2.067  -0.306  0.00  0.00     0.016 A 
ATOM     12  C   UNL d   1       3.234   3.446  -0.174  0.00  0.00     0.002 A 
ATOM     13  C   UNL d   1       2.632   4.141   0.879  0.00  0.00     0.013 A 
BRANCH  10  14
ATOM     14  C   UNL d   1       2.029  -0.121   0.449  0.00  0.00     0.417 C 
ATOM     15  F   UNL d   1       1.182  -0.662   1.367  0.00  0.00    -0.166 F 
ATOM     16  F   UNL d   1       3.196  -0.816   0.562  0.00  0.00    -0.166 F 
ATOM     17  F   UNL d   1       1.518  -0.448  -0.770  0.00  0.00    -0.166 F 
ENDBRANCH  10  14
ENDBRANCH   6   8
ENDBRANCH   2   5
BRANCH   1  18
ATOM     18  C   UNL d   1      -1.699   4.652   6.578  0.00  0.00     0.280 C 
BRANCH  18  19
ATOM     19  O   UNL d   1      -1.853   5.994   6.132  0.00  0.00    -0.341 OA
BRANCH  19  20
ATOM     20  C   UNL d   1      -2.355   6.887   7.035  0.00  0.00     0.076 A 
ATOM     21  C   UNL d   1      -2.622   8.161   6.548  0.00  0.00    -0.018 A 
ATOM     22  C   UNL d   1      -3.093   9.180   7.380  0.00  0.00    -0.043 A 
ATOM     23  C   UNL d   1      -2.474   8.626   5.135  0.00  0.00     0.042 A 
ATOM     24  C   UNL d   1      -3.291  10.456   6.627  0.00  0.00     0.040 A 
ATOM     25  C   UNL d   1      -3.322   8.955   8.735  0.00  0.00    -0.055 A 
ATOM     26  C   UNL d   1      -2.879  10.104   5.192  0.00  0.00     0.009 A 
ATOM     27  C   UNL d   1      -3.079   7.667   9.228  0.00  0.00     0.010 A 
ATOM     28  C   UNL d   1      -3.800  10.050   9.640  0.00  0.00     0.049 C 
ATOM     29  C   UNL d   1      -2.601   6.643   8.389  0.00  0.00     0.038 A 
ENDBRANCH  19  20
ENDBRANCH  18  19
ENDBRANCH   1  18
TORSDOF 6
