REMARK  6 active torsions:
REMARK  status: ('A' for Active; 'I' for Inactive)
REMARK    1  A    between atoms: N_2  and  S_1 
REMARK    2  A    between atoms: C_4  and  S_1 
REMARK    3  A    between atoms: C_3  and  N_2 
REMARK    4  A    between atoms: O_12  and  C_10 
REMARK    5  A    between atoms: C_19  and  O_12 
REMARK    6  A    between atoms: C_17  and  C_19 
ROOT
ATOM      1  C   UNL d   1       1.038  -2.215   1.528  0.00  0.00     0.128 A 
ATOM      2  N   UNL d   1      -0.023  -3.016   1.750  0.00  0.00    -0.354 N 
ATOM      3  HN  UNL d   1      -0.950  -2.639   1.949  1.00  0.00     0.166 HD
ATOM      4  C   UNL d   1       2.338  -2.655   1.265  0.00  0.00     0.108 A 
ATOM      5  C   UNL d   1       0.210  -4.342   1.695  0.00  0.00     0.089 A 
ATOM      6  C   UNL d   1       2.537  -4.032   1.226  0.00  0.00     0.041 A 
ATOM      7  C   UNL d   1       1.457  -4.891   1.438  0.00  0.00     0.020 A 
ENDROOT
BRANCH   1   8
ATOM      8  N   UNL d   1       0.678  -0.848   1.491  0.00  0.00    -0.164 NA
ATOM      9  H   UNL d   1      -0.071  -0.665   2.153  0.00  0.00     0.147 HD
BRANCH   8  10
ATOM     10  S   UNL d   1       0.254  -0.277  -0.044  0.00  0.00     0.247 S 
ATOM     11  O   UNL d   1       1.299  -0.611  -0.990  0.00  0.00    -0.205 OA
ATOM     12  O   UNL d   1      -0.196   1.092   0.125  0.00  0.00    -0.205 OA
BRANCH  10  13
ATOM     13  C   UNL d   1      -1.196  -1.231  -0.458  0.00  0.00     0.075 A 
ATOM     14  C   UNL d   1      -2.329  -1.135   0.360  0.00  0.00     0.026 A 
ATOM     15  C   UNL d   1      -3.431  -1.954   0.110  0.00  0.00     0.025 A 
ATOM     16  C   UNL d   1      -3.404  -2.840  -0.969  0.00  0.00     0.034 A 
ATOM     17  C   UNL d   1      -2.292  -2.900  -1.812  0.00  0.00     0.025 A 
ATOM     18 CL   UNL d   1      -4.748  -3.875  -1.252  0.00  0.00    -0.084 Cl
ATOM     19  C   UNL d   1      -1.180  -2.093  -1.558  0.00  0.00     0.026 A 
ENDBRANCH  10  13
ENDBRANCH   8  10
ENDBRANCH   1   8
BRANCH   4  20
ATOM     20  O   UNL d   1       3.317  -1.710   1.169  0.00  0.00    -0.343 OA
BRANCH  20  21
ATOM     21  C   UNL d   1       4.473  -2.044   0.407  0.00  0.00     0.214 C 
BRANCH  21  22
ATOM     22  C   UNL d   1       5.433  -0.879   0.481  0.00  0.00    -0.032 A 
ATOM     23  C   UNL d   1       6.717  -1.043   1.024  0.00  0.00     0.035 A 
ATOM     24  C   UNL d   1       7.607   0.035   1.093  0.00  0.00     0.056 A 
ATOM     25 CL   UNL d   1       9.168  -0.258   1.776  0.00  0.00    -0.083 Cl
ATOM     26  C   UNL d   1       7.219   1.291   0.617  0.00  0.00     0.055 A 
ATOM     27  C   UNL d   1       5.941   1.464   0.080  0.00  0.00     0.026 A 
ATOM     28 CL   UNL d   1       8.269   2.663   0.660  0.00  0.00    -0.083 Cl
ATOM     29  C   UNL d   1       5.053   0.386   0.012  0.00  0.00     0.011 A 
ENDBRANCH  21  22
ENDBRANCH  20  21
ENDBRANCH   4  20
TORSDOF 6
