REMARK  6 active torsions:
REMARK  status: ('A' for Active; 'I' for Inactive)
REMARK    1  A    between atoms: C_11  and  N_6 
REMARK    2  A    between atoms: N_14  and  C_10 
REMARK    3  A    between atoms: C_12  and  C_11 
REMARK    4  A    between atoms: N_16  and  N_14 
REMARK    5  A    between atoms: C_18  and  C_21 
REMARK    6  A    between atoms: O_25  and  C_20 
ROOT
ATOM      1  C   UNL d   1      -0.258  -0.836  -0.139  0.00  0.00     0.160 A 
ATOM      2  C   UNL d   1      -0.544   0.493  -0.100  0.00  0.00     0.165 A 
ATOM      3  N   UNL d   1      -1.371  -1.591  -0.221  0.00  0.00    -0.172 N 
ATOM      4  HN  UNL d   1      -1.421  -2.609  -0.251  1.00  0.00     0.186 HD
ATOM      5  N   UNL d   1       1.026  -1.319  -0.059  0.00  0.00    -0.287 N 
ATOM      6  N   UNL d   1      -1.923   0.568  -0.202  0.00  0.00    -0.168 N 
ATOM      7  N   UNL d   1       1.778   0.942   0.006  0.00  0.00    -0.269 N 
ATOM      8  C   UNL d   1       2.095  -0.421  -0.006  0.00  0.00     0.332 C 
ATOM      9  C   UNL d   1       0.481   1.472   0.052  0.00  0.00     0.282 C 
ATOM     10  C   UNL d   1      -2.384  -0.745  -0.257  0.00  0.00     0.701 A 
ATOM     11  O   UNL d   1       3.262  -0.828   0.035  0.00  0.00    -0.246 OA
ATOM     12  O   UNL d   1       0.260   2.667   0.228  0.00  0.00    -0.265 OA
ATOM     13  C   UNL d   1       1.296  -2.745  -0.043  0.00  0.00     0.163 C 
ATOM     14  C   UNL d   1       2.870   1.893   0.045  0.00  0.00     0.164 C 
ENDROOT
BRANCH  10  15
ATOM     15  N   UNL d   1      -3.695  -1.104  -0.293  0.00  0.00    -0.132 N 
ATOM     16  H   UNL d   1      -4.428  -0.442  -0.541  0.00  0.00     0.205 HD
BRANCH  15  17
ATOM     17  N   UNL d   1      -4.045  -2.310   0.232  0.00  0.00    -0.297 N 
ATOM     18  C   UNL d   1      -5.215  -2.802  -0.018  0.00  0.00     0.121 C 
ATOM     19  HN  UNL d   1      -3.388  -2.824   0.819  1.00  0.00     0.186 HD
BRANCH  18  20
ATOM     20  C   UNL d   1      -5.601  -4.091   0.611  0.00  0.00     0.014 A 
ATOM     21  C   UNL d   1      -6.605  -4.934   0.119  0.00  0.00     0.079 A 
ATOM     22  C   UNL d   1      -6.962  -6.076   0.857  0.00  0.00     0.037 A 
ATOM     23  C   UNL d   1      -6.322  -6.386   2.060  0.00  0.00     0.003 A 
ATOM     24  C   UNL d   1      -5.314  -5.559   2.539  0.00  0.00     0.001 A 
ATOM     25  C   UNL d   1      -4.951  -4.424   1.814  0.00  0.00     0.015 A 
BRANCH  21  26
ATOM     26  O   UNL d   1      -7.365  -4.717  -0.999  0.00  0.00    -0.355 OA
ATOM     27  C   UNL d   1      -6.626  -4.550  -2.206  0.00  0.00     0.210 C 
ENDBRANCH  21  26
ENDBRANCH  18  20
ENDBRANCH  15  17
ENDBRANCH  10  15
BRANCH   6  28
ATOM     28  C   UNL d   1      -2.724   1.779  -0.056  0.00  0.00     0.188 C 
BRANCH  28  29
ATOM     29  C   UNL d   1      -2.980   2.471  -1.376  0.00  0.00    -0.018 A 
ATOM     30  C   UNL d   1      -4.128   2.248  -2.153  0.00  0.00     0.042 A 
ATOM     31 CL   UNL d   1      -5.428   1.248  -1.610  0.00  0.00    -0.084 Cl
ATOM     32  C   UNL d   1      -4.283   2.868  -3.398  0.00  0.00     0.024 A 
ATOM     33  C   UNL d   1      -3.308   3.734  -3.886  0.00  0.00     0.002 A 
ATOM     34  C   UNL d   1      -2.187   4.006  -3.114  0.00  0.00     0.001 A 
ATOM     35  C   UNL d   1      -2.031   3.388  -1.871  0.00  0.00     0.010 A 
ENDBRANCH  28  29
ENDBRANCH   6  28
TORSDOF 6
