REMARK  1 active torsions:
REMARK  status: ('A' for Active; 'I' for Inactive)
REMARK    1  A    between atoms: C_11  and  N_1 
ROOT
ATOM      1  N   UNL d   1       2.314  -0.894   0.390  0.00  0.00    -0.223 N 
ATOM      2  N   UNL d   1       0.078  -0.963   0.786  0.00  0.00    -0.151 NA
ATOM      3  N   UNL d   1       0.407   0.327   0.282  0.00  0.00    -0.151 NA
ATOM      4  C   UNL d   1       1.260  -1.733   0.769  0.00  0.00     0.326 C 
ATOM      5  C   UNL d   1       1.777   0.317  -0.049  0.00  0.00     0.326 C 
ATOM      6  C   UNL d   1      -0.604   0.606  -0.755  0.00  0.00     0.087 C 
ATOM      7  C   UNL d   1      -1.097  -1.396   0.001  0.00  0.00     0.087 C 
ATOM      8  C   UNL d   1      -0.809  -0.780  -1.370  0.00  0.00     0.043 C 
ATOM      9  O   UNL d   1       2.292   1.201  -0.721  0.00  0.00    -0.252 OA
ATOM     10  O   UNL d   1       1.252  -2.951   0.900  0.00  0.00    -0.252 OA
ATOM     11  C   UNL d   1      -1.948   0.845  -0.049  0.00  0.00     0.023 C 
ATOM     12  C   UNL d   1      -2.311  -0.570   0.452  0.00  0.00     0.023 C 
ENDROOT
BRANCH   1  13
ATOM     13  C   UNL d   1       3.648  -1.348   0.154  0.00  0.00     0.048 A 
ATOM     14  C   UNL d   1       4.555  -0.615  -0.627  0.00  0.00     0.030 A 
ATOM     15  C   UNL d   1       5.833  -1.110  -0.922  0.00  0.00     0.002 A 
ATOM     16  C   UNL d   1       6.240  -2.340  -0.420  0.00  0.00     0.000 A 
ATOM     17  C   UNL d   1       5.381  -3.062   0.396  0.00  0.00     0.002 A 
ATOM     18  C   UNL d   1       4.103  -2.567   0.685  0.00  0.00     0.030 A 
ENDBRANCH   1  13
TORSDOF 1
