REMARK  2 active torsions:
REMARK  status: ('A' for Active; 'I' for Inactive)
REMARK    1  A    between atoms: C_2  and  C_1 
REMARK       I    between atoms: N_3  and  C_1 
REMARK    2  A    between atoms: C_6  and  N_3 
ROOT
ATOM      1  C   UNL d   1       0.978   0.101   0.099  0.00  0.00     0.257 C 
ATOM      2  N   UNL d   1       0.282  -1.070   0.354  0.00  0.00    -0.323 N 
ATOM      3  O   UNL d   1       2.152   0.332   0.363  0.00  0.00    -0.267 OA
ATOM      4  H   UNL d   1      -0.651  -1.143  -0.035  0.00  0.00     0.169 HD
ENDROOT
BRANCH   1   5
ATOM      5  C   UNL d   1       0.230   1.136  -0.665  0.00  0.00     0.043 A 
ATOM      6  C   UNL d   1      -1.085   1.568  -0.340  0.00  0.00    -0.010 A 
ATOM      7  C   UNL d   1      -1.697   2.517  -1.198  0.00  0.00    -0.025 A 
ATOM      8  C   UNL d   1      -1.823   1.143   0.795  0.00  0.00     0.013 A 
ATOM      9  C   UNL d   1      -3.011   2.949  -0.949  0.00  0.00     0.012 A 
ATOM     10  C   UNL d   1      -0.989   3.041  -2.294  0.00  0.00     0.012 A 
ATOM     11  C   UNL d   1      -3.727   2.474   0.149  0.00  0.00     0.001 A 
ATOM     12  C   UNL d   1      -3.128   1.582   1.028  0.00  0.00     0.001 A 
ATOM     13  C   UNL d   1       0.315   2.639  -2.567  0.00  0.00     0.002 A 
ATOM     14  C   UNL d   1       0.921   1.686  -1.760  0.00  0.00     0.018 A 
ENDBRANCH   1   5
BRANCH   2  15
ATOM     15  C   UNL d   1       0.783  -2.229   0.986  0.00  0.00     0.035 A 
ATOM     16  C   UNL d   1       2.053  -2.305   1.563  0.00  0.00     0.036 A 
ATOM     17  C   UNL d   1       2.536  -3.507   2.100  0.00  0.00    -0.060 A 
ATOM     18  C   UNL d   1       3.929  -3.583   2.653  0.00  0.00     0.048 C 
ATOM     19  C   UNL d   1       1.722  -4.642   2.074  0.00  0.00     0.007 A 
ATOM     20  C   UNL d   1       0.436  -4.568   1.541  0.00  0.00     0.003 A 
ATOM     21  C   UNL d   1      -0.034  -3.366   1.004  0.00  0.00     0.029 A 
ENDBRANCH   2  15
TORSDOF 2
