REMARK  3 active torsions:
REMARK  status: ('A' for Active; 'I' for Inactive)
REMARK    1  A    between atoms: C_7  and  C_4 
REMARK    2  A    between atoms: O_11  and  C_7 
REMARK    3  A    between atoms: C_16  and  O_11 
ROOT
ATOM      1  C   UNL d   1      -0.875  -0.371  -0.328  0.00  0.00     0.024 C 
ATOM      2  S   UNL d   1      -1.717  -1.839  -0.618  0.00  0.00    -0.083 SA
ATOM      3  C   UNL d   1      -1.750   0.682  -0.154  0.00  0.00    -0.029 C 
ATOM      4  C   UNL d   1      -3.234  -1.144  -0.277  0.00  0.00     0.081 C 
ATOM      5  C   UNL d   1       0.593  -0.300  -0.262  0.00  0.00    -0.000 A 
ATOM      6  C   UNL d   1      -3.107   0.218  -0.091  0.00  0.00     0.034 C 
ATOM      7  S   UNL d   1       0.388   2.528  -0.046  0.00  0.00    -0.124 SA
ATOM      8  C   UNL d   1       1.225   0.948  -0.104  0.00  0.00     0.012 A 
ATOM      9  C   UNL d   1      -1.376   2.115   0.031  0.00  0.00     0.119 C 
ATOM     10  C   UNL d   1       1.395  -1.461  -0.282  0.00  0.00     0.038 A 
ATOM     11  C   UNL d   1       2.627   1.009   0.014  0.00  0.00     0.021 A 
ATOM     12  C   UNL d   1       2.780  -1.381  -0.149  0.00  0.00     0.035 A 
ATOM     13  C   UNL d   1       3.401  -0.149  -0.004  0.00  0.00     0.025 A 
ATOM     14 CL   UNL d   1       3.720  -2.821  -0.143  0.00  0.00    -0.084 Cl
ENDROOT
BRANCH   4  15
ATOM     15  C   UNL d   1      -4.456  -1.911  -0.149  0.00  0.00     0.305 C 
ATOM     16  O   UNL d   1      -5.499  -1.438   0.293  0.00  0.00    -0.258 OA
BRANCH  15  17
ATOM     17  O   UNL d   1      -4.283  -3.241  -0.558  0.00  0.00    -0.275 OA
BRANCH  17  18
ATOM     18  C   UNL d   1      -5.278  -4.220  -0.325  0.00  0.00     0.079 A 
ATOM     19  C   UNL d   1      -6.645  -3.955  -0.326  0.00  0.00     0.037 A 
ATOM     20  C   UNL d   1      -7.545  -4.974  -0.009  0.00  0.00     0.003 A 
ATOM     21  C   UNL d   1      -7.079  -6.260   0.268  0.00  0.00     0.000 A 
ATOM     22  C   UNL d   1      -5.712  -6.534   0.209  0.00  0.00     0.003 A 
ATOM     23  C   UNL d   1      -4.809  -5.514  -0.094  0.00  0.00     0.037 A 
ENDBRANCH  17  18
ENDBRANCH  15  17
ENDBRANCH   4  15
TORSDOF 3
