REMARK  4 active torsions:
REMARK  status: ('A' for Active; 'I' for Inactive)
REMARK    1  A    between atoms: C_13  and  N_1 
REMARK    2  A    between atoms: C_12  and  C_4 
REMARK       I    between atoms: C_7  and  N_14 
REMARK    3  A    between atoms: C_8  and  C_7 
REMARK    4  A    between atoms: N_14  and  N_10 
ROOT
ATOM      1  N   UNL d   1      -0.366   1.036  -0.020  0.00  0.00    -0.267 N 
ATOM      2  N   UNL d   1       0.938   0.664  -0.125  0.00  0.00    -0.298 N 
ATOM      3  HN  UNL d   1       1.750   1.274  -0.220  1.00  0.00     0.187 HD
ATOM      4  C   UNL d   1      -0.388  -1.186   0.009  0.00  0.00     0.022 A 
ATOM      5  C   UNL d   1      -1.186  -0.064   0.059  0.00  0.00     0.131 A 
ATOM      6  C   UNL d   1       0.926  -0.672  -0.077  0.00  0.00     0.035 A 
ATOM      7  C   UNL d   1       2.204  -1.427  -0.108  0.00  0.00     0.070 C 
ENDROOT
BRANCH   4   8
ATOM      8  C   UNL d   1      -0.833  -2.557   0.041  0.00  0.00     0.122 C 
ATOM      9  N   UNL d   1      -2.099  -2.803   0.131  0.00  0.00    -0.308 N 
ATOM     10  HN  UNL d   1      -2.793  -2.059   0.200  1.00  0.00     0.186 HD
BRANCH   9  11
ATOM     11  N   UNL d   1      -2.445  -4.122   0.128  0.00  0.00    -0.266 N 
ATOM     12  C   UNL d   1      -3.778  -4.516   0.183  0.00  0.00     0.276 C 
ATOM     13  O   UNL d   1      -4.715  -3.725   0.286  0.00  0.00    -0.265 OA
ATOM     14  H   UNL d   1      -1.731  -4.837   0.042  0.00  0.00     0.190 HD
BRANCH  12  15
ATOM     15  C   UNL d   1      -3.985  -5.962   0.109  0.00  0.00     0.074 A 
ATOM     16  S   UNL d   1      -2.686  -7.068  -0.091  0.00  0.00    -0.097 SA
ATOM     17  C   UNL d   1      -3.735  -8.416  -0.075  0.00  0.00     0.050 A 
ATOM     18  C   UNL d   1      -5.051  -8.043   0.074  0.00  0.00     0.009 A 
ATOM     19  C   UNL d   1      -5.195  -6.629   0.175  0.00  0.00     0.025 A 
ENDBRANCH  12  15
ENDBRANCH   9  11
ENDBRANCH   4   8
BRANCH   1  20
ATOM     20  C   UNL d   1      -0.744   2.407   0.008  0.00  0.00     0.056 A 
ATOM     21  C   UNL d   1       0.233   3.400  -0.165  0.00  0.00     0.031 A 
ATOM     22  C   UNL d   1      -0.125   4.750  -0.132  0.00  0.00     0.002 A 
ATOM     23  C   UNL d   1      -1.453   5.117   0.079  0.00  0.00     0.000 A 
ATOM     24  C   UNL d   1      -2.427   4.137   0.254  0.00  0.00     0.002 A 
ATOM     25  C   UNL d   1      -2.079   2.784   0.215  0.00  0.00     0.031 A 
ENDBRANCH   1  20
TORSDOF 4
