REMARK  4 active torsions:
REMARK  status: ('A' for Active; 'I' for Inactive)
REMARK    1  A    between atoms: C_2  and  C_1 
REMARK       I    between atoms: N_5  and  C_2 
REMARK    2  A    between atoms: O_10  and  C_3 
REMARK    3  A    between atoms: C_9  and  N_5 
REMARK    4  A    between atoms: C_17  and  O_10 
ROOT
ATOM      1  C   UNL d   1      -0.317   2.576  -0.571  0.00  0.00     0.265 C 
ATOM      2  N   UNL d   1      -1.671   2.859  -0.575  0.00  0.00    -0.322 N 
ATOM      3  O   UNL d   1       0.425   3.518  -0.863  0.00  0.00    -0.267 OA
ATOM      4  H   UNL d   1      -1.857   3.717  -1.081  0.00  0.00     0.169 HD
ENDROOT
BRANCH   1   5
ATOM      5  C   UNL d   1       0.189   1.230  -0.337  0.00  0.00     0.106 A 
ATOM      6  C   UNL d   1       1.383   0.813   0.238  0.00  0.00     0.091 A 
ATOM      7  C   UNL d   1       1.565  -0.600   0.166  0.00  0.00     0.045 A 
ATOM      8  C   UNL d   1       0.529  -1.232  -0.476  0.00  0.00     0.053 A 
ATOM      9  S   UNL d   1      -0.618  -0.119  -1.064  0.00  0.00    -0.094 SA
BRANCH   6  10
ATOM     10  O   UNL d   1       2.374   1.594   0.733  0.00  0.00    -0.350 OA
BRANCH  10  11
ATOM     11  C   UNL d   1       1.968   2.570   1.689  0.00  0.00     0.171 C 
ATOM     12  C   UNL d   1       3.092   2.710   2.702  0.00  0.00     0.034 C 
ENDBRANCH  10  11
ENDBRANCH   6  10
ENDBRANCH   1   5
BRANCH   2  13
ATOM     13  C   UNL d   1      -2.782   2.197  -0.028  0.00  0.00     0.035 A 
ATOM     14  C   UNL d   1      -2.708   1.333   1.067  0.00  0.00     0.031 A 
ATOM     15  C   UNL d   1      -3.860   0.690   1.537  0.00  0.00     0.026 A 
ATOM     16  C   UNL d   1      -5.087   0.919   0.918  0.00  0.00     0.034 A 
ATOM     17  C   UNL d   1      -5.178   1.810  -0.147  0.00  0.00     0.026 A 
ATOM     18 CL   UNL d   1      -6.495   0.102   1.473  0.00  0.00    -0.084 Cl
ATOM     19  C   UNL d   1      -4.030   2.462  -0.606  0.00  0.00     0.031 A 
ENDBRANCH   2  13
TORSDOF 4
