REMARK  6 active torsions:
REMARK  status: ('A' for Active; 'I' for Inactive)
REMARK    1  A    between atoms: C_10  and  C_3 
REMARK    2  A    between atoms: C_12  and  C_5 
REMARK    3  A    between atoms: C_9  and  C_17 
REMARK       I    between atoms: N_11  and  C_9 
REMARK    4  A    between atoms: C_19  and  N_11 
REMARK    5  A    between atoms: O_16  and  C_18 
REMARK    6  A    between atoms: C_17  and  O_16 
ROOT
ATOM      1  N   UNL d   1      -1.768   1.265   1.115  0.00  0.00    -0.358 N 
ATOM      2  HN  UNL d   1      -2.574   1.613   1.636  1.00  0.00     0.166 HD
ATOM      3  C   UNL d   1      -1.512   1.752  -0.064  0.00  0.00     0.021 C 
ATOM      4  S   UNL d   1       1.415   1.789   1.434  0.00  0.00    -0.118 SA
ATOM      5  C   UNL d   1       0.992   2.030  -0.347  0.00  0.00     0.091 C 
ATOM      6  C   UNL d   1      -0.283   1.357  -0.868  0.00  0.00     0.078 C 
ATOM      7  C   UNL d   1      -0.953   0.267   1.688  0.00  0.00     0.049 A 
ATOM      8  C   UNL d   1       0.439   0.365   1.884  0.00  0.00     0.028 A 
ATOM      9  C   UNL d   1      -1.614  -0.884   2.142  0.00  0.00     0.031 A 
ATOM     10  C   UNL d   1       1.124  -0.677   2.533  0.00  0.00     0.021 A 
ATOM     11  C   UNL d   1       0.447  -1.815   2.970  0.00  0.00     0.002 A 
ATOM     12  C   UNL d   1      -0.922  -1.921   2.773  0.00  0.00     0.002 A 
ENDROOT
BRANCH   3  13
ATOM     13  C   UNL d   1      -2.479   2.741  -0.649  0.00  0.00    -0.013 A 
ATOM     14  C   UNL d   1      -3.197   3.587   0.208  0.00  0.00     0.016 A 
ATOM     15  C   UNL d   1      -4.141   4.491  -0.302  0.00  0.00     0.037 A 
ATOM     16  C   UNL d   1      -4.378   4.545  -1.675  0.00  0.00     0.069 A 
ATOM     17  C   UNL d   1      -3.677   3.695  -2.530  0.00  0.00     0.037 A 
ATOM     18  C   UNL d   1      -2.729   2.799  -2.023  0.00  0.00     0.016 A 
BRANCH  16  19
ATOM     19  O   UNL d   1      -5.335   5.322  -2.269  0.00  0.00    -0.342 OA
BRANCH  19  20
ATOM     20  C   UNL d   1      -5.445   6.647  -1.765  0.00  0.00     0.278 C 
BRANCH  20  21
ATOM     21  C   UNL d   1      -6.582   6.871  -0.767  0.00  0.00     0.246 C 
ATOM     22  N   UNL d   1      -7.620   5.963  -0.885  0.00  0.00    -0.325 N 
ATOM     23  H   UNL d   1      -7.441   5.165  -1.488  0.00  0.00     0.169 HD
ATOM     24  O   UNL d   1      -6.521   7.809   0.027  0.00  0.00    -0.271 OA
BRANCH  22  25
ATOM     25  C   UNL d   1      -8.811   5.947  -0.128  0.00  0.00     0.034 A 
ATOM     26  C   UNL d   1      -9.232   7.022   0.660  0.00  0.00     0.029 A 
ATOM     27  C   UNL d   1     -10.391   6.929   1.438  0.00  0.00     0.002 A 
ATOM     28  C   UNL d   1     -11.145   5.761   1.429  0.00  0.00     0.000 A 
ATOM     29  C   UNL d   1     -10.757   4.696   0.619  0.00  0.00     0.002 A 
ATOM     30  C   UNL d   1      -9.602   4.793  -0.166  0.00  0.00     0.029 A 
ENDBRANCH  22  25
ENDBRANCH  20  21
ENDBRANCH  19  20
ENDBRANCH  16  19
ENDBRANCH   3  13
BRANCH   5  31
ATOM     31  C   UNL d   1       1.040   3.508  -0.731  0.00  0.00    -0.044 A 
ATOM     32  C   UNL d   1       0.470   4.508   0.077  0.00  0.00     0.008 A 
ATOM     33  C   UNL d   1       0.507   5.849  -0.306  0.00  0.00     0.001 A 
ATOM     34  C   UNL d   1       1.102   6.213  -1.510  0.00  0.00     0.000 A 
ATOM     35  C   UNL d   1       1.660   5.236  -2.331  0.00  0.00     0.001 A 
ATOM     36  C   UNL d   1       1.629   3.894  -1.946  0.00  0.00     0.008 A 
ENDBRANCH   5  31
TORSDOF 6
