REMARK  2 active torsions:
REMARK  status: ('A' for Active; 'I' for Inactive)
REMARK    1  A    between atoms: C_8  and  N_1 
REMARK    2  A    between atoms: C_7  and  C_2 
ROOT
ATOM      1  N   UNL d   1       0.954  -0.718  -0.037  0.00  0.00    -0.270 N 
ATOM      2  C   UNL d   1       0.930   0.659  -0.009  0.00  0.00     0.139 A 
ATOM      3  N   UNL d   1      -0.269   1.176   0.019  0.00  0.00    -0.282 N 
ATOM      4  HN  UNL d   1      -0.522   2.163   0.063  1.00  0.00     0.188 HD
ATOM      5  C   UNL d   1      -0.385  -1.085  -0.046  0.00  0.00     0.199 A 
ATOM      6  N   UNL d   1      -1.102   0.103  -0.025  0.00  0.00    -0.274 N 
ATOM      7  S   UNL d   1      -1.144  -2.561   0.011  0.00  0.00    -0.039 SA
ATOM      8  H   UNL d   1      -2.111   0.200   0.024  0.00  0.00     0.189 HD
ENDROOT
BRANCH   1   9
ATOM      9  C   UNL d   1       2.067  -1.587   0.067  0.00  0.00     0.059 A 
ATOM     10  C   UNL d   1       2.172  -2.746  -0.701  0.00  0.00     0.117 A 
ATOM     11  N   UNL d   1       3.246  -3.577  -0.700  0.00  0.00    -0.373 N 
ATOM     12  C   UNL d   1       4.264  -3.255   0.122  0.00  0.00     0.088 A 
ATOM     13  HN  UNL d   1       3.280  -4.406  -1.293  1.00  0.00     0.164 HD
ATOM     14  C   UNL d   1       4.257  -2.143   0.944  0.00  0.00     0.019 A 
ATOM     15  C   UNL d   1       3.142  -1.306   0.918  0.00  0.00     0.033 A 
ENDBRANCH   1   9
BRANCH   2  16
ATOM     16  C   UNL d   1       2.128   1.527  -0.061  0.00  0.00     0.010 A 
ATOM     17  C   UNL d   1       3.212   1.245  -0.902  0.00  0.00     0.017 A 
ATOM     18  C   UNL d   1       4.335   2.078  -0.899  0.00  0.00     0.025 A 
ATOM     19  C   UNL d   1       4.355   3.213  -0.090  0.00  0.00     0.034 A 
ATOM     20  C   UNL d   1       3.257   3.532   0.707  0.00  0.00     0.025 A 
ATOM     21 CL   UNL d   1       5.743   4.229  -0.080  0.00  0.00    -0.084 Cl
ATOM     22  C   UNL d   1       2.141   2.691   0.719  0.00  0.00     0.017 A 
ENDBRANCH   2  16
TORSDOF 2
