REMARK  4 active torsions:
REMARK  status: ('A' for Active; 'I' for Inactive)
REMARK    1  A    between atoms: C_4  and  C_3 
REMARK    2  A    between atoms: C_20  and  C_5 
REMARK    3  A    between atoms: C_8  and  O_12 
REMARK    4  A    between atoms: O_12  and  C_20 
ROOT
ATOM      1  N   UNL d   1       0.121   0.261   1.076  0.00  0.00    -0.321 N 
ATOM      2  HN  UNL d   1      -0.008   0.580   2.037  1.00  0.00     0.169 HD
ATOM      3  C   UNL d   1       0.043  -0.963   0.600  0.00  0.00     0.182 A 
ATOM      4  C   UNL d   1       0.419   1.005  -0.040  0.00  0.00     0.128 A 
ATOM      5  N   UNL d   1       0.492   0.304  -1.179  0.00  0.00    -0.245 N 
ATOM      6  HN  UNL d   1       0.677   0.644  -2.123  1.00  0.00     0.196 HD
ATOM      7  O   UNL d   1       0.253  -1.009  -0.755  0.00  0.00    -0.217 OA
ENDROOT
BRANCH   4   8
ATOM      8  C   UNL d   1       0.590   2.485   0.041  0.00  0.00     0.254 C 
BRANCH   8   9
ATOM      9  O   UNL d   1       1.922   2.828   0.422  0.00  0.00    -0.340 OA
BRANCH   9  10
ATOM     10  C   UNL d   1       2.321   4.139   0.459  0.00  0.00     0.112 A 
ATOM     11  C   UNL d   1       1.558   5.263   0.827  0.00  0.00     0.072 A 
ATOM     12  C   UNL d   1       2.158   6.528   0.919  0.00  0.00     0.069 A 
ATOM     13 CL   UNL d   1      -0.113   5.241   1.262  0.00  0.00    -0.081 Cl
ATOM     14  C   UNL d   1       3.508   6.682   0.653  0.00  0.00     0.119 A 
ATOM     15  C   UNL d   1       4.287   5.601   0.283  0.00  0.00     0.069 A 
ATOM     16  F   UNL d   1       4.066   7.893   0.768  0.00  0.00    -0.206 F 
ATOM     17  C   UNL d   1       3.695   4.339   0.189  0.00  0.00     0.072 A 
ATOM     18 CL   UNL d   1       4.724   3.024  -0.275  0.00  0.00    -0.081 Cl
ENDBRANCH   9  10
ENDBRANCH   8   9
ENDBRANCH   4   8
BRANCH   3  19
ATOM     19  C   UNL d   1      -0.241  -2.150   1.456  0.00  0.00     0.024 A 
ATOM     20  C   UNL d   1      -0.288  -3.438   0.971  0.00  0.00     0.065 A 
ATOM     21  S   UNL d   1      -0.615  -4.576   2.210  0.00  0.00    -0.113 SA
ATOM     22  C   UNL d   1      -0.705  -3.346   3.398  0.00  0.00     0.050 A 
ATOM     23  C   UNL d   1      -0.489  -2.095   2.861  0.00  0.00     0.023 A 
ENDBRANCH   3  19
TORSDOF 4
