REMARK  3 active torsions:
REMARK  status: ('A' for Active; 'I' for Inactive)
REMARK       I    between atoms: C_3  and  N_1 
REMARK       I    between atoms: C_4  and  N_1 
REMARK    1  A    between atoms: C_2  and  C_3 
REMARK       I    between atoms: N_9  and  C_4 
REMARK    2  A    between atoms: S_12  and  C_6 
REMARK    3  A    between atoms: C_13  and  N_9 
ROOT
ATOM      1  N   UNL d   1       1.118   0.123   0.257  0.00  0.00    -0.274 N 
ATOM      2  C   UNL d   1       0.399   0.907   1.140  0.00  0.00     0.266 C 
ATOM      3  C   UNL d   1       2.478  -0.058   0.156  0.00  0.00     0.327 C 
ATOM      4  N   UNL d   1       3.231   0.486   1.164  0.00  0.00    -0.309 N 
ATOM      5  O   UNL d   1       2.899  -0.691  -0.809  0.00  0.00    -0.247 OA
ATOM      6  O   UNL d   1       0.946   1.483   2.084  0.00  0.00    -0.267 OA
ATOM      7  H   UNL d   1       0.611  -0.316  -0.499  0.00  0.00     0.173 HD
ATOM      8  H   UNL d   1       2.702   0.861   1.950  0.00  0.00     0.170 HD
ENDROOT
BRANCH   2   9
ATOM      9  C   UNL d   1      -1.039   0.971   0.915  0.00  0.00     0.074 A 
ATOM     10  S   UNL d   1      -1.806   0.186  -0.399  0.00  0.00    -0.078 SA
ATOM     11  C   UNL d   1      -3.367   0.683   0.103  0.00  0.00     0.041 A 
ATOM     12  C   UNL d   1      -3.303   1.449   1.246  0.00  0.00     0.027 A 
ATOM     13  C   UNL d   1      -1.964   1.632   1.701  0.00  0.00     0.026 A 
BRANCH  11  14
ATOM     14  S   UNL d   1      -4.795   0.174  -0.786  0.00  0.00    -0.127 SA
ATOM     15  C   UNL d   1      -5.985   1.478  -0.406  0.00  0.00     0.096 C 
ENDBRANCH  11  14
ENDBRANCH   2   9
BRANCH   4  16
ATOM     16  C   UNL d   1       4.634   0.496   1.275  0.00  0.00     0.036 A 
ATOM     17  C   UNL d   1       5.492   0.194   0.213  0.00  0.00     0.031 A 
ATOM     18  C   UNL d   1       6.880   0.231   0.387  0.00  0.00     0.026 A 
ATOM     19  C   UNL d   1       7.415   0.560   1.629  0.00  0.00     0.034 A 
ATOM     20  C   UNL d   1       6.574   0.866   2.695  0.00  0.00     0.026 A 
ATOM     21 CL   UNL d   1       9.121   0.591   1.845  0.00  0.00    -0.084 Cl
ATOM     22  C   UNL d   1       5.185   0.846   2.513  0.00  0.00     0.031 A 
ENDBRANCH   4  16
TORSDOF 3
