REMARK  5 active torsions:
REMARK  status: ('A' for Active; 'I' for Inactive)
REMARK    1  A    between atoms: C_14  and  N_1 
REMARK    2  A    between atoms: C_10  and  C_2 
REMARK    3  A    between atoms: C_8  and  C_5 
REMARK    4  A    between atoms: N_6  and  C_15 
REMARK    5  A    between atoms: O_24  and  C_10 
ROOT
ATOM      1  C   UNL d   1       6.853  -3.562   3.563  0.00  0.00     0.121 C 
ATOM      2  C   UNL d   1       6.165  -3.679   2.415  0.00  0.00     0.059 C 
ATOM      3  C   UNL d   1       6.139  -2.908   4.612  0.00  0.00     0.105 C 
ATOM      4  N   UNL d   1       5.549  -2.329   5.429  0.00  0.00    -0.191 NA
ENDROOT
BRANCH   1   5
ATOM      5  C   UNL d   1       8.257  -3.932   3.954  0.00  0.00     0.303 C 
ATOM      6  O   UNL d   1       9.240  -3.959   3.238  0.00  0.00    -0.258 OA
BRANCH   5   7
ATOM      7  O   UNL d   1       8.215  -4.137   5.297  0.00  0.00    -0.322 OA
ATOM      8  C   UNL d   1       9.402  -4.059   6.095  0.00  0.00     0.213 C 
ENDBRANCH   5   7
ENDBRANCH   1   5
BRANCH   2   9
ATOM      9  C   UNL d   1       6.545  -4.134   1.125  0.00  0.00     0.040 A 
ATOM     10  N   UNL d   1       5.755  -3.803  -0.006  0.00  0.00    -0.322 N 
ATOM     11  C   UNL d   1       6.250  -4.515  -1.085  0.00  0.00     0.097 A 
ATOM     12  C   UNL d   1       7.353  -5.234  -0.690  0.00  0.00     0.020 A 
ATOM     13  C   UNL d   1       7.538  -4.997   0.690  0.00  0.00     0.031 A 
BRANCH  10  14
ATOM     14  C   UNL d   1       4.602  -2.943  -0.082  0.00  0.00     0.039 A 
ATOM     15  C   UNL d   1       4.515  -1.790   0.707  0.00  0.00     0.032 A 
ATOM     16  C   UNL d   1       3.319  -1.064   0.792  0.00  0.00     0.034 A 
ATOM     17  C   UNL d   1       2.203  -1.437   0.039  0.00  0.00     0.056 A 
ATOM     18  C   UNL d   1       2.312  -2.550  -0.812  0.00  0.00     0.034 A 
ATOM     19  C   UNL d   1       3.509  -3.286  -0.890  0.00  0.00     0.032 A 
BRANCH  17  20
ATOM     20  N   UNL d   1       0.951  -0.753   0.169  0.00  0.00    -0.261 N 
ATOM     21  N   UNL d   1      -0.204  -1.407  -0.159  0.00  0.00    -0.298 N 
ATOM     22  C   UNL d   1      -1.192  -0.622   0.281  0.00  0.00     0.024 C 
ATOM     23  HN  UNL d   1      -0.293  -2.303  -0.637  1.00  0.00     0.187 HD
ATOM     24  C   UNL d   1      -2.615  -1.031   0.188  0.00  0.00     0.070 C 
ATOM     25  C   UNL d   1      -0.703   0.595   0.778  0.00  0.00     0.052 C 
ATOM     26  C   UNL d   1       0.669   0.528   0.641  0.00  0.00     0.032 C 
ATOM     27  C   UNL d   1       1.631   1.633   0.877  0.00  0.00     0.070 C 
ENDBRANCH  17  20
ENDBRANCH  10  14
ENDBRANCH   2   9
TORSDOF 5
