REMARK  3 active torsions:
REMARK  status: ('A' for Active; 'I' for Inactive)
REMARK    1  A    between atoms: C_4  and  C_1 
REMARK    2  A    between atoms: N_2  and  C_3 
REMARK       I    between atoms: N_5  and  C_4 
REMARK    3  A    between atoms: C_6  and  N_5 
ROOT
ATOM      1  C   UNL d   1       3.724  -0.056   0.027  0.00  0.00     0.258 C 
ATOM      2  N   UNL d   1       4.426  -1.212   0.300  0.00  0.00    -0.322 N 
ATOM      3  O   UNL d   1       2.649   0.051  -0.546  0.00  0.00    -0.267 OA
ATOM      4  H   UNL d   1       5.169  -1.168   0.984  0.00  0.00     0.169 HD
ENDROOT
BRANCH   1   5
ATOM      5  C   UNL d   1       4.323   1.171   0.580  0.00  0.00     0.065 A 
ATOM      6  C   UNL d   1       5.533   1.682   0.111  0.00  0.00     0.120 A 
ATOM      7  C   UNL d   1       6.103   2.842   0.641  0.00  0.00     0.060 A 
ATOM      8  C   UNL d   1       5.418   3.511   1.651  0.00  0.00     0.036 A 
ATOM      9  C   UNL d   1       4.188   3.034   2.119  0.00  0.00     0.025 A 
ATOM     10 CL   UNL d   1       6.084   4.947   2.323  0.00  0.00    -0.084 Cl
ATOM     11  C   UNL d   1       3.639   1.865   1.582  0.00  0.00     0.021 A 
BRANCH   6  12
ATOM     12  N   UNL d   1       6.219   1.022  -0.975  0.00  0.00    -0.115 N 
ATOM     13  O   UNL d   1       5.745   1.151  -2.106  0.00  0.00    -0.532 OA
ATOM     14  O   UNL d   1       7.242   0.400  -0.673  0.00  0.00    -0.532 OA
ENDBRANCH   6  12
ENDBRANCH   1   5
BRANCH   2  15
ATOM     15  C   UNL d   1       4.154  -2.490  -0.240  0.00  0.00     0.041 A 
ATOM     16  C   UNL d   1       4.599  -3.646   0.428  0.00  0.00    -0.035 A 
ATOM     17  C   UNL d   1       4.426  -4.903  -0.188  0.00  0.00     0.015 A 
ATOM     18  C   UNL d   1       5.203  -3.648   1.807  0.00  0.00     0.050 C 
ATOM     19  C   UNL d   1       3.813  -5.026  -1.440  0.00  0.00    -0.061 A 
ATOM     20  C   UNL d   1       3.341  -3.877  -2.071  0.00  0.00     0.009 A 
ATOM     21  C   UNL d   1       3.681  -6.375  -2.083  0.00  0.00     0.048 C 
ATOM     22  C   UNL d   1       3.506  -2.623  -1.475  0.00  0.00     0.030 A 
ENDBRANCH   2  15
TORSDOF 3
