REMARK  10 active torsions:
REMARK  status: ('A' for Active; 'I' for Inactive)
REMARK    1  A    between atoms: N_3  and  C_1 
REMARK    2  A    between atoms: N_8  and  C_1 
REMARK    3  A    between atoms: C_2  and  N_7 
REMARK    4  A    between atoms: N_4  and  C_2 
REMARK    5  A    between atoms: C_9  and  N_3 
REMARK    6  A    between atoms: C_10  and  N_4 
REMARK    7  A    between atoms: N_7  and  C_11 
REMARK    8  A    between atoms: C_12  and  N_8 
REMARK    9  A    between atoms: C_11  and  C_15 
REMARK   10  A    between atoms: C_16  and  C_12 
ROOT
ATOM      1  C   UNL d   1       4.958   1.799   1.095  0.00  0.00     0.003 C 
ATOM      2  C   UNL d   1       4.617  -0.630  -0.676  0.00  0.00     0.003 C 
ATOM      3  C   UNL d   1       4.935   0.769  -1.232  0.00  0.00     0.007 C 
ATOM      4  C   UNL d   1       5.073  -0.749   0.791  0.00  0.00     0.007 C 
ATOM      5  C   UNL d   1       4.410   1.895  -0.339  0.00  0.00     0.007 C 
ATOM      6  C   UNL d   1       4.622   0.416   1.680  0.00  0.00     0.007 C 
ENDROOT
BRANCH   1   7
ATOM      7  C   UNL d   1       6.468   2.102   1.091  0.00  0.00     0.126 C 
BRANCH   7   8
ATOM      8  N   UNL d   1       7.025   2.421   2.395  0.00  0.00    -0.367 N 
ATOM      9  H   UNL d   1       6.475   2.215   3.218  0.00  0.00     0.161 HD
BRANCH   8  10
ATOM     10  C   UNL d   1       8.345   2.693   2.619  0.00  0.00     0.172 C 
ATOM     11  S   UNL d   1       9.596   2.371   1.551  0.00  0.00    -0.041 SA
BRANCH  10  12
ATOM     12  N   UNL d   1       8.688   3.250   3.814  0.00  0.00    -0.333 N 
ATOM     13  H   UNL d   1       9.692   3.241   3.964  0.00  0.00     0.168 HD
BRANCH  12  14
ATOM     14  C   UNL d   1       7.941   3.952   4.778  0.00  0.00     0.034 A 
ATOM     15  C   UNL d   1       6.626   4.380   4.608  0.00  0.00     0.030 A 
ATOM     16  C   UNL d   1       5.955   5.046   5.638  0.00  0.00     0.009 A 
ATOM     17  C   UNL d   1       6.598   5.311   6.851  0.00  0.00    -0.062 A 
ATOM     18  C   UNL d   1       7.939   4.953   6.998  0.00  0.00     0.009 A 
ATOM     19  C   UNL d   1       5.857   6.000   7.957  0.00  0.00     0.048 C 
ATOM     20  C   UNL d   1       8.606   4.279   5.970  0.00  0.00     0.030 A 
ENDBRANCH  12  14
ENDBRANCH  10  12
ENDBRANCH   8  10
ENDBRANCH   7   8
ENDBRANCH   1   7
BRANCH   2  21
ATOM     21  C   UNL d   1       3.131  -1.001  -0.832  0.00  0.00     0.126 C 
BRANCH  21  22
ATOM     22  N   UNL d   1       2.696  -0.942  -2.222  0.00  0.00    -0.367 N 
ATOM     23  H   UNL d   1       2.379  -0.040  -2.562  0.00  0.00     0.161 HD
BRANCH  22  24
ATOM     24  C   UNL d   1       2.450  -1.960  -3.098  0.00  0.00     0.172 C 
ATOM     25  S   UNL d   1       1.710  -1.546  -4.540  0.00  0.00    -0.041 SA
BRANCH  24  26
ATOM     26  N   UNL d   1       2.887  -3.198  -2.713  0.00  0.00    -0.333 N 
ATOM     27  H   UNL d   1       3.784  -3.196  -2.248  0.00  0.00     0.168 HD
BRANCH  26  28
ATOM     28  C   UNL d   1       2.393  -4.465  -3.095  0.00  0.00     0.034 A 
ATOM     29  C   UNL d   1       3.266  -5.556  -3.057  0.00  0.00     0.030 A 
ATOM     30  C   UNL d   1       2.800  -6.848  -3.327  0.00  0.00     0.009 A 
ATOM     31  C   UNL d   1       1.446  -7.072  -3.596  0.00  0.00    -0.062 A 
ATOM     32  C   UNL d   1       0.579  -5.978  -3.655  0.00  0.00     0.009 A 
ATOM     33  C   UNL d   1       0.939  -8.464  -3.829  0.00  0.00     0.048 C 
ATOM     34  C   UNL d   1       1.049  -4.685  -3.403  0.00  0.00     0.030 A 
ENDBRANCH  26  28
ENDBRANCH  24  26
ENDBRANCH  22  24
ENDBRANCH  21  22
ENDBRANCH   2  21
TORSDOF 10
