REMARK  3 active torsions:
REMARK  status: ('A' for Active; 'I' for Inactive)
REMARK    1  A    between atoms: C_8  and  C_3 
REMARK    2  A    between atoms: C_9  and  C_4 
REMARK    3  A    between atoms: C_10  and  C_6 
ROOT
ATOM      1  N   UNL d   1      -1.055  -1.079   0.155  0.00  0.00    -0.354 N 
ATOM      2  HN  UNL d   1      -1.604  -1.936   0.228  1.00  0.00     0.166 HD
ATOM      3  C   UNL d   1       0.302  -1.140   0.090  0.00  0.00     0.049 C 
ATOM      4  C   UNL d   1       0.462   1.277   0.008  0.00  0.00    -0.016 C 
ATOM      5  C   UNL d   1       1.098   0.013  -0.071  0.00  0.00    -0.023 C 
ATOM      6  C   UNL d   1      -1.670   0.120   0.123  0.00  0.00     0.043 C 
ATOM      7  C   UNL d   1      -0.941   1.298   0.111  0.00  0.00     0.043 C 
ATOM      8  C   UNL d   1       2.575  -0.097  -0.351  0.00  0.00     0.051 C 
ENDROOT
BRANCH   3   9
ATOM      9  C   UNL d   1       0.820  -2.528   0.186  0.00  0.00    -0.009 A 
ATOM     10  C   UNL d   1       0.175  -3.576  -0.498  0.00  0.00     0.014 A 
ATOM     11  C   UNL d   1       0.630  -4.895  -0.412  0.00  0.00     0.001 A 
ATOM     12  C   UNL d   1       1.745  -5.198   0.363  0.00  0.00     0.000 A 
ATOM     13  C   UNL d   1       2.390  -4.186   1.067  0.00  0.00     0.001 A 
ATOM     14  C   UNL d   1       1.922  -2.869   0.992  0.00  0.00     0.014 A 
ENDBRANCH   3   9
BRANCH   6  15
ATOM     15  C   UNL d   1      -3.150   0.087   0.059  0.00  0.00    -0.009 A 
ATOM     16  C   UNL d   1      -3.876  -0.979   0.622  0.00  0.00     0.013 A 
ATOM     17  C   UNL d   1      -5.271  -1.036   0.542  0.00  0.00     0.001 A 
ATOM     18  C   UNL d   1      -5.974  -0.029  -0.108  0.00  0.00     0.000 A 
ATOM     19  C   UNL d   1      -5.285   1.034  -0.685  0.00  0.00     0.001 A 
ATOM     20  C   UNL d   1      -3.889   1.087  -0.603  0.00  0.00     0.013 A 
ENDBRANCH   6  15
BRANCH   4  21
ATOM     21  C   UNL d   1       1.181   2.576  -0.038  0.00  0.00    -0.025 A 
ATOM     22  C   UNL d   1       2.295   2.837   0.779  0.00  0.00     0.012 A 
ATOM     23  C   UNL d   1       2.962   4.066   0.728  0.00  0.00     0.001 A 
ATOM     24  C   UNL d   1       2.507   5.074  -0.117  0.00  0.00     0.000 A 
ATOM     25  C   UNL d   1       1.391   4.853  -0.915  0.00  0.00     0.001 A 
ATOM     26  C   UNL d   1       0.743   3.614  -0.882  0.00  0.00     0.012 A 
ENDBRANCH   4  21
TORSDOF 3
