REMARK  5 active torsions:
REMARK  status: ('A' for Active; 'I' for Inactive)
REMARK    1  A    between atoms: N_6  and  C_1 
REMARK    2  A    between atoms: C_2  and  C_3 
REMARK       I    between atoms: C_9  and  N_7 
REMARK    3  A    between atoms: C_16  and  C_9 
REMARK    4  A    between atoms: S_18  and  C_16 
REMARK    5  A    between atoms: C_23  and  S_18 
ROOT
ATOM      1  N   UNL d   1       0.502   2.256  -0.263  0.00  0.00    -0.363 N 
ATOM      2  N   UNL d   1       2.441   4.312   0.030  0.00  0.00    -0.348 N 
ATOM      3  C   UNL d   1       3.086   5.492  -0.239  0.00  0.00     0.229 C 
ATOM      4  C   UNL d   1       1.331   2.622  -1.417  0.00  0.00     0.144 C 
ATOM      5  C   UNL d   1       0.177   3.395   0.610  0.00  0.00     0.144 C 
ATOM      6  C   UNL d   1       2.667   3.167  -0.885  0.00  0.00     0.145 C 
ATOM      7  C   UNL d   1       1.509   3.998   1.134  0.00  0.00     0.145 C 
ATOM      8  O   UNL d   1       3.824   5.576  -1.231  0.00  0.00    -0.273 OA
ENDROOT
BRANCH   1   9
ATOM      9  C   UNL d   1      -0.186   1.070  -0.164  0.00  0.00     0.125 A 
ATOM     10  N   UNL d   1      -1.414   1.119   0.419  0.00  0.00    -0.350 N 
ATOM     11  C   UNL d   1      -2.156  -0.010   0.523  0.00  0.00     0.106 A 
ATOM     12  HN  UNL d   1      -1.776   2.004   0.776  1.00  0.00     0.166 HD
ATOM     13  C   UNL d   1      -1.750  -1.248   0.059  0.00  0.00     0.065 A 
ATOM     14  C   UNL d   1      -0.477  -1.322  -0.492  0.00  0.00     0.045 A 
ATOM     15  C   UNL d   1       0.323  -0.182  -0.577  0.00  0.00     0.078 A 
ATOM     16 CL   UNL d   1       1.954  -0.462  -1.091  0.00  0.00    -0.080 Cl
BRANCH  13  17
ATOM     17  C   UNL d   1      -2.647  -2.439   0.159  0.00  0.00     0.418 C 
ATOM     18  F   UNL d   1      -2.101  -3.566  -0.378  0.00  0.00    -0.166 F 
ATOM     19  F   UNL d   1      -2.964  -2.752   1.443  0.00  0.00    -0.166 F 
ATOM     20  F   UNL d   1      -3.829  -2.254  -0.489  0.00  0.00    -0.166 F 
ENDBRANCH  13  17
ENDBRANCH   1   9
BRANCH   3  21
ATOM     21  C   UNL d   1       2.865   6.765   0.548  0.00  0.00     0.182 C 
BRANCH  21  22
ATOM     22  S   UNL d   1       3.278   6.760   2.303  0.00  0.00    -0.121 SA
BRANCH  22  23
ATOM     23  C   UNL d   1       4.984   6.248   2.418  0.00  0.00     0.001 A 
ATOM     24  C   UNL d   1       5.864   6.013   1.362  0.00  0.00     0.019 A 
ATOM     25  C   UNL d   1       7.109   5.411   1.595  0.00  0.00     0.008 A 
ATOM     26  C   UNL d   1       7.500   5.062   2.891  0.00  0.00    -0.062 A 
ATOM     27  C   UNL d   1       6.675   5.410   3.960  0.00  0.00     0.008 A 
ATOM     28  C   UNL d   1       8.762   4.286   3.125  0.00  0.00     0.048 C 
ATOM     29  C   UNL d   1       5.434   6.001   3.723  0.00  0.00     0.019 A 
ENDBRANCH  22  23
ENDBRANCH  21  22
ENDBRANCH   3  21
TORSDOF 5
