REMARK  4 active torsions:
REMARK  status: ('A' for Active; 'I' for Inactive)
REMARK    1  A    between atoms: C_4  and  C_1 
REMARK    2  A    between atoms: C_5  and  C_1 
REMARK    3  A    between atoms: C_6  and  C_1 
REMARK       I    between atoms: N_2  and  C_5 
REMARK       I    between atoms: N_3  and  C_4 
REMARK    4  A    between atoms: C_11  and  C_6 
ROOT
ATOM      1  C   UNL d   1       1.199  -0.041   0.001  0.00  0.00     0.175 C 
ENDROOT
BRANCH   1   2
ATOM      2  C   UNL d   1       0.373  -1.346   0.016  0.00  0.00     0.237 C 
ATOM      3  N   UNL d   1       0.749  -2.455   0.760  0.00  0.00    -0.316 N 
ATOM      4  C   UNL d   1      -0.069  -3.593   0.993  0.00  0.00     0.043 A 
ATOM      5  C   UNL d   1       2.029  -2.707   1.454  0.00  0.00     0.137 A 
ATOM      6  C   UNL d   1       0.622  -4.551   1.740  0.00  0.00    -0.030 A 
ATOM      7  C   UNL d   1      -1.380  -3.832   0.616  0.00  0.00     0.030 A 
ATOM      8  C   UNL d   1       0.042  -5.757   2.109  0.00  0.00     0.009 A 
ATOM      9  C   UNL d   1       2.010  -4.117   2.045  0.00  0.00     0.061 A 
ATOM     10  C   UNL d   1      -1.274  -5.999   1.728  0.00  0.00     0.001 A 
ATOM     11  C   UNL d   1      -1.981  -5.042   0.988  0.00  0.00     0.002 A 
ATOM     12  O   UNL d   1      -0.679  -1.327  -0.639  0.00  0.00    -0.272 OA
ENDBRANCH   1   2
BRANCH   1  13
ATOM     13  C   UNL d   1       0.809   0.838   1.186  0.00  0.00     0.237 C 
ATOM     14  N   UNL d   1      -0.233   1.740   0.997  0.00  0.00    -0.316 N 
ATOM     15  C   UNL d   1      -0.759   2.603   1.983  0.00  0.00     0.043 A 
ATOM     16  C   UNL d   1      -1.066   1.893  -0.219  0.00  0.00     0.137 A 
ATOM     17  C   UNL d   1      -1.858   3.308   1.484  0.00  0.00    -0.030 A 
ATOM     18  C   UNL d   1      -0.343   2.797   3.289  0.00  0.00     0.030 A 
ATOM     19  C   UNL d   1      -2.580   4.188   2.279  0.00  0.00     0.009 A 
ATOM     20  C   UNL d   1      -2.100   2.995   0.046  0.00  0.00     0.061 A 
ATOM     21  C   UNL d   1      -2.175   4.368   3.601  0.00  0.00     0.001 A 
ATOM     22  C   UNL d   1      -1.060   3.685   4.099  0.00  0.00     0.002 A 
ATOM     23  O   UNL d   1       1.412   0.692   2.255  0.00  0.00    -0.272 OA
ENDBRANCH   1  13
BRANCH   1  24
ATOM     24  C   UNL d   1       2.720  -0.211  -0.123  0.00  0.00     0.064 C 
BRANCH  24  25
ATOM     25  C   UNL d   1       3.588   1.028  -0.216  0.00  0.00    -0.035 A 
ATOM     26  C   UNL d   1       3.646   1.871  -1.331  0.00  0.00     0.040 A 
ATOM     27 CL   UNL d   1       2.682   1.599  -2.736  0.00  0.00    -0.084 Cl
ATOM     28  C   UNL d   1       4.534   2.953  -1.354  0.00  0.00     0.024 A 
ATOM     29  C   UNL d   1       5.383   3.199  -0.274  0.00  0.00     0.002 A 
ATOM     30  C   UNL d   1       5.345   2.366   0.838  0.00  0.00     0.001 A 
ATOM     31  C   UNL d   1       4.452   1.298   0.868  0.00  0.00     0.009 A 
ENDBRANCH  24  25
ENDBRANCH   1  24
TORSDOF 4
