REMARK  4 active torsions:
REMARK  status: ('A' for Active; 'I' for Inactive)
REMARK    1  A    between atoms: N_2  and  S_1 
REMARK    2  A    between atoms: C_3  and  S_1 
REMARK    3  A    between atoms: N_6  and  C_11 
REMARK    4  A    between atoms: C_11  and  C_14 
ROOT
ATOM      1  C   UNL d   1       0.533   0.349   1.681  0.00  0.00     0.079 A 
ATOM      2  C   UNL d   1       0.834  -0.804   2.412  0.00  0.00     0.026 A 
ATOM      3  C   UNL d   1      -0.053   1.448   2.309  0.00  0.00     0.026 A 
ATOM      4  C   UNL d   1      -0.203   0.176   4.386  0.00  0.00    -0.030 A 
ATOM      5  C   UNL d   1       0.457  -0.890   3.755  0.00  0.00     0.010 A 
ATOM      6  C   UNL d   1      -0.404   1.363   3.660  0.00  0.00     0.010 A 
ENDROOT
BRANCH   1   7
ATOM      7  S   UNL d   1       1.020   0.451  -0.029  0.00  0.00     0.261 S 
ATOM      8  O   UNL d   1       1.030   1.854  -0.394  0.00  0.00    -0.200 OA
ATOM      9  O   UNL d   1       2.204  -0.366  -0.180  0.00  0.00    -0.200 OA
BRANCH   7  10
ATOM     10  N   UNL d   1      -0.236  -0.292  -0.860  0.00  0.00    -0.303 N 
ATOM     11  C   UNL d   1      -0.380  -1.768  -0.851  0.00  0.00     0.161 C 
ATOM     12  C   UNL d   1      -1.581  -2.206  -0.006  0.00  0.00     0.188 C 
ATOM     13  O   UNL d   1      -2.783  -1.548  -0.425  0.00  0.00    -0.388 OA
ATOM     14  C   UNL d   1      -2.655  -0.127  -0.280  0.00  0.00     0.188 C 
ATOM     15  C   UNL d   1      -1.505   0.426  -1.126  0.00  0.00     0.161 C 
ENDBRANCH   7  10
ENDBRANCH   1   7
BRANCH   4  16
ATOM     16  C   UNL d   1      -0.624   0.038   5.843  0.00  0.00     0.311 C 
BRANCH  16  17
ATOM     17  N   UNL d   1      -1.814   0.821   6.217  0.00  0.00     0.096 N 
ATOM     18  C   UNL d   1      -3.044   0.417   5.501  0.00  0.00     0.299 C 
ATOM     19  C   UNL d   1      -3.680  -0.882   6.011  0.00  0.00     0.198 C 
ATOM     20  O   UNL d   1      -3.981  -0.784   7.406  0.00  0.00    -0.388 OA
ATOM     21  C   UNL d   1      -2.793  -0.519   8.158  0.00  0.00     0.198 C 
ATOM     22  C   UNL d   1      -2.075   0.757   7.674  0.00  0.00     0.299 C 
ENDBRANCH  16  17
ENDBRANCH   4  16
TORSDOF 4
