REMARK  5 active torsions:
REMARK  status: ('A' for Active; 'I' for Inactive)
REMARK    1  A    between atoms: C_4  and  N_1 
REMARK    2  A    between atoms: N_6  and  C_4 
REMARK    3  A    between atoms: C_5  and  O_7 
REMARK    4  A    between atoms: C_15  and  N_6 
REMARK    5  A    between atoms: O_7  and  C_16 
ROOT
ATOM      1  C   UNL d   1      -1.485   4.234  -0.258  0.00  0.00     0.009 A 
ATOM      2  C   UNL d   1      -1.913   6.946  -0.954  0.00  0.00     0.078 A 
ATOM      3  C   UNL d   1      -2.762   4.710  -0.587  0.00  0.00     0.026 A 
ATOM      4  C   UNL d   1      -0.435   5.157  -0.232  0.00  0.00     0.026 A 
ATOM      5  C   UNL d   1      -2.974   6.047  -0.962  0.00  0.00     0.039 A 
ATOM      6  C   UNL d   1      -0.643   6.487  -0.603  0.00  0.00     0.039 A 
ENDROOT
BRANCH   1   7
ATOM      7  N   UNL d   1      -1.333   2.890   0.135  0.00  0.00    -0.276 NA
ATOM      8  H   UNL d   1      -2.102   2.333  -0.248  0.00  0.00     0.129 HD
BRANCH   7   9
ATOM      9  C   UNL d   1      -0.056   2.280  -0.205  0.00  0.00     0.229 C 
BRANCH   9  10
ATOM     10  N   UNL d   1      -0.169   0.845  -0.301  0.00  0.00    -0.275 N 
ATOM     11  C   UNL d   1      -1.203   0.189  -0.895  0.00  0.00     0.227 C 
ATOM     12  C   UNL d   1      -0.860  -1.263  -1.023  0.00  0.00     0.112 C 
ATOM     13  O   UNL d   1      -2.257   0.678  -1.281  0.00  0.00    -0.273 OA
ATOM     14  C   UNL d   1       0.614  -1.325  -0.684  0.00  0.00     0.112 C 
ATOM     15  C   UNL d   1       0.956   0.077  -0.263  0.00  0.00     0.227 C 
ATOM     16  O   UNL d   1       2.091   0.452  -0.014  0.00  0.00    -0.273 OA
ENDBRANCH   9  10
ENDBRANCH   7   9
ENDBRANCH   1   7
BRANCH   2  17
ATOM     17  O   UNL d   1      -1.957   8.271  -1.261  0.00  0.00    -0.255 OA
BRANCH  17  18
ATOM     18  C   UNL d   1      -3.193   8.961  -1.193  0.00  0.00     0.530 C 
ATOM     19  F   UNL d   1      -4.053   8.433  -0.297  0.00  0.00    -0.144 F 
ATOM     20  F   UNL d   1      -2.942  10.236  -0.817  0.00  0.00    -0.144 F 
ATOM     21  F   UNL d   1      -3.775   8.988  -2.409  0.00  0.00    -0.144 F 
ENDBRANCH  17  18
ENDBRANCH   2  17
TORSDOF 5
