REMARK  3 active torsions:
REMARK  status: ('A' for Active; 'I' for Inactive)
REMARK    1  A    between atoms: C_2  and  N_1 
REMARK       I    between atoms: C_7  and  N_1 
REMARK    2  A    between atoms: C_4  and  C_13 
REMARK    3  A    between atoms: C_14  and  C_7 
ROOT
ATOM      1  C   UNL d   1       4.873   3.233  -1.514  0.00  0.00    -0.008 A 
ATOM      2  C   UNL d   1       3.283   1.165  -0.429  0.00  0.00     0.032 A 
ATOM      3  C   UNL d   1       5.233   1.894  -1.696  0.00  0.00     0.015 A 
ATOM      4  C   UNL d   1       3.702   3.526  -0.802  0.00  0.00     0.015 A 
ATOM      5  C   UNL d   1       4.444   0.872  -1.160  0.00  0.00     0.018 A 
ATOM      6  C   UNL d   1       2.903   2.503  -0.270  0.00  0.00     0.018 A 
ENDROOT
BRANCH   2   7
ATOM      7  C   UNL d   1       2.515   0.011   0.134  0.00  0.00     0.257 C 
ATOM      8  N   UNL d   1       1.668   0.298   1.179  0.00  0.00    -0.303 N 
ATOM      9  H   UNL d   1       1.545   1.230   1.537  0.00  0.00     0.171 HD
ATOM     10  O   UNL d   1       2.706  -1.092  -0.366  0.00  0.00    -0.267 OA
BRANCH   8  11
ATOM     11  C   UNL d   1       0.950  -0.681   1.812  0.00  0.00     0.151 A 
ATOM     12  N   UNL d   1       0.992  -1.978   1.658  0.00  0.00    -0.346 N 
ATOM     13  C   UNL d   1       0.070  -2.571   2.494  0.00  0.00     0.097 A 
ATOM     14  HN  UNL d   1       1.612  -2.475   1.018  1.00  0.00     0.167 HD
ATOM     15  C   UNL d   1      -0.675  -1.704   3.264  0.00  0.00     0.070 A 
ATOM     16  S   UNL d   1      -0.161  -0.092   2.970  0.00  0.00    -0.064 SA
ENDBRANCH   8  11
ENDBRANCH   2   7
BRANCH   1  17
ATOM     17  C   UNL d   1       5.701   4.320  -2.023  0.00  0.00     0.063 A 
ATOM     18  N   UNL d   1       5.744   5.551  -1.377  0.00  0.00    -0.292 N 
ATOM     19  N   UNL d   1       6.566   6.397  -1.976  0.00  0.00    -0.061 NA
ATOM     20  HN  UNL d   1       5.205   5.775  -0.540  1.00  0.00     0.183 HD
ATOM     21  S   UNL d   1       7.289   5.747  -3.336  0.00  0.00    -0.010 SA
ATOM     22  C   UNL d   1       6.490   4.238  -3.158  0.00  0.00     0.096 A 
ENDBRANCH   1  17
TORSDOF 3
