REMARK  7 active torsions:
REMARK  status: ('A' for Active; 'I' for Inactive)
REMARK    1  A    between atoms: C7_6  and  C1_1 
REMARK    2  A    between atoms: O3_8  and  C2_2 
REMARK    3  A    between atoms: O4_9  and  C3_3 
REMARK    4  A    between atoms: N_14  and  C7_6 
REMARK    5  A    between atoms: C_13  and  CA_16 
REMARK    6  A    between atoms: OXT_17  and  C_13 
REMARK    7  A    between atoms: CA_16  and  N_14 
ROOT
ATOM      1  C1  <1> d   1      -1.240  -1.158   0.003  0.00  0.00     0.007 A 
ATOM      2  C2  <1> d   1      -1.962   0.054   0.008  0.00  0.00     0.107 A 
ATOM      3  C3  <1> d   1      -1.295   1.290  -0.023  0.00  0.00     0.103 A 
ATOM      4  C5  <1> d   1       0.105   1.307  -0.043  0.00  0.00     0.063 A 
ATOM      5  C6  <1> d   1       0.166  -1.105  -0.040  0.00  0.00     0.035 A 
ATOM      6  C8  <1> d   1       0.826   0.119  -0.052  0.00  0.00     0.037 A 
ATOM      7 Cl1  <1> d   1       2.546   0.158  -0.085  0.00  0.00    -0.084 Cl
ENDROOT
BRANCH   1   8
ATOM      8  C7  <1> d   1      -1.915  -2.511  -0.018  0.00  0.00     0.312 C 
BRANCH   8   9
ATOM      9  N   ALA d   1      -1.573  -3.413   1.103  0.00  0.00     0.102 N 
ATOM     10  H   ALA d   1      -0.587  -3.667   1.006  0.00  0.00     0.317 HD
BRANCH   9  11
ATOM     11  CA  ALA d   1      -1.755  -2.816   2.458  0.00  0.00     0.313 C 
ATOM     12  CB  ALA d   1      -1.223  -3.804   3.494  0.00  0.00     0.054 C 
BRANCH  11  13
ATOM     13  C   ALA d   1      -3.242  -2.568   2.738  0.00  0.00     0.173 C 
ATOM     14  O   ALA d   1      -3.682  -1.680   3.452  0.00  0.00    -0.648 OA
BRANCH  13  15
ATOM     15  OXT ALA d   1      -4.033  -3.451   2.080  0.00  0.00    -0.775 OA
ATOM     16  HXT ALA d   1      -3.445  -4.034   1.547  0.00  0.00     0.167 HD
ENDBRANCH  13  15
ENDBRANCH  11  13
ENDBRANCH   9  11
ENDBRANCH   8   9
ENDBRANCH   1   8
BRANCH   2  17
ATOM     17  O3  <1> d   1      -3.330   0.018   0.004  0.00  0.00    -0.357 OA
ATOM     18  H8  <1> d   1      -3.642  -0.596   0.690  0.00  0.00     0.217 HD
ENDBRANCH   2  17
BRANCH   3  19
ATOM     19  O4  <1> d   1      -1.828   2.552  -0.029  0.00  0.00    -0.353 OA
ATOM     20  C11 <1> d   1      -3.239   2.700   0.015  0.00  0.00     0.210 C 
ENDBRANCH   3  19
TORSDOF 7
