REMARK  9 active torsions:
REMARK  status: ('A' for Active; 'I' for Inactive)
REMARK    1  A    between atoms: C_4  and  C_1 
REMARK    2  A    between atoms: C_5  and  C_1 
REMARK    3  A    between atoms: N_6  and  C_2 
REMARK    4  A    between atoms: N_3  and  C_7 
REMARK    5  A    between atoms: O_16  and  C_4 
REMARK    6  A    between atoms: O_15  and  C_5 
REMARK    7  A    between atoms: C_8  and  N_6 
REMARK    8  A    between atoms: C_20  and  O_15 
REMARK    9  A    between atoms: C_19  and  O_16 
ROOT
ATOM      1  N   UNL d   1       0.950  -2.499   0.288  0.00  0.00    -0.267 NA
ATOM      2  H   UNL d   1       0.257  -3.168  -0.059  0.00  0.00     0.133 HD
ENDROOT
BRANCH   1   3
ATOM      3  C   UNL d   1       0.500  -1.190   0.154  0.00  0.00     0.086 C 
ATOM      4  C   UNL d   1       1.175  -0.023   0.114  0.00  0.00     0.124 C 
BRANCH   4   5
ATOM      5  C   UNL d   1       0.426   1.252  -0.045  0.00  0.00     0.300 C 
ATOM      6  O   UNL d   1       0.868   2.273  -0.547  0.00  0.00    -0.259 OA
BRANCH   5   7
ATOM      7  O   UNL d   1      -0.787   1.168   0.572  0.00  0.00    -0.318 OA
BRANCH   7   8
ATOM      8  C   UNL d   1      -1.423   2.431   0.827  0.00  0.00     0.174 C 
ATOM      9  C   UNL d   1      -0.955   2.939   2.180  0.00  0.00     0.034 C 
ENDBRANCH   7   8
ENDBRANCH   5   7
ENDBRANCH   4   5
BRANCH   4  10
ATOM     10  C   UNL d   1       2.651   0.018   0.238  0.00  0.00     0.300 C 
ATOM     11  O   UNL d   1       3.316  -0.713   0.962  0.00  0.00    -0.259 OA
BRANCH  10  12
ATOM     12  O   UNL d   1       3.161   1.046  -0.485  0.00  0.00    -0.318 OA
BRANCH  12  13
ATOM     13  C   UNL d   1       4.492   1.448  -0.141  0.00  0.00     0.174 C 
ATOM     14  C   UNL d   1       4.455   2.277   1.134  0.00  0.00     0.034 C 
ENDBRANCH  12  13
ENDBRANCH  10  12
ENDBRANCH   4  10
ENDBRANCH   1   3
BRANCH   1  15
ATOM     15  C   UNL d   1       1.403  -3.033   1.539  0.00  0.00     0.039 A 
ATOM     16  C   UNL d   1       2.415  -4.024   1.625  0.00  0.00     0.059 A 
ATOM     17  C   UNL d   1       2.644  -4.646   2.873  0.00  0.00     0.032 A 
ATOM     18  C   UNL d   1       1.887  -4.327   4.003  0.00  0.00     0.002 A 
ATOM     19  C   UNL d   1       0.889  -3.372   3.916  0.00  0.00     0.002 A 
ATOM     20  C   UNL d   1       0.648  -2.735   2.699  0.00  0.00     0.026 A 
BRANCH  16  21
ATOM     21  N   UNL d   1       3.235  -4.425   0.506  0.00  0.00    -0.331 N 
ATOM     22  C   UNL d   1       3.324  -3.841  -0.747  0.00  0.00     0.096 A 
ATOM     23  C   UNL d   1       4.169  -4.570  -1.554  0.00  0.00     0.019 A 
ATOM     24  C   UNL d   1       4.679  -5.619  -0.773  0.00  0.00     0.019 A 
ATOM     25  C   UNL d   1       4.115  -5.501   0.479  0.00  0.00     0.096 A 
ENDBRANCH  16  21
ENDBRANCH   1  15
TORSDOF 9
