REMARK  5 active torsions:
REMARK  status: ('A' for Active; 'I' for Inactive)
REMARK    1  A    between atoms: C_10  and  C_2 
REMARK    2  A    between atoms: S_8  and  C_5 
REMARK    3  A    between atoms: C_12  and  S_8 
REMARK    4  A    between atoms: C_9  and  C_12 
REMARK    5  A    between atoms: O_13  and  C_9 
ROOT
ATOM      1  N   UNL d   1      -1.198  -0.089  -0.051  0.00  0.00    -0.320 N 
ATOM      2  C   UNL d   1      -0.393   1.019   0.012  0.00  0.00     0.132 A 
ATOM      3  N   UNL d   1       0.864   0.602   0.014  0.00  0.00    -0.283 N 
ATOM      4  HN  UNL d   1       1.689   1.201   0.038  1.00  0.00     0.188 HD
ATOM      5  C   UNL d   1      -0.373  -1.169  -0.047  0.00  0.00     0.161 A 
ATOM      6  N   UNL d   1       0.875  -0.779  -0.022  0.00  0.00    -0.278 N 
ATOM      7  HN  UNL d   1       1.699  -1.380  -0.028  1.00  0.00     0.189 HD
ATOM      8  H   UNL d   1      -2.209  -0.126  -0.031  0.00  0.00     0.169 HD
ENDROOT
BRANCH   2   9
ATOM      9  C   UNL d   1      -0.863   2.404   0.083  0.00  0.00     0.009 A 
ATOM     10  C   UNL d   1      -2.224   2.733   0.176  0.00  0.00     0.015 A 
ATOM     11  C   UNL d   1      -2.632   4.069   0.266  0.00  0.00     0.001 A 
ATOM     12  C   UNL d   1      -1.687   5.091   0.263  0.00  0.00     0.000 A 
ATOM     13  C   UNL d   1      -0.333   4.782   0.165  0.00  0.00     0.001 A 
ATOM     14  C   UNL d   1       0.074   3.449   0.075  0.00  0.00     0.015 A 
ENDBRANCH   2   9
BRANCH   5  15
ATOM     15  S   UNL d   1      -0.979  -2.778  -0.107  0.00  0.00    -0.082 SA
BRANCH  15  16
ATOM     16  C   UNL d   1      -1.686  -2.960   1.554  0.00  0.00     0.192 C 
BRANCH  16  17
ATOM     17  C   UNL d   1      -2.959  -2.155   1.744  0.00  0.00     0.149 C 
ATOM     18  O   UNL d   1      -3.377  -1.281   0.996  0.00  0.00    -0.649 OA
BRANCH  17  19
ATOM     19  O   UNL d   1      -3.607  -2.460   2.895  0.00  0.00    -0.776 OA
ATOM     20  H   UNL d   1      -3.187  -3.155   3.438  0.00  0.00     0.167 HD
ENDBRANCH  17  19
ENDBRANCH  16  17
ENDBRANCH  15  16
ENDBRANCH   5  15
TORSDOF 5
