REMARK  4 active torsions:
REMARK  status: ('A' for Active; 'I' for Inactive)
REMARK    1  A    between atoms: N_8  and  C_1 
REMARK       I    between atoms: C_2  and  N_9 
REMARK    2  A    between atoms: C_7  and  C_2 
REMARK    3  A    between atoms: C_3  and  C_6 
REMARK    4  A    between atoms: N_9  and  N_8 
ROOT
ATOM      1  N   UNL d   1       0.449   2.335   0.028  0.00  0.00    -0.181 NA
ATOM      2  C   UNL d   1       1.895   2.429  -0.164  0.00  0.00     0.144 C 
ENDROOT
BRANCH   1   3
ATOM      3  C   UNL d   1      -0.130   1.117  -0.395  0.00  0.00     0.122 A 
ATOM      4  N   UNL d   1      -0.917   1.138  -1.511  0.00  0.00    -0.353 N 
ATOM      5  C   UNL d   1      -1.639   0.034  -1.815  0.00  0.00     0.105 A 
ATOM      6  HN  UNL d   1      -0.961   1.968  -2.102  1.00  0.00     0.166 HD
ATOM      7  C   UNL d   1      -1.634  -1.127  -1.059  0.00  0.00     0.065 A 
ATOM      8  C   UNL d   1      -0.776  -1.173   0.041  0.00  0.00     0.044 A 
ATOM      9  C   UNL d   1      -0.020  -0.049   0.384  0.00  0.00     0.074 A 
ATOM     10 CL   UNL d   1       0.930  -0.141   1.825  0.00  0.00    -0.081 Cl
BRANCH   7  11
ATOM     11  C   UNL d   1      -2.558  -2.250  -1.413  0.00  0.00     0.418 C 
ATOM     12  F   UNL d   1      -2.584  -3.241  -0.479  0.00  0.00    -0.166 F 
ATOM     13  F   UNL d   1      -3.847  -1.836  -1.551  0.00  0.00    -0.166 F 
ATOM     14  F   UNL d   1      -2.228  -2.849  -2.587  0.00  0.00    -0.166 F 
ENDBRANCH   7  11
ENDBRANCH   1   3
BRANCH   1  15
ATOM     15  N   UNL d   1      -0.235   3.453  -0.523  0.00  0.00    -0.279 N 
ATOM     16  C   UNL d   1      -0.562   4.483   0.338  0.00  0.00     0.268 C 
ATOM     17  O   UNL d   1      -0.154   4.575   1.494  0.00  0.00    -0.266 OA
ATOM     18  H   UNL d   1      -0.783   3.244  -1.358  0.00  0.00     0.184 HD
BRANCH  16  19
ATOM     19  C   UNL d   1      -1.362   5.603  -0.231  0.00  0.00     0.054 A 
ATOM     20  C   UNL d   1      -2.350   5.487  -1.217  0.00  0.00     0.049 A 
ATOM     21 CL   UNL d   1      -2.892   3.979  -1.859  0.00  0.00    -0.083 Cl
ATOM     22  C   UNL d   1      -2.986   6.638  -1.706  0.00  0.00     0.025 A 
ATOM     23  C   UNL d   1      -2.653   7.900  -1.212  0.00  0.00     0.002 A 
ATOM     24  C   UNL d   1      -1.692   8.021  -0.214  0.00  0.00     0.001 A 
ATOM     25  C   UNL d   1      -1.056   6.882   0.275  0.00  0.00     0.019 A 
ENDBRANCH  16  19
ENDBRANCH   1  15
TORSDOF 4
