REMARK  9 active torsions:
REMARK  status: ('A' for Active; 'I' for Inactive)
REMARK    1  A    between atoms: O_14  and  C_1 
REMARK    2  A    between atoms: C_5  and  C_2 
REMARK    3  A    between atoms: O_16  and  C_3 
REMARK    4  A    between atoms: O_17  and  C_4 
REMARK       I    between atoms: N_12  and  C_5 
REMARK    5  A    between atoms: O_19  and  C_8 
REMARK    6  A    between atoms: O_20  and  C_9 
REMARK    7  A    between atoms: C_21  and  N_12 
REMARK    8  A    between atoms: C_15  and  C_22 
REMARK    9  A    between atoms: C_22  and  C_21 
ROOT
ATOM      1  C   UNL d   1      -2.832   0.465  -0.068  0.00  0.00     0.251 C 
ATOM      2  O   UNL d   1      -3.217   1.620   0.066  0.00  0.00    -0.268 OA
ATOM      3  N   UNL d   1      -3.709  -0.582  -0.311  0.00  0.00    -0.357 N 
ATOM      4  H   UNL d   1      -3.357  -1.469  -0.634  0.00  0.00     0.162 HD
ENDROOT
BRANCH   1   5
ATOM      5  C   UNL d   1      -1.377   0.136   0.025  0.00  0.00     0.037 A 
ATOM      6  C   UNL d   1      -0.456   1.181   0.135  0.00  0.00     0.057 A 
ATOM      7  C   UNL d   1       0.926   0.939   0.249  0.00  0.00     0.105 A 
ATOM      8  C   UNL d   1       1.394  -0.387   0.261  0.00  0.00     0.135 A 
ATOM      9  C   UNL d   1       0.460  -1.447   0.225  0.00  0.00     0.105 A 
ATOM     10  C   UNL d   1      -0.906  -1.176   0.061  0.00  0.00     0.057 A 
BRANCH   7  11
ATOM     11  O   UNL d   1       1.635   2.107   0.341  0.00  0.00    -0.353 OA
ATOM     12  C   UNL d   1       3.041   2.066   0.498  0.00  0.00     0.210 C 
ENDBRANCH   7  11
BRANCH   8  13
ATOM     13  O   UNL d   1       2.732  -0.628   0.449  0.00  0.00    -0.351 OA
ATOM     14  C   UNL d   1       3.341  -1.481  -0.521  0.00  0.00     0.210 C 
ENDBRANCH   8  13
BRANCH   9  15
ATOM     15  O   UNL d   1       0.938  -2.728   0.386  0.00  0.00    -0.353 OA
ATOM     16  C   UNL d   1      -0.011  -3.732   0.732  0.00  0.00     0.210 C 
ENDBRANCH   9  15
ENDBRANCH   1   5
BRANCH   3  17
ATOM     17  C   UNL d   1      -5.132  -0.339  -0.470  0.00  0.00     0.127 C 
BRANCH  17  18
ATOM     18  C   UNL d   1      -5.915  -1.645  -0.606  0.00  0.00     0.058 C 
BRANCH  18  19
ATOM     19  C   UNL d   1      -7.383  -1.399  -0.837  0.00  0.00    -0.054 A 
ATOM     20  C   UNL d   1      -7.880  -1.239  -2.142  0.00  0.00     0.046 A 
ATOM     21  C   UNL d   1      -9.237  -0.970  -2.378  0.00  0.00     0.102 A 
ATOM     22  C   UNL d   1     -10.118  -0.897  -1.287  0.00  0.00     0.101 A 
ATOM     23  C   UNL d   1      -9.615  -1.038   0.015  0.00  0.00     0.040 A 
ATOM     24  C   UNL d   1      -8.264  -1.289   0.240  0.00  0.00     0.010 A 
BRANCH  21  25
ATOM     25  O   UNL d   1      -9.735  -0.802  -3.643  0.00  0.00    -0.353 OA
ATOM     26  C   UNL d   1      -8.854  -0.205  -4.589  0.00  0.00     0.210 C 
ENDBRANCH  21  25
BRANCH  22  27
ATOM     27  O   UNL d   1     -11.460  -0.625  -1.318  0.00  0.00    -0.353 OA
ATOM     28  C   UNL d   1     -12.181  -1.088  -2.453  0.00  0.00     0.210 C 
ENDBRANCH  22  27
ENDBRANCH  18  19
ENDBRANCH  17  18
ENDBRANCH   3  17
TORSDOF 9
