REMARK  3 active torsions:
REMARK  status: ('A' for Active; 'I' for Inactive)
REMARK    1  A    between atoms: S_10  and  C_3 
REMARK    2  A    between atoms: C_9  and  C_13 
REMARK    3  A    between atoms: C_13  and  S_10 
ROOT
ATOM      1  N   UNL d   1       2.175   0.335  -0.041  0.00  0.00    -0.303 N 
ATOM      2  C   UNL d   1       1.357  -0.763   0.003  0.00  0.00     0.259 A 
ATOM      3  C   UNL d   1       1.708   1.614  -0.044  0.00  0.00     0.147 A 
ATOM      4  N   UNL d   1       0.459   1.932  -0.002  0.00  0.00    -0.336 N 
ATOM      5  HN  UNL d   1       0.158   2.906   0.010  1.00  0.00     0.168 HD
ATOM      6  C   UNL d   1      -0.087  -0.472   0.026  0.00  0.00     0.059 A 
ATOM      7  C   UNL d   1      -0.473   0.873   0.028  0.00  0.00     0.049 A 
ATOM      8  O   UNL d   1       1.792  -1.907   0.015  0.00  0.00    -0.267 OA
ATOM      9  C   UNL d   1      -1.031  -1.507   0.029  0.00  0.00     0.019 A 
ATOM     10  C   UNL d   1      -1.839   1.168   0.034  0.00  0.00     0.030 A 
ATOM     11  C   UNL d   1      -2.389  -1.193   0.030  0.00  0.00     0.001 A 
ATOM     12  C   UNL d   1      -2.792   0.143   0.034  0.00  0.00     0.002 A 
ATOM     13  H   UNL d   1       3.170   0.173  -0.076  0.00  0.00     0.171 HD
ENDROOT
BRANCH   3  14
ATOM     14  S   UNL d   1       2.996   2.775  -0.162  0.00  0.00    -0.089 SA
BRANCH  14  15
ATOM     15  C   UNL d   1       2.215   4.246   0.558  0.00  0.00     0.122 C 
BRANCH  15  16
ATOM     16  C   UNL d   1       3.060   5.490   0.358  0.00  0.00    -0.027 A 
ATOM     17  C   UNL d   1       4.068   5.892   1.254  0.00  0.00     0.042 A 
ATOM     18  C   UNL d   1       4.809   7.057   1.025  0.00  0.00     0.048 A 
ATOM     19 CL   UNL d   1       4.439   4.983   2.675  0.00  0.00    -0.084 Cl
ATOM     20  C   UNL d   1       4.558   7.829  -0.105  0.00  0.00     0.035 A 
ATOM     21  C   UNL d   1       3.575   7.446  -1.013  0.00  0.00     0.024 A 
ATOM     22 CL   UNL d   1       5.462   9.266  -0.382  0.00  0.00    -0.084 Cl
ATOM     23  C   UNL d   1       2.835   6.283  -0.785  0.00  0.00     0.011 A 
ENDBRANCH  15  16
ENDBRANCH  14  15
ENDBRANCH   3  14
TORSDOF 3
