REMARK  4 active torsions:
REMARK  status: ('A' for Active; 'I' for Inactive)
REMARK    1  A    between atoms: C_2  and  S_1 
REMARK    2  A    between atoms: O_8  and  S_1 
REMARK    3  A    between atoms: C_3  and  C_7 
REMARK    4  A    between atoms: C_10  and  O_8 
ROOT
ATOM      1  C   UNL d   1       0.257   1.501   0.365  0.00  0.00     0.128 A 
ATOM      2  S   UNL d   1       1.031   2.842  -0.367  0.00  0.00    -0.074 SA
ATOM      3  C   UNL d   1      -0.011   3.955   0.406  0.00  0.00     0.033 A 
ATOM      4  C   UNL d   1      -0.869   1.894   1.065  0.00  0.00     0.035 A 
ATOM      5  C   UNL d   1      -1.017   3.312   1.097  0.00  0.00     0.023 A 
ENDROOT
BRANCH   1   6
ATOM      6  S   UNL d   1       1.046  -0.084   0.178  0.00  0.00     0.309 S 
ATOM      7  O   UNL d   1       0.305  -0.971   1.054  0.00  0.00    -0.192 OA
ATOM      8  O   UNL d   1       2.464   0.159   0.351  0.00  0.00    -0.192 OA
BRANCH   6   9
ATOM      9  O   UNL d   1       0.723  -0.456  -1.378  0.00  0.00    -0.227 OA
BRANCH   9  10
ATOM     10  C   UNL d   1       1.045  -1.716  -1.832  0.00  0.00     0.111 A 
ATOM     11  C   UNL d   1       0.079  -2.469  -2.514  0.00  0.00     0.070 A 
ATOM     12  C   UNL d   1       0.388  -3.742  -2.999  0.00  0.00     0.050 A 
ATOM     13 CL   UNL d   1      -1.513  -1.854  -2.766  0.00  0.00    -0.081 Cl
ATOM     14  C   UNL d   1       1.666  -4.262  -2.810  0.00  0.00     0.035 A 
ATOM     15  C   UNL d   1       2.639  -3.516  -2.149  0.00  0.00     0.026 A 
ATOM     16 CL   UNL d   1       2.055  -5.828  -3.405  0.00  0.00    -0.084 Cl
ATOM     17  C   UNL d   1       2.333  -2.239  -1.669  0.00  0.00     0.041 A 
ENDBRANCH   9  10
ENDBRANCH   6   9
ENDBRANCH   1   6
BRANCH   3  18
ATOM     18  C   UNL d   1       0.140   5.450   0.389  0.00  0.00     0.056 A 
ATOM     19  N   UNL d   1      -0.705   6.254   1.139  0.00  0.00    -0.353 N 
ATOM     20  C   UNL d   1      -0.341   7.516   1.033  0.00  0.00     0.047 A 
ATOM     21  HN  UNL d   1      -1.493   5.918   1.693  1.00  0.00     0.166 HD
ATOM     22  C   UNL d   1      -1.000   8.646   1.744  0.00  0.00     0.076 C 
ATOM     23  S   UNL d   1       0.992   7.813  -0.009  0.00  0.00    -0.087 SA
ATOM     24  C   UNL d   1       1.119   6.129  -0.308  0.00  0.00     0.082 A 
ENDBRANCH   3  18
TORSDOF 4
