REMARK  4 active torsions:
REMARK  status: ('A' for Active; 'I' for Inactive)
REMARK    1  A    between atoms: C_3  and  C_1 
REMARK    2  A    between atoms: O_5  and  C_2 
REMARK    3  A    between atoms: C_9  and  O_5 
REMARK    4  A    between atoms: C_12  and  C_9 
ROOT
ATOM      1  C   UNL d   1      -1.197  -1.281   0.024  0.00  0.00     0.045 A 
ATOM      2  C   UNL d   1      -1.867  -0.040   0.069  0.00  0.00     0.083 A 
ATOM      3  C   UNL d   1       0.213  -1.283  -0.050  0.00  0.00     0.060 A 
ATOM      4  C   UNL d   1      -1.115   1.147  -0.061  0.00  0.00     0.041 A 
ATOM      5  C   UNL d   1       0.930  -0.096  -0.113  0.00  0.00     0.117 A 
ATOM      6  C   UNL d   1       0.277   1.120  -0.138  0.00  0.00     0.045 A 
ATOM      7  F   UNL d   1       2.267  -0.128  -0.156  0.00  0.00    -0.206 F 
ENDROOT
BRANCH   2   8
ATOM      8  O   UNL d   1      -3.226  -0.015   0.269  0.00  0.00    -0.346 OA
BRANCH   8   9
ATOM      9  C   UNL d   1      -3.798   1.248   0.633  0.00  0.00     0.214 C 
BRANCH   9  10
ATOM     10  C   UNL d   1      -5.200   1.138   1.192  0.00  0.00    -0.034 A 
ATOM     11  C   UNL d   1      -5.720  -0.055   1.702  0.00  0.00     0.009 A 
ATOM     12  C   UNL d   1      -6.986  -0.079   2.293  0.00  0.00     0.001 A 
ATOM     13  C   UNL d   1      -7.739   1.091   2.391  0.00  0.00     0.000 A 
ATOM     14  C   UNL d   1      -7.232   2.285   1.890  0.00  0.00     0.001 A 
ATOM     15  C   UNL d   1      -5.970   2.310   1.293  0.00  0.00     0.009 A 
ENDBRANCH   9  10
ENDBRANCH   8   9
ENDBRANCH   2   8
BRANCH   1  16
ATOM     16  C   UNL d   1      -1.817  -2.651   0.067  0.00  0.00     0.158 C 
ATOM     17  O   UNL d   1      -1.075  -3.627   0.205  0.00  0.00    -0.293 OA
ATOM     18  C   UNL d   1      -3.295  -2.900  -0.084  0.00  0.00     0.097 C 
ENDBRANCH   1  16
TORSDOF 4
