REMARK  1 active torsions:
REMARK  status: ('A' for Active; 'I' for Inactive)
REMARK    1  A    between atoms: C_8  and  C_4 
ROOT
ATOM      1  C   UNL d   1       1.874   0.500   0.063  0.00  0.00    -0.002 A 
ATOM      2  C   UNL d   1       0.824   1.556   0.215  0.00  0.00     0.189 A 
ATOM      3  C   UNL d   1      -0.435   0.858   0.516  0.00  0.00     0.021 A 
ATOM      4  C   UNL d   1       3.171   0.786  -0.117  0.00  0.00     0.023 C 
ATOM      5  C   UNL d   1      -0.207  -0.518   0.527  0.00  0.00    -0.040 A 
ATOM      6  C   UNL d   1       1.216  -0.851   0.206  0.00  0.00     0.082 A 
ATOM      7  O   UNL d   1       0.977   2.759   0.128  0.00  0.00    -0.287 OA
ATOM      8  C   UNL d   1      -1.679   1.403   0.780  0.00  0.00     0.016 A 
ATOM      9  C   UNL d   1      -1.239  -1.399   0.810  0.00  0.00     0.008 A 
ATOM     10  C   UNL d   1      -2.723   0.520   1.067  0.00  0.00     0.001 A 
ATOM     11  C   UNL d   1      -2.503  -0.870   1.084  0.00  0.00     0.001 A 
ENDROOT
BRANCH   4  12
ATOM     12  C   UNL d   1       4.176  -0.277  -0.193  0.00  0.00    -0.034 A 
ATOM     13  C   UNL d   1       4.502  -0.861  -1.421  0.00  0.00     0.035 A 
ATOM     14  C   UNL d   1       5.387  -1.938  -1.461  0.00  0.00     0.034 A 
ATOM     15 CL   UNL d   1       5.761  -2.682  -2.968  0.00  0.00    -0.084 Cl
ATOM     16  C   UNL d   1       5.958  -2.434  -0.289  0.00  0.00     0.024 A 
ATOM     17  C   UNL d   1       5.646  -1.843   0.935  0.00  0.00     0.003 A 
ATOM     18  C   UNL d   1       4.756  -0.769   0.983  0.00  0.00     0.011 A 
ENDBRANCH   4  12
TORSDOF 1
