REMARK  2 active torsions:
REMARK  status: ('A' for Active; 'I' for Inactive)
REMARK    1  A    between atoms: C_10  and  C_5 
REMARK    2  A    between atoms: C_14  and  C_11 
ROOT
ATOM      1  S   UNL d   1       1.726   1.959  -0.393  0.00  0.00    -0.145 SA
ATOM      2  S   UNL d   1       2.147  -1.017  -0.998  0.00  0.00    -0.145 SA
ATOM      3  C   UNL d   1      -0.453   0.589   0.575  0.00  0.00    -0.041 A 
ATOM      4  C   UNL d   1      -0.262  -0.779   0.316  0.00  0.00    -0.041 A 
ATOM      5  C   UNL d   1       2.878   0.551  -0.428  0.00  0.00     0.131 C 
ATOM      6  C   UNL d   1      -1.355  -1.546  -0.127  0.00  0.00     0.015 A 
ATOM      7  C   UNL d   1      -1.720   1.157   0.351  0.00  0.00     0.015 A 
ATOM      8  C   UNL d   1      -2.804   0.394  -0.113  0.00  0.00    -0.056 A 
ATOM      9  C   UNL d   1      -2.623  -0.979  -0.340  0.00  0.00    -0.056 A 
ATOM     10  C   UNL d   1       1.096  -1.426   0.424  0.00  0.00     0.114 C 
ATOM     11  C   UNL d   1       0.682   1.481   1.008  0.00  0.00     0.114 C 
ATOM     12  C   UNL d   1      -3.720  -1.884  -0.834  0.00  0.00     0.049 C 
ATOM     13  C   UNL d   1      -4.114   1.084  -0.378  0.00  0.00     0.049 C 
ENDROOT
BRANCH   5  14
ATOM     14  C   UNL d   1       3.950   0.910  -1.422  0.00  0.00    -0.000 C 
ATOM     15  C   UNL d   1       5.250   1.080  -1.136  0.00  0.00     0.009 C 
BRANCH  15  16
ATOM     16  C   UNL d   1       6.191   1.428  -2.199  0.00  0.00    -0.036 A 
ATOM     17  C   UNL d   1       6.434   2.770  -2.515  0.00  0.00     0.011 A 
ATOM     18  C   UNL d   1       7.285   3.099  -3.571  0.00  0.00     0.001 A 
ATOM     19  C   UNL d   1       7.894   2.090  -4.317  0.00  0.00     0.000 A 
ATOM     20  C   UNL d   1       7.655   0.751  -4.005  0.00  0.00     0.001 A 
ATOM     21  C   UNL d   1       6.805   0.421  -2.949  0.00  0.00     0.011 A 
ENDBRANCH  15  16
ENDBRANCH   5  14
TORSDOF 2
