REMARK  7 active torsions:
REMARK  status: ('A' for Active; 'I' for Inactive)
REMARK    1  A    between atoms: C_8  and  N_1 
REMARK    2  A    between atoms: S_9  and  C_2 
REMARK    3  A    between atoms: O_19  and  C_3 
REMARK    4  A    between atoms: C_10  and  C_8 
REMARK    5  A    between atoms: C_14  and  S_9 
REMARK    6  A    between atoms: C_11  and  C_14 
REMARK    7  A    between atoms: C_13  and  C_11 
ROOT
ATOM      1  N   UNL d   1      -0.171  -1.182   0.049  0.00  0.00    -0.285 N 
ATOM      2  C   UNL d   1       1.063  -0.582   0.028  0.00  0.00     0.165 A 
ATOM      3  C   UNL d   1      -1.054  -0.140   0.205  0.00  0.00     0.240 A 
ATOM      4  N   UNL d   1       0.935   0.721   0.108  0.00  0.00    -0.277 N 
ATOM      5  HN  UNL d   1       1.693   1.403   0.089  1.00  0.00     0.189 HD
ATOM      6  N   UNL d   1      -0.404   1.000   0.224  0.00  0.00    -0.263 N 
ATOM      7  HN  UNL d   1      -0.820   1.927   0.309  1.00  0.00     0.190 HD
ENDROOT
BRANCH   2   8
ATOM      8  S   UNL d   1       2.564  -1.433  -0.040  0.00  0.00    -0.085 SA
BRANCH   8   9
ATOM      9  C   UNL d   1       3.675  -0.209   0.733  0.00  0.00     0.166 C 
BRANCH   9  10
ATOM     10  C   UNL d   1       5.122  -0.666   0.657  0.00  0.00     0.169 C 
ATOM     11  O   UNL d   1       5.527  -1.534  -0.119  0.00  0.00    -0.291 OA
BRANCH  10  12
ATOM     12  C   UNL d   1       6.120  -0.022   1.562  0.00  0.00     0.011 A 
ATOM     13  C   UNL d   1       7.337  -0.693   1.783  0.00  0.00     0.018 A 
ATOM     14  C   UNL d   1       8.310  -0.136   2.614  0.00  0.00     0.043 A 
ATOM     15  C   UNL d   1       8.073   1.092   3.217  0.00  0.00     0.116 A 
ATOM     16  C   UNL d   1       6.877   1.774   3.004  0.00  0.00     0.043 A 
ATOM     17  F   UNL d   1       9.007   1.631   4.009  0.00  0.00    -0.206 F 
ATOM     18  C   UNL d   1       5.895   1.218   2.176  0.00  0.00     0.018 A 
ENDBRANCH  10  12
ENDBRANCH   9  10
ENDBRANCH   8   9
ENDBRANCH   2   8
BRANCH   1  19
ATOM     19  C   UNL d   1      -0.456  -2.603   0.104  0.00  0.00     0.200 C 
BRANCH  19  20
ATOM     20  C   UNL d   1      -1.526  -3.004  -0.844  0.00  0.00     0.070 A 
ATOM     21  O   UNL d   1      -2.809  -2.874  -0.389  0.00  0.00    -0.325 OA
ATOM     22  C   UNL d   1      -3.630  -3.293  -1.386  0.00  0.00     0.142 A 
ATOM     23  C   UNL d   1      -2.894  -3.690  -2.478  0.00  0.00     0.027 A 
ATOM     24  C   UNL d   1      -1.533  -3.506  -2.128  0.00  0.00     0.036 A 
ENDBRANCH  19  20
ENDBRANCH   1  19
BRANCH   3  25
ATOM     25  O   UNL d   1      -2.367  -0.217   0.360  0.00  0.00    -0.331 OA
ATOM     26  H   UNL d   1      -2.671  -1.122   0.171  0.00  0.00     0.221 HD
ENDBRANCH   3  25
TORSDOF 7
