REMARK  3 active torsions:
REMARK  status: ('A' for Active; 'I' for Inactive)
REMARK       I    between atoms: C_2  and  N_1 
REMARK    1  A    between atoms: C_9  and  C_2 
REMARK    2  A    between atoms: C_3  and  C_6 
REMARK    3  A    between atoms: O_12  and  C_3 
ROOT
ATOM      1  N   UNL d   1       1.080   0.143   0.388  0.00  0.00    -0.352 N 
ATOM      2  C   UNL d   1       2.262   0.089   1.125  0.00  0.00     0.224 C 
ATOM      3  C   UNL d   1       0.423  -0.993  -0.254  0.00  0.00     0.126 C 
ATOM      4  C   UNL d   1       0.525   1.452   0.037  0.00  0.00     0.126 C 
ATOM      5  C   UNL d   1      -1.741   0.319  -0.347  0.00  0.00     0.087 C 
ATOM      6  O   UNL d   1       2.800   1.122   1.533  0.00  0.00    -0.273 OA
ATOM      7  C   UNL d   1      -0.990   1.518   0.257  0.00  0.00     0.035 C 
ATOM      8  C   UNL d   1      -1.070  -0.990   0.074  0.00  0.00     0.035 C 
ENDROOT
BRANCH   2   9
ATOM      9  C   UNL d   1       2.891  -1.288   1.417  0.00  0.00     0.078 C 
ATOM     10  C   UNL d   1       3.708  -1.312   2.716  0.00  0.00     0.014 C 
ATOM     11  C   UNL d   1       5.054  -0.603   2.628  0.00  0.00     0.001 C 
ATOM     12  C   UNL d   1       5.881  -1.027   1.422  0.00  0.00     0.000 C 
ATOM     13  C   UNL d   1       5.094  -1.112   0.117  0.00  0.00     0.001 C 
ATOM     14  C   UNL d   1       3.737  -1.804   0.247  0.00  0.00     0.014 C 
ENDBRANCH   2   9
BRANCH   5  15
ATOM     15  C   UNL d   1      -1.867   0.414  -1.861  0.00  0.00     0.143 C 
ATOM     16  O   UNL d   1      -1.410  -0.403  -2.653  0.00  0.00    -0.650 OA
BRANCH  15  17
ATOM     17  O   UNL d   1      -2.589   1.472  -2.289  0.00  0.00    -0.776 OA
ATOM     18  H   UNL d   1      -2.970   2.030  -1.568  0.00  0.00     0.167 HD
ENDBRANCH  15  17
ENDBRANCH   5  15
TORSDOF 3
