REMARK  3 active torsions:
REMARK  status: ('A' for Active; 'I' for Inactive)
REMARK    1  A    between atoms: S_12  and  C_2 
REMARK    2  A    between atoms: C_8  and  N_3 
REMARK    3  A    between atoms: C_11  and  C_5 
ROOT
ATOM      1  N   UNL d   1       0.778  -3.560   0.014  0.00  0.00    -0.363 N 
ATOM      2  HN  UNL d   1       1.768  -3.313   0.020  1.00  0.00     0.165 HD
ATOM      3  C   UNL d   1      -0.126  -2.636  -0.017  0.00  0.00     0.107 C 
ENDROOT
BRANCH   1   4
ATOM      4  C   UNL d   1       0.381  -4.915   0.038  0.00  0.00     0.054 A 
ATOM      5  C   UNL d   1       1.077  -5.881  -0.713  0.00  0.00     0.062 A 
ATOM      6  C   UNL d   1       0.729  -7.236  -0.654  0.00  0.00     0.050 A 
ATOM      7 CL   UNL d   1       2.402  -5.437  -1.736  0.00  0.00    -0.082 Cl
ATOM      8  C   UNL d   1      -0.323  -7.638   0.161  0.00  0.00     0.035 A 
ATOM      9  C   UNL d   1      -1.021  -6.705   0.923  0.00  0.00     0.026 A 
ATOM     10 CL   UNL d   1      -0.758  -9.300   0.244  0.00  0.00    -0.084 Cl
ATOM     11  C   UNL d   1      -0.661  -5.355   0.870  0.00  0.00     0.033 A 
ENDBRANCH   1   4
BRANCH   3  12
ATOM     12  C   UNL d   1       0.250  -1.244  -0.023  0.00  0.00     0.021 A 
ATOM     13  S   UNL d   1      -0.960  -0.050   0.139  0.00  0.00    -0.082 SA
ATOM     14  C   UNL d   1       0.180   1.225   0.063  0.00  0.00     0.041 A 
ATOM     15  C   UNL d   1       1.464   0.742  -0.081  0.00  0.00     0.027 A 
ATOM     16  C   UNL d   1       1.505  -0.684  -0.131  0.00  0.00     0.022 A 
BRANCH  14  17
ATOM     17  S   UNL d   1      -0.337   2.898   0.204  0.00  0.00    -0.127 SA
ATOM     18  C   UNL d   1       0.843   3.753  -0.862  0.00  0.00     0.096 C 
ENDBRANCH  14  17
ENDBRANCH   3  12
TORSDOF 3
