REMARK  5 active torsions:
REMARK  status: ('A' for Active; 'I' for Inactive)
REMARK    1  A    between atoms: C_4  and  C_1 
REMARK    2  A    between atoms: O_9  and  C_3 
REMARK    3  A    between atoms: C_11  and  C_4 
REMARK    4  A    between atoms: O_10  and  C_5 
REMARK    5  A    between atoms: C_14  and  C_11 
ROOT
ATOM      1  C   UNL d   1       1.366  -0.257   0.081  0.00  0.00     0.013 A 
ATOM      2  C   UNL d   1       0.505  -1.362   0.060  0.00  0.00     0.054 A 
ATOM      3  C   UNL d   1      -0.886  -1.197   0.013  0.00  0.00     0.102 A 
ATOM      4  C   UNL d   1      -1.416   0.105  -0.028  0.00  0.00     0.101 A 
ATOM      5  C   UNL d   1       0.838   1.032   0.059  0.00  0.00     0.018 A 
ATOM      6  C   UNL d   1      -0.543   1.207  -0.004  0.00  0.00     0.040 A 
ENDROOT
BRANCH   1   7
ATOM      7  C   UNL d   1       2.842  -0.437   0.127  0.00  0.00     0.159 C 
ATOM      8  O   UNL d   1       3.538   0.434   0.652  0.00  0.00    -0.292 OA
BRANCH   7   9
ATOM      9  C   UNL d   1       3.461  -1.675  -0.494  0.00  0.00     0.083 C 
BRANCH   9  10
ATOM     10  C   UNL d   1       3.188  -1.783  -1.995  0.00  0.00     0.003 C 
ATOM     11  C   UNL d   1       3.765  -0.607  -2.767  0.00  0.00     0.005 C 
ENDBRANCH   9  10
ENDBRANCH   7   9
ENDBRANCH   1   7
BRANCH   3  12
ATOM     12  O   UNL d   1      -1.749  -2.259   0.013  0.00  0.00    -0.353 OA
ATOM     13  C   UNL d   1      -1.215  -3.576   0.053  0.00  0.00     0.210 C 
ENDBRANCH   3  12
BRANCH   4  14
ATOM     14  O   UNL d   1      -2.730   0.490  -0.096  0.00  0.00    -0.353 OA
ATOM     15  C   UNL d   1      -3.737  -0.511  -0.106  0.00  0.00     0.210 C 
ENDBRANCH   4  14
TORSDOF 5
