REMARK  6 active torsions:
REMARK  status: ('A' for Active; 'I' for Inactive)
REMARK    1  A    between atoms: C_2  and  C_1 
REMARK       I    between atoms: C_3  and  N_4 
REMARK    2  A    between atoms: C_18  and  C_3 
REMARK    3  A    between atoms: N_4  and  C_14 
REMARK    4  A    between atoms: C_7  and  C_19 
REMARK    5  A    between atoms: S_13  and  C_18 
REMARK    6  A    between atoms: C_19  and  S_13 
ROOT
ATOM      1  C   UNL d   1       0.194   2.998   8.261  0.00  0.00     0.231 C 
ATOM      2  N   UNL d   1       0.651   1.858   8.899  0.00  0.00    -0.327 N 
ATOM      3  O   UNL d   1       0.861   4.004   8.020  0.00  0.00    -0.272 OA
ATOM      4  H   UNL d   1      -0.045   1.128   9.027  0.00  0.00     0.169 HD
ENDROOT
BRANCH   1   5
ATOM      5  C   UNL d   1      -1.251   2.919   7.796  0.00  0.00     0.177 C 
BRANCH   5   6
ATOM      6  S   UNL d   1      -2.285   1.796   8.783  0.00  0.00    -0.155 SA
BRANCH   6   7
ATOM      7  C   UNL d   1      -2.388   2.742  10.364  0.00  0.00     0.113 C 
BRANCH   7   8
ATOM      8  C   UNL d   1      -3.467   2.105  11.222  0.00  0.00    -0.038 C 
ATOM      9  C   UNL d   1      -3.212   0.976  12.052  0.00  0.00    -0.019 C 
ATOM     10  C   UNL d   1      -4.313   0.189  12.470  0.00  0.00    -0.025 C 
ATOM     11  C   UNL d   1      -1.924   0.566  12.469  0.00  0.00     0.013 C 
ATOM     12  C   UNL d   1      -4.091  -1.044  13.106  0.00  0.00     0.012 C 
ATOM     13  C   UNL d   1      -5.623   0.629  12.228  0.00  0.00     0.012 C 
ATOM     14  C   UNL d   1      -2.802  -1.464  13.425  0.00  0.00     0.001 C 
ATOM     15  C   UNL d   1      -1.723  -0.632  13.157  0.00  0.00     0.001 C 
ATOM     16  C   UNL d   1      -5.863   1.811  11.535  0.00  0.00     0.001 C 
ATOM     17  C   UNL d   1      -4.795   2.524  11.004  0.00  0.00     0.009 C 
ENDBRANCH   7   8
ENDBRANCH   6   7
ENDBRANCH   5   6
ENDBRANCH   1   5
BRANCH   2  18
ATOM     18  C   UNL d   1       1.929   1.618   9.439  0.00  0.00     0.034 A 
ATOM     19  C   UNL d   1       2.994   2.504   9.334  0.00  0.00     0.030 A 
ATOM     20  C   UNL d   1       4.237   2.197   9.912  0.00  0.00     0.018 A 
ATOM     21  C   UNL d   1       4.426   0.998  10.607  0.00  0.00     0.048 A 
ATOM     22  C   UNL d   1       3.350   0.104  10.709  0.00  0.00     0.018 A 
ATOM     23  C   UNL d   1       2.114   0.413  10.127  0.00  0.00     0.030 A 
BRANCH  21  24
ATOM     24  C   UNL d   1       5.767   0.688  11.225  0.00  0.00     0.417 C 
ATOM     25  F   UNL d   1       5.792  -0.492  11.906  0.00  0.00    -0.166 F 
ATOM     26  F   UNL d   1       6.162   1.640  12.115  0.00  0.00    -0.166 F 
ATOM     27  F   UNL d   1       6.761   0.604  10.298  0.00  0.00    -0.166 F 
ENDBRANCH  21  24
ENDBRANCH   2  18
TORSDOF 6
