REMARK  6 active torsions:
REMARK  status: ('A' for Active; 'I' for Inactive)
REMARK    1  A    between atoms: N_5  and  S_1 
REMARK    2  A    between atoms: C_9  and  S_1 
REMARK    3  A    between atoms: C_2  and  C_6 
REMARK    4  A    between atoms: C_7  and  N_3 
REMARK    5  A    between atoms: N_4  and  C_8 
REMARK    6  A    between atoms: C_18  and  N_5 
ROOT
ATOM      1  C   UNL d   1       1.626   5.076   1.146  0.00  0.00     0.103 A 
ATOM      2  N   UNL d   1       0.333   4.706   1.259  0.00  0.00    -0.350 N 
ATOM      3  HN  UNL d   1      -0.333   5.278   1.779  1.00  0.00     0.166 HD
ATOM      4  C   UNL d   1       0.805   2.710  -0.029  0.00  0.00     0.058 A 
ATOM      5  C   UNL d   1       2.545   4.269   0.475  0.00  0.00     0.051 A 
ATOM      6  C   UNL d   1      -0.057   3.552   0.664  0.00  0.00     0.119 A 
ATOM      7  C   UNL d   1       2.135   3.069  -0.101  0.00  0.00     0.035 A 
ENDROOT
BRANCH   1   8
ATOM      8  N   UNL d   1       2.057   6.221   1.776  0.00  0.00    -0.364 N 
ATOM      9  C   UNL d   1       1.265   6.793   2.874  0.00  0.00     0.144 C 
ATOM     10  C   UNL d   1       2.246   7.354   3.933  0.00  0.00     0.144 C 
ATOM     11  N   UNL d   1       3.151   8.320   3.281  0.00  0.00    -0.364 N 
ATOM     12  C   UNL d   1       3.960   7.738   2.200  0.00  0.00     0.144 C 
ATOM     13  C   UNL d   1       2.991   7.167   1.133  0.00  0.00     0.144 C 
BRANCH  11  14
ATOM     14  C   UNL d   1       3.656   9.376   4.005  0.00  0.00     0.103 A 
ATOM     15  N   UNL d   1       4.974   9.661   3.961  0.00  0.00    -0.352 N 
ATOM     16  C   UNL d   1       5.418  10.767   4.609  0.00  0.00     0.106 A 
ATOM     17  HN  UNL d   1       5.622   9.060   3.452  1.00  0.00     0.166 HD
ATOM     18  C   UNL d   1       4.598  11.647   5.297  0.00  0.00     0.063 A 
ATOM     19  C   UNL d   1       3.238  11.354   5.328  0.00  0.00     0.021 A 
ATOM     20  C   UNL d   1       2.772  10.213   4.686  0.00  0.00     0.049 A 
BRANCH  18  21
ATOM     21  C   UNL d   1       5.138  12.874   5.956  0.00  0.00     0.418 C 
ATOM     22  F   UNL d   1       6.489  13.005   5.853  0.00  0.00    -0.166 F 
ATOM     23  F   UNL d   1       4.611  14.017   5.433  0.00  0.00    -0.166 F 
ATOM     24  F   UNL d   1       4.858  12.914   7.288  0.00  0.00    -0.166 F 
ENDBRANCH  18  21
ENDBRANCH  11  14
ENDBRANCH   1   8
BRANCH   4  25
ATOM     25  N   UNL d   1       0.373   1.510  -0.648  0.00  0.00    -0.279 N 
ATOM     26  H   UNL d   1      -0.367   1.560  -1.346  0.00  0.00     0.179 HD
BRANCH  25  27
ATOM     27  S   UNL d   1       0.426   0.061   0.203  0.00  0.00     0.263 S 
ATOM     28  O   UNL d   1       1.718  -0.089   0.826  0.00  0.00    -0.200 OA
ATOM     29  O   UNL d   1      -0.106  -0.950  -0.693  0.00  0.00    -0.200 OA
BRANCH  27  30
ATOM     30  C   UNL d   1      -0.786   0.306   1.480  0.00  0.00     0.081 A 
ATOM     31  C   UNL d   1      -0.383   0.730   2.748  0.00  0.00     0.049 A 
ATOM     32  C   UNL d   1      -1.350   0.923   3.732  0.00  0.00     0.035 A 
ATOM     33 CL   UNL d   1      -0.881   1.472   5.293  0.00  0.00    -0.084 Cl
ATOM     34  C   UNL d   1      -2.699   0.680   3.463  0.00  0.00     0.024 A 
ATOM     35  C   UNL d   1      -3.090   0.229   2.201  0.00  0.00     0.003 A 
ATOM     36  C   UNL d   1      -2.134   0.036   1.206  0.00  0.00     0.025 A 
ENDBRANCH  27  30
ENDBRANCH  25  27
ENDBRANCH   4  25
TORSDOF 6
