REMARK  3 active torsions:
REMARK  status: ('A' for Active; 'I' for Inactive)
REMARK    1  A    between atoms: N_9  and  C_3 
REMARK    2  A    between atoms: N_6  and  C_13 
REMARK       I    between atoms: C_11  and  N_9 
REMARK    3  A    between atoms: C_13  and  C_11 
ROOT
ATOM      1  N   UNL d   1       0.530  -3.474  -0.411  0.00  0.00    -0.305 N 
ATOM      2  C   UNL d   1       1.209  -2.742   0.548  0.00  0.00     0.237 C 
ATOM      3  O   UNL d   1       0.848  -2.522   1.703  0.00  0.00    -0.272 OA
ATOM      4  H   UNL d   1       0.876  -3.454  -1.363  0.00  0.00     0.171 HD
ENDROOT
BRANCH   1   5
ATOM      5  C   UNL d   1      -0.715  -4.028  -0.281  0.00  0.00     0.168 C 
ATOM      6  S   UNL d   1      -1.581  -4.031   1.184  0.00  0.00    -0.032 SA
ATOM      7  C   UNL d   1      -2.956  -4.544   0.290  0.00  0.00     0.109 C 
ATOM      8  N   UNL d   1      -2.666  -4.898  -0.949  0.00  0.00    -0.291 N 
ATOM      9  C   UNL d   1      -4.311  -4.469   0.778  0.00  0.00     0.040 A 
ATOM     10  N   UNL d   1      -1.357  -4.588  -1.283  0.00  0.00    -0.279 N 
ATOM     11  HN  UNL d   1      -3.327  -5.345  -1.584  1.00  0.00     0.187 HD
ATOM     12  HN  UNL d   1      -0.941  -4.773  -2.196  1.00  0.00     0.189 HD
ATOM     13  S   UNL d   1      -4.717  -3.846   2.329  0.00  0.00    -0.099 SA
ATOM     14  C   UNL d   1      -5.457  -4.783   0.066  0.00  0.00     0.022 A 
ATOM     15  C   UNL d   1      -6.385  -3.845   1.977  0.00  0.00     0.050 A 
ATOM     16  C   UNL d   1      -6.650  -4.392   0.743  0.00  0.00     0.008 A 
ENDBRANCH   1   5
BRANCH   2  17
ATOM     17  C   UNL d   1       2.521  -2.150   0.012  0.00  0.00     0.198 C 
BRANCH  17  18
ATOM     18  N   UNL d   1       2.239  -0.892  -0.688  0.00  0.00    -0.274 NA
ATOM     19  C   UNL d   1       3.163  -0.434  -1.636  0.00  0.00     0.017 A 
ATOM     20  C   UNL d   1       3.405   0.937  -1.549  0.00  0.00    -0.036 A 
ATOM     21  C   UNL d   1       3.758  -1.168  -2.650  0.00  0.00     0.024 A 
ATOM     22  C   UNL d   1       4.227   1.601  -2.448  0.00  0.00     0.009 A 
ATOM     23  C   UNL d   1       2.681   1.512  -0.384  0.00  0.00     0.055 A 
ATOM     24  C   UNL d   1       4.814   0.864  -3.474  0.00  0.00     0.001 A 
ATOM     25  C   UNL d   1       4.583  -0.515  -3.573  0.00  0.00     0.002 A 
ATOM     26  C   UNL d   1       1.914   0.288   0.149  0.00  0.00     0.101 A 
ENDBRANCH  17  18
ENDBRANCH   2  17
TORSDOF 3
