REMARK  6 active torsions:
REMARK  status: ('A' for Active; 'I' for Inactive)
REMARK    1  A    between atoms: N_3  and  S_1 
REMARK    2  A    between atoms: C_8  and  S_1 
REMARK    3  A    between atoms: N_2  and  C_14 
REMARK    4  A    between atoms: N_5  and  N_3 
REMARK    5  A    between atoms: C_4  and  C_12 
REMARK       I    between atoms: C_9  and  N_5 
REMARK    6  A    between atoms: C_17  and  C_9 
ROOT
ATOM      1  N   UNL d   1       0.008   0.095   3.465  0.00  0.00    -0.256 N 
ATOM      2  C   UNL d   1       0.596   1.319   3.708  0.00  0.00     0.270 C 
ATOM      3  O   UNL d   1       1.799   1.470   3.869  0.00  0.00    -0.266 OA
ATOM      4  H   UNL d   1      -0.995  -0.048   3.372  0.00  0.00     0.191 HD
ENDROOT
BRANCH   1   5
ATOM      5  N   UNL d   1       0.861  -1.049   3.272  0.00  0.00    -0.220 N 
ATOM      6  H   UNL d   1       1.876  -0.945   3.380  0.00  0.00     0.200 HD
BRANCH   5   7
ATOM      7  S   UNL d   1       0.287  -2.360   2.385  0.00  0.00     0.276 S 
ATOM      8  O   UNL d   1      -1.065  -2.620   2.839  0.00  0.00    -0.199 OA
ATOM      9  O   UNL d   1       1.311  -3.376   2.347  0.00  0.00    -0.199 OA
BRANCH   7  10
ATOM     10  C   UNL d   1       0.171  -1.641   0.758  0.00  0.00     0.081 A 
ATOM     11  C   UNL d   1      -1.075  -1.524   0.129  0.00  0.00     0.041 A 
ATOM     12  C   UNL d   1      -1.164  -0.945  -1.148  0.00  0.00     0.049 A 
ATOM     13  C   UNL d   1       0.011  -0.488  -1.770  0.00  0.00     0.016 A 
ATOM     14  C   UNL d   1       1.250  -0.607  -1.135  0.00  0.00     0.002 A 
ATOM     15  C   UNL d   1       1.334  -1.186   0.130  0.00  0.00     0.025 A 
BRANCH  12  16
ATOM     16  C   UNL d   1      -2.492  -0.812  -1.854  0.00  0.00     0.417 C 
ATOM     17  F   UNL d   1      -3.541  -1.286  -1.126  0.00  0.00    -0.166 F 
ATOM     18  F   UNL d   1      -2.796   0.484  -2.140  0.00  0.00    -0.166 F 
ATOM     19  F   UNL d   1      -2.525  -1.478  -3.040  0.00  0.00    -0.166 F 
ENDBRANCH  12  16
ENDBRANCH   7  10
ENDBRANCH   5   7
ENDBRANCH   1   5
BRANCH   2  20
ATOM     20  C   UNL d   1      -0.337   2.477   3.738  0.00  0.00     0.033 A 
ATOM     21  C   UNL d   1      -0.024   3.562   4.556  0.00  0.00     0.019 A 
ATOM     22  C   UNL d   1      -0.872   4.674   4.601  0.00  0.00     0.031 A 
ATOM     23  C   UNL d   1      -2.001   4.746   3.773  0.00  0.00     0.039 A 
ATOM     24  C   UNL d   1      -2.298   3.661   2.939  0.00  0.00     0.031 A 
ATOM     25  C   UNL d   1      -1.483   2.521   2.935  0.00  0.00     0.019 A 
BRANCH  23  26
ATOM     26  N   UNL d   1      -2.817   5.925   3.749  0.00  0.00    -0.320 N 
ATOM     27  C   UNL d   1      -4.208   5.975   3.586  0.00  0.00     0.013 A 
ATOM     28  C   UNL d   1      -4.598   7.302   3.572  0.00  0.00     0.027 A 
ATOM     29  C   UNL d   1      -5.149   4.817   3.529  0.00  0.00     0.068 C 
ATOM     30  C   UNL d   1      -3.458   8.090   3.760  0.00  0.00     0.027 A 
ATOM     31  C   UNL d   1      -2.365   7.248   3.853  0.00  0.00     0.013 A 
ATOM     32  C   UNL d   1      -0.947   7.712   3.936  0.00  0.00     0.068 C 
ENDBRANCH  23  26
ENDBRANCH   2  20
TORSDOF 6
