REMARK  4 active torsions:
REMARK  status: ('A' for Active; 'I' for Inactive)
REMARK    1  A    between atoms: C_5  and  N_1 
REMARK    2  A    between atoms: C_2  and  N_6 
REMARK    3  A    between atoms: C_3  and  C_9 
REMARK       I    between atoms: N_4  and  C_3 
REMARK    4  A    between atoms: N_6  and  N_4 
ROOT
ATOM      1  C   UNL d   1      -2.139  -0.770   4.668  0.00  0.00     0.270 C 
ATOM      2  N   UNL d   1      -3.378  -1.361   4.520  0.00  0.00    -0.264 N 
ATOM      3  O   UNL d   1      -1.690  -0.469   5.773  0.00  0.00    -0.266 OA
ATOM      4  H   UNL d   1      -3.849  -1.524   3.637  0.00  0.00     0.190 HD
ENDROOT
BRANCH   1   5
ATOM      5  C   UNL d   1      -1.341  -0.515   3.429  0.00  0.00     0.033 A 
ATOM      6  C   UNL d   1      -1.750  -0.926   2.151  0.00  0.00     0.019 A 
ATOM      7  C   UNL d   1      -0.934  -0.695   1.035  0.00  0.00     0.037 A 
ATOM      8  C   UNL d   1       0.299  -0.051   1.195  0.00  0.00     0.102 A 
ATOM      9  C   UNL d   1       0.717   0.373   2.462  0.00  0.00     0.037 A 
ATOM     10  C   UNL d   1      -0.104   0.139   3.571  0.00  0.00     0.019 A 
BRANCH   8  11
ATOM     11  N   UNL d   1       1.162   0.172   0.027  0.00  0.00    -0.116 N 
ATOM     12  O   UNL d   1       2.236   0.763   0.209  0.00  0.00    -0.532 OA
ATOM     13  O   UNL d   1       0.765  -0.248  -1.069  0.00  0.00    -0.532 OA
ENDBRANCH   8  11
ENDBRANCH   1   5
BRANCH   2  14
ATOM     14  N   UNL d   1      -4.128  -1.629   5.673  0.00  0.00    -0.274 N 
ATOM     15  H   UNL d   1      -3.678  -1.351   6.545  0.00  0.00     0.189 HD
BRANCH  14  16
ATOM     16  C   UNL d   1      -5.496  -1.706   5.611  0.00  0.00     0.184 C 
ATOM     17  S   UNL d   1      -6.429  -1.610   4.234  0.00  0.00    -0.040 SA
ATOM     18  N   UNL d   1      -6.083  -1.910   6.820  0.00  0.00    -0.375 N 
ATOM     19  H   UNL d   1      -5.553  -2.342   7.565  0.00  0.00     0.158 HD
ATOM     20  H   UNL d   1      -7.080  -2.093   6.819  0.00  0.00     0.158 HD
ENDBRANCH  14  16
ENDBRANCH   2  14
TORSDOF 4
