REMARK  3 active torsions:
REMARK  status: ('A' for Active; 'I' for Inactive)
REMARK    1  A    between atoms: N_7  and  C_1 
REMARK    2  A    between atoms: O_15  and  C_2 
REMARK    3  A    between atoms: C_17  and  N_9 
ROOT
ATOM      1  N   UNL d   1       0.572  -2.756  -1.089  0.00  0.00    -0.294 N 
ATOM      2  HN  UNL d   1       0.670  -1.760  -0.891  1.00  0.00     0.187 HD
ATOM      3  N   UNL d   1       0.307  -3.527  -0.136  0.00  0.00    -0.300 N 
ATOM      4  HN  UNL d   1       0.108  -3.119   0.778  1.00  0.00     0.187 HD
ENDROOT
BRANCH   1   5
ATOM      5  C   UNL d   1       0.741  -3.187  -2.405  0.00  0.00     0.124 A 
ATOM      6  C   UNL d   1      -0.109  -2.871  -3.439  0.00  0.00     0.187 A 
ATOM      7  N   UNL d   1       0.425  -3.496  -4.535  0.00  0.00    -0.274 N 
ATOM      8  C   UNL d   1      -0.139  -3.546  -5.862  0.00  0.00     0.180 C 
ATOM      9  N   UNL d   1       1.608  -4.104  -4.291  0.00  0.00    -0.299 N 
ATOM     10  C   UNL d   1       1.818  -3.893  -2.980  0.00  0.00     0.054 A 
ATOM     11  HN  UNL d   1       2.203  -4.606  -4.949  1.00  0.00     0.187 HD
ATOM     12  C   UNL d   1       3.055  -4.384  -2.333  0.00  0.00     0.072 C 
BRANCH   6  13
ATOM     13  O   UNL d   1      -1.222  -2.142  -3.495  0.00  0.00    -0.343 OA
ATOM     14  H   UNL d   1      -1.336  -1.749  -2.607  0.00  0.00     0.219 HD
ENDBRANCH   6  13
ENDBRANCH   1   5
BRANCH   3  15
ATOM     15  C   UNL d   1       0.269  -4.930  -0.265  0.00  0.00     0.048 A 
ATOM     16  C   UNL d   1       1.044  -5.686   0.631  0.00  0.00     0.043 A 
ATOM     17  C   UNL d   1       0.992  -7.087   0.638  0.00  0.00     0.001 A 
ATOM     18  C   UNL d   1       1.792  -7.894   1.613  0.00  0.00     0.212 C 
ATOM     19  C   UNL d   1       0.185  -7.744  -0.286  0.00  0.00     0.080 A 
ATOM     20  O   UNL d   1       1.198  -9.177   1.780  0.00  0.00    -0.362 OA
ATOM     21  C   UNL d   1       1.008  -9.787   0.508  0.00  0.00     0.345 C 
ATOM     22  O   UNL d   1       0.084  -9.106  -0.343  0.00  0.00    -0.326 OA
ATOM     23  C   UNL d   1      -0.605  -7.013  -1.171  0.00  0.00     0.040 A 
ATOM     24  C   UNL d   1      -0.584  -5.615  -1.138  0.00  0.00     0.034 A 
ENDBRANCH   3  15
TORSDOF 3
