REMARK  4 active torsions:
REMARK  status: ('A' for Active; 'I' for Inactive)
REMARK    1  A    between atoms: C_6  and  N_1 
REMARK    2  A    between atoms: C_2  and  C_8 
REMARK    3  A    between atoms: C_16  and  C_3 
REMARK    4  A    between atoms: N_11  and  C_10 
ROOT
ATOM      1  C   UNL d   1      -2.847   6.291  -0.606  0.00  0.00     0.055 C 
ATOM      2  C   UNL d   1      -2.931   4.942  -0.587  0.00  0.00     0.034 C 
ATOM      3  C   UNL d   1      -3.303   7.060   0.519  0.00  0.00     0.100 C 
ATOM      4  N   UNL d   1      -3.640   7.711   1.415  0.00  0.00    -0.191 NA
ENDROOT
BRANCH   1   5
ATOM      5  C   UNL d   1      -2.225   7.002  -1.764  0.00  0.00    -0.015 A 
ATOM      6  C   UNL d   1      -2.316   6.513  -3.082  0.00  0.00     0.015 A 
ATOM      7  C   UNL d   1      -1.704   7.181  -4.153  0.00  0.00     0.037 A 
ATOM      8  C   UNL d   1      -1.001   8.368  -3.918  0.00  0.00     0.102 A 
ATOM      9  C   UNL d   1      -0.919   8.891  -2.626  0.00  0.00     0.037 A 
ATOM     10  C   UNL d   1      -1.530   8.211  -1.563  0.00  0.00     0.015 A 
BRANCH   8  11
ATOM     11  N   UNL d   1      -0.347   9.065  -5.033  0.00  0.00    -0.116 N 
ATOM     12  O   UNL d   1       0.267  10.111  -4.778  0.00  0.00    -0.532 OA
ATOM     13  O   UNL d   1      -0.445   8.564  -6.163  0.00  0.00    -0.532 OA
ENDBRANCH   8  11
ENDBRANCH   1   5
BRANCH   2  14
ATOM     14  C   UNL d   1      -3.482   4.142   0.515  0.00  0.00    -0.035 A 
ATOM     15  C   UNL d   1      -4.836   3.826   0.553  0.00  0.00     0.013 A 
ATOM     16  C   UNL d   1      -5.351   3.025   1.587  0.00  0.00     0.030 A 
ATOM     17  C   UNL d   1      -4.547   2.504   2.615  0.00  0.00     0.029 A 
ATOM     18  C   UNL d   1      -3.187   2.859   2.555  0.00  0.00     0.030 A 
ATOM     19  C   UNL d   1      -2.659   3.666   1.531  0.00  0.00     0.013 A 
BRANCH  17  20
ATOM     20  N   UNL d   1      -5.039   1.651   3.594  0.00  0.00    -0.390 N 
ATOM     21  C   UNL d   1      -4.466   1.623   4.940  0.00  0.00     0.149 C 
ATOM     22  C   UNL d   1      -6.357   1.025   3.502  0.00  0.00     0.149 C 
ENDBRANCH  17  20
ENDBRANCH   2  14
TORSDOF 4
