REMARK  4 active torsions:
REMARK  status: ('A' for Active; 'I' for Inactive)
REMARK    1  A    between atoms: N_2  and  S_1 
REMARK    2  A    between atoms: C_8  and  S_1 
REMARK    3  A    between atoms: C_11  and  N_2 
REMARK    4  A    between atoms: C_10  and  C_11 
ROOT
ATOM      1  N   UNL d   1       0.568  -0.569  -1.436  0.00  0.00    -0.313 N 
ATOM      2  H   UNL d   1      -0.422  -0.812  -1.363  0.00  0.00     0.172 HD
ENDROOT
BRANCH   1   3
ATOM      3  S   UNL d   1       1.210   0.026   0.002  0.00  0.00     0.258 S 
ATOM      4  O   UNL d   1       2.648  -0.105  -0.086  0.00  0.00    -0.201 OA
ATOM      5  O   UNL d   1       0.447  -0.562   1.077  0.00  0.00    -0.201 OA
BRANCH   3   6
ATOM      6  C   UNL d   1       0.806   1.756  -0.059  0.00  0.00     0.079 A 
ATOM      7  C   UNL d   1      -0.535   2.139  -0.170  0.00  0.00     0.025 A 
ATOM      8  C   UNL d   1      -0.856   3.494  -0.255  0.00  0.00     0.002 A 
ATOM      9  C   UNL d   1       0.156   4.455  -0.217  0.00  0.00     0.000 A 
ATOM     10  C   UNL d   1       1.492   4.067  -0.098  0.00  0.00     0.002 A 
ATOM     11  C   UNL d   1       1.823   2.714  -0.021  0.00  0.00     0.025 A 
ENDBRANCH   3   6
ENDBRANCH   1   3
BRANCH   1  12
ATOM     12  C   UNL d   1       1.004   0.049  -2.700  0.00  0.00     0.166 C 
BRANCH  12  13
ATOM     13  C   UNL d   1       0.377  -0.690  -3.898  0.00  0.00     0.171 C 
ATOM     14  O   UNL d   1      -1.063  -0.668  -3.812  0.00  0.00    -0.339 OA
ATOM     15  C   UNL d   1      -1.599   0.511  -4.263  0.00  0.00     0.102 A 
ATOM     16  C   UNL d   1      -2.932   0.756  -3.936  0.00  0.00     0.039 A 
ATOM     17  C   UNL d   1      -0.867   1.461  -4.981  0.00  0.00     0.102 A 
ATOM     18  C   UNL d   1      -3.515   1.978  -4.273  0.00  0.00     0.003 A 
ATOM     19  C   UNL d   1      -2.768   2.947  -4.944  0.00  0.00     0.003 A 
ATOM     20  C   UNL d   1      -1.446   2.686  -5.306  0.00  0.00     0.039 A 
ATOM     21  O   UNL d   1       0.439   1.274  -5.356  0.00  0.00    -0.346 OA
ATOM     22  C   UNL d   1       0.833  -0.098  -5.229  0.00  0.00     0.209 C 
ENDBRANCH  12  13
ENDBRANCH   1  12
TORSDOF 4
