REMARK  6 active torsions:
REMARK  status: ('A' for Active; 'I' for Inactive)
REMARK    1  A    between atoms: C_7  and  C_1 
REMARK    2  A    between atoms: C_8  and  C_2 
REMARK    3  A    between atoms: O_16  and  C_7 
REMARK    4  A    between atoms: O_15  and  C_8 
REMARK    5  A    between atoms: C_18  and  O_15 
REMARK    6  A    between atoms: C_17  and  O_16 
ROOT
ATOM      1  C   UNL d   1      -1.320   0.027  -0.072  0.00  0.00     0.115 C 
ATOM      2  C   UNL d   1       1.320  -0.083   0.027  0.00  0.00     0.115 C 
ATOM      3  C   UNL d   1       0.803   1.299  -0.323  0.00  0.00     0.147 C 
ATOM      4  C   UNL d   1      -0.802  -0.462   1.266  0.00  0.00     0.147 C 
ATOM      5  C   UNL d   1      -0.709   1.419  -0.328  0.00  0.00     0.107 C 
ATOM      6  C   UNL d   1       0.709  -0.476   1.387  0.00  0.00     0.107 C 
ATOM      7  C   UNL d   1      -0.770  -0.985  -1.101  0.00  0.00     0.030 C 
ATOM      8  C   UNL d   1       0.767  -1.004  -1.084  0.00  0.00     0.030 C 
ATOM      9  O   UNL d   1       1.519   2.254  -0.601  0.00  0.00    -0.297 OA
ATOM     10  O   UNL d   1      -1.518  -0.843   2.187  0.00  0.00    -0.297 OA
ENDROOT
BRANCH   1  11
ATOM     11  C   UNL d   1      -2.825   0.125  -0.158  0.00  0.00     0.275 C 
ATOM     12  O   UNL d   1      -3.505  -0.470  -0.984  0.00  0.00    -0.264 OA
BRANCH  11  13
ATOM     13  O   UNL d   1      -3.297   1.058   0.714  0.00  0.00    -0.321 OA
BRANCH  13  14
ATOM     14  C   UNL d   1      -4.657   1.468   0.518  0.00  0.00     0.174 C 
ATOM     15  C   UNL d   1      -4.664   2.631  -0.459  0.00  0.00     0.034 C 
ENDBRANCH  13  14
ENDBRANCH  11  13
ENDBRANCH   1  11
BRANCH   2  16
ATOM     16  C   UNL d   1       2.824  -0.183   0.111  0.00  0.00     0.275 C 
ATOM     17  O   UNL d   1       3.502  -0.928  -0.584  0.00  0.00    -0.264 OA
BRANCH  16  18
ATOM     18  O   UNL d   1       3.299   0.564   1.145  0.00  0.00    -0.321 OA
BRANCH  18  19
ATOM     19  C   UNL d   1       4.658   0.308   1.528  0.00  0.00     0.174 C 
ATOM     20  C   UNL d   1       4.663  -0.818   2.546  0.00  0.00     0.034 C 
ENDBRANCH  18  19
ENDBRANCH  16  18
ENDBRANCH   2  16
TORSDOF 6
