REMARK  4 active torsions:
REMARK  status: ('A' for Active; 'I' for Inactive)
REMARK    1  A    between atoms: N_9  and  N_1 
REMARK    2  A    between atoms: C_13  and  N_2 
REMARK    3  A    between atoms: N_5  and  C_11 
REMARK       I    between atoms: C_8  and  N_9 
REMARK    4  A    between atoms: C_11  and  C_8 
ROOT
ATOM      1  N   UNL d   1       0.371   1.302   0.948  0.00  0.00    -0.248 N 
ATOM      2  N   UNL d   1      -1.414  -0.761   1.408  0.00  0.00    -0.308 N 
ATOM      3  C   UNL d   1      -0.419  -0.995   0.434  0.00  0.00     0.244 C 
ATOM      4  C   UNL d   1      -0.522   1.463   1.997  0.00  0.00     0.257 C 
ATOM      5  C   UNL d   1       0.789  -0.033   0.524  0.00  0.00     0.255 C 
ATOM      6  C   UNL d   1      -1.056   0.141   2.515  0.00  0.00     0.236 C 
ATOM      7  O   UNL d   1      -0.752   2.545   2.532  0.00  0.00    -0.270 OA
ATOM      8  O   UNL d   1      -0.414  -1.915  -0.381  0.00  0.00    -0.271 OA
ENDROOT
BRANCH   1   9
ATOM      9  N   UNL d   1       1.266   2.397   0.701  0.00  0.00    -0.264 N 
ATOM     10  C   UNL d   1       2.631   2.288   0.968  0.00  0.00     0.249 C 
ATOM     11  O   UNL d   1       3.201   1.236   1.257  0.00  0.00    -0.270 OA
ATOM     12  H   UNL d   1       0.862   3.305   0.950  0.00  0.00     0.190 HD
BRANCH  10  13
ATOM     13  C   UNL d   1       3.394   3.612   0.812  0.00  0.00     0.200 C 
BRANCH  13  14
ATOM     14  N   UNL d   1       3.231   4.495   1.978  0.00  0.00    -0.274 NA
ATOM     15  C   UNL d   1       3.828   5.777   1.849  0.00  0.00     0.017 A 
ATOM     16  C   UNL d   1       4.425   6.228   3.033  0.00  0.00    -0.036 A 
ATOM     17  C   UNL d   1       3.834   6.601   0.733  0.00  0.00     0.024 A 
ATOM     18  C   UNL d   1       5.040   7.467   3.124  0.00  0.00     0.009 A 
ATOM     19  C   UNL d   1       4.247   5.210   4.102  0.00  0.00     0.055 C 
ATOM     20  C   UNL d   1       5.065   8.282   1.997  0.00  0.00     0.001 A 
ATOM     21  C   UNL d   1       4.464   7.850   0.804  0.00  0.00     0.002 A 
ATOM     22  C   UNL d   1       3.790   4.000   3.269  0.00  0.00     0.101 C 
ENDBRANCH  13  14
ENDBRANCH  10  13
ENDBRANCH   1   9
BRANCH   2  23
ATOM     23  C   UNL d   1      -2.553  -1.615   1.612  0.00  0.00     0.037 A 
ATOM     24  C   UNL d   1      -2.574  -2.964   1.233  0.00  0.00     0.030 A 
ATOM     25  C   UNL d   1      -3.658  -3.792   1.568  0.00  0.00     0.002 A 
ATOM     26  C   UNL d   1      -4.748  -3.280   2.265  0.00  0.00     0.000 A 
ATOM     27  C   UNL d   1      -4.774  -1.933   2.599  0.00  0.00     0.002 A 
ATOM     28  C   UNL d   1      -3.693  -1.111   2.266  0.00  0.00     0.030 A 
ENDBRANCH   2  23
TORSDOF 4
