REMARK  2 active torsions:
REMARK  status: ('A' for Active; 'I' for Inactive)
REMARK    1  A    between atoms: C_15  and  C_5 
REMARK    2  A    between atoms: O_24  and  C_20 
ROOT
ATOM      1  C   UNL d   1      -0.028  -1.322  -0.086  0.00  0.00     0.066 C 
ATOM      2  C   UNL d   1      -2.054   0.633  -0.068  0.00  0.00     0.162 C 
ATOM      3  C   UNL d   1      -2.423  -0.658  -0.092  0.00  0.00     0.074 C 
ATOM      4  C   UNL d   1       0.272  -0.016  -0.065  0.00  0.00     0.104 C 
ATOM      5  C   UNL d   1      -1.453  -1.801   0.017  0.00  0.00     0.103 C 
ATOM      6  C   UNL d   1       1.018  -2.355  -0.218  0.00  0.00     0.298 C 
ATOM      7  C   UNL d   1      -3.859  -0.960  -0.203  0.00  0.00     0.258 C 
ATOM      8  O   UNL d   1      -0.699   0.978   0.005  0.00  0.00    -0.291 OA
ATOM      9  N   UNL d   1      -2.947   1.677  -0.074  0.00  0.00    -0.326 N 
ATOM     10  HN  UNL d   1      -2.627   2.645  -0.092  1.00  0.00     0.169 HD
ATOM     11  N   UNL d   1      -4.685   0.112  -0.068  0.00  0.00    -0.313 N 
ATOM     12  C   UNL d   1       1.667   0.417  -0.067  0.00  0.00     0.033 A 
ATOM     13  O   UNL d   1       2.333  -1.931  -0.116  0.00  0.00    -0.274 OA
ATOM     14  C   UNL d   1      -4.208   1.388  -0.055  0.00  0.00     0.081 C 
ATOM     15  C   UNL d   1       2.659  -0.564  -0.061  0.00  0.00     0.092 A 
ATOM     16  O   UNL d   1       0.745  -3.534  -0.417  0.00  0.00    -0.259 OA
ATOM     17  O   UNL d   1      -4.288  -2.085  -0.425  0.00  0.00    -0.267 OA
ATOM     18  C   UNL d   1       2.070   1.756  -0.042  0.00  0.00     0.017 A 
ATOM     19  C   UNL d   1      -5.247   2.472  -0.015  0.00  0.00     0.089 C 
ATOM     20  C   UNL d   1       4.017  -0.251  -0.017  0.00  0.00     0.038 A 
ATOM     21  C   UNL d   1       3.431   2.087  -0.006  0.00  0.00     0.001 A 
ATOM     22  C   UNL d   1       4.403   1.085   0.010  0.00  0.00     0.003 A 
ATOM     23  H   UNL d   1      -5.674  -0.085  -0.125  0.00  0.00     0.170 HD
ENDROOT
BRANCH   5  24
ATOM     24  C   UNL d   1      -1.676  -2.559   1.328  0.00  0.00    -0.042 A 
ATOM     25  C   UNL d   1      -2.051  -3.914   1.286  0.00  0.00     0.044 A 
ATOM     26  C   UNL d   1      -2.302  -4.622   2.462  0.00  0.00     0.068 A 
ATOM     27  C   UNL d   1      -2.159  -3.975   3.692  0.00  0.00     0.037 A 
ATOM     28  C   UNL d   1      -1.775  -2.636   3.752  0.00  0.00     0.003 A 
ATOM     29  C   UNL d   1      -1.535  -1.929   2.577  0.00  0.00     0.008 A 
BRANCH  26  30
ATOM     30  O   UNL d   1      -2.699  -5.928   2.540  0.00  0.00    -0.356 OA
ATOM     31  C   UNL d   1      -2.871  -6.616   1.304  0.00  0.00     0.210 C 
ENDBRANCH  26  30
ENDBRANCH   5  24
TORSDOF 2
