REMARK  4 active torsions:
REMARK  status: ('A' for Active; 'I' for Inactive)
REMARK    1  A    between atoms: O_7  and  N_1 
REMARK    2  A    between atoms: C_4  and  C_5 
REMARK    3  A    between atoms: C_5  and  C_10 
REMARK    4  A    between atoms: O_17  and  C_6 
ROOT
ATOM      1  N   UNL d   1       1.751  -0.559  -6.514  0.00  0.00    -0.277 N 
ATOM      2  HN  UNL d   1       2.748  -0.529  -6.303  1.00  0.00     0.193 HD
ATOM      3  C   UNL d   1       0.840   0.029  -5.800  0.00  0.00     0.010 C 
ATOM      4  C   UNL d   1       1.288   0.829  -4.594  0.00  0.00     0.055 C 
ATOM      5  C   UNL d   1      -0.651   0.025  -6.091  0.00  0.00     0.055 C 
ATOM      6  C   UNL d   1      -1.045   0.508  -3.611  0.00  0.00    -0.010 C 
ATOM      7  C   UNL d   1      -1.418  -0.360  -4.830  0.00  0.00     0.010 C 
ATOM      8  C   UNL d   1       0.476   0.409  -3.374  0.00  0.00     0.010 C 
ENDROOT
BRANCH   6   9
ATOM      9  C   UNL d   1      -1.508   1.980  -3.743  0.00  0.00     0.043 C 
BRANCH   9  10
ATOM     10  C   UNL d   1      -3.003   2.147  -3.884  0.00  0.00    -0.058 A 
ATOM     11  C   UNL d   1      -3.873   1.689  -2.888  0.00  0.00     0.010 A 
ATOM     12  C   UNL d   1      -5.257   1.806  -3.037  0.00  0.00     0.037 A 
ATOM     13  C   UNL d   1      -5.792   2.397  -4.182  0.00  0.00     0.068 A 
ATOM     14  C   UNL d   1      -4.930   2.903  -5.155  0.00  0.00     0.037 A 
ATOM     15  C   UNL d   1      -3.546   2.773  -5.013  0.00  0.00     0.010 A 
BRANCH  13  16
ATOM     16  O   UNL d   1      -7.127   2.570  -4.425  0.00  0.00    -0.356 OA
ATOM     17  C   UNL d   1      -7.975   1.562  -3.883  0.00  0.00     0.210 C 
ENDBRANCH  13  16
ENDBRANCH   9  10
ENDBRANCH   6   9
BRANCH   1  18
ATOM     18  O   UNL d   1       1.204  -1.235  -7.604  0.00  0.00    -0.290 OA
ATOM     19  H   UNL d   1       1.992  -1.636  -8.021  0.00  0.00     0.244 HD
ENDBRANCH   1  18
TORSDOF 4
