REMARK  5 active torsions:
REMARK  status: ('A' for Active; 'I' for Inactive)
REMARK    1  A    between atoms: N_2  and  S_1 
REMARK    2  A    between atoms: C_5  and  S_1 
REMARK    3  A    between atoms: C_9  and  N_2 
REMARK    4  A    between atoms: C_10  and  C_5 
REMARK    5  A    between atoms: C_8  and  C_9 
ROOT
ATOM      1  S   UNL d   1       0.906  -0.006   0.183  0.00  0.00     0.230 S 
ATOM      2  O   UNL d   1       0.334  -1.335   0.168  0.00  0.00    -0.206 OA
ATOM      3  O   UNL d   1       0.617   0.947   1.234  0.00  0.00    -0.206 OA
ENDROOT
BRANCH   1   4
ATOM      4  N   UNL d   1       0.465   0.755  -1.265  0.00  0.00    -0.315 N 
ATOM      5  H   UNL d   1       1.210   1.276  -1.723  0.00  0.00     0.172 HD
BRANCH   4   6
ATOM      6  C   UNL d   1      -0.385  -0.031  -2.177  0.00  0.00     0.171 C 
BRANCH   6   7
ATOM      7  C   UNL d   1      -0.780   0.727  -3.418  0.00  0.00    -0.025 A 
ATOM      8  C   UNL d   1      -0.999   0.040  -4.610  0.00  0.00     0.096 A 
ATOM      9  N   UNL d   1      -1.390   0.621  -5.767  0.00  0.00    -0.375 N 
ATOM     10  C   UNL d   1      -1.600   1.953  -5.736  0.00  0.00     0.087 A 
ATOM     11  HN  UNL d   1      -1.520   0.079  -6.621  1.00  0.00     0.164 HD
ATOM     12  C   UNL d   1      -1.435   2.730  -4.602  0.00  0.00     0.018 A 
ATOM     13  C   UNL d   1      -1.028   2.104  -3.425  0.00  0.00     0.011 A 
ENDBRANCH   6   7
ENDBRANCH   4   6
ENDBRANCH   1   4
BRANCH   1  14
ATOM     14  C   UNL d   1       2.693  -0.128  -0.006  0.00  0.00     0.201 C 
BRANCH  14  15
ATOM     15  C   UNL d   1       3.280  -0.823   1.197  0.00  0.00    -0.043 A 
ATOM     16  C   UNL d   1       3.466  -2.214   1.194  0.00  0.00     0.010 A 
ATOM     17  C   UNL d   1       4.007  -2.861   2.308  0.00  0.00     0.024 A 
ATOM     18  C   UNL d   1       4.362  -2.123   3.434  0.00  0.00     0.034 A 
ATOM     19  C   UNL d   1       4.178  -0.743   3.457  0.00  0.00     0.024 A 
ATOM     20 CL   UNL d   1       5.029  -2.921   4.805  0.00  0.00    -0.084 Cl
ATOM     21  C   UNL d   1       3.638  -0.095   2.342  0.00  0.00     0.010 A 
ENDBRANCH  14  15
ENDBRANCH   1  14
TORSDOF 5
