REMARK  3 active torsions:
REMARK  status: ('A' for Active; 'I' for Inactive)
REMARK    1  A    between atoms: N_7  and  C_1 
REMARK    2  A    between atoms: N_6  and  C_2 
REMARK    3  A    between atoms: N_11  and  C_4 
ROOT
ATOM      1  C   UNL d   1      -2.034   0.794   0.084  0.00  0.00     0.053 C 
ATOM      2  C   UNL d   1       0.368   1.453  -0.114  0.00  0.00     0.054 C 
ATOM      3  C   UNL d   1      -1.005   1.761  -0.009  0.00  0.00     0.062 C 
ATOM      4  C   UNL d   1      -1.637  -0.564   0.034  0.00  0.00     0.034 C 
ATOM      5  C   UNL d   1       0.706   0.089  -0.037  0.00  0.00     0.062 C 
ATOM      6  C   UNL d   1      -0.278  -0.895   0.071  0.00  0.00     0.051 C 
ATOM      7 CL   UNL d   1       2.339  -0.481  -0.211  0.00  0.00    -0.082 Cl
ENDROOT
BRANCH   1   8
ATOM      8  N   UNL d   1      -3.348   1.212   0.219  0.00  0.00    -0.375 N 
ATOM      9  C   UNL d   1      -4.355   0.480   1.004  0.00  0.00     0.149 C 
ATOM     10  C   UNL d   1      -5.221   1.473   1.800  0.00  0.00     0.187 C 
ATOM     11  O   UNL d   1      -5.792   2.490   0.960  0.00  0.00    -0.388 OA
ATOM     12  C   UNL d   1      -4.749   3.227   0.300  0.00  0.00     0.187 C 
ATOM     13  C   UNL d   1      -3.901   2.309  -0.594  0.00  0.00     0.149 C 
ENDBRANCH   1   8
BRANCH   4  14
ATOM     14  N   UNL d   1      -2.575  -1.623   0.069  0.00  0.00    -0.301 NA
ATOM     15  H   UNL d   1      -3.410  -1.346  -0.438  0.00  0.00     0.124 HD
ATOM     16  H   UNL d   1      -2.199  -2.495  -0.293  0.00  0.00     0.124 HD
ENDBRANCH   4  14
BRANCH   2  17
ATOM     17  N   UNL d   1       1.311   2.448  -0.356  0.00  0.00    -0.375 N 
ATOM     18  C   UNL d   1       0.935   3.677  -1.076  0.00  0.00     0.149 C 
ATOM     19  C   UNL d   1       2.193   4.255  -1.748  0.00  0.00     0.187 C 
ATOM     20  O   UNL d   1       3.243   4.499  -0.794  0.00  0.00    -0.388 OA
ATOM     21  C   UNL d   1       3.591   3.280  -0.107  0.00  0.00     0.187 C 
ATOM     22  C   UNL d   1       2.376   2.694   0.636  0.00  0.00     0.149 C 
ENDBRANCH   2  17
TORSDOF 3
