REMARK  11 active torsions:
REMARK  status: ('A' for Active; 'I' for Inactive)
REMARK    1  A    between atoms: N_14  and  C_3 
REMARK    2  A    between atoms: N_15  and  C_4 
REMARK       I    between atoms: C_5  and  N_7 
REMARK    3  A    between atoms: C_8  and  C_5 
REMARK    4  A    between atoms: N_7  and  C_6 
REMARK    5  A    between atoms: O_19  and  C_9 
REMARK    6  A    between atoms: O_20  and  C_10 
REMARK    7  A    between atoms: O_21  and  C_11 
REMARK    8  A    between atoms: C_22  and  N_14 
REMARK    9  A    between atoms: C_23  and  N_14 
REMARK   10  A    between atoms: C_24  and  N_15 
REMARK   11  A    between atoms: C_25  and  N_15 
ROOT
ATOM      1  N   UNL d   1      -1.359   0.038  -0.017  0.00  0.00    -0.327 N 
ATOM      2  HN  UNL d   1      -2.356   0.039  -0.234  1.00  0.00     0.169 HD
ATOM      3  C   UNL d   1      -0.691   1.232   0.089  0.00  0.00     0.132 A 
ATOM      4  C   UNL d   1      -0.716  -1.149   0.163  0.00  0.00     0.104 A 
ATOM      5  C   UNL d   1       0.710   1.223   0.274  0.00  0.00     0.079 A 
ATOM      6  C   UNL d   1       0.655  -1.172   0.389  0.00  0.00     0.051 A 
ATOM      7  C   UNL d   1       1.376   0.009   0.408  0.00  0.00     0.037 A 
ENDROOT
BRANCH   5   8
ATOM      8  N   UNL d   1       1.522   2.375   0.395  0.00  0.00    -0.320 N 
ATOM      9  C   UNL d   1       2.307   2.819  -0.655  0.00  0.00     0.256 C 
ATOM     10  O   UNL d   1       2.431   2.281  -1.750  0.00  0.00    -0.267 OA
ATOM     11  H   UNL d   1       1.185   3.082   1.025  0.00  0.00     0.169 HD
BRANCH   9  12
ATOM     12  C   UNL d   1       3.026   4.096  -0.376  0.00  0.00     0.037 A 
ATOM     13  C   UNL d   1       3.587   4.306   0.886  0.00  0.00     0.057 A 
ATOM     14  C   UNL d   1       4.226   5.513   1.202  0.00  0.00     0.105 A 
ATOM     15  C   UNL d   1       4.326   6.527   0.222  0.00  0.00     0.135 A 
ATOM     16  C   UNL d   1       3.839   6.269  -1.081  0.00  0.00     0.105 A 
ATOM     17  C   UNL d   1       3.177   5.063  -1.367  0.00  0.00     0.057 A 
BRANCH  14  18
ATOM     18  O   UNL d   1       4.772   5.743   2.438  0.00  0.00    -0.353 OA
ATOM     19  C   UNL d   1       4.702   4.719   3.422  0.00  0.00     0.210 C 
ENDBRANCH  14  18
BRANCH  15  20
ATOM     20  O   UNL d   1       4.864   7.775   0.415  0.00  0.00    -0.351 OA
ATOM     21  C   UNL d   1       5.139   8.248   1.724  0.00  0.00     0.210 C 
ENDBRANCH  15  20
BRANCH  16  22
ATOM     22  O   UNL d   1       3.880   7.116  -2.166  0.00  0.00    -0.353 OA
ATOM     23  C   UNL d   1       4.937   8.071  -2.221  0.00  0.00     0.210 C 
ENDBRANCH  16  22
ENDBRANCH   9  12
ENDBRANCH   5   8
BRANCH   3  24
ATOM     24  N   UNL d   1      -1.438   2.398  -0.046  0.00  0.00    -0.366 N 
BRANCH  24  25
ATOM     25  C   UNL d   1      -2.568   2.367  -0.979  0.00  0.00     0.120 C 
ATOM     26  C   UNL d   1      -3.907   2.200  -0.276  0.00  0.00     0.026 C 
ENDBRANCH  24  25
BRANCH  24  27
ATOM     27  C   UNL d   1      -1.265   3.611   0.746  0.00  0.00     0.120 C 
ATOM     28  C   UNL d   1      -1.455   3.367   2.235  0.00  0.00     0.026 C 
ENDBRANCH  24  27
ENDBRANCH   3  24
BRANCH   4  29
ATOM     29  N   UNL d   1      -1.436  -2.337   0.132  0.00  0.00    -0.368 N 
BRANCH  29  30
ATOM     30  C   UNL d   1      -2.448  -2.510  -0.904  0.00  0.00     0.120 C 
ATOM     31  C   UNL d   1      -3.849  -2.502  -0.317  0.00  0.00     0.026 C 
ENDBRANCH  29  30
BRANCH  29  32
ATOM     32  C   UNL d   1      -1.089  -3.487   0.964  0.00  0.00     0.120 C 
ATOM     33  C   UNL d   1      -1.430  -3.228   2.425  0.00  0.00     0.026 C 
ENDBRANCH  29  32
ENDBRANCH   4  29
TORSDOF 11
