REMARK  4 active torsions:
REMARK  status: ('A' for Active; 'I' for Inactive)
REMARK    1  A    between atoms: N_2  and  C_1 
REMARK       I    between atoms: C_3  and  N_2 
REMARK    2  A    between atoms: C_5  and  C_3 
REMARK    3  A    between atoms: N_4  and  C_9 
REMARK    4  A    between atoms: C_9  and  C_5 
ROOT
ATOM      1  N   UNL d   1      -0.162   3.263  -1.034  0.00  0.00    -0.326 N 
ATOM      2  C   UNL d   1       0.964   3.297  -0.223  0.00  0.00     0.223 C 
ATOM      3  O   UNL d   1       1.007   3.676   0.945  0.00  0.00    -0.273 OA
ATOM      4  H   UNL d   1      -0.101   2.550  -1.760  0.00  0.00     0.169 HD
ENDROOT
BRANCH   1   5
ATOM      5  C   UNL d   1      -1.450   3.608  -0.547  0.00  0.00     0.046 C 
ATOM      6  C   UNL d   1      -1.669   4.845   0.100  0.00  0.00    -0.035 C 
ATOM      7  C   UNL d   1      -2.894   5.078   0.747  0.00  0.00     0.009 C 
ATOM      8  C   UNL d   1      -0.666   5.970   0.086  0.00  0.00     0.050 C 
ATOM      9  C   UNL d   1      -3.919   4.144   0.684  0.00  0.00     0.001 C 
ATOM     10  C   UNL d   1      -3.748   2.987  -0.068  0.00  0.00     0.009 C 
ATOM     11  C   UNL d   1      -2.524   2.709  -0.710  0.00  0.00    -0.035 C 
ATOM     12  C   UNL d   1      -2.475   1.442  -1.516  0.00  0.00     0.050 C 
ENDBRANCH   1   5
BRANCH   2  13
ATOM     13  C   UNL d   1       2.227   2.813  -0.906  0.00  0.00     0.133 C 
BRANCH  13  14
ATOM     14  C   UNL d   1       2.119   1.379  -1.423  0.00  0.00     0.281 C 
BRANCH  14  15
ATOM     15  N   UNL d   1       1.229   1.220  -2.600  0.00  0.00     0.088 N 
ATOM     16  C   UNL d   1       1.830   1.837  -3.801  0.00  0.00     0.272 C 
ATOM     17  C   UNL d   1       1.005   1.596  -5.067  0.00  0.00     0.030 C 
ATOM     18  C   UNL d   1       0.746   0.113  -5.287  0.00  0.00     0.003 C 
ATOM     19  C   UNL d   1       0.110  -0.483  -4.042  0.00  0.00     0.030 C 
ATOM     20  C   UNL d   1       0.981  -0.222  -2.814  0.00  0.00     0.272 C 
ENDBRANCH  14  15
ENDBRANCH  13  14
ENDBRANCH   2  13
TORSDOF 4
