REMARK  0 active torsions:
REMARK  status: ('A' for Active; 'I' for Inactive)
ROOT
ATOM      1  S   UNL d   1      -1.343   1.702   0.131  0.00  0.00     0.176 S 
ATOM      2  C   UNL d   1       0.123   0.725   0.082  0.00  0.00     0.073 A 
ATOM      3  C   UNL d   1       0.059  -0.667  -0.004  0.00  0.00     0.033 A 
ATOM      4  C   UNL d   1      -1.223  -1.424  -0.021  0.00  0.00     0.162 C 
ATOM      5  C   UNL d   1      -2.615   0.588  -0.394  0.00  0.00     0.153 C 
ATOM      6  O   UNL d   1      -1.203   2.727  -0.884  0.00  0.00    -0.223 OA
ATOM      7  O   UNL d   1      -1.566   2.029   1.523  0.00  0.00    -0.223 OA
ATOM      8  C   UNL d   1       1.354   1.392   0.096  0.00  0.00     0.026 A 
ATOM      9  C   UNL d   1      -2.496  -0.712   0.360  0.00  0.00     0.099 C 
ATOM     10  C   UNL d   1       1.255  -1.397  -0.074  0.00  0.00     0.040 A 
ATOM     11  O   UNL d   1      -1.222  -2.618  -0.305  0.00  0.00    -0.292 OA
ATOM     12  C   UNL d   1       2.483  -0.734  -0.049  0.00  0.00     0.035 A 
ATOM     13  C   UNL d   1       2.537   0.656   0.034  0.00  0.00     0.025 A 
ATOM     14 CL   UNL d   1       3.944  -1.639  -0.119  0.00  0.00    -0.084 Cl
ENDROOT
TORSDOF 0
