REMARK  2 active torsions:
REMARK  status: ('A' for Active; 'I' for Inactive)
REMARK    1  A    between atoms: C_11  and  C_1 
REMARK       I    between atoms: N_12  and  C_4 
REMARK       I    between atoms: N_13  and  C_4 
REMARK    2  A    between atoms: N_6  and  N_8 
ROOT
ATOM      1  N   UNL d   1      -3.288  -2.914   0.021  0.00  0.00    -0.309 N 
ATOM      2  HN  UNL d   1      -4.017  -2.202  -0.033  1.00  0.00     0.186 HD
ATOM      3  C   UNL d   1      -2.018  -2.663   0.028  0.00  0.00     0.120 C 
ENDROOT
BRANCH   1   4
ATOM      4  N   UNL d   1      -3.529  -4.294   0.097  0.00  0.00    -0.281 N 
ATOM      5  C   UNL d   1      -4.793  -4.567   0.029  0.00  0.00     0.141 C 
ATOM      6  N   UNL d   1      -5.787  -3.662  -0.142  0.00  0.00    -0.278 NA
ATOM      7  N   UNL d   1      -5.291  -5.820   0.125  0.00  0.00    -0.278 NA
ATOM      8  H   UNL d   1      -5.358  -2.739  -0.072  0.00  0.00     0.126 HD
ATOM      9  H   UNL d   1      -6.511  -3.766   0.557  0.00  0.00     0.126 HD
ATOM     10  H   UNL d   1      -4.555  -6.513   0.035  0.00  0.00     0.126 HD
ATOM     11  H   UNL d   1      -6.040  -5.983  -0.536  0.00  0.00     0.126 HD
ATOM     12  HN  UNL d   1      -2.797  -4.998   0.194  1.00  0.00     0.189 HD
ENDBRANCH   1   4
BRANCH   3  13
ATOM     13  C   UNL d   1      -1.564  -1.288  -0.010  0.00  0.00     0.009 A 
ATOM     14  C   UNL d   1      -2.377  -0.170  -0.034  0.00  0.00     0.102 A 
ATOM     15  N   UNL d   1      -1.585   0.944  -0.045  0.00  0.00    -0.364 N 
ATOM     16  C   UNL d   1      -0.258   0.583  -0.032  0.00  0.00     0.043 A 
ATOM     17  H   UNL d   1      -1.919   1.897  -0.057  0.00  0.00     0.165 HD
ATOM     18  C   UNL d   1      -0.211  -0.813  -0.016  0.00  0.00     0.004 A 
ATOM     19  C   UNL d   1       0.890   1.383  -0.031  0.00  0.00     0.030 A 
ATOM     20  C   UNL d   1       1.055  -1.437  -0.006  0.00  0.00     0.014 A 
ATOM     21  C   UNL d   1       2.214  -0.651  -0.008  0.00  0.00     0.001 A 
ATOM     22  C   UNL d   1       2.130   0.739  -0.019  0.00  0.00     0.002 A 
ENDBRANCH   3  13
TORSDOF 2
