REMARK  5 active torsions:
REMARK  status: ('A' for Active; 'I' for Inactive)
REMARK    1  A    between atoms: N_2  and  S_1 
REMARK    2  A    between atoms: C_6  and  S_1 
REMARK    3  A    between atoms: N_5  and  N_2 
REMARK    4  A    between atoms: C_3  and  C_4 
REMARK       I    between atoms: C_4  and  N_5 
REMARK    5  A    between atoms: N_13  and  C_9 
ROOT
ATOM      1  C   UNL d   1       0.182   2.925   2.370  0.00  0.00     0.272 C 
ATOM      2  N   UNL d   1       0.970   2.013   1.698  0.00  0.00    -0.256 N 
ATOM      3  O   UNL d   1      -0.876   3.351   1.912  0.00  0.00    -0.266 OA
ATOM      4  H   UNL d   1       1.771   1.565   2.151  0.00  0.00     0.191 HD
ENDROOT
BRANCH   2   5
ATOM      5  N   UNL d   1       0.506   1.483   0.420  0.00  0.00    -0.220 N 
ATOM      6  H   UNL d   1      -0.429   1.780   0.117  0.00  0.00     0.200 HD
BRANCH   5   7
ATOM      7  S   UNL d   1       1.053  -0.053  -0.022  0.00  0.00     0.276 S 
ATOM      8  O   UNL d   1       0.474  -0.999   0.913  0.00  0.00    -0.199 OA
ATOM      9  O   UNL d   1       2.489   0.029  -0.193  0.00  0.00    -0.199 OA
BRANCH   7  10
ATOM     10  C   UNL d   1       0.309  -0.334  -1.609  0.00  0.00     0.081 A 
ATOM     11  C   UNL d   1       1.030  -0.048  -2.771  0.00  0.00     0.026 A 
ATOM     12  C   UNL d   1       0.505  -0.403  -4.017  0.00  0.00     0.008 A 
ATOM     13  C   UNL d   1      -0.735  -1.051  -4.110  0.00  0.00    -0.062 A 
ATOM     14  C   UNL d   1      -1.449  -1.329  -2.937  0.00  0.00     0.008 A 
ATOM     15  C   UNL d   1      -1.267  -1.463  -5.452  0.00  0.00     0.048 C 
ATOM     16  C   UNL d   1      -0.930  -0.978  -1.688  0.00  0.00     0.026 A 
ENDBRANCH   7  10
ENDBRANCH   5   7
ENDBRANCH   2   5
BRANCH   1  17
ATOM     17  C   UNL d   1       0.653   3.322   3.732  0.00  0.00     0.054 A 
ATOM     18  C   UNL d   1       2.010   3.326   4.120  0.00  0.00     0.021 A 
ATOM     19  C   UNL d   1       2.316   3.570   5.469  0.00  0.00     0.024 A 
ATOM     20  C   UNL d   1       1.322   3.923   6.386  0.00  0.00     0.002 A 
ATOM     21  C   UNL d   1      -0.004   3.998   5.977  0.00  0.00     0.001 A 
ATOM     22  C   UNL d   1      -0.340   3.690   4.658  0.00  0.00     0.019 A 
BRANCH  18  23
ATOM     23  N   UNL d   1       3.058   2.923   3.263  0.00  0.00    -0.302 NA
ATOM     24  H   UNL d   1       2.943   3.276   2.311  0.00  0.00     0.124 HD
ATOM     25  H   UNL d   1       3.978   3.179   3.616  0.00  0.00     0.124 HD
ENDBRANCH  18  23
ENDBRANCH   1  17
TORSDOF 5
