REMARK  6 active torsions:
REMARK  status: ('A' for Active; 'I' for Inactive)
REMARK    1  A    between atoms: C_8  and  N_1 
REMARK    2  A    between atoms: S_11  and  C_2 
REMARK    3  A    between atoms: O_21  and  C_3 
REMARK    4  A    between atoms: C_18  and  S_11 
REMARK    5  A    between atoms: C_14  and  C_18 
REMARK    6  A    between atoms: C_17  and  C_14 
ROOT
ATOM      1  N   UNL d   1       7.776   6.465  -2.062  0.00  0.00    -0.191 NA
ATOM      2  C   UNL d   1       7.094   5.532  -2.004  0.00  0.00     0.099 C 
ATOM      3  C   UNL d   1       4.510   2.166  -1.826  0.00  0.00     0.011 A 
ATOM      4  C   UNL d   1       4.664   2.901  -3.012  0.00  0.00     0.017 A 
ATOM      5  C   UNL d   1       5.246   2.545  -0.689  0.00  0.00     0.017 A 
ATOM      6  C   UNL d   1       6.236   4.384  -1.943  0.00  0.00     0.044 A 
ATOM      7  C   UNL d   1       6.101   3.656  -0.752  0.00  0.00     0.023 A 
ATOM      8  C   UNL d   1       5.516   3.998  -3.075  0.00  0.00     0.023 A 
ENDROOT
BRANCH   3   9
ATOM      9  C   UNL d   1       3.550   1.025  -1.864  0.00  0.00     0.169 C 
ATOM     10  O   UNL d   1       2.762   0.994  -2.810  0.00  0.00    -0.291 OA
BRANCH   9  11
ATOM     11  C   UNL d   1       3.651  -0.071  -0.823  0.00  0.00     0.166 C 
BRANCH  11  12
ATOM     12  S   UNL d   1       2.387  -1.372  -1.118  0.00  0.00    -0.084 SA
BRANCH  12  13
ATOM     13  C   UNL d   1       0.999  -0.629  -0.378  0.00  0.00     0.169 A 
ATOM     14  N   UNL d   1      -0.192  -1.258  -0.023  0.00  0.00    -0.254 N 
ATOM     15  C   UNL d   1      -0.998  -0.177   0.349  0.00  0.00     0.245 A 
ATOM     16  N   UNL d   1      -0.337   0.952   0.267  0.00  0.00    -0.263 N 
ATOM     17  N   UNL d   1       0.926   0.665  -0.157  0.00  0.00    -0.276 N 
ATOM     18  HN  UNL d   1      -0.703   1.879   0.483  1.00  0.00     0.190 HD
ATOM     19  HN  UNL d   1       1.683   1.338  -0.281  1.00  0.00     0.189 HD
BRANCH  14  20
ATOM     20  C   UNL d   1      -0.537  -2.650   0.087  0.00  0.00     0.057 A 
ATOM     21  C   UNL d   1       0.339  -3.571   0.725  0.00  0.00    -0.034 A 
ATOM     22  C   UNL d   1      -0.070  -4.910   0.899  0.00  0.00     0.015 A 
ATOM     23  C   UNL d   1       1.692  -3.278   1.321  0.00  0.00     0.050 C 
ATOM     24  C   UNL d   1      -1.347  -5.345   0.558  0.00  0.00    -0.061 A 
ATOM     25  C   UNL d   1      -2.206  -4.444  -0.062  0.00  0.00     0.015 A 
ATOM     26  C   UNL d   1      -1.760  -6.756   0.852  0.00  0.00     0.048 C 
ATOM     27  C   UNL d   1      -1.815  -3.115  -0.343  0.00  0.00    -0.034 A 
ATOM     28  C   UNL d   1      -2.833  -2.326  -1.137  0.00  0.00     0.050 C 
ENDBRANCH  14  20
BRANCH  15  29
ATOM     29  O   UNL d   1      -2.228  -0.220   0.845  0.00  0.00    -0.331 OA
ATOM     30  H   UNL d   1      -2.429  -1.132   1.101  0.00  0.00     0.221 HD
ENDBRANCH  15  29
ENDBRANCH  12  13
ENDBRANCH  11  12
ENDBRANCH   9  11
ENDBRANCH   3   9
TORSDOF 6
