REMARK  2 active torsions:
REMARK  status: ('A' for Active; 'I' for Inactive)
REMARK    1  A    between atoms: C_10  and  C_3 
REMARK    2  A    between atoms: O_13  and  C_6 
ROOT
ATOM      1  N   UNL d   1      -0.703   1.256  -0.035  0.00  0.00    -0.319 N 
ATOM      2  HN  UNL d   1      -1.197   2.149  -0.060  1.00  0.00     0.169 HD
ATOM      3  C   UNL d   1      -1.346   0.069   0.003  0.00  0.00     0.149 A 
ATOM      4  N   UNL d   1      -0.702  -1.127   0.035  0.00  0.00    -0.283 N 
ATOM      5  HN  UNL d   1      -1.238  -1.994   0.062  1.00  0.00     0.188 HD
ATOM      6  C   UNL d   1       0.632   1.169  -0.037  0.00  0.00     0.165 A 
ATOM      7  N   UNL d   1       0.663  -1.169   0.032  0.00  0.00    -0.299 N 
ATOM      8  HN  UNL d   1       1.157  -2.062   0.057  1.00  0.00     0.186 HD
ATOM      9  C   UNL d   1       1.343  -0.010  -0.004  0.00  0.00     0.072 A 
ATOM     10  C   UNL d   1       2.833  -0.055  -0.002  0.00  0.00     0.074 C 
ENDROOT
BRANCH   3  11
ATOM     11  C   UNL d   1      -2.828   0.049   0.012  0.00  0.00     0.078 A 
ATOM     12  N   UNL d   1      -3.474   1.252  -0.005  0.00  0.00    -0.363 N 
ATOM     13  C   UNL d   1      -4.825   1.252   0.005  0.00  0.00     0.088 A 
ATOM     14  HN  UNL d   1      -2.950   2.127  -0.025  1.00  0.00     0.165 HD
ATOM     15  C   UNL d   1      -5.596   0.104   0.031  0.00  0.00     0.017 A 
ATOM     16  C   UNL d   1      -4.943  -1.120   0.047  0.00  0.00     0.004 A 
ATOM     17  C   UNL d   1      -3.550  -1.150   0.038  0.00  0.00     0.033 A 
ENDBRANCH   3  11
BRANCH   6  18
ATOM     18  O   UNL d   1       1.247   2.380  -0.074  0.00  0.00    -0.345 OA
ATOM     19  H   UNL d   1       0.469   2.968  -0.089  0.00  0.00     0.219 HD
ENDBRANCH   6  18
TORSDOF 2
