REMARK  3 active torsions:
REMARK  status: ('A' for Active; 'I' for Inactive)
REMARK    1  A    between atoms: N_14  and  C_9 
REMARK    2  A    between atoms: N_11  and  N_14 
REMARK    3  A    between atoms: C_21  and  C_16 
ROOT
ATOM      1  C   UNL d   1      -0.451   1.022  -0.021  0.00  0.00     0.160 A 
ATOM      2  C   UNL d   1      -0.921  -0.254  -0.003  0.00  0.00     0.164 A 
ATOM      3  N   UNL d   1      -1.452   1.930  -0.023  0.00  0.00    -0.172 N 
ATOM      4  HN  UNL d   1      -1.363   2.946  -0.063  1.00  0.00     0.186 HD
ATOM      5  N   UNL d   1       0.891   1.313  -0.014  0.00  0.00    -0.287 N 
ATOM      6  N   UNL d   1       1.303  -1.039   0.007  0.00  0.00    -0.269 N 
ATOM      7  C   UNL d   1       1.816   0.270   0.002  0.00  0.00     0.332 A 
ATOM      8  C   UNL d   1      -0.055  -1.385   0.011  0.00  0.00     0.282 A 
ATOM      9  C   UNL d   1      -2.568   1.231   0.038  0.00  0.00     0.701 A 
ATOM     10  N   UNL d   1      -2.287  -0.126   0.013  0.00  0.00    -0.177 N 
ATOM     11  O   UNL d   1       3.030   0.494   0.013  0.00  0.00    -0.246 OA
ATOM     12  O   UNL d   1      -0.456  -2.544   0.030  0.00  0.00    -0.265 OA
ATOM     13  C   UNL d   1       1.374   2.680  -0.004  0.00  0.00     0.163 C 
ATOM     14  C   UNL d   1       2.238  -2.145   0.022  0.00  0.00     0.164 C 
ATOM     15  C   UNL d   1      -3.264  -1.187   0.037  0.00  0.00     0.176 C 
ENDROOT
BRANCH   9  16
ATOM     16  N   UNL d   1      -3.843   1.703   0.138  0.00  0.00    -0.132 N 
ATOM     17  H   UNL d   1      -4.607   1.062  -0.064  0.00  0.00     0.205 HD
BRANCH  16  18
ATOM     18  N   UNL d   1      -4.214   3.018   0.009  0.00  0.00    -0.295 N 
ATOM     19  C   UNL d   1      -3.444   3.902   0.572  0.00  0.00     0.137 C 
ATOM     20  HN  UNL d   1      -5.053   3.290  -0.504  1.00  0.00     0.186 HD
BRANCH  19  21
ATOM     21  C   UNL d   1      -3.676   5.353   0.442  0.00  0.00     0.049 A 
ATOM     22  N   UNL d   1      -2.748   6.140   1.043  0.00  0.00    -0.365 N 
ATOM     23  C   UNL d   1      -2.917   7.472   0.916  0.00  0.00     0.088 A 
ATOM     24  HN  UNL d   1      -1.964   5.745   1.563  1.00  0.00     0.165 HD
ATOM     25  C   UNL d   1      -3.973   8.053   0.229  0.00  0.00     0.017 A 
ATOM     26  C   UNL d   1      -4.914   7.219  -0.368  0.00  0.00     0.004 A 
ATOM     27  C   UNL d   1      -4.767   5.840  -0.265  0.00  0.00     0.031 A 
ENDBRANCH  19  21
ENDBRANCH  16  18
ENDBRANCH   9  16
TORSDOF 3
