REMARK  2 active torsions:
REMARK  status: ('A' for Active; 'I' for Inactive)
REMARK       I    between atoms: C_4  and  N_1 
REMARK    1  A    between atoms: C_14  and  C_4 
REMARK    2  A    between atoms: O_25  and  C_22 
ROOT
ATOM      1  N   UNL d   1       0.939  -0.526  -0.155  0.00  0.00    -0.219 N 
ATOM      2  C   UNL d   1      -0.400  -0.890  -0.076  0.00  0.00     0.078 A 
ATOM      3  C   UNL d   1      -0.928  -2.176   0.294  0.00  0.00     0.034 C 
ATOM      4  C   UNL d   1       2.102  -1.327  -0.155  0.00  0.00     0.277 C 
ATOM      5  S   UNL d   1      -2.453  -2.690  -0.293  0.00  0.00    -0.087 SA
ATOM      6  C   UNL d   1      -2.536  -3.996   0.813  0.00  0.00     0.022 C 
ATOM      7  N   UNL d   1       1.079   0.833  -0.272  0.00  0.00    -0.302 N 
ATOM      8  HN  UNL d   1       1.943   1.374  -0.263  1.00  0.00     0.186 HD
ATOM      9  C   UNL d   1      -3.768  -4.726   0.994  0.00  0.00     0.021 A 
ATOM     10  C   UNL d   1      -0.412  -3.098   1.186  0.00  0.00     0.023 C 
ATOM     11  C   UNL d   1      -1.337  -4.147   1.482  0.00  0.00     0.021 C 
ATOM     12  C   UNL d   1      -1.118   0.273  -0.297  0.00  0.00     0.051 A 
ATOM     13  S   UNL d   1      -4.210  -5.360   2.528  0.00  0.00    -0.101 SA
ATOM     14  C   UNL d   1      -0.165   1.289  -0.399  0.00  0.00     0.110 A 
ATOM     15  O   UNL d   1       1.995  -2.505  -0.502  0.00  0.00    -0.265 OA
ATOM     16  C   UNL d   1      -4.766  -4.950   0.062  0.00  0.00     0.021 A 
ATOM     17  C   UNL d   1      -5.755  -5.829   1.969  0.00  0.00     0.050 A 
ATOM     18  C   UNL d   1      -5.919  -5.568   0.629  0.00  0.00     0.008 A 
ENDROOT
BRANCH   4  19
ATOM     19  C   UNL d   1       3.442  -0.836   0.259  0.00  0.00     0.034 A 
ATOM     20  C   UNL d   1       3.568   0.116   1.278  0.00  0.00     0.020 A 
ATOM     21  C   UNL d   1       4.832   0.518   1.716  0.00  0.00     0.038 A 
ATOM     22  C   UNL d   1       5.977  -0.031   1.142  0.00  0.00     0.068 A 
ATOM     23  C   UNL d   1       5.853  -1.005   0.147  0.00  0.00     0.038 A 
ATOM     24  C   UNL d   1       4.590  -1.410  -0.296  0.00  0.00     0.020 A 
BRANCH  22  25
ATOM     25  O   UNL d   1       7.261   0.279   1.497  0.00  0.00    -0.356 OA
ATOM     26  C   UNL d   1       7.438   1.540   2.135  0.00  0.00     0.210 C 
ENDBRANCH  22  25
ENDBRANCH   4  19
TORSDOF 2
