REMARK  0 active torsions:
REMARK  status: ('A' for Active; 'I' for Inactive)
ROOT
ATOM      1  C   UNL d   1       2.564   1.680  -1.207  0.00  0.00     0.021 C 
ATOM      2  C   UNL d   1       1.250   2.342  -0.751  0.00  0.00     0.006 C 
ATOM      3  C   UNL d   1      -1.782  -0.689   0.065  0.00  0.00    -0.072 C 
ATOM      4  C   UNL d   1       0.187   1.284  -0.534  0.00  0.00    -0.004 C 
ATOM      5  C   UNL d   1       0.639   0.118   0.394  0.00  0.00    -0.002 C 
ATOM      6  C   UNL d   1      -0.298  -1.067   0.026  0.00  0.00     0.019 C 
ATOM      7  C   UNL d   1      -2.734  -1.633   0.182  0.00  0.00     0.053 C 
ATOM      8  C   UNL d   1       3.294   2.933  -1.634  0.00  0.00     0.135 C 
ATOM      9  C   UNL d   1       3.103   0.906  -0.013  0.00  0.00     0.018 C 
ATOM     10  C   UNL d   1       2.148  -0.250   0.342  0.00  0.00     0.007 C 
ATOM     11  C   UNL d   1      -1.128   1.809   0.041  0.00  0.00     0.010 C 
ATOM     12  C   UNL d   1       0.955   3.381  -1.837  0.00  0.00     0.013 C 
ATOM     13  C   UNL d   1      -0.062  -2.342   0.847  0.00  0.00     0.017 C 
ATOM     14  C   UNL d   1      -2.213   0.750  -0.158  0.00  0.00     0.035 C 
ATOM     15  C   UNL d   1      -2.390  -3.074   0.248  0.00  0.00     0.149 C 
ATOM     16  C   UNL d   1       2.327   3.965  -2.194  0.00  0.00     0.079 C 
ATOM     17  O   UNL d   1       4.504   3.079  -1.603  0.00  0.00    -0.297 OA
ATOM     18  O   UNL d   1      -3.291  -3.908   0.185  0.00  0.00    -0.293 OA
ATOM     19  C   UNL d   1      -0.933  -3.470   0.299  0.00  0.00     0.084 C 
ATOM     20  C   UNL d   1       2.484   0.785  -2.463  0.00  0.00     0.024 C 
ENDROOT
TORSDOF 0
