REMARK  4 active torsions:
REMARK  status: ('A' for Active; 'I' for Inactive)
REMARK    1  A    between atoms: C_2  and  C_1 
REMARK    2  A    between atoms: C_7  and  C_2 
REMARK    3  A    between atoms: N_8  and  C_5 
REMARK    4  A    between atoms: C_9  and  N_8 
ROOT
ATOM      1  N   UNL d   1       0.945   3.562  -2.170  0.00  0.00    -0.196 NA
ATOM      2  C   UNL d   1       1.761   2.759  -1.989  0.00  0.00     0.078 C 
ATOM      3  C   UNL d   1       2.800   1.730  -1.791  0.00  0.00     0.243 C 
ENDROOT
BRANCH   3   4
ATOM      4  N   UNL d   1       2.867   1.246  -0.406  0.00  0.00    -0.381 N 
ATOM      5  H   UNL d   1       3.821   1.307  -0.049  0.00  0.00     0.160 HD
BRANCH   4   6
ATOM      6  C   UNL d   1       2.242   0.067   0.018  0.00  0.00     0.005 C 
ATOM      7  C   UNL d   1       0.897  -0.045   0.037  0.00  0.00     0.079 C 
ATOM      8  C   UNL d   1       3.204  -1.012   0.470  0.00  0.00     0.068 C 
BRANCH   7   9
ATOM      9  C   UNL d   1       0.118  -1.190   0.595  0.00  0.00     0.183 C 
ATOM     10  O   UNL d   1       0.580  -1.944   1.443  0.00  0.00    -0.288 OA
BRANCH   9  11
ATOM     11  C   UNL d   1      -1.297  -1.365   0.160  0.00  0.00     0.014 A 
ATOM     12  C   UNL d   1      -1.788  -0.873  -1.056  0.00  0.00     0.015 A 
ATOM     13  C   UNL d   1      -3.116  -1.117  -1.424  0.00  0.00     0.001 A 
ATOM     14  C   UNL d   1      -3.954  -1.855  -0.588  0.00  0.00     0.000 A 
ATOM     15  C   UNL d   1      -3.473  -2.345   0.624  0.00  0.00     0.001 A 
ATOM     16  C   UNL d   1      -2.150  -2.103   0.995  0.00  0.00     0.015 A 
ENDBRANCH   9  11
ENDBRANCH   7   9
ENDBRANCH   4   6
ENDBRANCH   3   4
TORSDOF 4
