REMARK  6 active torsions:
REMARK  status: ('A' for Active; 'I' for Inactive)
REMARK    1  A    between atoms: N_3  and  C_1 
REMARK       I    between atoms: C_2  and  N_3 
REMARK    2  A    between atoms: C_6  and  C_2 
REMARK    3  A    between atoms: C_9  and  C_7 
REMARK    4  A    between atoms: C_11  and  C_9 
REMARK    5  A    between atoms: O_16  and  C_11 
REMARK    6  A    between atoms: C_19  and  O_16 
ROOT
ATOM      1  C   UNL d   1       0.338  -1.120  -0.130  0.00  0.00     0.151 A 
ATOM      2  N   UNL d   1       1.483  -0.500  -0.253  0.00  0.00    -0.339 N 
ATOM      3  HN  UNL d   1       2.381  -0.956  -0.409  1.00  0.00     0.168 HD
ATOM      4  C   UNL d   1       1.295   0.871  -0.140  0.00  0.00     0.027 A 
ATOM      5  S   UNL d   1      -1.036  -0.134   0.092  0.00  0.00    -0.064 SA
ATOM      6  C   UNL d   1      -0.031   1.253  -0.018  0.00  0.00     0.078 A 
ENDROOT
BRANCH   1   7
ATOM      7  N   UNL d   1       0.074  -2.464  -0.133  0.00  0.00    -0.303 N 
ATOM      8  C   UNL d   1       1.031  -3.392  -0.474  0.00  0.00     0.260 C 
ATOM      9  O   UNL d   1       2.148  -3.140  -0.915  0.00  0.00    -0.267 OA
ATOM     10  H   UNL d   1      -0.864  -2.742   0.122  0.00  0.00     0.171 HD
BRANCH   8  11
ATOM     11  C   UNL d   1       0.659  -4.830  -0.317  0.00  0.00     0.070 A 
ATOM     12  C   UNL d   1      -0.545  -5.260   0.245  0.00  0.00     0.132 A 
ATOM     13  F   UNL d   1      -1.476  -4.378   0.642  0.00  0.00    -0.205 F 
ATOM     14  C   UNL d   1      -0.817  -6.620   0.412  0.00  0.00     0.043 A 
ATOM     15  C   UNL d   1       0.119  -7.572   0.010  0.00  0.00     0.003 A 
ATOM     16  C   UNL d   1       1.318  -7.163  -0.568  0.00  0.00     0.001 A 
ATOM     17  C   UNL d   1       1.587  -5.802  -0.731  0.00  0.00     0.020 A 
ENDBRANCH   8  11
ENDBRANCH   1   7
BRANCH   4  18
ATOM     18  C   UNL d   1       2.497   1.760  -0.188  0.00  0.00     0.168 C 
BRANCH  18  19
ATOM     19  C   UNL d   1       2.641   2.618   1.050  0.00  0.00     0.264 C 
ATOM     20  O   UNL d   1       1.807   2.752   1.938  0.00  0.00    -0.265 OA
BRANCH  19  21
ATOM     21  O   UNL d   1       3.838   3.277   1.016  0.00  0.00    -0.322 OA
BRANCH  21  22
ATOM     22  C   UNL d   1       4.098   4.152   2.126  0.00  0.00     0.174 C 
ATOM     23  C   UNL d   1       4.676   3.370   3.291  0.00  0.00     0.034 C 
ENDBRANCH  21  22
ENDBRANCH  19  21
ENDBRANCH  18  19
ENDBRANCH   4  18
TORSDOF 6
