REMARK  5 active torsions:
REMARK  status: ('A' for Active; 'I' for Inactive)
REMARK    1  A    between atoms: C_2  and  C_1 
REMARK    2  A    between atoms: C_7  and  C_5 
REMARK    3  A    between atoms: C_15  and  C_8 
REMARK    4  A    between atoms: O_16  and  C_13 
REMARK    5  A    between atoms: C_22  and  O_16 
ROOT
ATOM      1  C   UNL d   1      -0.123   2.458   0.002  0.00  0.00     0.046 A 
ATOM      2  C   UNL d   1      -0.682   3.176   1.071  0.00  0.00     0.067 A 
ATOM      3  C   UNL d   1       0.503   3.195  -1.004  0.00  0.00     0.106 A 
ATOM      4  N   UNL d   1       0.583   4.544  -1.039  0.00  0.00    -0.346 N 
ATOM      5  HN  UNL d   1       1.036   5.033  -1.812  1.00  0.00     0.167 HD
ATOM      6  C   UNL d   1       0.036   5.211  -0.007  0.00  0.00     0.148 A 
ATOM      7  C   UNL d   1      -0.622   4.584   1.038  0.00  0.00     0.073 A 
ENDROOT
BRANCH   1   8
ATOM      8  C   UNL d   1      -0.121   1.013  -0.140  0.00  0.00     0.160 A 
ATOM      9  N   UNL d   1       0.843   0.239  -0.590  0.00  0.00    -0.343 N 
ATOM     10  C   UNL d   1       0.275  -1.008  -0.610  0.00  0.00     0.128 A 
ATOM     11  HN  UNL d   1       1.790   0.505  -0.860  1.00  0.00     0.167 HD
ATOM     12  C   UNL d   1      -1.037  -0.946  -0.192  0.00  0.00     0.103 A 
ATOM     13  O   UNL d   1      -1.302   0.370   0.101  0.00  0.00    -0.291 OA
BRANCH  12  14
ATOM     14  C   UNL d   1      -2.122  -1.902  -0.034  0.00  0.00    -0.001 A 
ATOM     15  C   UNL d   1      -3.345  -1.531   0.547  0.00  0.00     0.016 A 
ATOM     16  C   UNL d   1      -4.385  -2.457   0.683  0.00  0.00     0.024 A 
ATOM     17  C   UNL d   1      -4.211  -3.763   0.240  0.00  0.00     0.034 A 
ATOM     18  C   UNL d   1      -3.003  -4.155  -0.334  0.00  0.00     0.024 A 
ATOM     19 CL   UNL d   1      -5.490  -4.902   0.396  0.00  0.00    -0.084 Cl
ATOM     20  C   UNL d   1      -1.965  -3.229  -0.467  0.00  0.00     0.016 A 
ENDBRANCH  12  14
ENDBRANCH   1   8
BRANCH   2  21
ATOM     21  C   UNL d   1      -1.327   2.538   2.273  0.00  0.00     0.418 C 
ATOM     22  F   UNL d   1      -1.027   1.229   2.477  0.00  0.00    -0.166 F 
ATOM     23  F   UNL d   1      -0.958   3.164   3.429  0.00  0.00    -0.166 F 
ATOM     24  F   UNL d   1      -2.685   2.619   2.233  0.00  0.00    -0.166 F 
ENDBRANCH   2  21
BRANCH   6  25
ATOM     25  O   UNL d   1       0.102   6.595   0.029  0.00  0.00    -0.294 OA
BRANCH  25  26
ATOM     26  C   UNL d   1       1.240   7.193  -0.468  0.00  0.00     0.077 A 
ATOM     27  C   UNL d   1       1.069   8.426  -1.103  0.00  0.00     0.039 A 
ATOM     28  C   UNL d   1       2.179   9.118  -1.596  0.00  0.00     0.026 A 
ATOM     29  C   UNL d   1       3.455   8.579  -1.444  0.00  0.00     0.034 A 
ATOM     30  C   UNL d   1       3.634   7.361  -0.792  0.00  0.00     0.026 A 
ATOM     31 CL   UNL d   1       4.822   9.428  -2.054  0.00  0.00    -0.084 Cl
ATOM     32  C   UNL d   1       2.527   6.674  -0.291  0.00  0.00     0.039 A 
ENDBRANCH  25  26
ENDBRANCH   6  25
TORSDOF 5
