REMARK  0 active torsions:
REMARK  status: ('A' for Active; 'I' for Inactive)
ROOT
ATOM      1  C   UNL d   1      -1.692   0.679   1.422  0.00  0.00     0.056 C 
ATOM      2  N   UNL d   1      -0.564   1.413   1.695  0.00  0.00    -0.356 N 
ATOM      3  C   UNL d   1      -1.273  -0.550   0.938  0.00  0.00    -0.019 C 
ATOM      4  C   UNL d   1       0.138  -0.498   0.772  0.00  0.00    -0.001 A 
ATOM      5  C   UNL d   1       0.543   0.776   1.172  0.00  0.00     0.043 A 
ATOM      6  C   UNL d   1      -3.116   1.187   1.433  0.00  0.00     0.203 C 
ATOM      7  N   UNL d   1      -3.835   0.421   0.371  0.00  0.00     0.099 N 
ATOM      8  N   UNL d   1      -5.188   3.088   2.404  0.00  0.00     0.083 N 
ATOM      9  C   UNL d   1      -3.825   1.038   2.796  0.00  0.00     0.078 C 
ATOM     10  C   UNL d   1      -3.140   2.697   1.073  0.00  0.00     0.078 C 
ATOM     11  C   UNL d   1      -2.243  -1.571   0.445  0.00  0.00     0.071 C 
ATOM     12  C   UNL d   1      -3.694  -1.047   0.528  0.00  0.00     0.275 C 
ATOM     13  C   UNL d   1       1.094  -1.369   0.219  0.00  0.00     0.014 A 
ATOM     14  C   UNL d   1      -5.224   1.661   2.754  0.00  0.00     0.272 C 
ATOM     15  C   UNL d   1      -4.547   3.283   1.104  0.00  0.00     0.272 C 
ATOM     16  C   UNL d   1       1.850   1.244   0.990  0.00  0.00     0.030 A 
ATOM     17  C   UNL d   1       2.403  -0.914   0.019  0.00  0.00     0.001 A 
ATOM     18  C   UNL d   1       2.765   0.379   0.385  0.00  0.00     0.002 A 
ATOM     19  H   UNL d   1      -0.548   2.359   2.047  0.00  0.00     0.166 HD
ATOM     20  H   UNL d   1      -3.404   0.672  -0.521  0.00  0.00     0.317 HD
ATOM     21  H   UNL d   1      -4.665   3.592   3.122  0.00  0.00     0.315 HD
ENDROOT
TORSDOF 0
