REMARK  4 active torsions:
REMARK  status: ('A' for Active; 'I' for Inactive)
REMARK    1  A    between atoms: C_6  and  C_1 
REMARK    2  A    between atoms: O_11  and  C_6 
REMARK    3  A    between atoms: C_21  and  O_11 
REMARK    4  A    between atoms: C_13  and  C_14 
ROOT
ATOM      1  C   UNL d   1      -4.428   2.374  -0.291  0.00  0.00     0.085 A 
ATOM      2  C   UNL d   1      -4.891   2.156   1.059  0.00  0.00     0.062 A 
ATOM      3  C   UNL d   1      -6.063   1.411   0.950  0.00  0.00     0.132 A 
ATOM      4  C   UNL d   1      -5.436   1.857  -1.101  0.00  0.00     0.067 A 
ATOM      5  O   UNL d   1      -6.393   1.244  -0.353  0.00  0.00    -0.310 OA
ATOM      6  C   UNL d   1      -4.475   2.483   2.366  0.00  0.00     0.172 A 
ATOM      7  C   UNL d   1      -6.799   0.928   2.034  0.00  0.00     0.192 A 
ATOM      8  C   UNL d   1      -5.214   2.037   3.471  0.00  0.00     0.197 A 
ATOM      9  C   UNL d   1      -6.345   1.255   3.305  0.00  0.00     0.199 A 
ATOM     10  F   UNL d   1      -3.401   3.254   2.572  0.00  0.00    -0.202 F 
ATOM     11  F   UNL d   1      -7.898   0.187   1.864  0.00  0.00    -0.200 F 
ATOM     12  F   UNL d   1      -4.818   2.376   4.707  0.00  0.00    -0.199 F 
ATOM     13  F   UNL d   1      -7.022   0.823   4.381  0.00  0.00    -0.199 F 
ATOM     14  C   UNL d   1      -5.702   1.827  -2.558  0.00  0.00     0.078 C 
ENDROOT
BRANCH   1  15
ATOM     15  C   UNL d   1      -3.195   2.981  -0.798  0.00  0.00     0.302 C 
ATOM     16  O   UNL d   1      -2.987   3.160  -1.993  0.00  0.00    -0.259 OA
BRANCH  15  17
ATOM     17  O   UNL d   1      -2.273   3.275   0.208  0.00  0.00    -0.275 OA
BRANCH  17  18
ATOM     18  C   UNL d   1      -0.916   3.595  -0.055  0.00  0.00     0.079 A 
ATOM     19  C   UNL d   1      -0.291   4.427   0.868  0.00  0.00     0.038 A 
ATOM     20  C   UNL d   1       1.092   4.642   0.791  0.00  0.00     0.011 A 
ATOM     21  C   UNL d   1       1.885   4.014  -0.191  0.00  0.00    -0.050 A 
ATOM     22  C   UNL d   1       1.213   3.228  -1.145  0.00  0.00     0.011 A 
ATOM     23  C   UNL d   1      -0.174   3.008  -1.075  0.00  0.00     0.038 A 
BRANCH  21  24
ATOM     24  C   UNL d   1       3.423   4.133  -0.139  0.00  0.00    -0.024 C 
ATOM     25  C   UNL d   1       4.154   3.313  -1.228  0.00  0.00     0.019 C 
ATOM     26  C   UNL d   1       3.869   5.603  -0.299  0.00  0.00     0.019 C 
ATOM     27  C   UNL d   1       3.925   3.606   1.226  0.00  0.00     0.019 C 
ENDBRANCH  21  24
ENDBRANCH  17  18
ENDBRANCH  15  17
ENDBRANCH   1  15
TORSDOF 4
