REMARK  5 active torsions:
REMARK  status: ('A' for Active; 'I' for Inactive)
REMARK    1  A    between atoms: N_7  and  C_2 
REMARK       I    between atoms: C_11  and  N_7 
REMARK    2  A    between atoms: C_15  and  C_11 
REMARK    3  A    between atoms: C_16  and  C_15 
REMARK    4  A    between atoms: C_18  and  C_16 
REMARK    5  A    between atoms: C_17  and  C_18 
ROOT
ATOM      1  C   UNL d   1      -1.048  -0.564  -0.245  0.00  0.00     0.058 A 
ATOM      2  C   UNL d   1      -3.135  -1.070  -0.011  0.00  0.00     0.152 A 
ATOM      3  C   UNL d   1      -1.511   0.653   0.182  0.00  0.00     0.018 A 
ATOM      4  N   UNL d   1      -1.954  -1.578  -0.329  0.00  0.00    -0.335 N 
ATOM      5  HN  UNL d   1      -1.760  -2.545  -0.588  1.00  0.00     0.168 HD
ATOM      6  S   UNL d   1      -3.155   0.598   0.463  0.00  0.00    -0.056 SA
ATOM      7  C   UNL d   1       0.359  -0.432  -0.495  0.00  0.00    -0.002 A 
ATOM      8  C   UNL d   1       0.738   0.907  -0.191  0.00  0.00    -0.041 A 
ATOM      9  C   UNL d   1      -0.470   1.709   0.283  0.00  0.00     0.088 A 
ATOM     10  C   UNL d   1       1.269  -1.357  -0.960  0.00  0.00     0.014 A 
ATOM     11  C   UNL d   1       2.048   1.324  -0.341  0.00  0.00     0.008 A 
ATOM     12  C   UNL d   1       2.594  -0.933  -1.115  0.00  0.00     0.001 A 
ATOM     13  C   UNL d   1       2.978   0.389  -0.806  0.00  0.00     0.001 A 
ENDROOT
BRANCH   2  14
ATOM     14  N   UNL d   1      -4.274  -1.843   0.001  0.00  0.00    -0.307 N 
ATOM     15  C   UNL d   1      -5.568  -1.383   0.048  0.00  0.00     0.223 C 
ATOM     16  O   UNL d   1      -5.933  -0.209   0.035  0.00  0.00    -0.273 OA
ATOM     17  H   UNL d   1      -4.094  -2.820  -0.183  0.00  0.00     0.171 HD
BRANCH  15  18
ATOM     18  C   UNL d   1      -6.616  -2.485   0.066  0.00  0.00     0.103 C 
BRANCH  18  19
ATOM     19  C   UNL d   1      -6.536  -3.410   1.278  0.00  0.00     0.009 C 
BRANCH  19  20
ATOM     20  C   UNL d   1      -6.699  -2.670   2.608  0.00  0.00     0.000 C 
BRANCH  20  21
ATOM     21  C   UNL d   1      -6.595  -3.638   3.788  0.00  0.00    -0.005 C 
ATOM     22  C   UNL d   1      -6.715  -2.915   5.120  0.00  0.00     0.005 C 
ENDBRANCH  20  21
ENDBRANCH  19  20
ENDBRANCH  18  19
ENDBRANCH  15  18
ENDBRANCH   2  14
TORSDOF 5
