REMARK  5 active torsions:
REMARK  status: ('A' for Active; 'I' for Inactive)
REMARK    1  A    between atoms: C_3  and  N_1 
REMARK    2  A    between atoms: N_4  and  C_2 
REMARK       I    between atoms: C_5  and  N_4 
REMARK    3  A    between atoms: C_14  and  C_5 
REMARK    4  A    between atoms: C_10  and  N_11 
REMARK    5  A    between atoms: N_11  and  C_14 
ROOT
ATOM      1  N   UNL d   1      -1.507   1.676  -2.666  0.00  0.00    -0.324 N 
ATOM      2  C   UNL d   1      -0.147   1.471  -2.459  0.00  0.00     0.250 C 
ATOM      3  O   UNL d   1       0.340   0.553  -1.813  0.00  0.00    -0.271 OA
ATOM      4  H   UNL d   1      -1.754   2.081  -3.560  0.00  0.00     0.169 HD
ENDROOT
BRANCH   1   5
ATOM      5  C   UNL d   1      -2.451   0.793  -2.107  0.00  0.00     0.061 A 
ATOM      6  C   UNL d   1      -3.291   0.015  -2.943  0.00  0.00     0.057 A 
ATOM      7  C   UNL d   1      -4.244  -0.786  -2.284  0.00  0.00     0.031 A 
ATOM      8  C   UNL d   1      -4.418  -0.751  -0.894  0.00  0.00     0.002 A 
ATOM      9  C   UNL d   1      -3.626   0.076  -0.111  0.00  0.00     0.002 A 
ATOM     10  C   UNL d   1      -2.622   0.825  -0.716  0.00  0.00     0.032 A 
BRANCH   6  11
ATOM     11  N   UNL d   1      -3.225   0.087  -4.335  0.00  0.00    -0.375 N 
ATOM     12  C   UNL d   1      -4.366  -0.394  -5.139  0.00  0.00     0.149 C 
ATOM     13  C   UNL d   1      -4.343   0.330  -6.494  0.00  0.00     0.187 C 
ATOM     14  O   UNL d   1      -3.101   0.119  -7.190  0.00  0.00    -0.388 OA
ATOM     15  C   UNL d   1      -1.990   0.555  -6.387  0.00  0.00     0.187 C 
ATOM     16  C   UNL d   1      -1.948  -0.184  -5.035  0.00  0.00     0.149 C 
ENDBRANCH   6  11
ENDBRANCH   1   5
BRANCH   2  17
ATOM     17  C   UNL d   1       0.751   2.479  -3.200  0.00  0.00     0.372 C 
BRANCH  17  18
ATOM     18  N   UNL d   1       0.278   3.873  -3.061  0.00  0.00     0.097 N 
ATOM     19  H   UNL d   1       0.954   4.494  -3.506  0.00  0.00     0.317 HD
BRANCH  18  20
ATOM     20  C   UNL d   1       0.134   4.247  -1.647  0.00  0.00     0.229 C 
ATOM     21  C   UNL d   1       1.427   4.299  -0.792  0.00  0.00     0.075 C 
ATOM     22  C   UNL d   1       0.894   5.053   0.392  0.00  0.00    -0.050 A 
ATOM     23  C   UNL d   1       1.342   5.023   1.699  0.00  0.00     0.007 A 
ATOM     24  C   UNL d   1      -0.255   5.775   0.032  0.00  0.00    -0.050 A 
ATOM     25  C   UNL d   1       0.577   5.678   2.666  0.00  0.00     0.001 A 
ATOM     26  C   UNL d   1      -0.602   6.357   2.313  0.00  0.00     0.001 A 
ATOM     27  C   UNL d   1      -1.018   6.427   0.982  0.00  0.00     0.007 A 
ATOM     28  C   UNL d   1      -0.523   5.628  -1.437  0.00  0.00     0.075 C 
ENDBRANCH  18  20
ENDBRANCH  17  18
ENDBRANCH   2  17
TORSDOF 5
