REMARK  6 active torsions:
REMARK  status: ('A' for Active; 'I' for Inactive)
REMARK    1  A    between atoms: C_7  and  N_1 
REMARK    2  A    between atoms: N_6  and  C_9 
REMARK    3  A    between atoms: N_15  and  C_7 
REMARK    4  A    between atoms: C_18  and  N_15 
REMARK    5  A    between atoms: O_17  and  C_19 
REMARK    6  A    between atoms: C_20  and  O_17 
ROOT
ATOM      1  C   UNL d   1       3.413   1.601   1.419  0.00  0.00     0.230 C 
ENDROOT
BRANCH   1   2
ATOM      2  N   UNL d   1       2.345   0.711   1.802  0.00  0.00    -0.267 N 
ATOM      3  C   UNL d   1       2.239  -0.605   1.459  0.00  0.00     0.262 C 
ATOM      4  C   UNL d   1       1.145  -1.163   2.248  0.00  0.00     0.050 A 
ATOM      5  O   UNL d   1       2.905  -1.255   0.677  0.00  0.00    -0.267 OA
ATOM      6  C   UNL d   1       0.603  -2.433   2.231  0.00  0.00     0.054 A 
ATOM      7  C   UNL d   1       0.702  -0.173   3.100  0.00  0.00     0.048 A 
ATOM      8  C   UNL d   1      -0.438  -2.680   3.140  0.00  0.00     0.103 A 
ATOM      9  C   UNL d   1      -0.896  -1.672   4.028  0.00  0.00     0.037 A 
ATOM     10  C   UNL d   1      -0.314  -0.397   4.014  0.00  0.00     0.020 A 
ATOM     11  C   UNL d   1       1.517   1.019   2.853  0.00  0.00     0.262 C 
ATOM     12  O   UNL d   1       1.462   2.030   3.522  0.00  0.00    -0.267 OA
BRANCH   8  13
ATOM     13  N   UNL d   1      -1.061  -4.011   3.178  0.00  0.00    -0.116 N 
ATOM     14  O   UNL d   1      -0.637  -4.864   2.385  0.00  0.00    -0.532 OA
ATOM     15  O   UNL d   1      -1.968  -4.195   3.998  0.00  0.00    -0.532 OA
ENDBRANCH   8  13
ENDBRANCH   1   2
BRANCH   1  16
ATOM     16  N   UNL d   1       3.924   1.283   0.092  0.00  0.00    -0.276 NA
ATOM     17  H   UNL d   1       3.682   0.335  -0.199  0.00  0.00     0.129 HD
BRANCH  16  18
ATOM     18  C   UNL d   1       5.283   1.554  -0.137  0.00  0.00     0.009 A 
ATOM     19  C   UNL d   1       6.000   0.820  -1.094  0.00  0.00     0.026 A 
ATOM     20  C   UNL d   1       7.350   1.104  -1.361  0.00  0.00     0.039 A 
ATOM     21  C   UNL d   1       8.008   2.127  -0.672  0.00  0.00     0.076 A 
ATOM     22  C   UNL d   1       7.285   2.910   0.225  0.00  0.00     0.039 A 
ATOM     23  C   UNL d   1       5.944   2.631   0.470  0.00  0.00     0.026 A 
BRANCH  21  24
ATOM     24  O   UNL d   1       9.339   2.453  -0.842  0.00  0.00    -0.311 OA
BRANCH  24  25
ATOM     25  C   UNL d   1      10.251   1.438  -1.041  0.00  0.00     0.076 A 
ATOM     26  C   UNL d   1      11.404   1.739  -1.768  0.00  0.00     0.037 A 
ATOM     27  C   UNL d   1      12.328   0.726  -2.054  0.00  0.00     0.003 A 
ATOM     28  C   UNL d   1      12.103  -0.573  -1.595  0.00  0.00     0.000 A 
ATOM     29  C   UNL d   1      10.981  -0.860  -0.828  0.00  0.00     0.003 A 
ATOM     30  C   UNL d   1      10.073   0.148  -0.525  0.00  0.00     0.037 A 
ENDBRANCH  24  25
ENDBRANCH  21  24
ENDBRANCH  16  18
ENDBRANCH   1  16
TORSDOF 6
