REMARK  5 active torsions:
REMARK  status: ('A' for Active; 'I' for Inactive)
REMARK    1  A    between atoms: C_13  and  C_3 
REMARK    2  A    between atoms: C_14  and  N_6 
REMARK    3  A    between atoms: C_16  and  C_11 
REMARK    4  A    between atoms: C_19  and  C_13 
REMARK    5  A    between atoms: C_21  and  C_16 
ROOT
ATOM      1  N   UNL d   1      -0.321   0.589  -0.017  0.00  0.00    -0.062 N 
ATOM      2  C   UNL d   1      -0.048  -0.780   0.075  0.00  0.00     0.730 A 
ATOM      3  C   UNL d   1      -1.702   0.745  -0.136  0.00  0.00     0.212 A 
ATOM      4  N   UNL d   1       1.107  -1.339   0.209  0.00  0.00    -0.151 N 
ATOM      5  HN  UNL d   1       1.245  -2.349   0.238  1.00  0.00     0.188 HD
ATOM      6  N   UNL d   1      -1.317  -1.351  -0.047  0.00  0.00    -0.083 N 
ATOM      7  N   UNL d   1      -2.346  -0.415  -0.167  0.00  0.00    -0.259 N 
ATOM      8  HN  UNL d   1      -3.348  -0.582  -0.257  1.00  0.00     0.190 HD
ATOM      9  N   UNL d   1       0.672   1.548  -0.083  0.00  0.00    -0.276 N 
ATOM     10  HN  UNL d   1       0.480   2.539  -0.230  1.00  0.00     0.188 HD
ATOM     11  C   UNL d   1       1.884   1.067   0.060  0.00  0.00     0.099 C 
ATOM     12  C   UNL d   1       2.130  -0.430   0.310  0.00  0.00     0.284 C 
ATOM     13  O   UNL d   1       3.262  -0.768   0.629  0.00  0.00    -0.265 OA
ENDROOT
BRANCH   3  14
ATOM     14  C   UNL d   1      -2.483   2.039  -0.162  0.00  0.00     0.229 C 
ATOM     15  O   UNL d   1      -2.123   2.957   0.558  0.00  0.00    -0.283 OA
BRANCH  14  16
ATOM     16  C   UNL d   1      -3.736   2.125  -0.969  0.00  0.00     0.018 A 
ATOM     17  C   UNL d   1      -4.765   2.983  -0.551  0.00  0.00     0.015 A 
ATOM     18  C   UNL d   1      -5.958   3.063  -1.277  0.00  0.00     0.001 A 
ATOM     19  C   UNL d   1      -6.129   2.296  -2.429  0.00  0.00     0.000 A 
ATOM     20  C   UNL d   1      -5.108   1.447  -2.855  0.00  0.00     0.001 A 
ATOM     21  C   UNL d   1      -3.915   1.361  -2.130  0.00  0.00     0.015 A 
ENDBRANCH  14  16
ENDBRANCH   3  14
BRANCH   6  22
ATOM     22  C   UNL d   1      -1.645  -2.711   0.157  0.00  0.00     0.076 A 
ATOM     23  C   UNL d   1      -2.735  -3.292  -0.509  0.00  0.00     0.056 A 
ATOM     24  C   UNL d   1      -3.047  -4.638  -0.317  0.00  0.00     0.036 A 
ATOM     25 CL   UNL d   1      -4.359  -5.343  -1.180  0.00  0.00    -0.084 Cl
ATOM     26  C   UNL d   1      -2.301  -5.424   0.558  0.00  0.00     0.024 A 
ATOM     27  C   UNL d   1      -1.222  -4.864   1.234  0.00  0.00     0.004 A 
ATOM     28  C   UNL d   1      -0.895  -3.522   1.026  0.00  0.00     0.032 A 
ENDBRANCH   6  22
BRANCH  11  29
ATOM     29  C   UNL d   1       3.119   1.935  -0.019  0.00  0.00     0.103 C 
BRANCH  29  30
ATOM     30  C   UNL d   1       3.664   2.043  -1.423  0.00  0.00    -0.052 A 
ATOM     31  C   UNL d   1       3.274   3.112  -2.241  0.00  0.00     0.007 A 
ATOM     32  C   UNL d   1       3.758   3.221  -3.545  0.00  0.00     0.001 A 
ATOM     33  C   UNL d   1       4.632   2.261  -4.051  0.00  0.00     0.000 A 
ATOM     34  C   UNL d   1       5.031   1.196  -3.247  0.00  0.00     0.001 A 
ATOM     35  C   UNL d   1       4.552   1.085  -1.939  0.00  0.00     0.007 A 
ENDBRANCH  29  30
ENDBRANCH  11  29
TORSDOF 5
