REMARK  6 active torsions:
REMARK  status: ('A' for Active; 'I' for Inactive)
REMARK    1  A    between atoms: N_2  and  S_1 
REMARK    2  A    between atoms: C_4  and  S_1 
REMARK    3  A    between atoms: C_3  and  N_2 
REMARK    4  A    between atoms: O_13  and  C_11 
REMARK    5  A    between atoms: C_22  and  O_13 
REMARK    6  A    between atoms: C_18  and  C_22 
ROOT
ATOM      1  C   UNL d   1       0.722  -2.598   0.238  0.00  0.00     0.128 A 
ATOM      2  N   UNL d   1      -0.331  -3.417   0.038  0.00  0.00    -0.354 N 
ATOM      3  HN  UNL d   1      -1.263  -3.167   0.369  1.00  0.00     0.166 HD
ATOM      4  C   UNL d   1       2.028  -2.901  -0.174  0.00  0.00     0.108 A 
ATOM      5  C   UNL d   1      -0.110  -4.577  -0.613  0.00  0.00     0.089 A 
ATOM      6  C   UNL d   1       2.216  -4.133  -0.813  0.00  0.00     0.041 A 
ATOM      7  C   UNL d   1       1.137  -4.980  -1.047  0.00  0.00     0.020 A 
ENDROOT
BRANCH   1   8
ATOM      8  N   UNL d   1       0.330  -1.476   1.011  0.00  0.00    -0.164 NA
ATOM      9  H   UNL d   1       0.711  -0.594   0.698  0.00  0.00     0.147 HD
BRANCH   8  10
ATOM     10  S   UNL d   1       0.470  -1.588   2.684  0.00  0.00     0.247 S 
ATOM     11  O   UNL d   1      -0.843  -1.385   3.255  0.00  0.00    -0.205 OA
ATOM     12  O   UNL d   1       1.551  -0.699   3.055  0.00  0.00    -0.205 OA
BRANCH  10  13
ATOM     13  C   UNL d   1       0.990  -3.235   3.079  0.00  0.00     0.078 A 
ATOM     14  C   UNL d   1       0.004  -4.210   3.250  0.00  0.00     0.070 A 
ATOM     15  C   UNL d   1       0.382  -5.488   3.632  0.00  0.00     0.156 A 
ATOM     16  F   UNL d   1      -0.558  -6.427   3.796  0.00  0.00    -0.203 F 
ATOM     17  C   UNL d   1       1.722  -5.792   3.851  0.00  0.00     0.154 A 
ATOM     18  C   UNL d   1       2.708  -4.822   3.682  0.00  0.00     0.047 A 
ATOM     19  F   UNL d   1       2.076  -7.026   4.234  0.00  0.00    -0.203 F 
ATOM     20  C   UNL d   1       2.344  -3.529   3.300  0.00  0.00     0.028 A 
ENDBRANCH  10  13
ENDBRANCH   8  10
ENDBRANCH   1   8
BRANCH   4  21
ATOM     21  O   UNL d   1       3.189  -2.195  -0.017  0.00  0.00    -0.343 OA
BRANCH  21  22
ATOM     22  C   UNL d   1       3.076  -0.788   0.130  0.00  0.00     0.214 C 
BRANCH  22  23
ATOM     23  C   UNL d   1       4.368  -0.091  -0.187  0.00  0.00    -0.028 A 
ATOM     24  C   UNL d   1       4.915  -0.170  -1.472  0.00  0.00     0.051 A 
ATOM     25  C   UNL d   1       6.033   0.591  -1.795  0.00  0.00     0.119 A 
ATOM     26  F   UNL d   1       6.523   0.536  -3.040  0.00  0.00    -0.206 F 
ATOM     27  C   UNL d   1       6.630   1.427  -0.861  0.00  0.00     0.084 A 
ATOM     28  C   UNL d   1       6.100   1.485   0.420  0.00  0.00     0.119 A 
ATOM     29  C   UNL d   1       4.979   0.738   0.766  0.00  0.00     0.051 A 
ATOM     30  F   UNL d   1       6.656   2.294   1.330  0.00  0.00    -0.206 F 
ENDBRANCH  22  23
ENDBRANCH  21  22
ENDBRANCH   4  21
TORSDOF 6
