REMARK  2 active torsions:
REMARK  status: ('A' for Active; 'I' for Inactive)
REMARK    1  A    between atoms: N_6  and  C_1 
REMARK       I    between atoms: C_7  and  N_6 
REMARK    2  A    between atoms: C_9  and  C_7 
ROOT
ATOM      1  C   UNL d   1       2.412  -0.805   0.223  0.00  0.00     0.098 C 
ATOM      2  C   UNL d   1       1.932   0.486   0.051  0.00  0.00     0.085 C 
ATOM      3  C   UNL d   1       0.490   0.544   0.103  0.00  0.00    -0.021 C 
ATOM      4  C   UNL d   1      -0.041  -0.715   0.298  0.00  0.00    -0.007 C 
ATOM      5  S   UNL d   1       1.140  -1.880   0.586  0.00  0.00    -0.075 SA
ATOM      6  C   UNL d   1       2.780   1.612  -0.218  0.00  0.00     0.103 C 
ATOM      7  N   UNL d   1       3.483   2.509  -0.441  0.00  0.00    -0.191 NA
ATOM      8  C   UNL d   1      -0.399   1.738  -0.121  0.00  0.00     0.042 C 
ATOM      9  C   UNL d   1      -1.490  -1.081   0.278  0.00  0.00     0.051 C 
ATOM     10  C   UNL d   1      -1.886   1.412   0.139  0.00  0.00     0.009 C 
ATOM     11  C   UNL d   1      -2.317   0.029  -0.398  0.00  0.00    -0.014 C 
ATOM     12  C   UNL d   1      -2.221  -0.048  -1.927  0.00  0.00     0.010 C 
ENDROOT
BRANCH   1  13
ATOM     13  N   UNL d   1       3.724  -1.275   0.139  0.00  0.00    -0.315 N 
ATOM     14  C   UNL d   1       4.106  -2.616   0.178  0.00  0.00     0.263 C 
ATOM     15  O   UNL d   1       3.343  -3.564   0.337  0.00  0.00    -0.267 OA
ATOM     16  H   UNL d   1       4.457  -0.603  -0.053  0.00  0.00     0.170 HD
BRANCH  14  17
ATOM     17  C   UNL d   1       5.529  -2.883  -0.006  0.00  0.00     0.072 A 
ATOM     18  S   UNL d   1       6.702  -1.674  -0.288  0.00  0.00    -0.097 SA
ATOM     19  C   UNL d   1       7.966  -2.829  -0.381  0.00  0.00     0.050 A 
ATOM     20  C   UNL d   1       7.507  -4.117  -0.202  0.00  0.00     0.009 A 
ATOM     21  C   UNL d   1       6.104  -4.143   0.012  0.00  0.00     0.025 A 
ENDBRANCH  14  17
ENDBRANCH   1  13
TORSDOF 2
