REMARK  2 active torsions:
REMARK  status: ('A' for Active; 'I' for Inactive)
REMARK    1  A    between atoms: C_7  and  N_1 
REMARK    2  A    between atoms: N_10  and  N_4 
ROOT
ATOM      1  N   UNL d   1       0.671   1.180  -0.453  0.00  0.00    -0.308 N 
ATOM      2  C   UNL d   1       1.443   0.053  -0.121  0.00  0.00     0.244 C 
ATOM      3  C   UNL d   1      -1.461  -0.041   0.197  0.00  0.00     0.252 C 
ATOM      4  N   UNL d   1      -0.665  -1.137   0.534  0.00  0.00    -0.275 N 
ATOM      5  C   UNL d   1       0.655  -1.250  -0.061  0.00  0.00     0.249 C 
ATOM      6  C   UNL d   1      -0.683   1.265   0.094  0.00  0.00     0.236 C 
ATOM      7  O   UNL d   1      -2.692  -0.073   0.239  0.00  0.00    -0.270 OA
ATOM      8  O   UNL d   1       2.675   0.020  -0.087  0.00  0.00    -0.271 OA
ENDROOT
BRANCH   1   9
ATOM      9  C   UNL d   1       1.287   2.378  -0.965  0.00  0.00     0.037 A 
ATOM     10  C   UNL d   1       2.460   2.306  -1.733  0.00  0.00     0.031 A 
ATOM     11  C   UNL d   1       3.064   3.457  -2.258  0.00  0.00     0.026 A 
ATOM     12  C   UNL d   1       2.491   4.701  -2.029  0.00  0.00     0.034 A 
ATOM     13  C   UNL d   1       1.320   4.801  -1.290  0.00  0.00     0.026 A 
ATOM     14 CL   UNL d   1       3.230   6.116  -2.667  0.00  0.00    -0.084 Cl
ATOM     15  C   UNL d   1       0.718   3.647  -0.765  0.00  0.00     0.031 A 
ENDBRANCH   1   9
BRANCH   4  16
ATOM     16  N   UNL d   1      -1.342  -2.370   0.789  0.00  0.00    -0.244 NA
ATOM     17  H   UNL d   1      -2.349  -2.188   0.670  0.00  0.00     0.143 HD
ATOM     18  H   UNL d   1      -1.239  -2.576   1.786  0.00  0.00     0.143 HD
ENDBRANCH   4  16
TORSDOF 2
