REMARK  3 active torsions:
REMARK  status: ('A' for Active; 'I' for Inactive)
REMARK    1  A    between atoms: C_4  and  C_1 
REMARK    2  A    between atoms: S_2  and  C_4 
REMARK    3  A    between atoms: C_8  and  S_2 
ROOT
ATOM      1  C   UNL d   1       0.079  -3.255   1.161  0.00  0.00    -0.018 A 
ATOM      2  C   UNL d   1       0.401  -2.644   2.366  0.00  0.00     0.092 A 
ATOM      3  N   UNL d   1       0.035  -0.130   2.869  0.00  0.00    -0.191 NA
ATOM      4  C   UNL d   1       0.210  -1.261   2.673  0.00  0.00     0.107 C 
ATOM      5  S   UNL d   1       1.076  -3.739   3.495  0.00  0.00    -0.090 SA
ATOM      6  C   UNL d   1       0.923  -5.051   2.415  0.00  0.00     0.052 A 
ATOM      7  C   UNL d   1       0.371  -4.663   1.214  0.00  0.00     0.017 A 
ENDROOT
BRANCH   1   8
ATOM      8  C   UNL d   1      -0.490  -2.570  -0.055  0.00  0.00     0.154 C 
BRANCH   8   9
ATOM      9  S   UNL d   1      -2.314  -2.618  -0.037  0.00  0.00     0.054 S 
ATOM     10  O   UNL d   1      -2.735  -4.046  -0.238  0.00  0.00    -0.252 OA
BRANCH   9  11
ATOM     11  C   UNL d   1      -2.616  -1.795  -1.626  0.00  0.00     0.031 A 
ATOM     12  C   UNL d   1      -3.249  -2.482  -2.671  0.00  0.00     0.023 A 
ATOM     13  C   UNL d   1      -3.546  -1.832  -3.873  0.00  0.00     0.025 A 
ATOM     14  C   UNL d   1      -3.214  -0.490  -4.032  0.00  0.00     0.034 A 
ATOM     15  C   UNL d   1      -2.582   0.206  -3.003  0.00  0.00     0.025 A 
ATOM     16 CL   UNL d   1      -3.603   0.321  -5.498  0.00  0.00    -0.084 Cl
ATOM     17  C   UNL d   1      -2.287  -0.444  -1.798  0.00  0.00     0.023 A 
ENDBRANCH   9  11
ENDBRANCH   8   9
ENDBRANCH   1   8
TORSDOF 3
