REMARK  4 active torsions:
REMARK  status: ('A' for Active; 'I' for Inactive)
REMARK    1  A    between atoms: C_2  and  C_1 
REMARK    2  A    between atoms: N_11  and  C_2 
REMARK    3  A    between atoms: N_12  and  C_3 
REMARK    4  A    between atoms: O_14  and  N_6 
ROOT
ATOM      1  C   UNL d   1       2.313   2.702   0.237  0.00  0.00     0.057 A 
ATOM      2  C   UNL d   1       3.175   1.614   0.164  0.00  0.00     0.093 A 
ATOM      3  N   UNL d   1       4.515   1.744   0.141  0.00  0.00    -0.343 N 
ATOM      4  HN  UNL d   1       5.131   0.933   0.073  1.00  0.00     0.167 HD
ATOM      5  N   UNL d   1       4.273   4.115   0.302  0.00  0.00    -0.361 N 
ATOM      6  HN  UNL d   1       4.701   5.039   0.361  1.00  0.00     0.166 HD
ATOM      7  C   UNL d   1       4.999   2.994   0.212  0.00  0.00     0.181 A 
ATOM      8  C   UNL d   1       2.933   3.937   0.309  0.00  0.00     0.107 A 
ENDROOT
BRANCH   1   9
ATOM      9  C   UNL d   1       0.824   2.617   0.232  0.00  0.00     0.113 C 
ATOM     10  N   UNL d   1       0.139   3.724   0.316  0.00  0.00    -0.257 N 
ATOM     11  HN  UNL d   1       0.551   4.652   0.414  1.00  0.00     0.195 HD
BRANCH  10  12
ATOM     12  O   UNL d   1      -1.242   3.470   0.256  0.00  0.00    -0.289 OA
ATOM     13  H   UNL d   1      -1.619   4.364   0.352  0.00  0.00     0.244 HD
ENDBRANCH  10  12
BRANCH   9  14
ATOM     14  N   UNL d   1       0.198   1.396   0.126  0.00  0.00    -0.286 NA
ATOM     15  H   UNL d   1       0.660   0.744  -0.506  0.00  0.00     0.125 HD
ATOM     16  H   UNL d   1      -0.786   1.530  -0.099  0.00  0.00     0.125 HD
ENDBRANCH   9  14
ENDBRANCH   1   9
BRANCH   2  17
ATOM     17  N   UNL d   1       2.732   0.286   0.081  0.00  0.00    -0.288 NA
ATOM     18  H   UNL d   1       2.118   0.080   0.868  0.00  0.00     0.125 HD
ATOM     19  H   UNL d   1       3.566  -0.298   0.099  0.00  0.00     0.125 HD
ENDBRANCH   2  17
TORSDOF 4
