REMARK  3 active torsions:
REMARK  status: ('A' for Active; 'I' for Inactive)
REMARK    1  A    between atoms: C_6  and  C_9 
REMARK    2  A    between atoms: O_18  and  C_9 
REMARK    3  A    between atoms: C_29  and  O_18 
ROOT
ATOM      1  C   UNL d   1       2.713  -0.321   0.765  0.00  0.00     0.009 C 
ATOM      2  C   UNL d   1       0.141   0.778  -0.015  0.00  0.00    -0.067 C 
ATOM      3  C   UNL d   1       0.614  -0.435  -0.839  0.00  0.00    -0.016 C 
ATOM      4  C   UNL d   1       4.893  -1.562   0.630  0.00  0.00    -0.008 C 
ATOM      5  C   UNL d   1       1.854  -1.187  -0.173  0.00  0.00     0.003 C 
ATOM      6  C   UNL d   1       2.007   0.718   1.614  0.00  0.00     0.094 C 
ATOM      7  C   UNL d   1       3.630  -1.312   1.485  0.00  0.00     0.002 C 
ATOM      8  C   UNL d   1       5.832  -2.336   1.666  0.00  0.00     0.079 C 
ATOM      9  C   UNL d   1       1.188   1.604   0.690  0.00  0.00     0.050 C 
ATOM     10  O   UNL d   1       6.997  -1.545   2.009  0.00  0.00    -0.309 OA
ATOM     11  C   UNL d   1      -1.150   1.125   0.160  0.00  0.00     0.053 C 
ATOM     12  C   UNL d   1       4.345  -2.267  -0.656  0.00  0.00     0.013 C 
ATOM     13  C   UNL d   1       2.845  -1.978  -1.118  0.00  0.00     0.007 C 
ATOM     14  C   UNL d   1       8.146  -2.137   1.580  0.00  0.00     0.259 C 
ATOM     15  C   UNL d   1       4.110  -1.158   2.909  0.00  0.00     0.009 C 
ATOM     16  C   UNL d   1      -0.581  -1.446  -0.909  0.00  0.00     0.022 C 
ATOM     17  C   UNL d   1       5.036  -2.374   2.992  0.00  0.00     0.040 C 
ATOM     18  C   UNL d   1      -2.255   0.371  -0.455  0.00  0.00     0.149 C 
ATOM     19  C   UNL d   1       6.415  -3.688   1.296  0.00  0.00     0.049 C 
ATOM     20  O   UNL d   1       9.261  -1.666   1.743  0.00  0.00    -0.265 OA
ATOM     21  O   UNL d   1      -3.406   0.764  -0.306  0.00  0.00    -0.293 OA
ATOM     22  C   UNL d   1       7.823  -3.387   0.839  0.00  0.00     0.114 C 
ATOM     23  C   UNL d   1      -1.914  -0.820  -1.316  0.00  0.00     0.084 C 
ATOM     24  C   UNL d   1       0.932   0.055  -2.265  0.00  0.00     0.020 C 
ATOM     25  C   UNL d   1       5.615  -0.244   0.210  0.00  0.00     0.019 C 
ENDROOT
BRANCH   6  26
ATOM     26  C   UNL d   1       1.156   0.173   2.742  0.00  0.00     0.264 C 
ATOM     27  O   UNL d   1       0.547  -0.881   2.722  0.00  0.00    -0.265 OA
BRANCH  26  28
ATOM     28  O   UNL d   1       1.210   1.060   3.772  0.00  0.00    -0.316 OA
BRANCH  28  29
ATOM     29  C   UNL d   1       0.548   0.792   5.006  0.00  0.00     0.132 C 
ATOM     30  C   UNL d   1       0.969  -0.486   5.724  0.00  0.00     0.032 C 
ATOM     31  C   UNL d   1      -0.182  -0.775   6.689  0.00  0.00     0.002 C 
ATOM     32  C   UNL d   1      -1.315   0.185   6.320  0.00  0.00     0.002 C 
ATOM     33  C   UNL d   1      -0.968   0.700   4.931  0.00  0.00     0.032 C 
ENDBRANCH  28  29
ENDBRANCH  26  28
ENDBRANCH   6  26
TORSDOF 3
