REMARK  4 active torsions:
REMARK  status: ('A' for Active; 'I' for Inactive)
REMARK    1  A    between atoms: C_5  and  C_1 
REMARK    2  A    between atoms: N_6  and  C_2 
REMARK    3  A    between atoms: N_4  and  C_7 
REMARK    4  A    between atoms: O_16  and  C_5 
ROOT
ATOM      1  C   UNL d   1       1.466  -0.139   0.012  0.00  0.00     0.066 A 
ATOM      2  C   UNL d   1       0.683  -1.319   0.035  0.00  0.00     0.047 A 
ATOM      3  C   UNL d   1       0.857   1.130   0.022  0.00  0.00     0.050 A 
ATOM      4  C   UNL d   1      -0.526   1.257   0.176  0.00  0.00     0.039 A 
ATOM      5  C   UNL d   1      -0.713  -1.157   0.119  0.00  0.00     0.033 A 
ATOM      6  C   UNL d   1      -1.312   0.106   0.220  0.00  0.00     0.032 A 
ENDROOT
BRANCH   2   7
ATOM      7  N   UNL d   1       1.248  -2.586  -0.034  0.00  0.00    -0.376 N 
ATOM      8  C   UNL d   1       0.567  -3.686  -0.737  0.00  0.00     0.149 C 
ATOM      9  C   UNL d   1       1.623  -4.735  -1.134  0.00  0.00     0.187 C 
ATOM     10  O   UNL d   1       2.326  -5.228   0.022  0.00  0.00    -0.388 OA
ATOM     11  C   UNL d   1       3.000  -4.143   0.691  0.00  0.00     0.187 C 
ATOM     12  C   UNL d   1       2.006  -3.058   1.141  0.00  0.00     0.149 C 
ENDBRANCH   2   7
BRANCH   1  13
ATOM     13  C   UNL d   1       2.958  -0.176  -0.076  0.00  0.00     0.178 C 
ATOM     14  O   UNL d   1       3.608  -0.976  -0.728  0.00  0.00    -0.646 OA
BRANCH  13  15
ATOM     15  O   UNL d   1       3.558   0.781   0.676  0.00  0.00    -0.773 OA
ATOM     16  H   UNL d   1       2.970   1.288   1.264  0.00  0.00     0.167 HD
ENDBRANCH  13  15
ENDBRANCH   1  13
BRANCH   4  17
ATOM     17  N   UNL d   1      -1.097   2.550   0.343  0.00  0.00    -0.333 N 
ATOM     18  C   UNL d   1      -2.294   2.838   0.971  0.00  0.00     0.096 A 
ATOM     19  C   UNL d   1      -2.429   4.207   1.071  0.00  0.00     0.019 A 
ATOM     20  C   UNL d   1      -1.315   4.786   0.430  0.00  0.00     0.019 A 
ATOM     21  C   UNL d   1      -0.522   3.754  -0.013  0.00  0.00     0.096 A 
ENDBRANCH   4  17
TORSDOF 4
