REMARK  1 active torsions:
REMARK  status: ('A' for Active; 'I' for Inactive)
REMARK    1  A    between atoms: N_2  and  C_1 
REMARK       I    between atoms: C_4  and  N_2 
ROOT
ATOM      1  C   UNL d   1      -1.282  -1.326  -0.079  0.00  0.00     0.058 A 
ATOM      2  C   UNL d   1      -0.043  -1.720  -0.635  0.00  0.00     0.062 A 
ATOM      3  C   UNL d   1       1.071  -0.875  -0.573  0.00  0.00     0.050 A 
ATOM      4  C   UNL d   1      -1.370  -0.047   0.499  0.00  0.00     0.033 A 
ATOM      5  C   UNL d   1       0.958   0.378   0.019  0.00  0.00     0.035 A 
ATOM      6 CL   UNL d   1       0.145  -3.166  -1.577  0.00  0.00    -0.082 Cl
ATOM      7  C   UNL d   1      -0.258   0.800   0.547  0.00  0.00     0.026 A 
ATOM      8 CL   UNL d   1       2.321   1.426   0.073  0.00  0.00    -0.084 Cl
ENDROOT
BRANCH   1   9
ATOM      9  N   UNL d   1      -2.439  -2.175  -0.098  0.00  0.00    -0.321 N 
ATOM     10  C   UNL d   1      -2.330  -3.482   0.394  0.00  0.00     0.220 C 
ATOM     11  O   UNL d   1      -1.350  -3.890   1.022  0.00  0.00    -0.274 OA
ATOM     12  C   UNL d   1      -3.492  -4.421   0.171  0.00  0.00     0.117 C 
ATOM     13  C   UNL d   1      -3.741  -1.565  -0.346  0.00  0.00     0.159 C 
ENDBRANCH   1   9
TORSDOF 1
