REMARK  4 active torsions:
REMARK  status: ('A' for Active; 'I' for Inactive)
REMARK    1  A    between atoms: C_7  and  C_3 
REMARK    2  A    between atoms: C_11  and  N_4 
REMARK       I    between atoms: N_10  and  C_7 
REMARK       I    between atoms: C_8  and  N_14 
REMARK       I    between atoms: N_9  and  C_8 
REMARK    3  A    between atoms: C_12  and  N_9 
REMARK    4  A    between atoms: N_14  and  N_10 
ROOT
ATOM      1  C   UNL d   1      -0.658  -2.461   0.264  0.00  0.00     0.288 C 
ATOM      2  N   UNL d   1       0.393  -3.325   0.509  0.00  0.00    -0.261 N 
ATOM      3  O   UNL d   1      -1.822  -2.855   0.173  0.00  0.00    -0.264 OA
ATOM      4  H   UNL d   1       1.332  -2.977   0.702  0.00  0.00     0.190 HD
ENDROOT
BRANCH   2   5
ATOM      5  N   UNL d   1       0.058  -4.644   0.852  0.00  0.00    -0.248 N 
ATOM      6  C   UNL d   1       1.018  -5.597   1.006  0.00  0.00     0.339 C 
ATOM      7  N   UNL d   1       0.613  -6.855   1.383  0.00  0.00    -0.305 N 
ATOM      8  O   UNL d   1       2.223  -5.350   0.948  0.00  0.00    -0.245 OA
ATOM      9  H   UNL d   1       1.405  -7.394   1.709  0.00  0.00     0.171 HD
ATOM     10  H   UNL d   1      -0.848  -4.921   0.486  0.00  0.00     0.192 HD
BRANCH   7  11
ATOM     11  C   UNL d   1      -0.675  -7.372   1.648  0.00  0.00     0.075 A 
ATOM     12  C   UNL d   1      -1.863  -6.931   1.048  0.00  0.00     0.146 A 
ATOM     13  C   UNL d   1      -3.111  -7.390   1.453  0.00  0.00     0.086 A 
ATOM     14  F   UNL d   1      -1.831  -6.075   0.017  0.00  0.00    -0.204 F 
ATOM     15  C   UNL d   1      -3.176  -8.346   2.452  0.00  0.00     0.119 A 
ATOM     16  C   UNL d   1      -2.018  -8.875   3.009  0.00  0.00     0.044 A 
ATOM     17  F   UNL d   1      -4.371  -8.774   2.877  0.00  0.00    -0.206 F 
ATOM     18  C   UNL d   1      -0.766  -8.401   2.598  0.00  0.00     0.036 A 
ENDBRANCH   7  11
ENDBRANCH   2   5
BRANCH   1  19
ATOM     19  C   UNL d   1      -0.298  -1.047   0.156  0.00  0.00     0.119 A 
ATOM     20  N   UNL d   1       0.967  -0.596   0.200  0.00  0.00    -0.292 N 
ATOM     21  N   UNL d   1       0.872   0.754   0.068  0.00  0.00    -0.287 N 
ATOM     22  HN  UNL d   1       1.817  -1.149   0.309  1.00  0.00     0.187 HD
ATOM     23  C   UNL d   1      -0.442   1.176   0.006  0.00  0.00     0.028 A 
ATOM     24  C   UNL d   1      -0.954   2.570  -0.048  0.00  0.00     0.070 C 
ATOM     25  C   UNL d   1      -1.200   0.026   0.021  0.00  0.00     0.063 A 
BRANCH  21  26
ATOM     26  C   UNL d   1       2.121   1.548   0.043  0.00  0.00     0.043 C 
ATOM     27  C   UNL d   1       3.377   0.635   0.071  0.00  0.00     0.039 C 
ATOM     28  C   UNL d   1       2.221   2.378  -1.254  0.00  0.00     0.039 C 
ATOM     29  C   UNL d   1       2.204   2.454   1.286  0.00  0.00     0.039 C 
ENDBRANCH  21  26
ENDBRANCH   1  19
TORSDOF 4
