REMARK  4 active torsions:
REMARK  status: ('A' for Active; 'I' for Inactive)
REMARK    1  A    between atoms: C_10  and  C_2 
REMARK    2  A    between atoms: C_5  and  O_9 
REMARK    3  A    between atoms: C_7  and  C_5 
REMARK    4  A    between atoms: O_9  and  C_16 
ROOT
ATOM      1  C   UNL d   1       2.350  -1.673   0.212  0.00  0.00    -0.008 A 
ATOM      2  C   UNL d   1       2.280  -2.766  -0.665  0.00  0.00     0.016 A 
ATOM      3  C   UNL d   1       3.512  -1.506   0.980  0.00  0.00     0.016 A 
ATOM      4  C   UNL d   1       4.512  -3.451  -0.059  0.00  0.00     0.079 A 
ATOM      5  C   UNL d   1       3.357  -3.652  -0.806  0.00  0.00     0.038 A 
ATOM      6  C   UNL d   1       4.587  -2.390   0.845  0.00  0.00     0.038 A 
ENDROOT
BRANCH   4   7
ATOM      7  O   UNL d   1       5.698  -4.221  -0.174  0.00  0.00    -0.275 OA
BRANCH   7   8
ATOM      8  C   UNL d   1       5.875  -5.324  -0.999  0.00  0.00     0.300 C 
ATOM      9  O   UNL d   1       5.023  -5.904  -1.653  0.00  0.00    -0.259 OA
BRANCH   8  10
ATOM     10  C   UNL d   1       7.304  -5.708  -1.030  0.00  0.00     0.055 A 
ATOM     11  C   UNL d   1       7.687  -6.736  -1.882  0.00  0.00     0.105 A 
ATOM     12  N   UNL d   1       8.968  -7.153  -2.044  0.00  0.00    -0.374 N 
ATOM     13  C   UNL d   1       9.911  -6.513  -1.321  0.00  0.00     0.087 A 
ATOM     14  HN  UNL d   1       9.206  -7.912  -2.682  1.00  0.00     0.164 HD
ATOM     15  C   UNL d   1       9.631  -5.487  -0.433  0.00  0.00     0.018 A 
ATOM     16  C   UNL d   1       8.305  -5.079  -0.282  0.00  0.00     0.020 A 
ENDBRANCH   8  10
ENDBRANCH   7   8
ENDBRANCH   4   7
BRANCH   1  17
ATOM     17  C   UNL d   1       1.228  -0.745   0.301  0.00  0.00     0.063 A 
ATOM     18  N   UNL d   1      -0.069  -1.146  -0.011  0.00  0.00    -0.292 N 
ATOM     19  N   UNL d   1      -0.939  -0.159   0.117  0.00  0.00    -0.061 NA
ATOM     20  HN  UNL d   1      -0.318  -2.090  -0.305  1.00  0.00     0.183 HD
ATOM     21  S   UNL d   1      -0.228   1.276   0.595  0.00  0.00    -0.010 SA
ATOM     22  C   UNL d   1       1.344   0.590   0.654  0.00  0.00     0.096 A 
ENDBRANCH   1  17
TORSDOF 4
