REMARK  2 active torsions:
REMARK  status: ('A' for Active; 'I' for Inactive)
REMARK    1  A    between atoms: C_6  and  N_1 
REMARK    2  A    between atoms: C_8  and  C_10 
ROOT
ATOM      1  C   UNL d   1      -0.384  -2.562   0.011  0.00  0.00     0.133 A 
ATOM      2  C   UNL d   1       0.170  -3.364   1.009  0.00  0.00     0.066 A 
ATOM      3  C   UNL d   1      -0.065  -4.746   1.004  0.00  0.00     0.052 A 
ATOM      4  N   UNL d   1      -1.158  -3.094  -0.959  0.00  0.00    -0.351 N 
ATOM      5  HN  UNL d   1      -1.575  -2.499  -1.676  1.00  0.00     0.166 HD
ATOM      6  C   UNL d   1      -1.372  -4.426  -0.963  0.00  0.00     0.090 A 
ATOM      7  C   UNL d   1      -0.850  -5.285  -0.018  0.00  0.00     0.033 A 
ENDROOT
BRANCH   1   8
ATOM      8  N   UNL d   1      -0.114  -1.182  -0.010  0.00  0.00    -0.181 N 
ATOM      9  C   UNL d   1      -0.598  -0.254  -0.907  0.00  0.00     0.394 A 
ATOM     10  O   UNL d   1       0.011   0.928  -0.584  0.00  0.00    -0.245 OA
ATOM     11  O   UNL d   1      -1.392  -0.349  -1.827  0.00  0.00    -0.236 OA
ATOM     12  C   UNL d   1       0.808   0.618   0.456  0.00  0.00     0.140 A 
ATOM     13  N   UNL d   1       0.781  -0.610   0.862  0.00  0.00    -0.271 N 
ATOM     14  C   UNL d   1       1.621   1.722   1.012  0.00  0.00     0.099 C 
ATOM     15  HN  UNL d   1       1.292  -1.042   1.631  1.00  0.00     0.189 HD
ENDBRANCH   1   8
BRANCH   3  16
ATOM     16  C   UNL d   1       0.509  -5.644   2.066  0.00  0.00     0.417 C 
ATOM     17  F   UNL d   1       1.234  -4.981   3.009  0.00  0.00    -0.166 F 
ATOM     18  F   UNL d   1      -0.456  -6.323   2.745  0.00  0.00    -0.166 F 
ATOM     19  F   UNL d   1       1.340  -6.591   1.551  0.00  0.00    -0.166 F 
ENDBRANCH   3  16
TORSDOF 2
