REMARK  7 active torsions:
REMARK  status: ('A' for Active; 'I' for Inactive)
REMARK    1  A    between atoms: C_2  and  C_1 
REMARK       I    between atoms: N_8  and  C_2 
REMARK    2  A    between atoms: O_13  and  C_3 
REMARK    3  A    between atoms: N_10  and  C_4 
REMARK    4  A    between atoms: O_15  and  C_5 
REMARK    5  A    between atoms: C_16  and  N_8 
REMARK    6  A    between atoms: C_11  and  C_17 
REMARK    7  A    between atoms: C_17  and  C_16 
ROOT
ATOM      1  C   UNL d   1       2.023   1.923  -1.355  0.00  0.00     0.253 C 
ATOM      2  O   UNL d   1       2.286   2.419  -2.444  0.00  0.00    -0.268 OA
ATOM      3  N   UNL d   1       2.376   2.509  -0.160  0.00  0.00    -0.357 N 
ATOM      4  H   UNL d   1       2.239   1.974   0.696  0.00  0.00     0.162 HD
ENDROOT
BRANCH   3   5
ATOM      5  C   UNL d   1       3.070   3.784  -0.119  0.00  0.00     0.127 C 
BRANCH   5   6
ATOM      6  C   UNL d   1       4.594   3.620  -0.153  0.00  0.00     0.058 C 
BRANCH   6   7
ATOM      7  C   UNL d   1       5.393   4.908  -0.122  0.00  0.00    -0.054 A 
ATOM      8  C   UNL d   1       6.663   4.911   0.487  0.00  0.00     0.046 A 
ATOM      9  C   UNL d   1       7.465   6.066   0.530  0.00  0.00     0.102 A 
ATOM     10  C   UNL d   1       6.994   7.237  -0.085  0.00  0.00     0.101 A 
ATOM     11  C   UNL d   1       5.737   7.235  -0.699  0.00  0.00     0.040 A 
ATOM     12  C   UNL d   1       4.950   6.083  -0.731  0.00  0.00     0.010 A 
BRANCH   9  13
ATOM     13  O   UNL d   1       8.675   6.120   1.170  0.00  0.00    -0.353 OA
ATOM     14  C   UNL d   1       9.148   4.944   1.812  0.00  0.00     0.210 C 
ENDBRANCH   9  13
BRANCH  10  15
ATOM     15  O   UNL d   1       7.607   8.463  -0.127  0.00  0.00    -0.353 OA
ATOM     16  C   UNL d   1       9.028   8.471  -0.180  0.00  0.00     0.210 C 
ENDBRANCH  10  15
ENDBRANCH   6   7
ENDBRANCH   5   6
ENDBRANCH   3   5
BRANCH   1  17
ATOM     17  C   UNL d   1       1.311   0.612  -1.283  0.00  0.00     0.052 A 
ATOM     18  C   UNL d   1       0.433   0.243  -0.245  0.00  0.00     0.021 A 
ATOM     19  C   UNL d   1      -0.136  -1.040  -0.274  0.00  0.00     0.024 A 
ATOM     20  C   UNL d   1       0.077  -1.899  -1.355  0.00  0.00     0.002 A 
ATOM     21  C   UNL d   1       0.904  -1.509  -2.402  0.00  0.00     0.001 A 
ATOM     22  C   UNL d   1       1.524  -0.263  -2.364  0.00  0.00     0.019 A 
BRANCH  18  23
ATOM     23  N   UNL d   1       0.212   1.042   0.902  0.00  0.00    -0.302 NA
ATOM     24  H   UNL d   1       0.127   2.030   0.654  0.00  0.00     0.124 HD
ATOM     25  H   UNL d   1      -0.591   0.741   1.450  0.00  0.00     0.124 HD
ENDBRANCH  18  23
ENDBRANCH   1  17
TORSDOF 7
