REMARK  6 active torsions:
REMARK  status: ('A' for Active; 'I' for Inactive)
REMARK    1  A    between atoms: C_13  and  N_3 
REMARK    2  A    between atoms: C_12  and  N_10 
REMARK    3  A    between atoms: C_14  and  C_12 
REMARK    4  A    between atoms: C_17  and  C_13 
REMARK    5  A    between atoms: O_19  and  C_14 
REMARK    6  A    between atoms: C_25  and  O_19 
ROOT
ATOM      1  C   UNL d   1       0.200   0.670  -0.160  0.00  0.00     0.155 A 
ATOM      2  C   UNL d   1       0.260  -0.694   0.016  0.00  0.00     0.160 A 
ATOM      3  N   UNL d   1       1.503   1.066  -0.044  0.00  0.00    -0.254 N 
ATOM      4  N   UNL d   1      -0.893   1.446  -0.342  0.00  0.00    -0.335 N 
ATOM      5  HN  UNL d   1      -0.856   2.453  -0.495  1.00  0.00     0.168 HD
ATOM      6  N   UNL d   1       1.553  -1.097   0.161  0.00  0.00    -0.276 N 
ATOM      7  HN  UNL d   1       1.876  -2.056   0.288  1.00  0.00     0.184 HD
ATOM      8  N   UNL d   1       2.319  -0.007   0.106  0.00  0.00    -0.018 NA
ATOM      9  C   UNL d   1      -0.973  -1.448   0.066  0.00  0.00     0.280 A 
ATOM     10  N   UNL d   1      -2.102  -0.614  -0.079  0.00  0.00    -0.299 N 
ATOM     11  C   UNL d   1      -1.998   0.757  -0.300  0.00  0.00     0.188 A 
ATOM     12  O   UNL d   1      -1.036  -2.663   0.221  0.00  0.00    -0.265 OA
ENDROOT
BRANCH   3  13
ATOM     13  C   UNL d   1       2.025   2.419   0.011  0.00  0.00     0.187 C 
BRANCH  13  14
ATOM     14  C   UNL d   1       2.085   2.901   1.443  0.00  0.00    -0.038 A 
ATOM     15  C   UNL d   1       3.251   2.719   2.205  0.00  0.00     0.012 A 
ATOM     16  C   UNL d   1       3.258   3.021   3.568  0.00  0.00     0.043 A 
ATOM     17  C   UNL d   1       2.104   3.510   4.168  0.00  0.00     0.116 A 
ATOM     18  C   UNL d   1       0.953   3.737   3.425  0.00  0.00     0.043 A 
ATOM     19  F   UNL d   1       2.096   3.749   5.486  0.00  0.00    -0.206 F 
ATOM     20  C   UNL d   1       0.943   3.439   2.061  0.00  0.00     0.012 A 
ENDBRANCH  13  14
ENDBRANCH   3  13
BRANCH  10  21
ATOM     21  C   UNL d   1      -3.416  -1.230   0.034  0.00  0.00     0.244 C 
BRANCH  21  22
ATOM     22  C   UNL d   1      -3.909  -1.918  -1.229  0.00  0.00     0.277 C 
ATOM     23  O   UNL d   1      -4.994  -2.486  -1.291  0.00  0.00    -0.263 OA
BRANCH  22  24
ATOM     24  O   UNL d   1      -2.995  -1.872  -2.234  0.00  0.00    -0.321 OA
BRANCH  24  25
ATOM     25  C   UNL d   1      -3.148  -2.883  -3.241  0.00  0.00     0.174 C 
ATOM     26  C   UNL d   1      -2.418  -4.128  -2.766  0.00  0.00     0.034 C 
ENDBRANCH  24  25
ENDBRANCH  22  24
ENDBRANCH  21  22
ENDBRANCH  10  21
TORSDOF 6
