REMARK  4 active torsions:
REMARK  status: ('A' for Active; 'I' for Inactive)
REMARK    1  A    between atoms: C_4  and  C_1 
REMARK       I    between atoms: N_6  and  C_1 
REMARK    2  A    between atoms: N_2  and  C_5 
REMARK    3  A    between atoms: C_3  and  N_7 
REMARK    4  A    between atoms: N_7  and  N_6 
ROOT
ATOM      1  C   UNL d   1      -1.902   0.695   2.347  0.00  0.00     0.126 A 
ATOM      2  C   UNL d   1      -1.530   1.821   3.104  0.00  0.00     0.078 A 
ATOM      3  N   UNL d   1      -2.949  -0.092   2.720  0.00  0.00    -0.354 N 
ATOM      4  HN  UNL d   1      -3.197  -0.918   2.174  1.00  0.00     0.166 HD
ATOM      5  C   UNL d   1      -2.270   2.111   4.265  0.00  0.00     0.035 A 
ATOM      6  C   UNL d   1      -3.653   0.238   3.822  0.00  0.00     0.089 A 
ATOM      7  C   UNL d   1      -3.347   1.313   4.628  0.00  0.00     0.019 A 
ENDROOT
BRANCH   1   8
ATOM      8  N   UNL d   1      -1.249   0.363   1.137  0.00  0.00    -0.185 NA
ATOM      9  H   UNL d   1      -1.502   1.042   0.411  0.00  0.00     0.154 HD
BRANCH   8  10
ATOM     10  N   UNL d   1      -1.497  -0.956   0.719  0.00  0.00    -0.280 N 
ATOM     11  C   UNL d   1      -1.502  -1.262  -0.625  0.00  0.00     0.289 C 
ATOM     12  O   UNL d   1      -1.443  -0.392  -1.497  0.00  0.00    -0.264 OA
ATOM     13  H   UNL d   1      -1.572  -1.667   1.442  0.00  0.00     0.184 HD
BRANCH  11  14
ATOM     14  C   UNL d   1      -1.568  -2.681  -0.907  0.00  0.00     0.143 A 
ATOM     15  O   UNL d   1      -1.592  -3.580   0.132  0.00  0.00    -0.317 OA
ATOM     16  C   UNL d   1      -1.636  -4.823  -0.414  0.00  0.00     0.143 A 
ATOM     17  C   UNL d   1      -1.640  -4.748  -1.786  0.00  0.00     0.027 A 
ATOM     18  C   UNL d   1      -1.593  -3.369  -2.105  0.00  0.00     0.045 A 
ENDBRANCH  11  14
ENDBRANCH   8  10
ENDBRANCH   1   8
BRANCH   2  19
ATOM     19  N   UNL d   1      -0.404   2.647   2.796  0.00  0.00    -0.330 N 
ATOM     20  C   UNL d   1      -0.215   3.948   3.240  0.00  0.00     0.097 A 
ATOM     21  C   UNL d   1       0.995   4.421   2.785  0.00  0.00     0.019 A 
ATOM     22  C   UNL d   1       1.587   3.388   2.037  0.00  0.00     0.019 A 
ATOM     23  C   UNL d   1       0.717   2.320   2.057  0.00  0.00     0.097 A 
ENDBRANCH   2  19
TORSDOF 4
