REMARK  4 active torsions:
REMARK  status: ('A' for Active; 'I' for Inactive)
REMARK    1  A    between atoms: C_2  and  N_1 
REMARK    2  A    between atoms: N_8  and  C_2 
REMARK    3  A    between atoms: N_3  and  C_13 
REMARK    4  A    between atoms: C_6  and  N_8 
ROOT
ATOM      1  C   UNL d   1       2.667   1.536  -1.713  0.00  0.00     0.174 C 
ATOM      2  S   UNL d   1       2.718  -0.025  -2.348  0.00  0.00    -0.041 SA
ENDROOT
BRANCH   1   3
ATOM      3  N   UNL d   1       1.487   2.271  -1.671  0.00  0.00    -0.323 N 
ATOM      4  C   UNL d   1       1.272   3.662  -1.792  0.00  0.00     0.043 A 
ATOM      5  C   UNL d   1      -0.098   3.935  -1.712  0.00  0.00    -0.027 A 
ATOM      6  C   UNL d   1       2.172   4.684  -2.049  0.00  0.00     0.033 A 
ATOM      7  C   UNL d   1      -0.607   5.218  -1.864  0.00  0.00     0.045 A 
ATOM      8  C   UNL d   1      -0.908   2.687  -1.574  0.00  0.00     0.061 C 
ATOM      9  C   UNL d   1       0.301   6.254  -2.104  0.00  0.00     0.103 A 
ATOM     10  C   UNL d   1       1.683   5.994  -2.192  0.00  0.00     0.038 A 
ATOM     11  C   UNL d   1       0.181   1.639  -1.364  0.00  0.00     0.136 C 
BRANCH   9  12
ATOM     12  N   UNL d   1      -0.210   7.619  -2.307  0.00  0.00    -0.116 N 
ATOM     13  O   UNL d   1      -1.435   7.780  -2.331  0.00  0.00    -0.532 OA
ATOM     14  O   UNL d   1       0.626   8.529  -2.433  0.00  0.00    -0.532 OA
ENDBRANCH   9  12
ENDBRANCH   1   3
BRANCH   1  15
ATOM     15  N   UNL d   1       3.755   2.148  -1.104  0.00  0.00    -0.362 N 
ATOM     16  H   UNL d   1       3.491   2.993  -0.619  0.00  0.00     0.162 HD
BRANCH  15  17
ATOM     17  C   UNL d   1       4.784   1.367  -0.413  0.00  0.00     0.089 C 
ATOM     18  C   UNL d   1       6.042   0.962  -1.249  0.00  0.00     0.017 C 
ATOM     19  C   UNL d   1       6.727  -0.288  -0.645  0.00  0.00     0.018 C 
ATOM     20  C   UNL d   1       7.092   1.998  -0.811  0.00  0.00     0.012 C 
ATOM     21  C   UNL d   1       5.966  -1.547  -0.432  0.00  0.00    -0.025 C 
ATOM     22  C   UNL d   1       7.081   0.193   0.788  0.00  0.00     0.001 C 
ATOM     23  C   UNL d   1       5.713  -1.761   0.864  0.00  0.00    -0.030 C 
ATOM     24  C   UNL d   1       6.201  -0.643   1.736  0.00  0.00     0.032 C 
ATOM     25  C   UNL d   1       6.869   1.733   0.689  0.00  0.00    -0.007 C 
ATOM     26  C   UNL d   1       5.396   2.140   0.772  0.00  0.00     0.030 C 
ENDBRANCH  15  17
ENDBRANCH   1  15
TORSDOF 4
