REMARK  5 active torsions:
REMARK  status: ('A' for Active; 'I' for Inactive)
REMARK    1  A    between atoms: C_8  and  N_1 
REMARK    2  A    between atoms: S_11  and  C_3 
REMARK    3  A    between atoms: N_10  and  C_7 
REMARK    4  A    between atoms: C_12  and  C_8 
REMARK    5  A    between atoms: C_14  and  N_10 
ROOT
ATOM      1  N   UNL d   1       1.416  -1.043  -0.169  0.00  0.00    -0.288 N 
ATOM      2  C   UNL d   1       0.088   0.743  -0.081  0.00  0.00     0.118 A 
ATOM      3  C   UNL d   1       0.095  -1.357  -0.126  0.00  0.00     0.149 A 
ATOM      4  C   UNL d   1       1.509   0.317  -0.134  0.00  0.00     0.278 A 
ATOM      5  N   UNL d   1      -0.737  -0.359  -0.076  0.00  0.00    -0.331 N 
ATOM      6  HN  UNL d   1      -1.756  -0.386  -0.041  1.00  0.00     0.168 HD
ATOM      7  C   UNL d   1      -0.267   2.030  -0.023  0.00  0.00     0.123 C 
ATOM      8  O   UNL d   1       2.495   1.028  -0.120  0.00  0.00    -0.265 OA
ENDROOT
BRANCH   7   9
ATOM      9  N   UNL d   1      -1.541   2.536   0.061  0.00  0.00    -0.363 N 
ATOM     10  H   UNL d   1      -2.271   1.827   0.090  0.00  0.00     0.165 HD
BRANCH   9  11
ATOM     11  C   UNL d   1      -1.957   3.877   0.124  0.00  0.00     0.033 A 
ATOM     12  C   UNL d   1      -1.080   4.965   0.022  0.00  0.00     0.053 A 
ATOM     13  C   UNL d   1      -1.553   6.277   0.109  0.00  0.00     0.036 A 
ATOM     14 CL   UNL d   1      -0.448   7.592  -0.024  0.00  0.00    -0.084 Cl
ATOM     15  C   UNL d   1      -2.906   6.533   0.303  0.00  0.00     0.024 A 
ATOM     16  C   UNL d   1      -3.793   5.466   0.410  0.00  0.00     0.004 A 
ATOM     17  C   UNL d   1      -3.320   4.153   0.322  0.00  0.00     0.029 A 
ENDBRANCH   9  11
ENDBRANCH   7   9
BRANCH   1  18
ATOM     18  C   UNL d   1       2.588  -1.900  -0.154  0.00  0.00     0.173 C 
BRANCH  18  19
ATOM     19  C   UNL d   1       3.081  -2.282  -1.532  0.00  0.00    -0.038 A 
ATOM     20  C   UNL d   1       3.149  -3.632  -1.911  0.00  0.00     0.032 A 
ATOM     21  C   UNL d   1       3.682  -3.991  -3.150  0.00  0.00     0.034 A 
ATOM     22 CL   UNL d   1       3.792  -5.654  -3.582  0.00  0.00    -0.084 Cl
ATOM     23  C   UNL d   1       4.144  -3.018  -4.033  0.00  0.00     0.024 A 
ATOM     24  C   UNL d   1       4.071  -1.673  -3.673  0.00  0.00     0.002 A 
ATOM     25  C   UNL d   1       3.548  -1.308  -2.430  0.00  0.00     0.009 A 
ENDBRANCH  18  19
ENDBRANCH   1  18
BRANCH   3  26
ATOM     26  S   UNL d   1      -0.397  -3.017  -0.122  0.00  0.00    -0.098 SA
ATOM     27  C   UNL d   1      -2.187  -2.843   0.038  0.00  0.00     0.099 C 
ENDBRANCH   3  26
TORSDOF 5
