REMARK  2 active torsions:
REMARK  status: ('A' for Active; 'I' for Inactive)
REMARK    1  A    between atoms: N_4  and  C_1 
REMARK    2  A    between atoms: C_6  and  N_4 
ROOT
ATOM      1  N   UNL d   1      -0.539   2.728  -0.402  0.00  0.00    -0.337 N 
ATOM      2  H   UNL d   1      -0.559   2.248   0.489  0.00  0.00     0.168 HD
ENDROOT
BRANCH   1   3
ATOM      3  C   UNL d   1      -0.885   1.948  -1.476  0.00  0.00     0.140 C 
ATOM      4  N   UNL d   1      -0.939   2.379  -2.680  0.00  0.00    -0.371 N 
ATOM      5  C   UNL d   1      -1.300   1.604  -3.851  0.00  0.00     0.122 C 
ATOM      6  HN  UNL d   1      -0.707   3.361  -2.830  1.00  0.00     0.161 HD
ATOM      7  C   UNL d   1      -2.122   0.371  -3.551  0.00  0.00     0.030 C 
ATOM      8  C   UNL d   1      -1.383  -0.511  -2.571  0.00  0.00     0.084 C 
ATOM      9  S   UNL d   1      -1.279   0.315  -0.974  0.00  0.00    -0.094 SA
ENDBRANCH   1   3
BRANCH   1  10
ATOM     10  C   UNL d   1       0.402   3.776  -0.435  0.00  0.00     0.035 A 
ATOM     11  C   UNL d   1       0.309   4.807   0.510  0.00  0.00     0.036 A 
ATOM     12  C   UNL d   1       1.214   5.878   0.504  0.00  0.00    -0.059 A 
ATOM     13  C   UNL d   1       1.083   7.009   1.482  0.00  0.00     0.048 C 
ATOM     14  C   UNL d   1       2.244   5.898  -0.444  0.00  0.00     0.013 A 
ATOM     15  C   UNL d   1       2.369   4.870  -1.385  0.00  0.00    -0.059 A 
ATOM     16  C   UNL d   1       1.439   3.824  -1.376  0.00  0.00     0.036 A 
ATOM     17  C   UNL d   1       3.483   4.894  -2.388  0.00  0.00     0.048 C 
ENDBRANCH   1  10
TORSDOF 2
