REMARK  3 active torsions:
REMARK  status: ('A' for Active; 'I' for Inactive)
REMARK    1  A    between atoms: C_3  and  C_1 
REMARK    2  A    between atoms: C_11  and  C_2 
REMARK    3  A    between atoms: C_15  and  C_12 
ROOT
ATOM      1  C   UNL d   1      -2.658   1.538   0.021  0.00  0.00     0.194 A 
ATOM      2  O   UNL d   1      -2.975   2.579  -0.813  0.00  0.00    -0.271 OA
ATOM      3  N   UNL d   1      -3.622   1.303   0.893  0.00  0.00    -0.276 N 
ATOM      4  HN  UNL d   1      -3.622   0.587   1.619  1.00  0.00     0.189 HD
ATOM      5  N   UNL d   1      -4.631   2.209   0.633  0.00  0.00    -0.277 N 
ATOM      6  HN  UNL d   1      -5.515   2.299   1.133  1.00  0.00     0.189 HD
ATOM      7  C   UNL d   1      -4.225   2.935  -0.388  0.00  0.00     0.174 A 
ENDROOT
BRANCH   1   8
ATOM      8  C   UNL d   1      -1.404   0.738  -0.078  0.00  0.00     0.126 A 
ATOM      9  C   UNL d   1      -0.331   0.988  -0.905  0.00  0.00     0.192 A 
ATOM     10  O   UNL d   1       0.573  -0.036  -0.718  0.00  0.00    -0.291 OA
ATOM     11  C   UNL d   1      -0.009  -0.839   0.220  0.00  0.00     0.121 A 
ATOM     12  N   UNL d   1      -1.176  -0.412   0.650  0.00  0.00    -0.335 N 
ATOM     13  C   UNL d   1       0.731  -2.060   0.594  0.00  0.00     0.098 C 
ATOM     14  HN  UNL d   1      -1.775  -0.834   1.359  1.00  0.00     0.168 HD
BRANCH   9  15
ATOM     15  C   UNL d   1       0.040   2.029  -1.878  0.00  0.00     0.442 C 
ATOM     16  F   UNL d   1      -0.784   3.106  -1.871  0.00  0.00    -0.164 F 
ATOM     17  F   UNL d   1       1.290   2.512  -1.646  0.00  0.00    -0.164 F 
ATOM     18  F   UNL d   1       0.038   1.551  -3.150  0.00  0.00    -0.164 F 
ENDBRANCH   9  15
ENDBRANCH   1   8
BRANCH   7  19
ATOM     19  C   UNL d   1      -4.915   3.971  -1.142  0.00  0.00     0.017 A 
ATOM     20  C   UNL d   1      -4.297   4.648  -2.206  0.00  0.00     0.016 A 
ATOM     21  C   UNL d   1      -5.000   5.600  -2.950  0.00  0.00     0.001 A 
ATOM     22  C   UNL d   1      -6.326   5.889  -2.636  0.00  0.00     0.000 A 
ATOM     23  C   UNL d   1      -6.948   5.237  -1.575  0.00  0.00     0.001 A 
ATOM     24  C   UNL d   1      -6.247   4.285  -0.832  0.00  0.00     0.016 A 
ENDBRANCH   7  19
TORSDOF 3
