REMARK  0 active torsions:
REMARK  status: ('A' for Active; 'I' for Inactive)
ROOT
ATOM      1  C   UNL d   1       3.414  -1.068   0.775  0.00  0.00     0.027 C 
ATOM      2  C   UNL d   1      -0.259   1.050   0.342  0.00  0.00    -0.009 C 
ATOM      3  C   UNL d   1       0.872   0.104  -0.228  0.00  0.00     0.072 C 
ATOM      4  C   UNL d   1       0.901  -1.181   0.664  0.00  0.00     0.003 C 
ATOM      5  C   UNL d   1       2.190  -1.982   0.628  0.00  0.00     0.007 C 
ATOM      6  C   UNL d   1       2.268   0.728  -0.454  0.00  0.00     0.133 C 
ATOM      7  C   UNL d   1      -1.580   0.234   0.508  0.00  0.00    -0.067 C 
ATOM      8  C   UNL d   1       3.476  -0.207  -0.471  0.00  0.00     0.096 C 
ATOM      9  C   UNL d   1      -2.800   0.788   0.382  0.00  0.00     0.053 C 
ATOM     10  C   UNL d   1       4.439  -2.165   0.940  0.00  0.00     0.136 C 
ATOM     11  C   UNL d   1      -0.321  -1.998   0.256  0.00  0.00     0.010 C 
ATOM     12  C   UNL d   1      -0.591   2.239  -0.613  0.00  0.00     0.022 C 
ATOM     13  C   UNL d   1       2.371  -3.025   1.744  0.00  0.00     0.013 C 
ATOM     14  C   UNL d   1      -1.562  -1.268   0.754  0.00  0.00     0.035 C 
ATOM     15  C   UNL d   1      -3.001   2.219   0.054  0.00  0.00     0.149 C 
ATOM     16  O   UNL d   1       2.417   1.919  -0.723  0.00  0.00    -0.297 OA
ATOM     17  C   UNL d   1       3.878  -3.313   1.758  0.00  0.00     0.079 C 
ATOM     18  O   UNL d   1       5.590  -2.119   0.511  0.00  0.00    -0.297 OA
ATOM     19  O   UNL d   1      -4.137   2.660  -0.025  0.00  0.00    -0.293 OA
ATOM     20  C   UNL d   1      -1.777   3.076  -0.117  0.00  0.00     0.084 C 
ATOM     21  C   UNL d   1       3.499  -0.202   2.053  0.00  0.00     0.024 C 
ATOM     22  C   UNL d   1       0.206   1.668   1.692  0.00  0.00     0.021 C 
ENDROOT
TORSDOF 0
