REMARK  5 active torsions:
REMARK  status: ('A' for Active; 'I' for Inactive)
REMARK    1  A    between atoms: C_8  and  C_3 
REMARK    2  A    between atoms: C_16  and  C_7 
REMARK    3  A    between atoms: C_10  and  C_20 
REMARK    4  A    between atoms: S_13  and  C_16 
REMARK    5  A    between atoms: C_20  and  S_13 
ROOT
ATOM      1  N   UNL d   1       0.566   3.789   3.054  0.00  0.00    -0.277 N 
ATOM      2  HN  UNL d   1       0.935   3.768   4.004  1.00  0.00     0.189 HD
ATOM      3  C   UNL d   1       0.496   4.840   2.261  0.00  0.00     0.174 A 
ATOM      4  O   UNL d   1      -0.051   4.538   1.039  0.00  0.00    -0.277 OA
ATOM      5  N   UNL d   1       0.045   2.725   2.349  0.00  0.00    -0.281 N 
ATOM      6  HN  UNL d   1      -0.047   1.763   2.674  1.00  0.00     0.189 HD
ATOM      7  C   UNL d   1      -0.311   3.197   1.173  0.00  0.00     0.149 A 
ENDROOT
BRANCH   7   8
ATOM      8  C   UNL d   1      -0.881   2.491   0.001  0.00  0.00     0.160 C 
BRANCH   8   9
ATOM      9  S   UNL d   1      -2.696   2.328   0.052  0.00  0.00    -0.156 SA
BRANCH   9  10
ATOM     10  C   UNL d   1      -3.179   4.082  -0.020  0.00  0.00     0.113 C 
BRANCH  10  11
ATOM     11  C   UNL d   1      -4.686   4.255  -0.037  0.00  0.00    -0.038 A 
ATOM     12  C   UNL d   1      -5.454   4.288  -1.238  0.00  0.00    -0.019 A 
ATOM     13  C   UNL d   1      -6.856   4.492  -1.146  0.00  0.00    -0.025 A 
ATOM     14  C   UNL d   1      -4.908   4.128  -2.533  0.00  0.00     0.013 A 
ATOM     15  C   UNL d   1      -7.643   4.547  -2.309  0.00  0.00     0.012 A 
ATOM     16  C   UNL d   1      -7.466   4.637   0.107  0.00  0.00     0.012 A 
ATOM     17  C   UNL d   1      -7.071   4.393  -3.570  0.00  0.00     0.001 A 
ATOM     18  C   UNL d   1      -5.705   4.181  -3.681  0.00  0.00     0.001 A 
ATOM     19  C   UNL d   1      -6.715   4.575   1.276  0.00  0.00     0.001 A 
ATOM     20  C   UNL d   1      -5.339   4.383   1.205  0.00  0.00     0.009 A 
ENDBRANCH  10  11
ENDBRANCH   9  10
ENDBRANCH   8   9
ENDBRANCH   7   8
BRANCH   3  21
ATOM     21  C   UNL d   1       0.905   6.219   2.499  0.00  0.00     0.017 A 
ATOM     22  C   UNL d   1       1.545   6.553   3.707  0.00  0.00     0.019 A 
ATOM     23  C   UNL d   1       1.932   7.869   3.972  0.00  0.00     0.043 A 
ATOM     24  C   UNL d   1       1.680   8.859   3.032  0.00  0.00     0.116 A 
ATOM     25  C   UNL d   1       1.056   8.556   1.828  0.00  0.00     0.043 A 
ATOM     26  F   UNL d   1       2.042  10.122   3.288  0.00  0.00    -0.206 F 
ATOM     27  C   UNL d   1       0.671   7.238   1.560  0.00  0.00     0.019 A 
ENDBRANCH   3  21
TORSDOF 5
