REMARK  3 active torsions:
REMARK  status: ('A' for Active; 'I' for Inactive)
REMARK    1  A    between atoms: N_14  and  C_6 
REMARK    2  A    between atoms: N_12  and  N_14 
REMARK    3  A    between atoms: C_16  and  C_15 
ROOT
ATOM      1  C   UNL d   1       1.172   0.534   0.063  0.00  0.00     0.090 A 
ATOM      2  C   UNL d   1       0.578  -0.724   0.036  0.00  0.00     0.051 A 
ATOM      3  S   UNL d   1       0.052   1.815   0.112  0.00  0.00    -0.075 SA
ATOM      4  C   UNL d   1      -0.870  -0.588   0.022  0.00  0.00    -0.028 A 
ATOM      5  C   UNL d   1      -1.258   0.741   0.081  0.00  0.00    -0.008 A 
ATOM      6  C   UNL d   1       1.478  -1.819   0.008  0.00  0.00     0.134 A 
ATOM      7  N   UNL d   1       2.484   0.817   0.059  0.00  0.00    -0.346 N 
ATOM      8  HN  UNL d   1       2.862   1.763   0.092  1.00  0.00     0.167 HD
ATOM      9  N   UNL d   1       2.813  -1.543  -0.022  0.00  0.00    -0.337 N 
ATOM     10  HN  UNL d   1       3.489  -2.305  -0.066  1.00  0.00     0.168 HD
ATOM     11  C   UNL d   1       3.235  -0.278   0.007  0.00  0.00     0.182 A 
ATOM     12  C   UNL d   1      -1.890  -1.690  -0.026  0.00  0.00     0.041 C 
ATOM     13  C   UNL d   1      -2.669   1.240   0.085  0.00  0.00     0.047 C 
ATOM     14  C   UNL d   1      -3.324  -1.177  -0.253  0.00  0.00     0.005 C 
ATOM     15  C   UNL d   1      -3.616   0.116   0.519  0.00  0.00     0.005 C 
ENDROOT
BRANCH   6  16
ATOM     16  N   UNL d   1       1.074  -3.168   0.031  0.00  0.00    -0.285 N 
ATOM     17  H   UNL d   1       0.137  -3.375   0.347  0.00  0.00     0.188 HD
BRANCH  16  18
ATOM     18  N   UNL d   1       2.026  -4.112  -0.160  0.00  0.00    -0.309 N 
ATOM     19  C   UNL d   1       1.821  -5.290   0.329  0.00  0.00     0.118 C 
ATOM     20  HN  UNL d   1       2.880  -3.898  -0.674  1.00  0.00     0.186 HD
BRANCH  19  21
ATOM     21  C   UNL d   1       2.846  -6.346   0.159  0.00  0.00    -0.019 A 
ATOM     22  C   UNL d   1       3.960  -6.116  -0.660  0.00  0.00     0.014 A 
ATOM     23  C   UNL d   1       4.946  -7.095  -0.798  0.00  0.00     0.024 A 
ATOM     24  C   UNL d   1       4.819  -8.300  -0.111  0.00  0.00     0.034 A 
ATOM     25  C   UNL d   1       3.711  -8.540   0.703  0.00  0.00     0.024 A 
ATOM     26 CL   UNL d   1       6.043  -9.500  -0.262  0.00  0.00    -0.084 Cl
ATOM     27  C   UNL d   1       2.716  -7.561   0.839  0.00  0.00     0.014 A 
ENDBRANCH  19  21
ENDBRANCH  16  18
ENDBRANCH   6  16
TORSDOF 3
