REMARK  3 active torsions:
REMARK  status: ('A' for Active; 'I' for Inactive)
REMARK    1  A    between atoms: C_5  and  CA_1 
REMARK    2  A    between atoms: C_6  and  C_2 
REMARK    3  A    between atoms: OXT_11  and  C_5 
ROOT
ATOM      1  CA  UNL d   1       0.613   0.213   0.475  0.00  0.00     0.143 A 
ATOM      2  C   UNL d   1       0.606  -1.101   0.042  0.00  0.00     0.120 A 
ATOM      3  N   UNL d   1      -0.641   0.787   0.267  0.00  0.00    -0.339 N 
ATOM      4  HN  UNL d   1      -0.951   1.732   0.494  1.00  0.00     0.167 HD
ATOM      5  C   UNL d   1      -1.328  -0.183  -0.291  0.00  0.00     0.234 A 
ATOM      6  O   UNL d   1      -0.648  -1.345  -0.468  0.00  0.00    -0.303 OA
ENDROOT
BRANCH   2   7
ATOM      7  C   UNL d   1       1.520  -2.235   0.020  0.00  0.00     0.002 A 
ATOM      8  C   UNL d   1       1.477  -3.164  -1.030  0.00  0.00     0.038 A 
ATOM      9  C   UNL d   1       2.332  -4.268  -1.034  0.00  0.00     0.035 A 
ATOM     10 CL   UNL d   1       2.259  -5.400  -2.328  0.00  0.00    -0.084 Cl
ATOM     11  C   UNL d   1       3.240  -4.465   0.002  0.00  0.00     0.024 A 
ATOM     12  C   UNL d   1       3.292  -3.550   1.051  0.00  0.00     0.003 A 
ATOM     13  C   UNL d   1       2.435  -2.447   1.061  0.00  0.00     0.014 A 
ENDBRANCH   2   7
BRANCH   1  14
ATOM     14  C   UNL d   1       1.691   0.990   1.062  0.00  0.00     0.196 C 
ATOM     15  O   UNL d   1       2.836   0.606   1.236  0.00  0.00    -0.645 OA
BRANCH  14  16
ATOM     16  OXT UNL d   1       1.278   2.239   1.413  0.00  0.00    -0.772 OA
ATOM     17  HXT UNL d   1       0.328   2.324   1.169  0.00  0.00     0.167 HD
ENDBRANCH  14  16
ENDBRANCH   1  14
TORSDOF 3
