REMARK  6 active torsions:
REMARK  status: ('A' for Active; 'I' for Inactive)
REMARK    1  A    between atoms: C_8  and  N_1 
REMARK    2  A    between atoms: C_4  and  C_2 
REMARK       I    between atoms: N_7  and  C_4 
REMARK    3  A    between atoms: C_11  and  N_7 
REMARK    4  A    between atoms: C_14  and  C_8 
REMARK    5  A    between atoms: C_13  and  C_14 
REMARK    6  A    between atoms: O_25  and  C_15 
ROOT
ATOM      1  N   UNL d   1       0.186  -0.894   0.270  0.00  0.00    -0.351 N 
ATOM      2  C   UNL d   1      -1.347   0.801  -0.184  0.00  0.00     0.105 C 
ATOM      3  C   UNL d   1       0.938   0.270   0.196  0.00  0.00     0.220 C 
ATOM      4  C   UNL d   1      -1.231  -0.621   0.318  0.00  0.00     0.140 C 
ATOM      5  C   UNL d   1      -0.010   1.443   0.159  0.00  0.00     0.118 C 
ATOM      6  O   UNL d   1       2.151   0.368   0.144  0.00  0.00    -0.273 OA
ENDROOT
BRANCH   2   7
ATOM      7  C   UNL d   1      -1.683   0.863  -1.668  0.00  0.00     0.228 C 
ATOM      8  N   UNL d   1      -0.743   0.311  -2.527  0.00  0.00    -0.327 N 
ATOM      9  H   UNL d   1       0.004  -0.239  -2.119  0.00  0.00     0.169 HD
ATOM     10  O   UNL d   1      -2.762   1.344  -2.010  0.00  0.00    -0.273 OA
BRANCH   8  11
ATOM     11  C   UNL d   1      -0.832   0.272  -3.937  0.00  0.00     0.034 A 
ATOM     12  C   UNL d   1      -1.715   1.068  -4.670  0.00  0.00     0.032 A 
ATOM     13  C   UNL d   1      -1.830   0.927  -6.056  0.00  0.00     0.039 A 
ATOM     14  C   UNL d   1      -1.063  -0.018  -6.732  0.00  0.00     0.068 A 
ATOM     15  C   UNL d   1      -0.121  -0.762  -6.017  0.00  0.00     0.039 A 
ATOM     16  C   UNL d   1       0.004  -0.612  -4.629  0.00  0.00     0.032 A 
BRANCH  14  17
ATOM     17  O   UNL d   1      -1.143  -0.297  -8.068  0.00  0.00    -0.356 OA
ATOM     18  C   UNL d   1      -2.295   0.199  -8.743  0.00  0.00     0.210 C 
ENDBRANCH  14  17
ENDBRANCH   8  11
ENDBRANCH   2   7
BRANCH   1  19
ATOM     19  C   UNL d   1       0.665  -2.275   0.222  0.00  0.00     0.130 C 
BRANCH  19  20
ATOM     20  C   UNL d   1       2.159  -2.496   0.473  0.00  0.00     0.058 C 
BRANCH  20  21
ATOM     21  C   UNL d   1       2.549  -3.941   0.267  0.00  0.00    -0.057 A 
ATOM     22  C   UNL d   1       2.868  -4.401  -1.021  0.00  0.00     0.009 A 
ATOM     23  C   UNL d   1       3.236  -5.730  -1.227  0.00  0.00     0.024 A 
ATOM     24  C   UNL d   1       3.283  -6.609  -0.148  0.00  0.00     0.034 A 
ATOM     25  C   UNL d   1       2.958  -6.169   1.134  0.00  0.00     0.024 A 
ATOM     26 CL   UNL d   1       3.749  -8.245  -0.400  0.00  0.00    -0.084 Cl
ATOM     27  C   UNL d   1       2.588  -4.837   1.342  0.00  0.00     0.009 A 
ENDBRANCH  20  21
ENDBRANCH  19  20
ENDBRANCH   1  19
TORSDOF 6
