REMARK  7 active torsions:
REMARK  status: ('A' for Active; 'I' for Inactive)
REMARK    1  A    between atoms: C_9  and  N_1 
REMARK    2  A    between atoms: C_7  and  N_10 
REMARK    3  A    between atoms: N_14  and  C_7 
REMARK    4  A    between atoms: C_8  and  C_9 
REMARK       I    between atoms: N_11  and  C_8 
REMARK    5  A    between atoms: N_10  and  N_11 
REMARK    6  A    between atoms: C_21  and  N_14 
REMARK    7  A    between atoms: C_15  and  C_21 
ROOT
ATOM      1  N   UNL d   1       0.244  -1.253   0.501  0.00  0.00    -0.336 N 
ATOM      2  S   UNL d   1       0.269   1.840   0.132  0.00  0.00    -0.086 SA
ATOM      3  C   UNL d   1       1.499  -0.672   0.180  0.00  0.00     0.052 A 
ATOM      4  C   UNL d   1      -0.996  -0.660   0.158  0.00  0.00     0.052 A 
ATOM      5  C   UNL d   1      -1.111   0.725  -0.087  0.00  0.00     0.032 A 
ATOM      6  C   UNL d   1       1.646   0.715  -0.007  0.00  0.00     0.032 A 
ATOM      7  C   UNL d   1      -2.139  -1.461  -0.008  0.00  0.00     0.031 A 
ATOM      8  C   UNL d   1       2.620  -1.496  -0.022  0.00  0.00     0.031 A 
ATOM      9  C   UNL d   1       2.907   1.256  -0.297  0.00  0.00     0.021 A 
ATOM     10  C   UNL d   1      -2.349   1.280  -0.436  0.00  0.00     0.021 A 
ATOM     11  C   UNL d   1       3.863  -0.955  -0.357  0.00  0.00     0.002 A 
ATOM     12  C   UNL d   1      -3.364  -0.904  -0.380  0.00  0.00     0.002 A 
ATOM     13  C   UNL d   1       4.011   0.423  -0.474  0.00  0.00     0.002 A 
ATOM     14  C   UNL d   1      -3.471   0.468  -0.587  0.00  0.00     0.002 A 
ENDROOT
BRANCH   1  15
ATOM     15  C   UNL d   1       0.258  -2.046   1.767  0.00  0.00     0.234 C 
BRANCH  15  16
ATOM     16  C   UNL d   1       0.652  -1.230   3.011  0.00  0.00     0.254 C 
ATOM     17  N   UNL d   1      -0.037  -0.041   3.163  0.00  0.00    -0.266 N 
ATOM     18  H   UNL d   1      -0.524   0.374   2.373  0.00  0.00     0.190 HD
ATOM     19  O   UNL d   1       1.454  -1.638   3.852  0.00  0.00    -0.270 OA
BRANCH  17  20
ATOM     20  N   UNL d   1       0.330   0.856   4.176  0.00  0.00    -0.274 N 
ATOM     21  H   UNL d   1       1.022   0.504   4.834  0.00  0.00     0.189 HD
BRANCH  20  22
ATOM     22  C   UNL d   1      -0.538   1.879   4.543  0.00  0.00     0.186 C 
ATOM     23  S   UNL d   1      -2.032   2.136   3.825  0.00  0.00    -0.040 SA
BRANCH  22  24
ATOM     24  N   UNL d   1       0.008   2.658   5.544  0.00  0.00    -0.363 N 
ATOM     25  H   UNL d   1       1.000   2.558   5.700  0.00  0.00     0.162 HD
BRANCH  24  26
ATOM     26  C   UNL d   1      -0.614   3.798   6.197  0.00  0.00     0.148 C 
BRANCH  26  27
ATOM     27  C   UNL d   1      -0.226   5.103   5.565  0.00  0.00    -0.018 C 
ATOM     28  C   UNL d   1       0.488   5.318   4.451  0.00  0.00     0.008 C 
ENDBRANCH  26  27
ENDBRANCH  24  26
ENDBRANCH  22  24
ENDBRANCH  20  22
ENDBRANCH  17  20
ENDBRANCH  15  16
ENDBRANCH   1  15
TORSDOF 7
