REMARK  5 active torsions:
REMARK  status: ('A' for Active; 'I' for Inactive)
REMARK       I    between atoms: N_3  and  C_1 
REMARK    1  A    between atoms: O_8  and  C_1 
REMARK    2  A    between atoms: C_2  and  C_4 
REMARK       I    between atoms: C_4  and  N_10 
REMARK    3  A    between atoms: C_16  and  O_8 
REMARK    4  A    between atoms: N_10  and  C_17 
REMARK    5  A    between atoms: C_17  and  C_20 
ROOT
ATOM      1  C   UNL d   1       0.994  -0.006   0.250  0.00  0.00     0.363 C 
ATOM      2  N   UNL d   1       0.395  -0.930   1.091  0.00  0.00    -0.328 N 
ATOM      3  O   UNL d   1       1.851   0.778   0.634  0.00  0.00    -0.238 OA
ATOM      4  C   UNL d   1      -0.663  -1.851   0.711  0.00  0.00     0.128 C 
ATOM      5  C   UNL d   1       0.725  -0.917   2.510  0.00  0.00     0.128 C 
ATOM      6  C   UNL d   1      -1.945  -1.532   1.486  0.00  0.00     0.026 C 
ATOM      7  C   UNL d   1      -0.506  -0.521   3.321  0.00  0.00     0.026 C 
ATOM      8  C   UNL d   1      -1.731  -1.407   3.011  0.00  0.00     0.006 C 
ENDROOT
BRANCH   8   9
ATOM      9  C   UNL d   1      -1.641  -2.783   3.694  0.00  0.00     0.127 C 
BRANCH   9  10
ATOM     10  N   UNL d   1      -1.619  -2.655   5.140  0.00  0.00    -0.355 N 
ATOM     11  C   UNL d   1      -1.007  -3.583   5.962  0.00  0.00     0.277 C 
ATOM     12  O   UNL d   1      -0.395  -4.548   5.513  0.00  0.00    -0.265 OA
ATOM     13  H   UNL d   1      -2.221  -1.969   5.584  0.00  0.00     0.162 HD
BRANCH  11  14
ATOM     14  C   UNL d   1      -1.142  -3.321   7.374  0.00  0.00     0.167 A 
ATOM     15  O   UNL d   1      -1.811  -2.210   7.796  0.00  0.00    -0.233 OA
ATOM     16  N   UNL d   1      -1.807  -2.159   9.180  0.00  0.00    -0.272 N 
ATOM     17  C   UNL d   1      -1.134  -3.243   9.571  0.00  0.00     0.117 A 
ATOM     18  HN  UNL d   1      -2.228  -1.444   9.774  1.00  0.00     0.194 HD
ATOM     19  C   UNL d   1      -0.697  -4.014   8.482  0.00  0.00     0.064 A 
ENDBRANCH  11  14
ENDBRANCH   9  10
ENDBRANCH   8   9
BRANCH   1  20
ATOM     20  O   UNL d   1       0.535  -0.055  -1.036  0.00  0.00    -0.294 OA
BRANCH  20  21
ATOM     21  C   UNL d   1       1.127   0.815  -2.045  0.00  0.00     0.061 C 
ATOM     22  C   UNL d   1       2.604   0.466  -2.277  0.00  0.00     0.046 C 
ATOM     23  C   UNL d   1       0.361   0.526  -3.349  0.00  0.00     0.046 C 
ATOM     24  C   UNL d   1       0.937   2.302  -1.712  0.00  0.00     0.046 C 
ENDBRANCH  20  21
ENDBRANCH   1  20
TORSDOF 5
