REMARK  2 active torsions:
REMARK  status: ('A' for Active; 'I' for Inactive)
REMARK    1  A    between atoms: C_8  and  C_4 
REMARK    2  A    between atoms: C_14  and  N_7 
ROOT
ATOM      1  N   UNL d   1       1.441  -0.534   0.035  0.00  0.00    -0.335 N 
ATOM      2  HN  UNL d   1       2.351  -0.994   0.032  1.00  0.00     0.168 HD
ATOM      3  C   UNL d   1       0.292  -1.170   0.018  0.00  0.00     0.149 A 
ATOM      4  C   UNL d   1       1.261   0.835   0.057  0.00  0.00     0.051 A 
ATOM      5  S   UNL d   1      -1.085  -0.135   0.138  0.00  0.00    -0.064 SA
ATOM      6  C   UNL d   1      -0.057   1.239   0.103  0.00  0.00     0.083 A 
ATOM      7  N   UNL d   1       0.127  -2.510  -0.073  0.00  0.00    -0.335 N 
ATOM      8  H   UNL d   1      -0.818  -2.863   0.000  0.00  0.00     0.168 HD
ENDROOT
BRANCH   7   9
ATOM      9  C   UNL d   1       1.035  -3.423  -0.645  0.00  0.00     0.049 A 
ATOM     10  C   UNL d   1       2.235  -3.072  -1.271  0.00  0.00     0.117 A 
ATOM     11  N   UNL d   1       3.125  -3.950  -1.806  0.00  0.00    -0.373 N 
ATOM     12  C   UNL d   1       2.821  -5.257  -1.695  0.00  0.00     0.088 A 
ATOM     13  HN  UNL d   1       3.978  -3.635  -2.268  1.00  0.00     0.164 HD
ATOM     14  C   UNL d   1       1.680  -5.725  -1.067  0.00  0.00     0.019 A 
ATOM     15  C   UNL d   1       0.786  -4.795  -0.534  0.00  0.00     0.032 A 
ENDBRANCH   7   9
BRANCH   4  16
ATOM     16  C   UNL d   1       2.413   1.726   0.043  0.00  0.00    -0.009 A 
ATOM     17  C   UNL d   1       2.364   2.994  -0.554  0.00  0.00     0.017 A 
ATOM     18  C   UNL d   1       3.499   3.809  -0.571  0.00  0.00     0.043 A 
ATOM     19  C   UNL d   1       4.680   3.360   0.009  0.00  0.00     0.116 A 
ATOM     20  C   UNL d   1       4.753   2.106   0.600  0.00  0.00     0.043 A 
ATOM     21  F   UNL d   1       5.765   4.145  -0.011  0.00  0.00    -0.206 F 
ATOM     22  C   UNL d   1       3.621   1.288   0.613  0.00  0.00     0.017 A 
ENDBRANCH   4  16
TORSDOF 2
