REMARK  2 active torsions:
REMARK  status: ('A' for Active; 'I' for Inactive)
REMARK    1  A    between atoms: C_10  and  C_5 
REMARK    2  A    between atoms: C_11  and  C_6 
ROOT
ATOM      1  N   UNL d   1       0.894   1.560  -0.426  0.00  0.00    -0.357 N 
ATOM      2  HN  UNL d   1       0.802   2.407  -0.987  1.00  0.00     0.166 HD
ATOM      3  N   UNL d   1       0.902  -1.489  -0.534  0.00  0.00    -0.357 N 
ATOM      4  HN  UNL d   1       0.807  -2.292  -1.155  1.00  0.00     0.166 HD
ATOM      5  C   UNL d   1       2.059  -1.212  -0.012  0.00  0.00     0.025 C 
ATOM      6  C   UNL d   1       2.046   1.254   0.091  0.00  0.00     0.025 C 
ATOM      7  C   UNL d   1       2.267  -0.016   0.892  0.00  0.00     0.115 C 
ATOM      8  C   UNL d   1      -0.225  -0.687  -0.250  0.00  0.00     0.059 A 
ATOM      9  C   UNL d   1      -0.234   0.730  -0.217  0.00  0.00     0.059 A 
ATOM     10  C   UNL d   1      -1.450   1.391   0.018  0.00  0.00     0.032 A 
ATOM     11  C   UNL d   1      -1.421  -1.382  -0.020  0.00  0.00     0.032 A 
ATOM     12  C   UNL d   1      -2.615  -0.707   0.235  0.00  0.00     0.002 A 
ATOM     13  C   UNL d   1      -2.631   0.682   0.246  0.00  0.00     0.002 A 
ENDROOT
BRANCH   5  14
ATOM     14  C   UNL d   1       3.230  -2.076  -0.362  0.00  0.00    -0.013 A 
ATOM     15  C   UNL d   1       4.321  -2.244   0.498  0.00  0.00     0.013 A 
ATOM     16  C   UNL d   1       5.386  -3.071   0.131  0.00  0.00     0.001 A 
ATOM     17  C   UNL d   1       5.363  -3.744  -1.089  0.00  0.00     0.000 A 
ATOM     18  C   UNL d   1       4.277  -3.589  -1.948  0.00  0.00     0.001 A 
ATOM     19  C   UNL d   1       3.214  -2.758  -1.587  0.00  0.00     0.013 A 
ENDBRANCH   5  14
BRANCH   6  20
ATOM     20  C   UNL d   1       3.221   2.133  -0.170  0.00  0.00    -0.013 A 
ATOM     21  C   UNL d   1       4.263   2.268   0.756  0.00  0.00     0.013 A 
ATOM     22  C   UNL d   1       5.386   3.037   0.444  0.00  0.00     0.001 A 
ATOM     23  C   UNL d   1       5.465   3.691  -0.784  0.00  0.00     0.000 A 
ATOM     24  C   UNL d   1       4.416   3.590  -1.697  0.00  0.00     0.001 A 
ATOM     25  C   UNL d   1       3.295   2.815  -1.392  0.00  0.00     0.013 A 
ENDBRANCH   6  20
TORSDOF 2
