REMARK  6 active torsions:
REMARK  status: ('A' for Active; 'I' for Inactive)
REMARK    1  A    between atoms: S_12  and  C_5 
REMARK    2  A    between atoms: N_21  and  C_6 
REMARK    3  A    between atoms: S_20  and  C_7 
REMARK    4  A    between atoms: C_18  and  S_12 
REMARK    5  A    between atoms: C_13  and  C_16 
REMARK    6  A    between atoms: C_16  and  C_18 
ROOT
ATOM      1  C   UNL d   1      -1.489  -0.114   0.097  0.00  0.00     0.096 A 
ATOM      2  C   UNL d   1       0.909  -0.470  -0.072  0.00  0.00     0.101 A 
ATOM      3  N   UNL d   1       0.020   1.761  -0.056  0.00  0.00    -0.339 N 
ATOM      4  HN  UNL d   1       0.170   2.768  -0.103  1.00  0.00     0.167 HD
ATOM      5  C   UNL d   1      -1.237   1.259   0.030  0.00  0.00     0.093 A 
ATOM      6  C   UNL d   1       1.065   0.916  -0.077  0.00  0.00     0.101 A 
ATOM      7  C   UNL d   1      -0.393  -1.001   0.018  0.00  0.00     0.047 A 
ATOM      8  C   UNL d   1      -2.825  -0.599   0.287  0.00  0.00     0.103 C 
ATOM      9  C   UNL d   1       2.077  -1.303  -0.132  0.00  0.00     0.104 C 
ATOM     10  N   UNL d   1      -3.895  -1.019   0.443  0.00  0.00    -0.191 NA
ATOM     11  N   UNL d   1       3.038  -1.951  -0.166  0.00  0.00    -0.191 NA
ENDROOT
BRANCH   5  12
ATOM     12  S   UNL d   1      -2.548   2.485   0.064  0.00  0.00    -0.103 SA
BRANCH  12  13
ATOM     13  C   UNL d   1      -1.589   4.029  -0.113  0.00  0.00     0.164 C 
BRANCH  13  14
ATOM     14  C   UNL d   1      -2.468   5.272  -0.109  0.00  0.00     0.169 C 
ATOM     15  O   UNL d   1      -3.696   5.247  -0.122  0.00  0.00    -0.291 OA
BRANCH  14  16
ATOM     16  C   UNL d   1      -1.791   6.613  -0.100  0.00  0.00     0.012 A 
ATOM     17  C   UNL d   1      -0.398   6.753  -0.113  0.00  0.00     0.040 A 
ATOM     18  C   UNL d   1       0.187   8.028  -0.072  0.00  0.00     0.056 A 
ATOM     19 CL   UNL d   1       1.915   8.110  -0.073  0.00  0.00    -0.083 Cl
ATOM     20  C   UNL d   1      -0.615   9.172  -0.025  0.00  0.00     0.055 A 
ATOM     21  C   UNL d   1      -2.005   9.038  -0.029  0.00  0.00     0.026 A 
ATOM     22 CL   UNL d   1       0.044  10.767   0.043  0.00  0.00    -0.083 Cl
ATOM     23  C   UNL d   1      -2.588   7.767  -0.066  0.00  0.00     0.017 A 
ENDBRANCH  14  16
ENDBRANCH  13  14
ENDBRANCH  12  13
ENDBRANCH   5  12
BRANCH   7  24
ATOM     24  S   UNL d   1      -0.604  -2.796   0.157  0.00  0.00    -0.131 SA
ATOM     25  C   UNL d   1      -1.395  -3.187  -1.433  0.00  0.00     0.095 C 
ENDBRANCH   7  24
BRANCH   6  26
ATOM     26  N   UNL d   1       2.304   1.541  -0.165  0.00  0.00    -0.287 NA
ATOM     27  H   UNL d   1       2.994   1.197   0.496  0.00  0.00     0.125 HD
ATOM     28  H   UNL d   1       2.181   2.547  -0.092  0.00  0.00     0.125 HD
ENDBRANCH   6  26
TORSDOF 6
