REMARK  5 active torsions:
REMARK  status: ('A' for Active; 'I' for Inactive)
REMARK    1  A    between atoms: C_7  and  N_1 
REMARK    2  A    between atoms: S_12  and  C_2 
REMARK    3  A    between atoms: C_9  and  C_7 
REMARK    4  A    between atoms: N_11  and  C_8 
REMARK    5  A    between atoms: C_14  and  N_11 
ROOT
ATOM      1  N   UNL d   1       1.394  -1.042  -0.167  0.00  0.00    -0.288 N 
ATOM      2  C   UNL d   1       0.071  -1.350  -0.050  0.00  0.00     0.149 A 
ATOM      3  C   UNL d   1       0.071   0.749  -0.099  0.00  0.00     0.118 A 
ATOM      4  C   UNL d   1       1.485   0.321  -0.235  0.00  0.00     0.278 A 
ATOM      5  N   UNL d   1      -0.755  -0.352   0.000  0.00  0.00    -0.331 N 
ATOM      6  HN  UNL d   1      -1.771  -0.375   0.091  1.00  0.00     0.168 HD
ATOM      7  C   UNL d   1      -0.297   2.033  -0.071  0.00  0.00     0.123 C 
ATOM      8  O   UNL d   1       2.462   1.030  -0.375  0.00  0.00    -0.265 OA
ENDROOT
BRANCH   7   9
ATOM      9  N   UNL d   1      -1.581   2.510   0.036  0.00  0.00    -0.364 N 
ATOM     10  H   UNL d   1      -2.300   1.791   0.079  0.00  0.00     0.165 HD
BRANCH   9  11
ATOM     11  C   UNL d   1      -2.008   3.838   0.173  0.00  0.00     0.032 A 
ATOM     12  C   UNL d   1      -3.292   4.182  -0.274  0.00  0.00     0.031 A 
ATOM     13  C   UNL d   1      -3.752   5.501  -0.209  0.00  0.00     0.026 A 
ATOM     14  C   UNL d   1      -2.925   6.494   0.306  0.00  0.00     0.034 A 
ATOM     15  C   UNL d   1      -1.639   6.181   0.735  0.00  0.00     0.026 A 
ATOM     16 CL   UNL d   1      -3.494   8.114   0.413  0.00  0.00    -0.084 Cl
ATOM     17  C   UNL d   1      -1.180   4.862   0.651  0.00  0.00     0.031 A 
ENDBRANCH   9  11
ENDBRANCH   7   9
BRANCH   1  18
ATOM     18  C   UNL d   1       2.577  -1.893  -0.241  0.00  0.00     0.174 C 
BRANCH  18  19
ATOM     19  C   UNL d   1       3.223  -2.240   1.091  0.00  0.00    -0.018 A 
ATOM     20  C   UNL d   1       4.370  -3.058   1.132  0.00  0.00     0.042 A 
ATOM     21 CL   UNL d   1       5.129  -3.630  -0.313  0.00  0.00    -0.084 Cl
ATOM     22  C   UNL d   1       4.947  -3.438   2.351  0.00  0.00     0.024 A 
ATOM     23  C   UNL d   1       4.402  -2.993   3.552  0.00  0.00     0.002 A 
ATOM     24  C   UNL d   1       3.293  -2.153   3.533  0.00  0.00     0.001 A 
ATOM     25  C   UNL d   1       2.711  -1.778   2.317  0.00  0.00     0.010 A 
ENDBRANCH  18  19
ENDBRANCH   1  18
BRANCH   2  26
ATOM     26  S   UNL d   1      -0.428  -3.009   0.030  0.00  0.00    -0.098 SA
ATOM     27  C   UNL d   1      -2.228  -2.850   0.135  0.00  0.00     0.099 C 
ENDBRANCH   2  26
TORSDOF 5
