REMARK  5 active torsions:
REMARK  status: ('A' for Active; 'I' for Inactive)
REMARK    1  A    between atoms: N_6  and  N_1 
REMARK       I    between atoms: C_3  and  N_6 
REMARK    2  A    between atoms: O_9  and  C_3 
REMARK    3  A    between atoms: C_4  and  C_5 
REMARK    4  A    between atoms: O_10  and  C_7 
REMARK    5  A    between atoms: C_14  and  O_9 
ROOT
ATOM      1  N   UNL d   1       1.011   0.091   0.070  0.00  0.00    -0.300 N 
ATOM      2  HN  UNL d   1       2.029   0.036   0.116  1.00  0.00     0.186 HD
ATOM      3  C   UNL d   1       0.297  -0.994  -0.027  0.00  0.00     0.035 C 
ATOM      4  C   UNL d   1      -1.216  -1.010  -0.048  0.00  0.00     0.070 C 
ENDROOT
BRANCH   3   5
ATOM      5  C   UNL d   1       1.033  -2.292  -0.065  0.00  0.00     0.021 A 
ATOM      6  C   UNL d   1       2.262  -2.426   0.599  0.00  0.00     0.077 A 
ATOM      7  C   UNL d   1       2.942  -3.642   0.594  0.00  0.00     0.037 A 
ATOM      8  C   UNL d   1       2.415  -4.730  -0.098  0.00  0.00     0.003 A 
ATOM      9  C   UNL d   1       1.208  -4.600  -0.787  0.00  0.00     0.001 A 
ATOM     10  C   UNL d   1       0.517  -3.386  -0.772  0.00  0.00     0.016 A 
BRANCH   6  11
ATOM     11  O   UNL d   1       2.863  -1.402   1.282  0.00  0.00    -0.360 OA
ATOM     12  H   UNL d   1       2.441  -0.560   0.996  0.00  0.00     0.217 HD
ENDBRANCH   6  11
ENDBRANCH   3   5
BRANCH   1  13
ATOM     13  N   UNL d   1       0.389   1.295   0.108  0.00  0.00    -0.245 N 
ATOM     14  C   UNL d   1       1.086   2.425   0.457  0.00  0.00     0.379 C 
ATOM     15  O   UNL d   1       2.282   2.486   0.708  0.00  0.00    -0.237 OA
ATOM     16  H   UNL d   1      -0.612   1.385   0.004  0.00  0.00     0.192 HD
BRANCH  14  17
ATOM     17  O   UNL d   1       0.215   3.464   0.552  0.00  0.00    -0.303 OA
BRANCH  17  18
ATOM     18  C   UNL d   1       0.745   4.649   1.162  0.00  0.00     0.176 C 
ATOM     19  C   UNL d   1       0.569   4.547   2.667  0.00  0.00     0.034 C 
ENDBRANCH  17  18
ENDBRANCH  14  17
ENDBRANCH   1  13
TORSDOF 5
