REMARK  3 active torsions:
REMARK  status: ('A' for Active; 'I' for Inactive)
REMARK    1  A    between atoms: C_8  and  N_1 
REMARK    2  A    between atoms: C_13  and  C_8 
REMARK    3  A    between atoms: C_9  and  C_13 
ROOT
ATOM      1  N   UNL d   1       1.888   0.054   0.027  0.00  0.00    -0.280 N 
ATOM      2  C   UNL d   1       1.079   1.155  -0.064  0.00  0.00     0.261 A 
ATOM      3  C   UNL d   1       1.148  -1.103   0.009  0.00  0.00     0.261 A 
ATOM      4  C   UNL d   1      -0.260  -0.704   0.023  0.00  0.00     0.048 A 
ATOM      5  C   UNL d   1      -0.297   0.676  -0.011  0.00  0.00     0.048 A 
ATOM      6  O   UNL d   1       1.359   2.329  -0.203  0.00  0.00    -0.267 OA
ATOM      7  O   UNL d   1       1.527  -2.257  -0.043  0.00  0.00    -0.267 OA
ATOM      8  C   UNL d   1      -1.417  -1.458   0.039  0.00  0.00     0.018 A 
ATOM      9  C   UNL d   1      -1.482   1.385  -0.017  0.00  0.00     0.018 A 
ATOM     10  C   UNL d   1      -2.634  -0.764   0.035  0.00  0.00     0.001 A 
ATOM     11  C   UNL d   1      -2.667   0.646   0.010  0.00  0.00     0.001 A 
ENDROOT
BRANCH   1  12
ATOM     12  C   UNL d   1       3.339   0.061  -0.127  0.00  0.00     0.139 C 
BRANCH  12  13
ATOM     13  C   UNL d   1       4.043   1.244   0.548  0.00  0.00     0.047 C 
BRANCH  13  14
ATOM     14  C   UNL d   1       5.540   1.187   0.412  0.00  0.00    -0.035 C 
ATOM     15  C   UNL d   1       6.258   2.139  -0.198  0.00  0.00     0.007 C 
ENDBRANCH  13  14
ENDBRANCH  12  13
ENDBRANCH   1  12
TORSDOF 3
