REMARK  3 active torsions:
REMARK  status: ('A' for Active; 'I' for Inactive)
REMARK    1  A    between atoms: C_4  and  C_1 
REMARK    2  A    between atoms: C_5  and  C_1 
REMARK    3  A    between atoms: O_6  and  N_2 
ROOT
ATOM      1  C   UNL d   1       0.975  -0.146   0.041  0.00  0.00     0.045 C 
ATOM      2  N   UNL d   1       0.227  -1.201  -0.098  0.00  0.00    -0.272 N 
ATOM      3  HN  UNL d   1      -0.791  -1.167  -0.045  1.00  0.00     0.194 HD
ENDROOT
BRANCH   1   4
ATOM      4  C   UNL d   1       2.485  -0.109   0.091  0.00  0.00    -0.011 A 
ATOM      5  C   UNL d   1       3.197   0.984  -0.426  0.00  0.00     0.013 A 
ATOM      6  C   UNL d   1       4.594   1.020  -0.372  0.00  0.00     0.001 A 
ATOM      7  C   UNL d   1       5.304  -0.046   0.178  0.00  0.00     0.000 A 
ATOM      8  C   UNL d   1       4.614  -1.139   0.691  0.00  0.00     0.001 A 
ATOM      9  C   UNL d   1       3.217  -1.162   0.663  0.00  0.00     0.013 A 
ENDBRANCH   1   4
BRANCH   1  10
ATOM     10  C   UNL d   1       0.214   1.201   0.145  0.00  0.00     0.030 C 
ATOM     11  C   UNL d   1      -0.612   1.421  -1.127  0.00  0.00     0.016 C 
ATOM     12  C   UNL d   1      -0.691   1.248   1.375  0.00  0.00     0.016 C 
ENDBRANCH   1  10
BRANCH   2  13
ATOM     13  O   UNL d   1       0.933  -2.382  -0.325  0.00  0.00    -0.290 OA
ATOM     14  H   UNL d   1       0.221  -3.049  -0.367  0.00  0.00     0.244 HD
ENDBRANCH   2  13
TORSDOF 3
