REMARK  7 active torsions:
REMARK  status: ('A' for Active; 'I' for Inactive)
REMARK    1  A    between atoms: C_18  and  N_1 
REMARK    2  A    between atoms: S_17  and  C_2 
REMARK    3  A    between atoms: C_10  and  C_3 
REMARK    4  A    between atoms: N_8  and  C_7 
REMARK    5  A    between atoms: C_27  and  C_18 
REMARK    6  A    between atoms: C_20  and  O_26 
REMARK    7  A    between atoms: O_26  and  C_27 
ROOT
ATOM      1  N   UNL d   1       1.451  -1.003  -0.133  0.00  0.00    -0.291 N 
ATOM      2  C   UNL d   1       0.141  -1.353  -0.025  0.00  0.00     0.149 A 
ATOM      3  C   UNL d   1       0.061   0.750  -0.010  0.00  0.00     0.104 A 
ATOM      4  N   UNL d   1      -0.712  -0.382   0.060  0.00  0.00    -0.332 N 
ATOM      5  HN  UNL d   1      -1.725  -0.444   0.157  1.00  0.00     0.168 HD
ATOM      6  C   UNL d   1       1.493   0.364  -0.139  0.00  0.00     0.276 A 
ATOM      7  O   UNL d   1       2.437   1.126  -0.227  0.00  0.00    -0.265 OA
ENDROOT
BRANCH   1   8
ATOM      8  C   UNL d   1       2.611  -1.894  -0.214  0.00  0.00     0.161 C 
BRANCH   8   9
ATOM      9  C   UNL d   1       3.968  -1.201  -0.352  0.00  0.00     0.196 C 
BRANCH   9  10
ATOM     10  O   UNL d   1       5.011  -2.179  -0.398  0.00  0.00    -0.350 OA
BRANCH  10  11
ATOM     11  C   UNL d   1       6.280  -1.661  -0.466  0.00  0.00     0.068 A 
ATOM     12  C   UNL d   1       7.295  -2.495   0.007  0.00  0.00     0.038 A 
ATOM     13  C   UNL d   1       8.628  -2.074  -0.017  0.00  0.00     0.026 A 
ATOM     14  C   UNL d   1       8.948  -0.820  -0.533  0.00  0.00     0.034 A 
ATOM     15  C   UNL d   1       7.946   0.013  -1.023  0.00  0.00     0.026 A 
ATOM     16 CL   UNL d   1      10.586  -0.299  -0.571  0.00  0.00    -0.084 Cl
ATOM     17  C   UNL d   1       6.612  -0.407  -0.989  0.00  0.00     0.038 A 
ENDBRANCH  10  11
ENDBRANCH   9  10
ENDBRANCH   8   9
ENDBRANCH   1   8
BRANCH   2  18
ATOM     18  S   UNL d   1      -0.330  -3.019  -0.012  0.00  0.00    -0.098 SA
ATOM     19  C   UNL d   1      -2.129  -2.848   0.081  0.00  0.00     0.099 C 
ENDBRANCH   2  18
BRANCH   3  20
ATOM     20  C   UNL d   1      -0.332   2.031  -0.002  0.00  0.00     0.054 C 
ATOM     21  C   UNL d   1      -1.702   2.401   0.123  0.00  0.00     0.009 A 
ATOM     22  S   UNL d   1      -2.261   3.842  -0.645  0.00  0.00    -0.066 SA
ATOM     23  C   UNL d   1      -2.743   1.783   0.800  0.00  0.00     0.022 A 
ATOM     24  C   UNL d   1      -3.858   3.576  -0.138  0.00  0.00     0.144 A 
ATOM     25  C   UNL d   1      -3.990   2.452   0.644  0.00  0.00     0.045 A 
BRANCH  24  26
ATOM     26  N   UNL d   1      -4.914   4.476  -0.521  0.00  0.00    -0.108 N 
ATOM     27  O   UNL d   1      -6.048   4.199  -0.106  0.00  0.00    -0.531 OA
ATOM     28  O   UNL d   1      -4.630   5.449  -1.232  0.00  0.00    -0.531 OA
ENDBRANCH  24  26
ENDBRANCH   3  20
TORSDOF 7
