REMARK  2 active torsions:
REMARK  status: ('A' for Active; 'I' for Inactive)
REMARK    1  A    between atoms: N_7  and  N_4 
REMARK    2  A    between atoms: C_8  and  N_7 
ROOT
ATOM      1  C   UNL d   1       2.171   0.689   0.333  0.00  0.00     0.012 A 
ATOM      2  C   UNL d   1       1.997  -0.461   1.088  0.00  0.00     0.053 A 
ATOM      3  C   UNL d   1       1.025   1.495  -0.111  0.00  0.00     0.034 C 
ATOM      4  N   UNL d   1       1.068   2.724  -0.538  0.00  0.00    -0.320 N 
ATOM      5  HN  UNL d   1       0.226   3.156  -0.919  1.00  0.00     0.181 HD
ATOM      6  S   UNL d   1       3.468  -1.234   1.483  0.00  0.00    -0.094 SA
ATOM      7  S   UNL d   1       0.464  -1.147   1.619  0.00  0.00    -0.121 SA
ATOM      8  C   UNL d   1       3.569   0.876   0.042  0.00  0.00     0.022 A 
ATOM      9  C   UNL d   1       4.376  -0.077   0.623  0.00  0.00     0.052 A 
ATOM     10  C   UNL d   1      -0.351   0.847  -0.095  0.00  0.00     0.069 C 
ATOM     11  C   UNL d   1      -0.639   0.249   1.269  0.00  0.00     0.086 C 
ENDROOT
BRANCH   4  12
ATOM     12  N   UNL d   1       2.221   3.437  -0.482  0.00  0.00    -0.203 NA
ATOM     13  H   UNL d   1       2.709   3.459   0.419  0.00  0.00     0.153 HD
BRANCH  12  14
ATOM     14  C   UNL d   1       2.197   4.725  -1.074  0.00  0.00     0.066 A 
ATOM     15  C   UNL d   1       3.119   5.700  -0.661  0.00  0.00     0.142 A 
ATOM     16  C   UNL d   1       3.167   6.961  -1.246  0.00  0.00     0.086 A 
ATOM     17  F   UNL d   1       3.969   5.418   0.340  0.00  0.00    -0.204 F 
ATOM     18  C   UNL d   1       2.293   7.248  -2.285  0.00  0.00     0.119 A 
ATOM     19  C   UNL d   1       1.389   6.296  -2.745  0.00  0.00     0.044 A 
ATOM     20  F   UNL d   1       2.326   8.456  -2.860  0.00  0.00    -0.206 F 
ATOM     21  C   UNL d   1       1.348   5.035  -2.146  0.00  0.00     0.031 A 
ENDBRANCH  12  14
ENDBRANCH   4  12
TORSDOF 2
