REMARK  3 active torsions:
REMARK  status: ('A' for Active; 'I' for Inactive)
REMARK    1  A    between atoms: C_3  and  C_1 
REMARK       I    between atoms: N_2  and  C_3 
REMARK       I    between atoms: C_6  and  N_2 
REMARK       I    between atoms: N_11  and  C_6 
REMARK    2  A    between atoms: C_17  and  N_11 
REMARK    3  A    between atoms: C_18  and  C_14 
ROOT
ATOM      1  N   UNL d   1      -3.979   2.775  -0.710  0.00  0.00    -0.272 N 
ATOM      2  C   UNL d   1      -3.554   4.004  -0.230  0.00  0.00     0.295 C 
ATOM      3  C   UNL d   1      -3.409   1.534  -0.586  0.00  0.00     0.327 C 
ATOM      4  N   UNL d   1      -2.310   1.456   0.226  0.00  0.00    -0.309 N 
ATOM      5  O   UNL d   1      -3.928   0.614  -1.215  0.00  0.00    -0.247 OA
ATOM      6  O   UNL d   1      -2.565   4.148   0.484  0.00  0.00    -0.264 OA
ATOM      7  H   UNL d   1      -4.786   2.784  -1.322  0.00  0.00     0.174 HD
ATOM      8  H   UNL d   1      -2.060   2.309   0.720  0.00  0.00     0.170 HD
ENDROOT
BRANCH   4   9
ATOM      9  C   UNL d   1      -1.439   0.357   0.388  0.00  0.00     0.036 A 
ATOM     10  C   UNL d   1      -1.548  -0.828  -0.338  0.00  0.00     0.030 A 
ATOM     11  C   UNL d   1      -0.564  -1.818  -0.243  0.00  0.00     0.010 A 
ATOM     12  C   UNL d   1       0.544  -1.654   0.594  0.00  0.00    -0.055 A 
ATOM     13  C   UNL d   1       0.607  -0.495   1.383  0.00  0.00     0.010 A 
ATOM     14  C   UNL d   1      -0.371   0.501   1.278  0.00  0.00     0.030 A 
BRANCH  12  15
ATOM     15  C   UNL d   1       1.721  -2.615   0.587  0.00  0.00     0.010 C 
ATOM     16  C   UNL d   1       1.372  -4.066   0.241  0.00  0.00     0.015 C 
ATOM     17  C   UNL d   1       2.783  -2.091  -0.388  0.00  0.00     0.015 C 
ENDBRANCH  12  15
ENDBRANCH   4   9
BRANCH   2  18
ATOM     18  C   UNL d   1      -4.444   5.092  -0.657  0.00  0.00     0.196 A 
ATOM     19  N   UNL d   1      -5.587   4.858  -1.410  0.00  0.00    -0.326 N 
ATOM     20  C   UNL d   1      -6.087   6.062  -1.526  0.00  0.00     0.261 A 
ATOM     21  HN  UNL d   1      -5.943   3.976  -1.779  1.00  0.00     0.169 HD
ATOM     22  O   UNL d   1      -5.348   7.026  -0.923  0.00  0.00    -0.231 OA
ATOM     23  N   UNL d   1      -4.252   6.384  -0.344  0.00  0.00    -0.239 N 
ATOM     24  HN  UNL d   1      -3.487   6.797   0.189  1.00  0.00     0.196 HD
ENDBRANCH   2  18
TORSDOF 3
