REMARK  5 active torsions:
REMARK  status: ('A' for Active; 'I' for Inactive)
REMARK    1  A    between atoms: C_3  and  C_1 
REMARK    2  A    between atoms: O_2  and  C_3 
REMARK    3  A    between atoms: C_4  and  O_2 
REMARK    4  A    between atoms: C_11  and  C_3 
REMARK    5  A    between atoms: C_9  and  C_4 
ROOT
ATOM      1  C   UNL d   1       1.346  -2.685   0.010  0.00  0.00     0.186 C 
ENDROOT
BRANCH   1   2
ATOM      2  O   UNL d   1       2.091  -3.188   1.157  0.00  0.00    -0.305 OA
BRANCH   2   3
ATOM      3  C   UNL d   1       3.429  -2.994   1.135  0.00  0.00     0.294 C 
ATOM      4  O   UNL d   1       4.069  -2.555   0.193  0.00  0.00    -0.259 OA
BRANCH   3   5
ATOM      5  C   UNL d   1       4.048  -3.400   2.424  0.00  0.00     0.039 A 
ATOM      6  C   UNL d   1       5.441  -3.319   2.543  0.00  0.00     0.017 A 
ATOM      7  C   UNL d   1       6.072  -3.657   3.742  0.00  0.00     0.001 A 
ATOM      8  C   UNL d   1       5.314  -4.081   4.832  0.00  0.00     0.000 A 
ATOM      9  C   UNL d   1       3.927  -4.175   4.723  0.00  0.00     0.001 A 
ATOM     10  C   UNL d   1       3.291  -3.837   3.523  0.00  0.00     0.017 A 
ENDBRANCH   3   5
ENDBRANCH   2   3
ENDBRANCH   1   2
BRANCH   1  11
ATOM     11  C   UNL d   1       1.072  -1.197   0.231  0.00  0.00     0.050 A 
ATOM     12  C   UNL d   1       1.559  -0.182  -0.644  0.00  0.00    -0.001 A 
ATOM     13  C   UNL d   1       1.428   1.158  -0.202  0.00  0.00    -0.023 A 
ATOM     14  C   UNL d   1       2.181  -0.384  -1.904  0.00  0.00     0.014 A 
ATOM     15  C   UNL d   1       1.950   2.218  -0.964  0.00  0.00     0.012 A 
ATOM     16  C   UNL d   1       0.794   1.434   1.009  0.00  0.00     0.029 A 
ATOM     17  C   UNL d   1       2.582   1.982  -2.182  0.00  0.00     0.001 A 
ATOM     18  C   UNL d   1       2.683   0.683  -2.659  0.00  0.00     0.001 A 
ATOM     19  C   UNL d   1       0.311   0.385   1.760  0.00  0.00     0.089 A 
ATOM     20  N   UNL d   1       0.443  -0.905   1.407  0.00  0.00    -0.366 N 
ATOM     21  HN  UNL d   1       0.082  -1.649   2.005  1.00  0.00     0.165 HD
ENDBRANCH   1  11
BRANCH   1  22
ATOM     22  C   UNL d   1       0.097  -3.599  -0.137  0.00  0.00     0.013 C 
ATOM     23  C   UNL d   1      -0.844  -3.606   1.073  0.00  0.00     0.012 C 
ATOM     24  C   UNL d   1      -0.692  -3.323  -1.416  0.00  0.00     0.012 C 
ENDBRANCH   1  22
TORSDOF 5
