REMARK  2 active torsions:
REMARK  status: ('A' for Active; 'I' for Inactive)
REMARK    1  A    between atoms: C_11  and  N_3 
REMARK    2  A    between atoms: C_12  and  C_11 
ROOT
ATOM      1  N   UNL d   1       5.350  -1.511  -1.826  0.00  0.00    -0.197 NA
ATOM      2  C   UNL d   1       5.043  -0.591  -1.199  0.00  0.00     0.060 C 
ATOM      3  C   UNL d   1       4.638   0.581  -0.417  0.00  0.00     0.143 C 
ENDROOT
BRANCH   3   4
ATOM      4  C   UNL d   1       3.158   0.899  -0.585  0.00  0.00     0.140 C 
BRANCH   4   5
ATOM      5  N   UNL d   1       2.212   0.109   0.206  0.00  0.00    -0.341 N 
ATOM      6  C   UNL d   1       1.004   0.756   0.527  0.00  0.00     0.283 C 
ATOM      7  C   UNL d   1      -0.172  -0.203   0.253  0.00  0.00     0.253 C 
ATOM      8  O   UNL d   1       0.908   1.933   0.855  0.00  0.00    -0.267 OA
ATOM      9  C   UNL d   1       0.494  -1.488  -0.263  0.00  0.00     0.081 C 
ATOM     10  O   UNL d   1      -1.024  -0.400   1.375  0.00  0.00    -0.345 OA
ATOM     11  O   UNL d   1      -0.932   0.358  -0.842  0.00  0.00    -0.345 OA
ATOM     12  C   UNL d   1       1.997  -1.320  -0.004  0.00  0.00     0.097 C 
ATOM     13  C   UNL d   1      -0.123  -2.789   0.257  0.00  0.00     0.013 C 
ATOM     14  C   UNL d   1       2.536  -2.141   1.180  0.00  0.00     0.026 C 
ATOM     15  C   UNL d   1       1.983  -3.565   1.308  0.00  0.00     0.002 C 
ATOM     16  C   UNL d   1       0.903  -3.906   0.290  0.00  0.00     0.001 C 
ATOM     17  C   UNL d   1      -2.220   0.312   1.053  0.00  0.00     0.198 C 
ATOM     18  C   UNL d   1      -2.288   0.223  -0.444  0.00  0.00     0.198 C 
ENDBRANCH   4   5
ENDBRANCH   3   4
TORSDOF 2
