REMARK  5 active torsions:
REMARK  status: ('A' for Active; 'I' for Inactive)
REMARK    1  A    between atoms: C_11  and  N_3 
REMARK    2  A    between atoms: N_14  and  C_9 
REMARK    3  A    between atoms: C_17  and  C_11 
REMARK    4  A    between atoms: N_15  and  N_14 
REMARK    5  A    between atoms: C_22  and  C_19 
ROOT
ATOM      1  C   UNL d   1      -0.200  -0.891  -0.018  0.00  0.00     0.160 A 
ATOM      2  C   UNL d   1      -0.467   0.444  -0.009  0.00  0.00     0.164 A 
ATOM      3  N   UNL d   1       1.867   0.856   0.029  0.00  0.00    -0.260 N 
ATOM      4  N   UNL d   1      -1.317  -1.639  -0.081  0.00  0.00    -0.172 N 
ATOM      5  HN  UNL d   1      -1.375  -2.656  -0.123  1.00  0.00     0.186 HD
ATOM      6  N   UNL d   1       1.073  -1.392   0.043  0.00  0.00    -0.287 N 
ATOM      7  C   UNL d   1       2.146  -0.519   0.131  0.00  0.00     0.333 A 
ATOM      8  C   UNL d   1       0.581   1.420  -0.007  0.00  0.00     0.283 A 
ATOM      9  C   UNL d   1      -2.321  -0.783  -0.076  0.00  0.00     0.701 A 
ATOM     10  N   UNL d   1      -1.841   0.518  -0.006  0.00  0.00    -0.177 N 
ATOM     11  O   UNL d   1       3.292  -0.942   0.299  0.00  0.00    -0.246 OA
ATOM     12  O   UNL d   1       0.372   2.630  -0.026  0.00  0.00    -0.265 OA
ATOM     13  C   UNL d   1       1.318  -2.822   0.056  0.00  0.00     0.163 C 
ATOM     14  C   UNL d   1      -2.652   1.710  -0.004  0.00  0.00     0.176 C 
ENDROOT
BRANCH   9  15
ATOM     15  N   UNL d   1      -3.636  -1.116  -0.161  0.00  0.00    -0.132 N 
ATOM     16  H   UNL d   1      -4.371  -0.461   0.090  0.00  0.00     0.205 HD
BRANCH  15  17
ATOM     17  N   UNL d   1      -3.957  -2.307  -0.735  0.00  0.00    -0.297 N 
ATOM     18  C   UNL d   1      -5.170  -2.739  -0.655  0.00  0.00     0.119 C 
ATOM     19  HN  UNL d   1      -3.247  -2.852  -1.223  1.00  0.00     0.186 HD
BRANCH  18  20
ATOM     20  C   UNL d   1      -5.540  -4.014  -1.318  0.00  0.00    -0.019 A 
ATOM     21  C   UNL d   1      -4.574  -4.753  -2.017  0.00  0.00     0.014 A 
ATOM     22  C   UNL d   1      -4.931  -5.926  -2.686  0.00  0.00     0.020 A 
ATOM     23  C   UNL d   1      -6.253  -6.360  -2.653  0.00  0.00     0.011 A 
ATOM     24  C   UNL d   1      -7.219  -5.638  -1.947  0.00  0.00     0.020 A 
ATOM     25 BR   UNL d   1      -6.748  -7.930  -3.582  0.00  0.00    -0.051 Br
ATOM     26  C   UNL d   1      -6.863  -4.461  -1.274  0.00  0.00     0.014 A 
ENDBRANCH  18  20
ENDBRANCH  15  17
ENDBRANCH   9  15
BRANCH   3  27
ATOM     27  C   UNL d   1       3.017   1.756   0.020  0.00  0.00     0.175 C 
BRANCH  27  28
ATOM     28  C   UNL d   1       3.636   1.898  -1.358  0.00  0.00    -0.037 A 
ATOM     29  C   UNL d   1       3.240   2.936  -2.214  0.00  0.00     0.051 A 
ATOM     30  C   UNL d   1       3.801   3.042  -3.484  0.00  0.00     0.117 A 
ATOM     31  F   UNL d   1       3.420   4.042  -4.290  0.00  0.00    -0.206 F 
ATOM     32  C   UNL d   1       4.749   2.129  -3.934  0.00  0.00     0.042 A 
ATOM     33  C   UNL d   1       5.153   1.096  -3.094  0.00  0.00     0.004 A 
ATOM     34  C   UNL d   1       4.604   0.986  -1.814  0.00  0.00     0.009 A 
ENDBRANCH  27  28
ENDBRANCH   3  27
TORSDOF 5
