REMARK  5 active torsions:
REMARK  status: ('A' for Active; 'I' for Inactive)
REMARK    1  A    between atoms: C_2  and  C_1 
REMARK       I    between atoms: N_5  and  C_2 
REMARK    2  A    between atoms: C_4  and  C_3 
REMARK    3  A    between atoms: C_11  and  N_5 
REMARK    4  A    between atoms: C_23  and  N_5 
REMARK    5  A    between atoms: S_18  and  C_9 
ROOT
ATOM      1  C   UNL d   1       0.671   1.239  -0.091  0.00  0.00     0.063 A 
ATOM      2  C   UNL d   1       1.139   0.192   0.712  0.00  0.00     0.067 A 
ATOM      3  C   UNL d   1      -0.307   0.943  -1.033  0.00  0.00     0.106 A 
ATOM      4  N   UNL d   1      -0.922  -0.260  -1.142  0.00  0.00    -0.360 N 
ATOM      5  HN  UNL d   1      -1.667  -0.413  -1.822  1.00  0.00     0.166 HD
ATOM      6  C   UNL d   1      -0.515  -1.246  -0.320  0.00  0.00     0.070 A 
ATOM      7  C   UNL d   1       0.524  -1.069   0.584  0.00  0.00     0.054 A 
ENDROOT
BRANCH   1   8
ATOM      8  C   UNL d   1       1.253   2.601  -0.023  0.00  0.00     0.260 C 
ATOM      9  N   UNL d   1       0.443   3.744   0.157  0.00  0.00    -0.314 N 
ATOM     10  O   UNL d   1       2.476   2.654  -0.146  0.00  0.00    -0.267 OA
BRANCH   9  11
ATOM     11  C   UNL d   1      -0.969   3.730  -0.013  0.00  0.00     0.037 A 
ATOM     12  C   UNL d   1      -1.786   3.025   0.877  0.00  0.00     0.031 A 
ATOM     13  C   UNL d   1      -3.164   2.943   0.646  0.00  0.00     0.026 A 
ATOM     14  C   UNL d   1      -3.720   3.564  -0.474  0.00  0.00     0.034 A 
ATOM     15  C   UNL d   1      -2.918   4.290  -1.349  0.00  0.00     0.026 A 
ATOM     16 CL   UNL d   1      -5.405   3.421  -0.785  0.00  0.00    -0.084 Cl
ATOM     17  C   UNL d   1      -1.544   4.382  -1.114  0.00  0.00     0.031 A 
ENDBRANCH   9  11
BRANCH   9  18
ATOM     18  C   UNL d   1       1.134   5.042   0.121  0.00  0.00     0.128 C 
ATOM     19  C   UNL d   1       0.418   6.188   0.835  0.00  0.00     0.027 C 
ENDBRANCH   9  18
ENDBRANCH   1   8
BRANCH   2  20
ATOM     20  C   UNL d   1       2.302   0.324   1.659  0.00  0.00     0.418 C 
ATOM     21  F   UNL d   1       2.478   1.561   2.192  0.00  0.00    -0.166 F 
ATOM     22  F   UNL d   1       2.151  -0.494   2.747  0.00  0.00    -0.166 F 
ATOM     23  F   UNL d   1       3.480  -0.044   1.094  0.00  0.00    -0.166 F 
ENDBRANCH   2  20
BRANCH   6  24
ATOM     24  S   UNL d   1      -1.327  -2.825  -0.414  0.00  0.00    -0.117 SA
ATOM     25  C   UNL d   1      -2.840  -2.353  -1.294  0.00  0.00     0.097 C 
ENDBRANCH   6  24
TORSDOF 5
