REMARK  7 active torsions:
REMARK  status: ('A' for Active; 'I' for Inactive)
REMARK    1  A    between atoms: C_9  and  S_1 
REMARK    2  A    between atoms: N_16  and  S_1 
REMARK    3  A    between atoms: C_12  and  C_3 
REMARK    4  A    between atoms: C_6  and  S_14 
REMARK       I    between atoms: C_13  and  N_15 
REMARK    5  A    between atoms: C_22  and  C_13 
REMARK    6  A    between atoms: S_14  and  C_22 
REMARK    7  A    between atoms: N_15  and  C_23 
ROOT
ATOM      1  C   UNL d   1      -1.991   5.165  -3.441  0.00  0.00     0.231 C 
ATOM      2  N   UNL d   1      -1.635   4.109  -4.271  0.00  0.00    -0.327 N 
ATOM      3  O   UNL d   1      -2.033   5.131  -2.211  0.00  0.00    -0.272 OA
ATOM      4  H   UNL d   1      -1.637   4.296  -5.266  0.00  0.00     0.169 HD
ENDROOT
BRANCH   1   5
ATOM      5  C   UNL d   1      -2.291   6.465  -4.176  0.00  0.00     0.186 C 
BRANCH   5   6
ATOM      6  S   UNL d   1      -3.700   6.237  -5.295  0.00  0.00    -0.075 SA
BRANCH   6   7
ATOM      7  C   UNL d   1      -3.932   7.853  -5.883  0.00  0.00     0.204 A 
ATOM      8  O   UNL d   1      -4.878   8.151  -6.825  0.00  0.00    -0.267 OA
ATOM      9  C   UNL d   1      -4.700   9.497  -7.006  0.00  0.00     0.175 A 
ATOM     10  N   UNL d   1      -3.740   9.981  -6.243  0.00  0.00    -0.277 N 
ATOM     11  N   UNL d   1      -3.240   8.914  -5.519  0.00  0.00    -0.272 N 
ATOM     12  HN  UNL d   1      -3.428  10.951  -6.196  1.00  0.00     0.189 HD
ATOM     13  HN  UNL d   1      -2.483   8.942  -4.836  1.00  0.00     0.189 HD
BRANCH   9  14
ATOM     14  C   UNL d   1      -5.554  10.155  -7.991  0.00  0.00     0.017 A 
ATOM     15  C   UNL d   1      -6.482   9.434  -8.762  0.00  0.00     0.017 A 
ATOM     16  C   UNL d   1      -7.283  10.080  -9.712  0.00  0.00     0.025 A 
ATOM     17  C   UNL d   1      -7.164  11.455  -9.898  0.00  0.00     0.034 A 
ATOM     18  C   UNL d   1      -6.252  12.188  -9.144  0.00  0.00     0.025 A 
ATOM     19 CL   UNL d   1      -8.147  12.248 -11.065  0.00  0.00    -0.084 Cl
ATOM     20  C   UNL d   1      -5.451  11.540  -8.195  0.00  0.00     0.017 A 
ENDBRANCH   9  14
ENDBRANCH   6   7
ENDBRANCH   5   6
ENDBRANCH   1   5
BRANCH   2  21
ATOM     21  C   UNL d   1      -1.317   2.786  -3.884  0.00  0.00     0.034 A 
ATOM     22  C   UNL d   1      -1.338   2.336  -2.559  0.00  0.00     0.031 A 
ATOM     23  C   UNL d   1      -1.008   1.013  -2.243  0.00  0.00     0.027 A 
ATOM     24  C   UNL d   1      -0.645   0.131  -3.258  0.00  0.00     0.074 A 
ATOM     25  C   UNL d   1      -0.629   0.556  -4.588  0.00  0.00     0.027 A 
ATOM     26  C   UNL d   1      -0.967   1.879  -4.896  0.00  0.00     0.031 A 
BRANCH  24  27
ATOM     27  S   UNL d   1      -0.185  -1.527  -2.849  0.00  0.00     0.239 S 
ATOM     28  O   UNL d   1       0.343  -2.177  -4.028  0.00  0.00    -0.206 OA
ATOM     29  O   UNL d   1      -1.222  -2.112  -2.038  0.00  0.00    -0.206 OA
BRANCH  27  30
ATOM     30  N   UNL d   1       1.140  -1.298  -1.842  0.00  0.00    -0.225 NA
ATOM     31  H   UNL d   1       1.999  -1.561  -2.326  0.00  0.00     0.136 HD
ATOM     32  H   UNL d   1       0.994  -1.800  -0.965  0.00  0.00     0.136 HD
ENDBRANCH  27  30
ENDBRANCH  24  27
ENDBRANCH   2  21
TORSDOF 7
