REMARK  5 active torsions:
REMARK  status: ('A' for Active; 'I' for Inactive)
REMARK    1  A    between atoms: O_3  and  C_1 
REMARK       I    between atoms: C_2  and  N_8 
REMARK       I    between atoms: N_6  and  C_2 
REMARK    2  A    between atoms: C_7  and  O_3 
REMARK    3  A    between atoms: C_12  and  N_6 
REMARK    4  A    between atoms: N_8  and  C_14 
REMARK    5  A    between atoms: O_21  and  C_16 
ROOT
ATOM      1  N   UNL d   1      -1.648   3.666  -1.725  0.00  0.00    -0.344 N 
ATOM      2  HN  UNL d   1      -1.085   3.962  -2.522  1.00  0.00     0.167 HD
ATOM      3  C   UNL d   1      -1.268   2.653  -0.915  0.00  0.00     0.148 A 
ATOM      4  C   UNL d   1      -3.656   3.898  -0.350  0.00  0.00     0.051 A 
ATOM      5  C   UNL d   1      -2.827   4.265  -1.413  0.00  0.00     0.119 A 
ATOM      6  C   UNL d   1      -2.035   2.175   0.132  0.00  0.00     0.059 A 
ATOM      7  C   UNL d   1      -3.240   2.812   0.418  0.00  0.00     0.035 A 
ENDROOT
BRANCH   4   8
ATOM      8  N   UNL d   1      -4.823   4.654  -0.080  0.00  0.00    -0.307 N 
ATOM      9  C   UNL d   1      -5.790   4.349   0.865  0.00  0.00     0.325 C 
ATOM     10  N   UNL d   1      -6.703   5.382   1.022  0.00  0.00    -0.309 N 
ATOM     11  O   UNL d   1      -5.825   3.295   1.487  0.00  0.00    -0.247 OA
ATOM     12  H   UNL d   1      -6.626   6.168   0.395  0.00  0.00     0.170 HD
ATOM     13  H   UNL d   1      -4.988   5.457  -0.669  0.00  0.00     0.170 HD
BRANCH  10  14
ATOM     14  C   UNL d   1      -7.784   5.419   1.937  0.00  0.00     0.039 A 
ATOM     15  C   UNL d   1      -7.997   4.451   2.926  0.00  0.00     0.066 A 
ATOM     16  C   UNL d   1      -9.107   4.515   3.773  0.00  0.00     0.070 A 
ATOM     17  C   UNL d   1      -9.999   5.579   3.650  0.00  0.00     0.037 A 
ATOM     18  C   UNL d   1      -9.787   6.566   2.689  0.00  0.00     0.005 A 
ATOM     19  C   UNL d   1      -8.682   6.488   1.837  0.00  0.00     0.030 A 
BRANCH  16  20
ATOM     20  O   UNL d   1      -9.419   3.606   4.749  0.00  0.00    -0.356 OA
ATOM     21  C   UNL d   1      -8.609   2.435   4.812  0.00  0.00     0.210 C 
ENDBRANCH  16  20
ENDBRANCH  10  14
ENDBRANCH   4   8
BRANCH   3  22
ATOM     22  O   UNL d   1      -0.028   2.043  -1.063  0.00  0.00    -0.290 OA
BRANCH  22  23
ATOM     23  C   UNL d   1       0.947   2.719  -1.758  0.00  0.00     0.121 A 
ATOM     24  C   UNL d   1       1.444   3.973  -1.373  0.00  0.00     0.069 A 
ATOM     25 CL   UNL d   1       0.890   4.815   0.035  0.00  0.00    -0.081 Cl
ATOM     26  C   UNL d   1       2.491   4.564  -2.090  0.00  0.00     0.027 A 
ATOM     27  C   UNL d   1       3.082   3.892  -3.159  0.00  0.00     0.003 A 
ATOM     28  C   UNL d   1       2.628   2.624  -3.515  0.00  0.00     0.027 A 
ATOM     29  C   UNL d   1       1.566   2.041  -2.818  0.00  0.00     0.069 A 
ATOM     30 CL   UNL d   1       1.073   0.448  -3.279  0.00  0.00    -0.081 Cl
ENDBRANCH  22  23
ENDBRANCH   3  22
TORSDOF 5
