REMARK  2 active torsions:
REMARK  status: ('A' for Active; 'I' for Inactive)
REMARK    1  A    between atoms: C_4  and  C_3 
REMARK       I    between atoms: N_5  and  C_4 
REMARK    2  A    between atoms: C_7  and  N_5 
ROOT
ATOM      1  C   UNL d   1       3.154   0.035   0.214  0.00  0.00     0.270 C 
ATOM      2  N   UNL d   1       3.753   1.265   0.033  0.00  0.00    -0.321 N 
ATOM      3  O   UNL d   1       2.023  -0.190   0.619  0.00  0.00    -0.266 OA
ATOM      4  H   UNL d   1       4.628   1.244  -0.485  0.00  0.00     0.169 HD
ENDROOT
BRANCH   1   5
ATOM      5  C   UNL d   1       4.025  -1.153  -0.165  0.00  0.00     0.094 C 
ATOM      6  N   UNL d   1       5.191  -0.940  -0.702  0.00  0.00    -0.297 N 
ATOM      7  N   UNL d   1       5.964  -2.037  -0.963  0.00  0.00    -0.270 N 
ATOM      8  HN  UNL d   1       5.514   0.003  -0.917  1.00  0.00     0.187 HD
ATOM      9  C   UNL d   1       5.572  -3.350  -0.900  0.00  0.00     0.236 C 
ATOM     10  H   UNL d   1       6.928  -1.864  -1.234  0.00  0.00     0.190 HD
ATOM     11  O   UNL d   1       6.356  -4.267  -1.132  0.00  0.00    -0.272 OA
ATOM     12  C   UNL d   1       4.113  -3.593  -0.632  0.00  0.00     0.111 C 
ATOM     13  C   UNL d   1       3.510  -2.509   0.227  0.00  0.00     0.073 C 
ENDBRANCH   1   5
BRANCH   2  14
ATOM     14  C   UNL d   1       3.209   2.507   0.429  0.00  0.00     0.042 A 
ATOM     15  C   UNL d   1       3.604   3.706  -0.202  0.00  0.00    -0.013 A 
ATOM     16  C   UNL d   1       3.056   4.922   0.274  0.00  0.00     0.042 A 
ATOM     17  C   UNL d   1       4.516   3.736  -1.401  0.00  0.00     0.052 C 
ATOM     18 CL   UNL d   1       3.467   6.445  -0.442  0.00  0.00    -0.084 Cl
ATOM     19  C   UNL d   1       2.147   4.950   1.333  0.00  0.00     0.024 A 
ATOM     20  C   UNL d   1       1.762   3.765   1.943  0.00  0.00     0.004 A 
ATOM     21  C   UNL d   1       2.291   2.557   1.493  0.00  0.00     0.030 A 
ENDBRANCH   2  14
TORSDOF 2
