REMARK  8 active torsions:
REMARK  status: ('A' for Active; 'I' for Inactive)
REMARK    1  A    between atoms: C_8  and  C_1 
REMARK    2  A    between atoms: N_6  and  C_2 
REMARK    3  A    between atoms: C_3  and  C_5 
REMARK    4  A    between atoms: C_10  and  CA_4 
REMARK       I    between atoms: C_5  and  N_6 
REMARK    5  A    between atoms: C_16  and  C_8 
REMARK    6  A    between atoms: OXT_22  and  C_10 
REMARK    7  A    between atoms: C_27  and  C_11 
REMARK    8  A    between atoms: O_26  and  C_23 
ROOT
ATOM      1  C   UNL d   1       1.429   0.453   0.284  0.00  0.00     0.050 C 
ATOM      2  C   UNL d   1       0.239   1.063  -0.092  0.00  0.00     0.091 C 
ATOM      3  S   UNL d   1      -0.967  -0.076  -0.477  0.00  0.00    -0.076 SA
ATOM      4  C   UNL d   1       1.338  -0.975   0.139  0.00  0.00     0.033 C 
ATOM      5  C   UNL d   1       0.058  -1.396  -0.149  0.00  0.00    -0.015 C 
ENDROOT
BRANCH   2   6
ATOM      6  N   UNL d   1      -0.024   2.425  -0.206  0.00  0.00    -0.315 N 
ATOM      7  C   UNL d   1      -1.276   3.018  -0.129  0.00  0.00     0.275 C 
ATOM      8  O   UNL d   1      -2.319   2.419   0.135  0.00  0.00    -0.266 OA
ATOM      9  H   UNL d   1       0.801   3.021  -0.289  0.00  0.00     0.170 HD
BRANCH   7  10
ATOM     10  C   UNL d   1      -1.389   4.509  -0.297  0.00  0.00     0.134 A 
ATOM     11  CA  UNL d   1      -0.684   5.298  -1.196  0.00  0.00     0.139 A 
ATOM     12  N   UNL d   1      -1.033   6.603  -1.481  0.00  0.00    -0.357 N 
ATOM     13  C   UNL d   1      -2.068   7.103  -0.769  0.00  0.00     0.105 A 
ATOM     14  HN  UNL d   1      -0.541   7.155  -2.184  1.00  0.00     0.165 HD
ATOM     15  C   UNL d   1      -2.746   6.349   0.167  0.00  0.00     0.105 A 
ATOM     16  N   UNL d   1      -2.432   5.057   0.407  0.00  0.00    -0.358 N 
ATOM     17  HN  UNL d   1      -2.953   4.506   1.090  1.00  0.00     0.165 HD
BRANCH  11  18
ATOM     18  C   UNL d   1       0.514   4.860  -1.950  0.00  0.00     0.196 C 
ATOM     19  O   UNL d   1       1.324   4.042  -1.554  0.00  0.00    -0.645 OA
BRANCH  18  20
ATOM     20  OXT UNL d   1       0.640   5.556  -3.103  0.00  0.00    -0.772 OA
ATOM     21  HXT UNL d   1      -0.031   6.277  -3.141  0.00  0.00     0.167 HD
ENDBRANCH  18  20
ENDBRANCH  11  18
ENDBRANCH   7  10
ENDBRANCH   2   6
BRANCH   1  22
ATOM     22  C   UNL d   1       2.615   1.114   0.840  0.00  0.00     0.195 C 
ATOM     23  O   UNL d   1       3.752   0.752   0.557  0.00  0.00    -0.287 OA
BRANCH  22  24
ATOM     24  C   UNL d   1       2.425   2.204   1.851  0.00  0.00     0.015 A 
ATOM     25  C   UNL d   1       3.449   3.139   2.046  0.00  0.00     0.018 A 
ATOM     26  C   UNL d   1       3.261   4.219   2.919  0.00  0.00     0.037 A 
ATOM     27  C   UNL d   1       2.048   4.368   3.595  0.00  0.00     0.068 A 
ATOM     28  C   UNL d   1       1.044   3.418   3.429  0.00  0.00     0.037 A 
ATOM     29  C   UNL d   1       1.246   2.319   2.598  0.00  0.00     0.018 A 
BRANCH  27  30
ATOM     30  O   UNL d   1       1.713   5.415   4.404  0.00  0.00    -0.356 OA
ATOM     31  C   UNL d   1       2.789   5.995   5.130  0.00  0.00     0.210 C 
ENDBRANCH  27  30
ENDBRANCH  22  24
ENDBRANCH   1  22
BRANCH   5  32
ATOM     32  C   UNL d   1      -0.479  -2.792  -0.153  0.00  0.00     0.042 C 
ATOM     33  C   UNL d   1      -0.882  -3.213   1.256  0.00  0.00     0.010 C 
ENDBRANCH   5  32
TORSDOF 8
