REMARK  4 active torsions:
REMARK  status: ('A' for Active; 'I' for Inactive)
REMARK    1  A    between atoms: N_6  and  C_13 
REMARK    2  A    between atoms: S_14  and  C_7 
REMARK    3  A    between atoms: C_21  and  S_14 
REMARK    4  A    between atoms: C_23  and  C_21 
ROOT
ATOM      1  C   UNL d   1       1.320  -0.741  -0.122  0.00  0.00     0.089 A 
ATOM      2  C   UNL d   1       0.749   0.523  -0.058  0.00  0.00     0.039 A 
ATOM      3  C   UNL d   1      -1.120  -0.895  -0.071  0.00  0.00    -0.008 A 
ATOM      4  C   UNL d   1      -0.697   0.422  -0.099  0.00  0.00    -0.029 A 
ATOM      5  S   UNL d   1       0.169  -1.998  -0.142  0.00  0.00    -0.075 SA
ATOM      6  C   UNL d   1       1.673   1.579   0.045  0.00  0.00     0.084 A 
ATOM      7  N   UNL d   1       2.633  -1.030  -0.136  0.00  0.00    -0.346 N 
ATOM      8  HN  UNL d   1       3.003  -1.979  -0.195  1.00  0.00     0.167 HD
ATOM      9  N   UNL d   1       2.999   1.337   0.025  0.00  0.00    -0.346 N 
ATOM     10  HN  UNL d   1       3.676   2.099   0.078  1.00  0.00     0.167 HD
ATOM     11  C   UNL d   1      -1.683   1.560  -0.105  0.00  0.00     0.041 C 
ATOM     12  C   UNL d   1       3.398   0.060  -0.065  0.00  0.00     0.182 A 
ATOM     13  C   UNL d   1      -2.550  -1.349  -0.008  0.00  0.00     0.051 C 
ATOM     14  C   UNL d   1      -3.125   1.090  -0.344  0.00  0.00     0.009 C 
ATOM     15  C   UNL d   1      -3.473  -0.191   0.439  0.00  0.00    -0.014 C 
ATOM     16  C   UNL d   1      -3.405   0.036   1.954  0.00  0.00     0.010 C 
ENDROOT
BRANCH   6  17
ATOM     17  S   UNL d   1       1.102   3.214   0.406  0.00  0.00    -0.107 SA
BRANCH  17  18
ATOM     18  C   UNL d   1       2.243   4.231  -0.579  0.00  0.00     0.119 C 
BRANCH  18  19
ATOM     19  C   UNL d   1       1.801   5.679  -0.506  0.00  0.00    -0.048 A 
ATOM     20  C   UNL d   1       2.147   6.466   0.606  0.00  0.00     0.010 A 
ATOM     21  C   UNL d   1       1.681   7.777   0.727  0.00  0.00     0.036 A 
ATOM     22  C   UNL d   1       0.860   8.312  -0.273  0.00  0.00     0.102 A 
ATOM     23  C   UNL d   1       0.504   7.543  -1.388  0.00  0.00     0.036 A 
ATOM     24  C   UNL d   1       0.972   6.229  -1.499  0.00  0.00     0.010 A 
BRANCH  22  25
ATOM     25  N   UNL d   1       0.360   9.687  -0.143  0.00  0.00    -0.116 N 
ATOM     26  O   UNL d   1       0.689  10.329   0.863  0.00  0.00    -0.532 OA
ATOM     27  O   UNL d   1      -0.362  10.126  -1.052  0.00  0.00    -0.532 OA
ENDBRANCH  22  25
ENDBRANCH  18  19
ENDBRANCH  17  18
ENDBRANCH   6  17
TORSDOF 4
