REMARK  5 active torsions:
REMARK  status: ('A' for Active; 'I' for Inactive)
REMARK    1  A    between atoms: N_2  and  C_1 
REMARK    2  A    between atoms: C_6  and  N_2 
REMARK    3  A    between atoms: C_7  and  N_2 
REMARK    4  A    between atoms: C_3  and  C_6 
REMARK    5  A    between atoms: C_12  and  C_7 
ROOT
ATOM      1  N   UNL d   1       0.335  -1.027  -0.766  0.00  0.00    -0.349 N 
ENDROOT
BRANCH   1   2
ATOM      2  C   UNL d   1       1.163  -0.362   0.113  0.00  0.00     0.170 C 
ATOM      3  S   UNL d   1       0.651   0.403   1.529  0.00  0.00    -0.041 SA
ATOM      4  N   UNL d   1       2.499  -0.248  -0.072  0.00  0.00    -0.371 N 
ATOM      5  C   UNL d   1       3.430  -0.411  -1.173  0.00  0.00     0.148 C 
ATOM      6  H   UNL d   1       2.887   0.325   0.671  0.00  0.00     0.161 HD
ENDBRANCH   1   2
BRANCH   1   7
ATOM      7  C   UNL d   1      -1.134  -0.870  -0.699  0.00  0.00     0.171 C 
BRANCH   7   8
ATOM      8  C   UNL d   1      -1.815  -1.878   0.201  0.00  0.00     0.000 A 
ATOM      9  S   UNL d   1      -3.517  -1.744   0.410  0.00  0.00    -0.105 SA
ATOM     10  C   UNL d   1      -3.564  -3.066   1.491  0.00  0.00     0.050 A 
ATOM     11  C   UNL d   1      -2.317  -3.613   1.686  0.00  0.00     0.008 A 
ATOM     12  C   UNL d   1      -1.308  -2.931   0.941  0.00  0.00     0.017 A 
ENDBRANCH   7   8
ENDBRANCH   1   7
BRANCH   1  13
ATOM     13  C   UNL d   1       0.776  -2.046  -1.722  0.00  0.00     0.164 C 
BRANCH  13  14
ATOM     14  C   UNL d   1       1.045  -1.562  -3.137  0.00  0.00    -0.040 A 
ATOM     15  C   UNL d   1       0.959  -0.214  -3.522  0.00  0.00     0.010 A 
ATOM     16  C   UNL d   1       1.341   0.186  -4.806  0.00  0.00     0.024 A 
ATOM     17  C   UNL d   1       1.799  -0.759  -5.721  0.00  0.00     0.034 A 
ATOM     18  C   UNL d   1       1.863  -2.103  -5.370  0.00  0.00     0.024 A 
ATOM     19 CL   UNL d   1       2.311  -0.258  -7.285  0.00  0.00    -0.084 Cl
ATOM     20  C   UNL d   1       1.485  -2.503  -4.085  0.00  0.00     0.010 A 
ENDBRANCH  13  14
ENDBRANCH   1  13
TORSDOF 5
