REMARK  3 active torsions:
REMARK  status: ('A' for Active; 'I' for Inactive)
REMARK    1  A    between atoms: O_7  and  N_2 
REMARK    2  A    between atoms: C_6  and  O_7 
REMARK    3  A    between atoms: C_14  and  C_6 
ROOT
ATOM      1  C   UNL d   1      -0.786   1.040   1.208  0.00  0.00     0.019 C 
ATOM      2  N   UNL d   1      -1.248   1.869   2.087  0.00  0.00    -0.265 N 
ATOM      3  HN  UNL d   1      -0.694   2.250   2.854  1.00  0.00     0.194 HD
ATOM      4  C   UNL d   1      -1.577   0.330   0.115  0.00  0.00     0.034 C 
ATOM      5  C   UNL d   1       0.711   0.759   1.187  0.00  0.00     0.034 C 
ATOM      6  C   UNL d   1       0.186  -1.485   0.180  0.00  0.00    -0.013 C 
ATOM      7  C   UNL d   1       0.493   0.522  -1.318  0.00  0.00    -0.013 C 
ATOM      8  C   UNL d   1       1.222   1.258  -0.174  0.00  0.00     0.015 C 
ATOM      9  C   UNL d   1       0.916  -0.751   1.320  0.00  0.00     0.015 C 
ATOM     10  C   UNL d   1      -1.018   0.819  -1.229  0.00  0.00     0.015 C 
ATOM     11  C   UNL d   1      -1.322  -1.179   0.276  0.00  0.00     0.015 C 
ATOM     12  C   UNL d   1       0.725  -0.992  -1.174  0.00  0.00     0.009 C 
ENDROOT
BRANCH   2  13
ATOM     13  O   UNL d   1      -2.597   2.186   1.867  0.00  0.00    -0.195 OA
BRANCH  13  14
ATOM     14  C   UNL d   1      -3.091   2.807   2.977  0.00  0.00     0.315 C 
ATOM     15  O   UNL d   1      -2.893   2.492   4.141  0.00  0.00    -0.257 OA
BRANCH  14  16
ATOM     16  C   UNL d   1      -3.887   4.003   2.580  0.00  0.00     0.041 A 
ATOM     17  C   UNL d   1      -4.412   4.809   3.603  0.00  0.00     0.021 A 
ATOM     18  C   UNL d   1      -5.082   5.995   3.293  0.00  0.00     0.043 A 
ATOM     19  C   UNL d   1      -5.227   6.372   1.963  0.00  0.00     0.116 A 
ATOM     20  C   UNL d   1      -4.726   5.579   0.936  0.00  0.00     0.043 A 
ATOM     21  F   UNL d   1      -5.849   7.519   1.666  0.00  0.00    -0.206 F 
ATOM     22  C   UNL d   1      -4.055   4.392   1.241  0.00  0.00     0.021 A 
ENDBRANCH  14  16
ENDBRANCH  13  14
ENDBRANCH   2  13
TORSDOF 3
