REMARK  6 active torsions:
REMARK  status: ('A' for Active; 'I' for Inactive)
REMARK    1  A    between atoms: C_6  and  C_1 
REMARK    2  A    between atoms: N_5  and  C_2 
REMARK    3  A    between atoms: C_9  and  C_2 
REMARK    4  A    between atoms: C_3  and  C_4 
REMARK    5  A    between atoms: O_15  and  C_6 
REMARK    6  A    between atoms: C_23  and  O_15 
ROOT
ATOM      1  C   UNL d   1       1.028   0.408  -0.354  0.00  0.00     0.119 C 
ATOM      2  C   UNL d   1       0.438  -0.527  -1.118  0.00  0.00     0.031 C 
ATOM      3  C   UNL d   1       2.319   0.924  -0.635  0.00  0.00     0.105 C 
ATOM      4  N   UNL d   1       3.371   1.342  -0.902  0.00  0.00    -0.191 NA
ENDROOT
BRANCH   1   5
ATOM      5  C   UNL d   1       0.218   1.006   0.737  0.00  0.00     0.303 C 
ATOM      6  O   UNL d   1      -0.915   0.652   1.033  0.00  0.00    -0.258 OA
BRANCH   5   7
ATOM      7  O   UNL d   1       0.883   2.055   1.282  0.00  0.00    -0.317 OA
BRANCH   7   8
ATOM      8  C   UNL d   1       0.098   2.965   2.066  0.00  0.00     0.174 C 
ATOM      9  C   UNL d   1      -0.505   3.997   1.131  0.00  0.00     0.034 C 
ENDBRANCH   7   8
ENDBRANCH   5   7
ENDBRANCH   1   5
BRANCH   2  10
ATOM     10  C   UNL d   1       1.020  -1.185  -2.273  0.00  0.00     0.032 C 
ATOM     11  C   UNL d   1       0.302  -1.781  -3.243  0.00  0.00     0.040 C 
BRANCH  11  12
ATOM     12  N   UNL d   1      -1.078  -1.798  -3.354  0.00  0.00    -0.376 N 
ATOM     13  C   UNL d   1      -1.922  -2.875  -2.815  0.00  0.00     0.149 C 
ATOM     14  C   UNL d   1      -2.963  -2.294  -1.843  0.00  0.00     0.187 C 
ATOM     15  O   UNL d   1      -3.734  -1.242  -2.448  0.00  0.00    -0.388 OA
ATOM     16  C   UNL d   1      -2.878  -0.178  -2.899  0.00  0.00     0.187 C 
ATOM     17  C   UNL d   1      -1.849  -0.681  -3.923  0.00  0.00     0.149 C 
ENDBRANCH  11  12
BRANCH  11  18
ATOM     18  C   UNL d   1       1.058  -2.440  -4.328  0.00  0.00    -0.009 A 
ATOM     19  C   UNL d   1       1.387  -3.798  -4.224  0.00  0.00     0.015 A 
ATOM     20  C   UNL d   1       2.144  -4.420  -5.221  0.00  0.00     0.024 A 
ATOM     21  C   UNL d   1       2.574  -3.684  -6.323  0.00  0.00     0.034 A 
ATOM     22  C   UNL d   1       2.255  -2.333  -6.439  0.00  0.00     0.024 A 
ATOM     23 CL   UNL d   1       3.511  -4.450  -7.546  0.00  0.00    -0.084 Cl
ATOM     24  C   UNL d   1       1.497  -1.710  -5.442  0.00  0.00     0.015 A 
ENDBRANCH  11  18
ENDBRANCH   2  10
TORSDOF 6
