REMARK  6 active torsions:
REMARK  status: ('A' for Active; 'I' for Inactive)
REMARK    1  A    between atoms: O_9  and  C_1 
REMARK    2  A    between atoms: C_8  and  N_2 
REMARK    3  A    between atoms: C_7  and  C_3 
REMARK    4  A    between atoms: O_16  and  C_7 
REMARK    5  A    between atoms: C_17  and  C_11 
REMARK    6  A    between atoms: C_18  and  O_16 
ROOT
ATOM      1  C   UNL d   1      -0.354  -1.203  -0.270  0.00  0.00     0.195 C 
ATOM      2  N   UNL d   1       0.882  -0.701   0.129  0.00  0.00    -0.216 N 
ATOM      3  C   UNL d   1      -1.232  -0.161  -0.031  0.00  0.00     0.174 C 
ATOM      4  N   UNL d   1       0.710   0.504   0.724  0.00  0.00    -0.012 NA
ATOM      5  N   UNL d   1      -0.553   0.871   0.568  0.00  0.00    -0.274 N 
ATOM      6  HN  UNL d   1      -0.953   1.767   0.846  1.00  0.00     0.184 HD
ENDROOT
BRANCH   2   7
ATOM      7  C   UNL d   1       2.169  -1.274   0.000  0.00  0.00     0.057 A 
ATOM      8  C   UNL d   1       2.454  -2.202  -1.010  0.00  0.00     0.032 A 
ATOM      9  C   UNL d   1       3.719  -2.795  -1.077  0.00  0.00     0.010 A 
ATOM     10  C   UNL d   1       4.711  -2.486  -0.134  0.00  0.00    -0.055 A 
ATOM     11  C   UNL d   1       4.427  -1.520   0.842  0.00  0.00     0.010 A 
ATOM     12  C   UNL d   1       3.174  -0.903   0.900  0.00  0.00     0.032 A 
BRANCH  10  13
ATOM     13  C   UNL d   1       6.064  -3.176  -0.140  0.00  0.00     0.010 C 
ATOM     14  C   UNL d   1       5.919  -4.692   0.029  0.00  0.00     0.015 C 
ATOM     15  C   UNL d   1       6.876  -2.846  -1.394  0.00  0.00     0.015 C 
ENDBRANCH  10  13
ENDBRANCH   2   7
BRANCH   1  16
ATOM     16  O   UNL d   1      -0.571  -2.437  -0.740  0.00  0.00    -0.343 OA
ATOM     17  H   UNL d   1       0.118  -3.038  -0.406  0.00  0.00     0.219 HD
ENDBRANCH   1  16
BRANCH   3  18
ATOM     18  C   UNL d   1      -2.648  -0.107  -0.339  0.00  0.00     0.315 C 
ATOM     19  O   UNL d   1      -3.288  -1.037  -0.820  0.00  0.00    -0.257 OA
BRANCH  18  20
ATOM     20  O   UNL d   1      -3.167   1.137  -0.117  0.00  0.00    -0.317 OA
BRANCH  20  21
ATOM     21  C   UNL d   1      -4.385   1.426  -0.811  0.00  0.00     0.175 C 
ATOM     22  C   UNL d   1      -4.027   1.917  -2.203  0.00  0.00     0.034 C 
ENDBRANCH  20  21
ENDBRANCH  18  20
ENDBRANCH   3  18
TORSDOF 6
