REMARK  3 active torsions:
REMARK  status: ('A' for Active; 'I' for Inactive)
REMARK    1  A    between atoms: C_6  and  S_1 
REMARK    2  A    between atoms: C_10  and  S_1 
REMARK    3  A    between atoms: C_5  and  C_6 
ROOT
ATOM      1  C   UNL d   1       2.040  -3.191   3.496  0.00  0.00     0.147 A 
ATOM      2  N   UNL d   1       1.780  -1.918   3.282  0.00  0.00    -0.339 N 
ATOM      3  HN  UNL d   1       2.217  -1.148   3.788  1.00  0.00     0.168 HD
ATOM      4  C   UNL d   1       0.833  -1.757   2.279  0.00  0.00     0.032 A 
ATOM      5  S   UNL d   1       1.090  -4.267   2.518  0.00  0.00    -0.064 SA
ATOM      6  N   UNL d   1       2.929  -3.650   4.408  0.00  0.00    -0.357 N 
ATOM      7  C   UNL d   1       0.327  -2.937   1.773  0.00  0.00     0.079 A 
ATOM      8  O   UNL d   1       5.508  -3.793   5.605  0.00  0.00    -0.388 OA
ATOM      9  C   UNL d   1       3.209  -2.908   5.637  0.00  0.00     0.151 C 
ATOM     10  C   UNL d   1       3.797  -4.801   4.158  0.00  0.00     0.151 C 
ATOM     11  C   UNL d   1       4.710  -2.607   5.763  0.00  0.00     0.187 C 
ATOM     12  C   UNL d   1       5.268  -4.383   4.317  0.00  0.00     0.187 C 
ENDROOT
BRANCH   4  13
ATOM     13  C   UNL d   1       0.483  -0.387   1.823  0.00  0.00     0.203 C 
BRANCH  13  14
ATOM     14  S   UNL d   1      -0.951   0.285   2.631  0.00  0.00     0.180 S 
ATOM     15  O   UNL d   1      -2.044  -0.664   2.518  0.00  0.00    -0.222 OA
ATOM     16  O   UNL d   1      -1.131   1.643   2.140  0.00  0.00    -0.222 OA
BRANCH  14  17
ATOM     17  C   UNL d   1      -0.510   0.412   4.346  0.00  0.00     0.059 A 
ATOM     18  C   UNL d   1       0.108   1.576   4.812  0.00  0.00     0.024 A 
ATOM     19  C   UNL d   1       0.358   1.724   6.177  0.00  0.00     0.008 A 
ATOM     20  C   UNL d   1      -0.016   0.720   7.081  0.00  0.00    -0.062 A 
ATOM     21  C   UNL d   1      -0.624  -0.447   6.599  0.00  0.00     0.008 A 
ATOM     22  C   UNL d   1       0.202   0.922   8.552  0.00  0.00     0.048 C 
ATOM     23  C   UNL d   1      -0.877  -0.602   5.234  0.00  0.00     0.024 A 
ENDBRANCH  14  17
ENDBRANCH  13  14
ENDBRANCH   4  13
TORSDOF 3
