REMARK  6 active torsions:
REMARK  status: ('A' for Active; 'I' for Inactive)
REMARK    1  A    between atoms: C_2  and  C_1 
REMARK       I    between atoms: N_5  and  C_2 
REMARK    2  A    between atoms: C_4  and  C_3 
REMARK    3  A    between atoms: C_11  and  N_5 
REMARK    4  A    between atoms: C_23  and  N_5 
REMARK    5  A    between atoms: S_18  and  C_9 
REMARK    6  A    between atoms: C_24  and  S_18 
ROOT
ATOM      1  C   UNL d   1       0.677   1.262  -0.075  0.00  0.00     0.063 A 
ATOM      2  C   UNL d   1       1.189   0.204   0.687  0.00  0.00     0.067 A 
ATOM      3  C   UNL d   1      -0.334   0.969  -0.985  0.00  0.00     0.106 A 
ATOM      4  N   UNL d   1      -0.936  -0.239  -1.097  0.00  0.00    -0.360 N 
ATOM      5  HN  UNL d   1      -1.704  -0.386  -1.753  1.00  0.00     0.166 HD
ATOM      6  C   UNL d   1      -0.488  -1.238  -0.315  0.00  0.00     0.070 A 
ATOM      7  C   UNL d   1       0.577  -1.063   0.559  0.00  0.00     0.054 A 
ENDROOT
BRANCH   1   8
ATOM      8  C   UNL d   1       1.244   2.630  -0.020  0.00  0.00     0.260 C 
ATOM      9  N   UNL d   1       0.430   3.766   0.202  0.00  0.00    -0.314 N 
ATOM     10  O   UNL d   1       2.459   2.699  -0.199  0.00  0.00    -0.267 OA
BRANCH   9  11
ATOM     11  C   UNL d   1      -0.983   3.746   0.050  0.00  0.00     0.037 A 
ATOM     12  C   UNL d   1      -1.788   3.038   0.949  0.00  0.00     0.031 A 
ATOM     13  C   UNL d   1      -3.166   2.948   0.733  0.00  0.00     0.026 A 
ATOM     14  C   UNL d   1      -3.741   3.569  -0.376  0.00  0.00     0.034 A 
ATOM     15  C   UNL d   1      -2.949   4.298  -1.260  0.00  0.00     0.026 A 
ATOM     16 CL   UNL d   1      -5.429   3.417  -0.668  0.00  0.00    -0.084 Cl
ATOM     17  C   UNL d   1      -1.576   4.397  -1.044  0.00  0.00     0.031 A 
ENDBRANCH   9  11
BRANCH   9  18
ATOM     18  C   UNL d   1       1.115   5.068   0.154  0.00  0.00     0.128 C 
ATOM     19  C   UNL d   1       0.395   6.219   0.855  0.00  0.00     0.027 C 
ENDBRANCH   9  18
ENDBRANCH   1   8
BRANCH   2  20
ATOM     20  C   UNL d   1       2.389   0.306   1.588  0.00  0.00     0.418 C 
ATOM     21  F   UNL d   1       2.697   1.547   2.038  0.00  0.00    -0.166 F 
ATOM     22  F   UNL d   1       2.216  -0.436   2.724  0.00  0.00    -0.166 F 
ATOM     23  F   UNL d   1       3.511  -0.199   1.004  0.00  0.00    -0.166 F 
ENDBRANCH   2  20
BRANCH   6  24
ATOM     24  S   UNL d   1      -1.299  -2.818  -0.399  0.00  0.00    -0.113 SA
BRANCH  24  25
ATOM     25  C   UNL d   1      -2.351  -2.567  -1.866  0.00  0.00     0.076 C 
ATOM     26  C   UNL d   1      -3.191  -3.805  -2.122  0.00  0.00     0.016 C 
ENDBRANCH  24  25
ENDBRANCH   6  24
TORSDOF 6
