REMARK  4 active torsions:
REMARK  status: ('A' for Active; 'I' for Inactive)
REMARK    1  A    between atoms: C_2  and  C_1 
REMARK    2  A    between atoms: C_5  and  C_2 
REMARK    3  A    between atoms: O_14  and  C_4 
REMARK    4  A    between atoms: C_12  and  O_14 
ROOT
ATOM      1  C   UNL d   1       1.054   0.035   0.046  0.00  0.00     0.080 C 
ATOM      2  C   UNL d   1       2.380  -0.117   0.103  0.00  0.00     0.146 C 
ENDROOT
BRANCH   1   3
ATOM      3  C   UNL d   1       0.363   0.807   1.109  0.00  0.00     0.183 C 
ATOM      4  O   UNL d   1       0.888   1.023   2.197  0.00  0.00    -0.288 OA
BRANCH   3   5
ATOM      5  C   UNL d   1      -1.019   1.284   0.833  0.00  0.00     0.014 A 
ATOM      6  C   UNL d   1      -1.901   1.442   1.911  0.00  0.00     0.017 A 
ATOM      7  C   UNL d   1      -3.193   1.933   1.700  0.00  0.00     0.020 A 
ATOM      8  C   UNL d   1      -3.597   2.280   0.412  0.00  0.00     0.011 A 
ATOM      9  C   UNL d   1      -2.727   2.131  -0.668  0.00  0.00     0.020 A 
ATOM     10 BR   UNL d   1      -5.331   2.977   0.127  0.00  0.00    -0.051 Br
ATOM     11  C   UNL d   1      -1.437   1.633  -0.459  0.00  0.00     0.017 A 
ENDBRANCH   3   5
ENDBRANCH   1   3
BRANCH   2  12
ATOM     12  O   UNL d   1       3.069  -0.857  -0.830  0.00  0.00    -0.323 OA
BRANCH  12  13
ATOM     13  C   UNL d   1       4.269  -1.418  -0.457  0.00  0.00     0.075 A 
ATOM     14  C   UNL d   1       4.528  -1.890   0.834  0.00  0.00     0.045 A 
ATOM     15  C   UNL d   1       5.759  -2.485   1.152  0.00  0.00    -0.038 A 
ATOM     16  C   UNL d   1       6.008  -2.950   2.559  0.00  0.00     0.050 C 
ATOM     17  C   UNL d   1       6.717  -2.629   0.137  0.00  0.00     0.040 A 
ATOM     18  C   UNL d   1       6.448  -2.185  -1.162  0.00  0.00     0.027 A 
ATOM     19 CL   UNL d   1       8.250  -3.365   0.440  0.00  0.00    -0.084 Cl
ATOM     20  C   UNL d   1       5.224  -1.582  -1.459  0.00  0.00     0.039 A 
ENDBRANCH  12  13
ENDBRANCH   2  12
TORSDOF 4
