REMARK  5 active torsions:
REMARK  status: ('A' for Active; 'I' for Inactive)
REMARK    1  A    between atoms: C_3  and  S_1 
REMARK    2  A    between atoms: N_8  and  S_1 
REMARK       I    between atoms: C_2  and  N_7 
REMARK    3  A    between atoms: C_9  and  C_2 
REMARK    4  A    between atoms: N_4  and  C_9 
REMARK    5  A    between atoms: N_7  and  C_14 
ROOT
ATOM      1  C   UNL d   1       1.113   3.504   5.734  0.00  0.00     0.074 A 
ATOM      2  C   UNL d   1       1.318   2.743   4.579  0.00  0.00     0.027 A 
ATOM      3  C   UNL d   1       0.698   2.883   6.911  0.00  0.00     0.027 A 
ATOM      4  C   UNL d   1       0.634   0.722   5.767  0.00  0.00     0.034 A 
ATOM      5  C   UNL d   1       1.083   1.361   4.601  0.00  0.00     0.031 A 
ATOM      6  C   UNL d   1       0.453   1.501   6.918  0.00  0.00     0.031 A 
ENDROOT
BRANCH   4   7
ATOM      7  N   UNL d   1       0.377  -0.671   5.701  0.00  0.00    -0.326 N 
ATOM      8  C   UNL d   1      -0.244  -1.452   6.657  0.00  0.00     0.250 C 
ATOM      9  O   UNL d   1      -0.591  -1.060   7.772  0.00  0.00    -0.271 OA
ATOM     10  H   UNL d   1       0.623  -1.161   4.846  0.00  0.00     0.169 HD
BRANCH   8  11
ATOM     11  C   UNL d   1      -0.521  -2.924   6.282  0.00  0.00     0.375 C 
BRANCH  11  12
ATOM     12  N   UNL d   1      -0.170  -3.323   4.896  0.00  0.00     0.101 N 
ATOM     13  C   UNL d   1      -0.127  -4.816   4.799  0.00  0.00     0.299 C 
ATOM     14  C   UNL d   1      -1.493  -5.533   4.699  0.00  0.00     0.198 C 
ATOM     15  O   UNL d   1      -2.312  -4.976   3.668  0.00  0.00    -0.388 OA
ATOM     16  C   UNL d   1      -2.498  -3.575   3.882  0.00  0.00     0.198 C 
ATOM     17  C   UNL d   1      -1.145  -2.847   3.882  0.00  0.00     0.299 C 
ENDBRANCH  11  12
ENDBRANCH   8  11
ENDBRANCH   4   7
BRANCH   1  18
ATOM     18  S   UNL d   1       1.471   5.241   5.713  0.00  0.00     0.239 S 
ATOM     19  O   UNL d   1       2.365   5.522   4.613  0.00  0.00    -0.206 OA
ATOM     20  O   UNL d   1       1.731   5.694   7.054  0.00  0.00    -0.206 OA
BRANCH  18  21
ATOM     21  N   UNL d   1      -0.008   5.906   5.269  0.00  0.00    -0.225 NA
ATOM     22  H   UNL d   1       0.037   6.260   4.314  0.00  0.00     0.136 HD
ATOM     23  H   UNL d   1      -0.276   6.617   5.950  0.00  0.00     0.136 HD
ENDBRANCH  18  21
ENDBRANCH   1  18
TORSDOF 5
