REMARK  4 active torsions:
REMARK  status: ('A' for Active; 'I' for Inactive)
REMARK    1  A    between atoms: C_12  and  N_1 
REMARK    2  A    between atoms: C_7  and  C_2 
REMARK    3  A    between atoms: C_11  and  N_8 
REMARK    4  A    between atoms: N_10  and  C_9 
ROOT
ATOM      1  C   UNL d   1       2.207  -1.441   0.529  0.00  0.00     0.068 C 
ATOM      2  C   UNL d   1       2.609  -2.582  -0.054  0.00  0.00     0.089 C 
ENDROOT
BRANCH   1   3
ATOM      3  C   UNL d   1       0.929  -0.913   0.257  0.00  0.00     0.139 A 
ATOM      4  N   UNL d   1      -0.213  -1.264   0.981  0.00  0.00    -0.225 N 
ATOM      5  N   UNL d   1      -1.284  -0.754   0.317  0.00  0.00     0.001 NA
ATOM      6  N   UNL d   1      -0.797  -0.021  -0.671  0.00  0.00    -0.007 NA
ATOM      7  N   UNL d   1       0.562  -0.113  -0.726  0.00  0.00    -0.270 N 
ATOM      8  HN  UNL d   1       1.176   0.349  -1.396  1.00  0.00     0.185 HD
BRANCH   4   9
ATOM      9  C   UNL d   1      -0.402  -1.970   2.203  0.00  0.00     0.056 A 
ATOM     10  C   UNL d   1       0.629  -2.130   3.140  0.00  0.00     0.034 A 
ATOM     11  C   UNL d   1       0.381  -2.785   4.352  0.00  0.00     0.044 A 
ATOM     12  C   UNL d   1      -0.885  -3.289   4.621  0.00  0.00     0.116 A 
ATOM     13  C   UNL d   1      -1.916  -3.148   3.703  0.00  0.00     0.044 A 
ATOM     14  F   UNL d   1      -1.114  -3.910   5.785  0.00  0.00    -0.206 F 
ATOM     15  C   UNL d   1      -1.681  -2.479   2.499  0.00  0.00     0.034 A 
ENDBRANCH   4   9
ENDBRANCH   1   3
BRANCH   2  16
ATOM     16  N   UNL d   1       3.809  -3.259   0.082  0.00  0.00    -0.387 N 
ATOM     17  C   UNL d   1       4.167  -4.432  -0.759  0.00  0.00     0.142 C 
ATOM     18  C   UNL d   1       5.497  -4.206  -1.529  0.00  0.00     0.143 C 
ATOM     19  N   UNL d   1       6.559  -3.752  -0.611  0.00  0.00    -0.378 N 
ATOM     20  C   UNL d   1       6.192  -2.584   0.210  0.00  0.00     0.143 C 
ATOM     21  C   UNL d   1       4.904  -2.876   1.002  0.00  0.00     0.142 C 
BRANCH  19  22
ATOM     22  C   UNL d   1       7.793  -4.359  -0.527  0.00  0.00     0.031 A 
ATOM     23  C   UNL d   1       8.491  -4.439   0.688  0.00  0.00     0.053 A 
ATOM     24  C   UNL d   1       9.740  -5.058   0.775  0.00  0.00     0.036 A 
ATOM     25 CL   UNL d   1      10.546  -5.141   2.294  0.00  0.00    -0.084 Cl
ATOM     26  C   UNL d   1      10.335  -5.612  -0.352  0.00  0.00     0.024 A 
ATOM     27  C   UNL d   1       9.667  -5.548  -1.570  0.00  0.00     0.004 A 
ATOM     28  C   UNL d   1       8.411  -4.932  -1.649  0.00  0.00     0.029 A 
ENDBRANCH  19  22
ENDBRANCH   2  16
TORSDOF 4
