REMARK  0 active torsions:
REMARK  status: ('A' for Active; 'I' for Inactive)
ROOT
ATOM      1  C   UNL d   1       0.009  -0.683   0.047  0.00  0.00     0.068 A 
ATOM      2  C   UNL d   1       1.313  -1.355   0.080  0.00  0.00     0.301 A 
ATOM      3  N   UNL d   1       1.185   1.435  -0.017  0.00  0.00    -0.340 N 
ATOM      4  HN  UNL d   1       1.180   2.455  -0.040  1.00  0.00     0.167 HD
ATOM      5  O   UNL d   1       2.421  -0.577   0.036  0.00  0.00    -0.262 OA
ATOM      6  C   UNL d   1       0.002   0.704   0.008  0.00  0.00     0.050 A 
ATOM      7  C   UNL d   1       2.289   0.767  -0.009  0.00  0.00     0.124 A 
ATOM      8  C   UNL d   1      -1.183  -1.416   0.042  0.00  0.00     0.039 A 
ATOM      9  O   UNL d   1       1.385  -2.577   0.136  0.00  0.00    -0.259 OA
ATOM     10  C   UNL d   1      -1.222   1.375  -0.030  0.00  0.00     0.032 A 
ATOM     11  C   UNL d   1      -2.396  -0.734  -0.008  0.00  0.00     0.012 A 
ATOM     12  C   UNL d   1      -2.422   0.659  -0.042  0.00  0.00     0.021 A 
ATOM     13 BR   UNL d   1      -4.018  -1.703  -0.045  0.00  0.00    -0.051 Br
ATOM     14  C   UNL d   1       3.620   1.446  -0.070  0.00  0.00     0.098 C 
ENDROOT
TORSDOF 0
