REMARK  7 active torsions:
REMARK  status: ('A' for Active; 'I' for Inactive)
REMARK    1  A    between atoms: C_13  and  C_1 
REMARK    2  A    between atoms: C_2  and  C_14 
REMARK    3  A    between atoms: C_15  and  C_7 
REMARK    4  A    between atoms: C_16  and  C_8 
REMARK       I    between atoms: N_19  and  C_13 
REMARK       I    between atoms: C_14  and  N_20 
REMARK    5  A    between atoms: C_27  and  N_19 
REMARK    6  A    between atoms: N_20  and  C_28 
REMARK    7  A    between atoms: C_28  and  C_27 
ROOT
ATOM      1  C   UNL d   1       1.950  -4.439   0.270  0.00  0.00     0.142 C 
ENDROOT
BRANCH   1   2
ATOM      2  N   UNL d   1       1.554  -3.058   0.135  0.00  0.00    -0.355 N 
ATOM      3  C   UNL d   1       1.083  -2.368   1.238  0.00  0.00     0.256 C 
ATOM      4  O   UNL d   1       0.922  -2.930   2.323  0.00  0.00    -0.267 OA
ATOM      5  H   UNL d   1       1.693  -2.561  -0.731  0.00  0.00     0.162 HD
BRANCH   3   6
ATOM      6  C   UNL d   1       0.901  -0.959   1.058  0.00  0.00     0.092 A 
ATOM      7  C   UNL d   1       1.268   0.050   2.006  0.00  0.00     0.083 A 
ATOM      8  N   UNL d   1       0.864   1.255   1.572  0.00  0.00    -0.259 N 
ATOM      9  O   UNL d   1       0.302   1.052   0.329  0.00  0.00    -0.241 OA
ATOM     10  HN  UNL d   1       0.954   2.144   2.064  1.00  0.00     0.195 HD
ATOM     11  C   UNL d   1       0.354  -0.265   0.009  0.00  0.00     0.090 A 
ATOM     12  C   UNL d   1      -0.201  -0.627  -1.313  0.00  0.00     0.080 C 
BRANCH   7  13
ATOM     13  C   UNL d   1       2.005  -0.104   3.263  0.00  0.00    -0.006 A 
ATOM     14  C   UNL d   1       1.653   0.644   4.388  0.00  0.00     0.014 A 
ATOM     15  C   UNL d   1       2.346   0.487   5.591  0.00  0.00     0.001 A 
ATOM     16  C   UNL d   1       3.396  -0.426   5.685  0.00  0.00     0.000 A 
ATOM     17  C   UNL d   1       3.761  -1.177   4.572  0.00  0.00     0.001 A 
ATOM     18  C   UNL d   1       3.078  -1.012   3.365  0.00  0.00     0.014 A 
ENDBRANCH   7  13
ENDBRANCH   3   6
ENDBRANCH   1   2
BRANCH   1  19
ATOM     19  C   UNL d   1       3.456  -4.595   0.041  0.00  0.00     0.142 C 
BRANCH  19  20
ATOM     20  N   UNL d   1       3.978  -5.942  -0.089  0.00  0.00    -0.355 N 
ATOM     21  C   UNL d   1       3.624  -7.006  -0.876  0.00  0.00     0.256 C 
ATOM     22  O   UNL d   1       4.376  -7.982  -0.864  0.00  0.00    -0.267 OA
ATOM     23  H   UNL d   1       4.875  -6.117   0.356  0.00  0.00     0.162 HD
BRANCH  21  24
ATOM     24  C   UNL d   1       2.374  -7.018  -1.599  0.00  0.00     0.092 C 
ATOM     25  C   UNL d   1       1.391  -8.068  -1.613  0.00  0.00     0.083 C 
ATOM     26  N   UNL d   1       0.331  -7.693  -2.349  0.00  0.00    -0.259 N 
ATOM     27  O   UNL d   1       0.633  -6.472  -2.887  0.00  0.00    -0.241 OA
ATOM     28  HN  UNL d   1      -0.533  -8.218  -2.481  1.00  0.00     0.195 HD
ATOM     29  C   UNL d   1       1.871  -6.084  -2.490  0.00  0.00     0.090 C 
ATOM     30  C   UNL d   1       2.307  -4.791  -3.056  0.00  0.00     0.080 C 
BRANCH  25  31
ATOM     31  C   UNL d   1       1.409  -9.401  -0.994  0.00  0.00    -0.006 A 
ATOM     32  C   UNL d   1       0.799 -10.473  -1.668  0.00  0.00     0.014 A 
ATOM     33  C   UNL d   1       0.856 -11.773  -1.159  0.00  0.00     0.001 A 
ATOM     34  C   UNL d   1       1.522 -12.020   0.037  0.00  0.00     0.000 A 
ATOM     35  C   UNL d   1       2.108 -10.966   0.734  0.00  0.00     0.001 A 
ATOM     36  C   UNL d   1       2.042  -9.661   0.229  0.00  0.00     0.014 A 
ENDBRANCH  25  31
ENDBRANCH  21  24
ENDBRANCH  19  20
ENDBRANCH   1  19
TORSDOF 7
