REMARK  15 active torsions:
REMARK  status: ('A' for Active; 'I' for Inactive)
REMARK    1  A    between atoms: C_2  and  C_1 
REMARK    2  A    between atoms: C_6  and  C_1 
REMARK    3  A    between atoms: O_36  and  C_1 
REMARK    4  A    between atoms: C_5  and  C_2 
REMARK    5  A    between atoms: O_35  and  C_2 
REMARK    6  A    between atoms: C_3  and  C_8 
REMARK    7  A    between atoms: C_4  and  C_7 
REMARK    8  A    between atoms: O_10  and  C_5 
REMARK    9  A    between atoms: O_9  and  C_6 
REMARK   10  A    between atoms: C_17  and  O_9 
REMARK   11  A    between atoms: C_18  and  O_10 
REMARK   12  A    between atoms: C_11  and  C_17 
REMARK   13  A    between atoms: C_13  and  C_11 
REMARK   14  A    between atoms: C_12  and  C_18 
REMARK   15  A    between atoms: C_14  and  C_12 
ROOT
ATOM      1  C   UNL d   1       0.890   0.043  -0.008  0.00  0.00     0.256 C 
ENDROOT
BRANCH   1   2
ATOM      2  C   UNL d   1       0.448  -0.018  -1.472  0.00  0.00     0.256 C 
BRANCH   2   3
ATOM      3  C   UNL d   1      -1.082  -0.017  -1.580  0.00  0.00     0.291 C 
ATOM      4  O   UNL d   1      -1.740  -1.048  -1.618  0.00  0.00    -0.262 OA
BRANCH   3   5
ATOM      5  O   UNL d   1      -1.595   1.239  -1.649  0.00  0.00    -0.312 OA
BRANCH   5   6
ATOM      6  C   UNL d   1      -3.015   1.321  -1.863  0.00  0.00     0.262 C 
BRANCH   6   7
ATOM      7  C   UNL d   1      -3.732   2.120  -0.776  0.00  0.00     0.183 C 
ATOM      8  O   UNL d   1      -3.127   2.642   0.159  0.00  0.00    -0.290 OA
BRANCH   7   9
ATOM      9  C   UNL d   1      -5.223   2.275  -0.868  0.00  0.00     0.012 A 
ATOM     10  C   UNL d   1      -5.976   1.738  -1.921  0.00  0.00     0.016 A 
ATOM     11  C   UNL d   1      -7.367   1.909  -1.958  0.00  0.00     0.017 A 
ATOM     12  C   UNL d   1      -8.035   2.617  -0.947  0.00  0.00     0.048 A 
ATOM     13  C   UNL d   1      -7.279   3.156   0.103  0.00  0.00     0.017 A 
ATOM     14  C   UNL d   1      -5.889   2.987   0.142  0.00  0.00     0.016 A 
BRANCH  12  15
ATOM     15  C   UNL d   1      -9.537   2.781  -1.005  0.00  0.00     0.417 C 
ATOM     16  F   UNL d   1     -10.053   3.477   0.045  0.00  0.00    -0.166 F 
ATOM     17  F   UNL d   1      -9.943   3.440  -2.126  0.00  0.00    -0.166 F 
ATOM     18  F   UNL d   1     -10.189   1.586  -1.019  0.00  0.00    -0.166 F 
ENDBRANCH  12  15
ENDBRANCH   7   9
ENDBRANCH   6   7
ENDBRANCH   5   6
ENDBRANCH   3   5
ENDBRANCH   2   3
BRANCH   2  19
ATOM     19  O   UNL d   1       1.094   1.019  -2.227  0.00  0.00    -0.382 OA
ATOM     20  H   UNL d   1       1.132   1.817  -1.665  0.00  0.00     0.210 HD
ENDBRANCH   2  19
ENDBRANCH   1   2
BRANCH   1  21
ATOM     21  C   UNL d   1       0.357  -1.166   0.770  0.00  0.00     0.291 C 
ATOM     22  O   UNL d   1      -0.736  -1.171   1.329  0.00  0.00    -0.262 OA
BRANCH  21  23
ATOM     23  O   UNL d   1       1.231  -2.208   0.776  0.00  0.00    -0.312 OA
BRANCH  23  24
ATOM     24  C   UNL d   1       0.853  -3.353   1.561  0.00  0.00     0.262 C 
BRANCH  24  25
ATOM     25  C   UNL d   1       0.699  -4.607   0.707  0.00  0.00     0.183 C 
ATOM     26  O   UNL d   1       0.884  -4.605  -0.511  0.00  0.00    -0.290 OA
BRANCH  25  27
ATOM     27  C   UNL d   1       0.285  -5.882   1.371  0.00  0.00     0.012 A 
ATOM     28  C   UNL d   1      -0.381  -6.846   0.602  0.00  0.00     0.016 A 
ATOM     29  C   UNL d   1      -0.770  -8.068   1.163  0.00  0.00     0.017 A 
ATOM     30  C   UNL d   1      -0.487  -8.358   2.505  0.00  0.00     0.048 A 
ATOM     31  C   UNL d   1       0.180  -7.393   3.275  0.00  0.00     0.017 A 
ATOM     32  C   UNL d   1       0.561  -6.160   2.717  0.00  0.00     0.016 A 
BRANCH  30  33
ATOM     33  C   UNL d   1      -0.872  -9.689   3.114  0.00  0.00     0.417 C 
ATOM     34  F   UNL d   1      -1.533 -10.512   2.255  0.00  0.00    -0.166 F 
ATOM     35  F   UNL d   1       0.210 -10.393   3.547  0.00  0.00    -0.166 F 
ATOM     36  F   UNL d   1      -1.685  -9.550   4.198  0.00  0.00    -0.166 F 
ENDBRANCH  30  33
ENDBRANCH  25  27
ENDBRANCH  24  25
ENDBRANCH  23  24
ENDBRANCH  21  23
ENDBRANCH   1  21
BRANCH   1  37
ATOM     37  O   UNL d   1       2.312   0.219   0.069  0.00  0.00    -0.382 OA
ATOM     38  H   UNL d   1       2.716  -0.284  -0.664  0.00  0.00     0.210 HD
ENDBRANCH   1  37
TORSDOF 15
