REMARK  3 active torsions:
REMARK  status: ('A' for Active; 'I' for Inactive)
REMARK    1  A    between atoms: C_3  and  C_2 
REMARK    2  A    between atoms: O_14  and  C_8 
REMARK    3  A    between atoms: C_15  and  O_14 
ROOT
ATOM      1  C   UNL d   1      -0.979  -1.919   1.098  0.00  0.00     0.125 C 
ATOM      2  C   UNL d   1       0.067  -1.703   0.277  0.00  0.00     0.048 C 
ATOM      3  N   UNL d   1      -1.219  -4.047   2.542  0.00  0.00    -0.191 NA
ATOM      4  N   UNL d   1      -2.792  -0.083   1.248  0.00  0.00    -0.191 NA
ATOM      5  C   UNL d   1      -1.993  -0.921   1.192  0.00  0.00     0.111 C 
ATOM      6  C   UNL d   1      -1.105  -3.094   1.888  0.00  0.00     0.111 C 
ENDROOT
BRANCH   2   7
ATOM      7  C   UNL d   1       1.230  -2.585   0.105  0.00  0.00     0.001 A 
ATOM      8  C   UNL d   1       1.319  -3.653  -0.806  0.00  0.00     0.079 A 
ATOM      9  C   UNL d   1       2.490  -4.424  -0.847  0.00  0.00     0.039 A 
ATOM     10  C   UNL d   1       3.578  -4.136  -0.020  0.00  0.00     0.022 A 
ATOM     11  C   UNL d   1       3.489  -3.079   0.875  0.00  0.00     0.011 A 
ATOM     12  C   UNL d   1       2.327  -2.311   0.945  0.00  0.00     0.033 A 
ATOM     13 BR   UNL d   1       4.947  -2.677   2.008  0.00  0.00    -0.051 Br
BRANCH   8  14
ATOM     14  O   UNL d   1       0.359  -4.107  -1.669  0.00  0.00    -0.351 OA
BRANCH  14  15
ATOM     15  C   UNL d   1      -0.520  -3.162  -2.270  0.00  0.00     0.171 C 
ATOM     16  C   UNL d   1      -0.911  -3.681  -3.643  0.00  0.00     0.034 C 
ENDBRANCH  14  15
ENDBRANCH   8  14
ENDBRANCH   2   7
TORSDOF 3
