REMARK  5 active torsions:
REMARK  status: ('A' for Active; 'I' for Inactive)
REMARK    1  A    between atoms: C_8  and  C_1 
REMARK    2  A    between atoms: C_2  and  C_5 
REMARK    3  A    between atoms: C_5  and  C_12 
REMARK       I    between atoms: N_17  and  C_8 
REMARK    4  A    between atoms: C_15  and  C_16 
REMARK       I    between atoms: C_16  and  N_18 
REMARK    5  A    between atoms: N_18  and  N_17 
ROOT
ATOM      1  C   UNL d   1       6.762  -2.738   0.696  0.00  0.00     0.031 A 
ATOM      2  C   UNL d   1       6.109  -3.438  -0.339  0.00  0.00     0.047 A 
ATOM      3  C   UNL d   1       8.184  -2.721   0.722  0.00  0.00     0.016 A 
ATOM      4  C   UNL d   1       6.913  -4.209  -1.216  0.00  0.00     0.018 A 
ATOM      5  C   UNL d   1       8.948  -3.456  -0.178  0.00  0.00     0.001 A 
ATOM      6  C   UNL d   1       8.309  -4.228  -1.128  0.00  0.00     0.001 A 
ENDROOT
BRANCH   2   7
ATOM      7  C   UNL d   1       4.612  -3.423  -0.522  0.00  0.00     0.271 C 
ATOM      8  N   UNL d   1       4.094  -4.323  -1.439  0.00  0.00    -0.263 N 
ATOM      9  H   UNL d   1       4.640  -4.772  -2.166  0.00  0.00     0.190 HD
ATOM     10  O   UNL d   1       3.889  -2.652   0.091  0.00  0.00    -0.266 OA
BRANCH   8  11
ATOM     11  N   UNL d   1       2.711  -4.407  -1.665  0.00  0.00    -0.262 N 
ATOM     12  C   UNL d   1       2.318  -5.151  -2.770  0.00  0.00     0.278 C 
ATOM     13  O   UNL d   1       3.197  -5.739  -3.412  0.00  0.00    -0.265 OA
ATOM     14  H   UNL d   1       2.093  -3.873  -1.058  0.00  0.00     0.190 HD
BRANCH  12  15
ATOM     15  C   UNL d   1       0.913  -5.152  -3.139  0.00  0.00     0.097 C 
ATOM     16  S   UNL d   1       0.484  -6.066  -4.530  0.00  0.00    -0.082 SA
ATOM     17  C   UNL d   1      -1.116  -5.461  -4.554  0.00  0.00     0.017 A 
ATOM     18  C   UNL d   1      -2.089  -5.710  -5.543  0.00  0.00     0.020 A 
ATOM     19  C   UNL d   1      -1.371  -4.649  -3.449  0.00  0.00     0.004 A 
ATOM     20  C   UNL d   1      -3.338  -5.100  -5.432  0.00  0.00     0.001 A 
ATOM     21  C   UNL d   1      -3.626  -4.289  -4.346  0.00  0.00     0.001 A 
ATOM     22  C   UNL d   1      -2.666  -4.072  -3.349  0.00  0.00     0.014 A 
ATOM     23  C   UNL d   1      -0.199  -4.531  -2.607  0.00  0.00     0.068 C 
ATOM     24 CL   UNL d   1      -0.237  -3.614  -1.151  0.00  0.00    -0.082 Cl
ENDBRANCH  12  15
ENDBRANCH   8  11
ENDBRANCH   2   7
BRANCH   1  25
ATOM     25  C   UNL d   1       6.155  -2.108   1.914  0.00  0.00     0.194 C 
ATOM     26  O   UNL d   1       6.803  -1.169   2.405  0.00  0.00    -0.287 OA
BRANCH  25  27
ATOM     27  C   UNL d   1       4.974  -2.615   2.690  0.00  0.00     0.028 A 
ATOM     28  C   UNL d   1       4.135  -1.653   3.322  0.00  0.00    -0.041 A 
ATOM     29  C   UNL d   1       3.097  -2.078   4.198  0.00  0.00    -0.049 A 
ATOM     30  C   UNL d   1       4.302  -0.159   3.106  0.00  0.00     0.050 C 
ATOM     31  C   UNL d   1       2.292  -1.088   5.014  0.00  0.00     0.049 C 
ATOM     32  C   UNL d   1       2.826  -3.464   4.349  0.00  0.00    -0.049 A 
ATOM     33  C   UNL d   1       3.608  -4.419   3.667  0.00  0.00    -0.049 A 
ATOM     34  C   UNL d   1       1.681  -3.881   5.254  0.00  0.00     0.049 C 
ATOM     35  C   UNL d   1       4.738  -4.010   2.891  0.00  0.00    -0.041 A 
ATOM     36  C   UNL d   1       3.225  -5.885   3.755  0.00  0.00     0.049 C 
ATOM     37  C   UNL d   1       5.622  -5.097   2.339  0.00  0.00     0.050 C 
ENDBRANCH  25  27
ENDBRANCH   1  25
TORSDOF 5
