REMARK  3 active torsions:
REMARK  status: ('A' for Active; 'I' for Inactive)
REMARK       I    between atoms: C_5  and  N_1 
REMARK    1  A    between atoms: C_8  and  C_4 
REMARK    2  A    between atoms: C_9  and  C_5 
REMARK    3  A    between atoms: O_18  and  C_16 
ROOT
ATOM      1  N   UNL d   1       0.869  -0.737  -0.011  0.00  0.00    -0.231 N 
ATOM      2  N   UNL d   1       0.873   0.585  -0.330  0.00  0.00    -0.290 N 
ATOM      3  HN  UNL d   1       1.673   1.157  -0.597  1.00  0.00     0.187 HD
ATOM      4  C   UNL d   1      -0.405   0.970  -0.216  0.00  0.00     0.067 A 
ATOM      5  C   UNL d   1       2.065  -1.485  -0.006  0.00  0.00     0.276 C 
ATOM      6  C   UNL d   1      -1.234  -0.094   0.200  0.00  0.00     0.051 A 
ATOM      7  C   UNL d   1      -0.402  -1.184   0.277  0.00  0.00     0.122 A 
ATOM      8  O   UNL d   1       1.961  -2.712   0.028  0.00  0.00    -0.265 OA
ENDROOT
BRANCH   5   9
ATOM      9  C   UNL d   1       3.425  -0.884   0.006  0.00  0.00     0.036 A 
ATOM     10  C   UNL d   1       3.681   0.277   0.751  0.00  0.00     0.053 A 
ATOM     11  C   UNL d   1       4.973   0.793   0.827  0.00  0.00     0.069 A 
ATOM     12  C   UNL d   1       6.010   0.139   0.153  0.00  0.00     0.037 A 
ATOM     13  C   UNL d   1       5.763  -1.022  -0.584  0.00  0.00     0.004 A 
ATOM     14  C   UNL d   1       4.472  -1.542  -0.649  0.00  0.00     0.017 A 
BRANCH  11  15
ATOM     15  O   UNL d   1       5.349   1.905   1.530  0.00  0.00    -0.356 OA
ATOM     16  C   UNL d   1       4.325   2.588   2.246  0.00  0.00     0.210 C 
ENDBRANCH  11  15
ENDBRANCH   5   9
BRANCH   4  17
ATOM     17  C   UNL d   1      -0.832   2.377  -0.514  0.00  0.00     0.033 A 
ATOM     18  S   UNL d   1      -2.405   2.988  -0.245  0.00  0.00    -0.100 SA
ATOM     19  C   UNL d   1      -1.978   4.533  -0.845  0.00  0.00     0.050 A 
ATOM     20  C   UNL d   1      -0.665   4.580  -1.259  0.00  0.00     0.008 A 
ATOM     21  C   UNL d   1       0.001   3.335  -1.057  0.00  0.00     0.021 A 
ENDBRANCH   4  17
TORSDOF 3
