REMARK  1 active torsions:
REMARK  status: ('A' for Active; 'I' for Inactive)
REMARK       I    between atoms: C_2  and  N_1 
REMARK       I    between atoms: C_4  and  N_1 
REMARK       I    between atoms: N_8  and  C_2 
REMARK    1  A    between atoms: C_3  and  C_4 
ROOT
ATOM      1  N   UNL d   1       0.767  -0.716   0.216  0.00  0.00    -0.274 N 
ATOM      2  C   UNL d   1       0.339  -0.925  -1.067  0.00  0.00     0.325 C 
ATOM      3  C   UNL d   1       0.392   0.378   0.974  0.00  0.00     0.277 C 
ATOM      4  N   UNL d   1       1.086  -1.820  -1.807  0.00  0.00    -0.334 N 
ATOM      5  O   UNL d   1      -0.649  -0.387  -1.555  0.00  0.00    -0.247 OA
ATOM      6  O   UNL d   1      -0.540   1.140   0.745  0.00  0.00    -0.266 OA
ATOM      7  C   UNL d   1       2.249  -2.610  -1.434  0.00  0.00     0.127 C 
ATOM      8  C   UNL d   1       0.757  -2.022  -3.211  0.00  0.00     0.127 C 
ATOM      9  C   UNL d   1       2.982  -2.801  -2.751  0.00  0.00     0.022 C 
ATOM     10  C   UNL d   1       1.851  -2.925  -3.765  0.00  0.00     0.022 C 
ATOM     11  H   UNL d   1       1.577  -1.216   0.539  0.00  0.00     0.173 HD
ENDROOT
BRANCH   3  12
ATOM     12  C   UNL d   1       1.224   0.553   2.161  0.00  0.00     0.121 A 
ATOM     13  N   UNL d   1       2.302  -0.294   2.425  0.00  0.00    -0.287 N 
ATOM     14  N   UNL d   1       2.924   0.039   3.544  0.00  0.00    -0.061 NA
ATOM     15  HN  UNL d   1       2.576  -1.074   1.829  1.00  0.00     0.183 HD
ATOM     16  S   UNL d   1       2.242   1.366   4.302  0.00  0.00    -0.010 SA
ATOM     17  C   UNL d   1       1.034   1.553   3.103  0.00  0.00     0.101 A 
ENDBRANCH   3  12
TORSDOF 1
