REMARK  5 active torsions:
REMARK  status: ('A' for Active; 'I' for Inactive)
REMARK    1  A    between atoms: C_9  and  C_1 
REMARK    2  A    between atoms: C_2  and  C_18 
REMARK       I    between atoms: N_3  and  C_2 
REMARK    3  A    between atoms: C_8  and  N_3 
REMARK    4  A    between atoms: S_7  and  C_9 
REMARK    5  A    between atoms: C_18  and  S_7 
ROOT
ATOM      1  C   UNL d   1      -2.860   5.075  -0.179  0.00  0.00     0.231 C 
ATOM      2  N   UNL d   1      -3.913   4.197  -0.398  0.00  0.00    -0.327 N 
ATOM      3  O   UNL d   1      -2.977   6.281   0.033  0.00  0.00    -0.272 OA
ATOM      4  H   UNL d   1      -3.665   3.216  -0.474  0.00  0.00     0.169 HD
ENDROOT
BRANCH   1   5
ATOM      5  C   UNL d   1      -1.482   4.444  -0.065  0.00  0.00     0.177 C 
BRANCH   5   6
ATOM      6  S   UNL d   1      -1.181   3.057  -1.196  0.00  0.00    -0.155 SA
BRANCH   6   7
ATOM      7  C   UNL d   1       0.611   2.870  -0.870  0.00  0.00     0.116 C 
BRANCH   7   8
ATOM      8  C   UNL d   1       1.223   1.739  -1.664  0.00  0.00    -0.005 A 
ATOM      9  C   UNL d   1       1.891   1.968  -2.883  0.00  0.00     0.042 A 
ATOM     10 CL   UNL d   1       2.116   3.558  -3.530  0.00  0.00    -0.084 Cl
ATOM     11  C   UNL d   1       2.421   0.909  -3.631  0.00  0.00     0.024 A 
ATOM     12  C   UNL d   1       2.296  -0.402  -3.181  0.00  0.00     0.003 A 
ATOM     13  C   UNL d   1       1.656  -0.651  -1.972  0.00  0.00     0.024 A 
ATOM     14  C   UNL d   1       1.128   0.405  -1.219  0.00  0.00     0.042 A 
ATOM     15 CL   UNL d   1       0.373  -0.012   0.282  0.00  0.00    -0.084 Cl
ENDBRANCH   7   8
ENDBRANCH   6   7
ENDBRANCH   5   6
ENDBRANCH   1   5
BRANCH   2  16
ATOM     16  C   UNL d   1      -5.281   4.532  -0.505  0.00  0.00     0.034 A 
ATOM     17  C   UNL d   1      -5.751   5.847  -0.596  0.00  0.00     0.031 A 
ATOM     18  C   UNL d   1      -7.121   6.119  -0.689  0.00  0.00     0.026 A 
ATOM     19  C   UNL d   1      -8.034   5.072  -0.691  0.00  0.00     0.034 A 
ATOM     20  C   UNL d   1      -7.587   3.755  -0.610  0.00  0.00     0.026 A 
ATOM     21 CL   UNL d   1      -9.718   5.407  -0.796  0.00  0.00    -0.084 Cl
ATOM     22  C   UNL d   1      -6.215   3.486  -0.527  0.00  0.00     0.031 A 
ENDBRANCH   2  16
TORSDOF 5
