REMARK  6 active torsions:
REMARK  status: ('A' for Active; 'I' for Inactive)
REMARK    1  A    between atoms: N_4  and  C_3 
REMARK       I    between atoms: C_8  and  N_4 
REMARK    2  A    between atoms: S_11  and  C_5 
REMARK    3  A    between atoms: C_10  and  C_8 
REMARK    4  A    between atoms: C_14  and  S_11 
REMARK    5  A    between atoms: C_17  and  C_14 
REMARK    6  A    between atoms: O_23  and  C_16 
ROOT
ATOM      1  N   UNL d   1       1.208   0.215   0.528  0.00  0.00    -0.168 N 
ATOM      2  HN  UNL d   1       2.158   0.473   0.797  1.00  0.00     0.186 HD
ATOM      3  C   UNL d   1       0.154   1.039   0.223  0.00  0.00     0.701 A 
ATOM      4  C   UNL d   1       0.697  -0.982   0.389  0.00  0.00     0.174 A 
ATOM      5  N   UNL d   1      -0.982   0.403  -0.084  0.00  0.00    -0.130 N 
ATOM      6  HN  UNL d   1      -1.888   0.791  -0.349  1.00  0.00     0.205 HD
ATOM      7  N   UNL d   1      -0.614  -0.883   0.049  0.00  0.00    -0.265 N 
ATOM      8  H   UNL d   1      -1.282  -1.626  -0.111  0.00  0.00     0.189 HD
ENDROOT
BRANCH   3   9
ATOM      9  N   UNL d   1       0.189   2.407   0.191  0.00  0.00    -0.154 N 
ATOM     10  C   UNL d   1       1.232   3.191   0.611  0.00  0.00     0.270 C 
ATOM     11  O   UNL d   1       2.280   2.809   1.118  0.00  0.00    -0.267 OA
ATOM     12  H   UNL d   1      -0.692   2.812  -0.084  0.00  0.00     0.187 HD
BRANCH  10  13
ATOM     13  C   UNL d   1       0.999   4.665   0.490  0.00  0.00     0.035 A 
ATOM     14  C   UNL d   1       1.539   5.503   1.478  0.00  0.00     0.053 A 
ATOM     15  C   UNL d   1       1.314   6.881   1.434  0.00  0.00     0.069 A 
ATOM     16  C   UNL d   1       0.575   7.421   0.377  0.00  0.00     0.037 A 
ATOM     17  C   UNL d   1       0.062   6.598  -0.626  0.00  0.00     0.004 A 
ATOM     18  C   UNL d   1       0.271   5.220  -0.572  0.00  0.00     0.017 A 
BRANCH  15  19
ATOM     19  O   UNL d   1       1.742   7.798   2.354  0.00  0.00    -0.356 OA
ATOM     20  C   UNL d   1       2.476   7.303   3.469  0.00  0.00     0.210 C 
ENDBRANCH  15  19
ENDBRANCH  10  13
ENDBRANCH   3   9
BRANCH   4  21
ATOM     21  S   UNL d   1       1.437  -2.531   0.523  0.00  0.00    -0.087 SA
BRANCH  21  22
ATOM     22  C   UNL d   1       2.897  -2.162   1.536  0.00  0.00     0.121 C 
BRANCH  22  23
ATOM     23  C   UNL d   1       3.763  -3.392   1.733  0.00  0.00    -0.048 A 
ATOM     24  C   UNL d   1       4.843  -3.647   0.873  0.00  0.00     0.009 A 
ATOM     25  C   UNL d   1       5.655  -4.771   1.058  0.00  0.00     0.024 A 
ATOM     26  C   UNL d   1       5.387  -5.656   2.100  0.00  0.00     0.034 A 
ATOM     27  C   UNL d   1       4.311  -5.428   2.954  0.00  0.00     0.024 A 
ATOM     28 CL   UNL d   1       6.392  -7.033   2.333  0.00  0.00    -0.084 Cl
ATOM     29  C   UNL d   1       3.500  -4.304   2.770  0.00  0.00     0.009 A 
ENDBRANCH  22  23
ENDBRANCH  21  22
ENDBRANCH   4  21
TORSDOF 6
