REMARK  12 active torsions:
REMARK  status: ('A' for Active; 'I' for Inactive)
REMARK    1  A    between atoms: C_7  and  C_2 
REMARK    2  A    between atoms: C_8  and  C_2 
REMARK    3  A    between atoms: C_3  and  O_6 
REMARK    4  A    between atoms: C_4  and  O_5 
REMARK    5  A    between atoms: O_5  and  C_10 
REMARK    6  A    between atoms: O_6  and  C_9 
REMARK    7  A    between atoms: C_15  and  C_7 
REMARK    8  A    between atoms: C_16  and  C_8 
REMARK    9  A    between atoms: C_9  and  C_18 
REMARK   10  A    between atoms: C_10  and  C_17 
REMARK   11  A    between atoms: C_17  and  C_15 
REMARK   12  A    between atoms: C_18  and  C_16 
ROOT
ATOM      1  O   UNL d   1       0.905   0.196   0.033  0.00  0.00    -0.298 OA
ATOM      2  C   UNL d   1       2.135   0.215   0.059  0.00  0.00     0.127 C 
ENDROOT
BRANCH   2   3
ATOM      3  C   UNL d   1       2.908   0.879  -1.057  0.00  0.00     0.078 C 
BRANCH   3   4
ATOM      4  C   UNL d   1       3.202  -0.095  -2.194  0.00  0.00     0.009 C 
BRANCH   4   5
ATOM      5  C   UNL d   1       3.981   0.557  -3.342  0.00  0.00     0.027 C 
BRANCH   5   6
ATOM      6  C   UNL d   1       5.349   1.063  -2.894  0.00  0.00     0.175 C 
BRANCH   6   7
ATOM      7  O   UNL d   1       6.053   1.612  -4.005  0.00  0.00    -0.351 OA
BRANCH   7   8
ATOM      8  C   UNL d   1       7.276   2.161  -3.713  0.00  0.00     0.068 A 
ATOM      9  C   UNL d   1       7.899   2.152  -2.460  0.00  0.00     0.037 A 
ATOM     10  C   UNL d   1       9.153   2.740  -2.290  0.00  0.00     0.003 A 
ATOM     11  C   UNL d   1       9.796   3.340  -3.370  0.00  0.00     0.000 A 
ATOM     12  C   UNL d   1       9.180   3.355  -4.621  0.00  0.00     0.003 A 
ATOM     13  C   UNL d   1       7.925   2.767  -4.789  0.00  0.00     0.037 A 
ENDBRANCH   7   8
ENDBRANCH   6   7
ENDBRANCH   5   6
ENDBRANCH   4   5
ENDBRANCH   3   4
ENDBRANCH   2   3
BRANCH   2  14
ATOM     14  C   UNL d   1       2.946  -0.486   1.137  0.00  0.00     0.078 C 
BRANCH  14  15
ATOM     15  C   UNL d   1       2.252  -0.555   2.500  0.00  0.00     0.009 C 
BRANCH  15  16
ATOM     16  C   UNL d   1       0.994  -1.425   2.579  0.00  0.00     0.027 C 
BRANCH  16  17
ATOM     17  C   UNL d   1       1.210  -2.857   2.102  0.00  0.00     0.175 C 
BRANCH  17  18
ATOM     18  O   UNL d   1      -0.021  -3.567   2.231  0.00  0.00    -0.351 OA
BRANCH  18  19
ATOM     19  C   UNL d   1      -0.012  -4.876   1.833  0.00  0.00     0.068 A 
ATOM     20  C   UNL d   1       1.111  -5.600   1.425  0.00  0.00     0.037 A 
ATOM     21  C   UNL d   1       0.989  -6.947   1.072  0.00  0.00     0.003 A 
ATOM     22  C   UNL d   1      -0.254  -7.574   1.121  0.00  0.00     0.000 A 
ATOM     23  C   UNL d   1      -1.379  -6.854   1.516  0.00  0.00     0.003 A 
ATOM     24  C   UNL d   1      -1.256  -5.509   1.871  0.00  0.00     0.037 A 
ENDBRANCH  18  19
ENDBRANCH  17  18
ENDBRANCH  16  17
ENDBRANCH  15  16
ENDBRANCH  14  15
ENDBRANCH   2  14
TORSDOF 12
