REMARK  5 active torsions:
REMARK  status: ('A' for Active; 'I' for Inactive)
REMARK    1  A    between atoms: N_3  and  C_14 
REMARK    2  A    between atoms: C_16  and  C_5 
REMARK    3  A    between atoms: C_6  and  C_17 
REMARK    4  A    between atoms: C_23  and  C_9 
REMARK    5  A    between atoms: C_26  and  C_23 
ROOT
ATOM      1  N   UNL d   1       0.273  -0.337   0.965  0.00  0.00    -0.353 N 
ATOM      2  HN  UNL d   1       0.170  -0.657   1.928  1.00  0.00     0.166 HD
ATOM      3  C   UNL d   1       0.454   0.984   0.583  0.00  0.00     0.049 A 
ATOM      4  C   UNL d   1       0.254  -1.120  -0.096  0.00  0.00     0.055 A 
ATOM      5  S   UNL d   1       0.436  -0.317  -1.606  0.00  0.00    -0.086 SA
ATOM      6  C   UNL d   1       0.540   1.181  -0.782  0.00  0.00     0.081 A 
ENDROOT
BRANCH   4   7
ATOM      7  C   UNL d   1       0.039  -2.606  -0.053  0.00  0.00     0.103 C 
BRANCH   7   8
ATOM      8  C   UNL d   1       1.317  -3.416   0.006  0.00  0.00    -0.052 A 
ATOM      9  C   UNL d   1       2.205  -3.271   1.080  0.00  0.00     0.008 A 
ATOM     10  C   UNL d   1       3.356  -4.058   1.164  0.00  0.00     0.014 A 
ATOM     11  C   UNL d   1       3.642  -5.016   0.181  0.00  0.00    -0.008 A 
ATOM     12  C   UNL d   1       2.765  -5.148  -0.903  0.00  0.00     0.014 A 
ATOM     13  C   UNL d   1       1.612  -4.359  -0.988  0.00  0.00     0.008 A 
BRANCH  11  14
ATOM     14  C   UNL d   1       4.823  -5.865   0.272  0.00  0.00     0.063 A 
ATOM     15  N   UNL d   1       5.444  -6.372  -0.865  0.00  0.00    -0.292 N 
ATOM     16  N   UNL d   1       6.496  -7.115  -0.565  0.00  0.00    -0.061 NA
ATOM     17  HN  UNL d   1       5.125  -6.192  -1.817  1.00  0.00     0.183 HD
ATOM     18  S   UNL d   1       6.753  -7.243   1.082  0.00  0.00    -0.010 SA
ATOM     19  C   UNL d   1       5.402  -6.260   1.467  0.00  0.00     0.096 A 
ENDBRANCH  11  14
ENDBRANCH   7   8
ENDBRANCH   4   7
BRANCH   3  20
ATOM     20  C   UNL d   1       0.517   2.056   1.571  0.00  0.00    -0.009 A 
ATOM     21  C   UNL d   1       1.222   3.244   1.322  0.00  0.00     0.016 A 
ATOM     22  C   UNL d   1       1.288   4.254   2.289  0.00  0.00     0.037 A 
ATOM     23  C   UNL d   1       0.645   4.076   3.520  0.00  0.00     0.102 A 
ATOM     24  C   UNL d   1      -0.066   2.899   3.784  0.00  0.00     0.037 A 
ATOM     25  C   UNL d   1      -0.123   1.895   2.810  0.00  0.00     0.016 A 
BRANCH  23  26
ATOM     26  N   UNL d   1       0.730   5.127   4.540  0.00  0.00    -0.116 N 
ATOM     27  O   UNL d   1       1.376   6.147   4.265  0.00  0.00    -0.532 OA
ATOM     28  O   UNL d   1       0.149   4.930   5.618  0.00  0.00    -0.532 OA
ENDBRANCH  23  26
ENDBRANCH   3  20
TORSDOF 5
