REMARK  7 active torsions:
REMARK  status: ('A' for Active; 'I' for Inactive)
REMARK    1  A    between atoms: N_7  and  C_1 
REMARK    2  A    between atoms: C_10  and  C_6 
REMARK       I    between atoms: C_8  and  N_7 
REMARK    3  A    between atoms: C_15  and  C_8 
REMARK    4  A    between atoms: C_9  and  C_16 
REMARK    5  A    between atoms: O_14  and  C_9 
REMARK    6  A    between atoms: C_17  and  C_15 
REMARK    7  A    between atoms: C_16  and  C_17 
ROOT
ATOM      1  C   UNL d   1       0.068  -1.172   0.061  0.00  0.00     0.126 A 
ATOM      2  N   UNL d   1       0.080   1.103  -0.023  0.00  0.00    -0.296 N 
ATOM      3  HN  UNL d   1      -0.246   2.069  -0.021  1.00  0.00     0.187 HD
ATOM      4  C   UNL d   1       1.376  -0.748  -0.018  0.00  0.00     0.082 A 
ATOM      5  N   UNL d   1      -0.670  -0.014   0.007  0.00  0.00    -0.281 N 
ATOM      6  C   UNL d   1       1.349   0.669  -0.055  0.00  0.00     0.062 A 
ATOM      7  C   UNL d   1      -2.105   0.128  -0.020  0.00  0.00     0.179 C 
ENDROOT
BRANCH   1   8
ATOM      8  N   UNL d   1      -0.395  -2.486   0.155  0.00  0.00    -0.312 N 
ATOM      9  C   UNL d   1       0.487  -3.600   0.393  0.00  0.00     0.223 C 
ATOM     10  O   UNL d   1       1.682  -3.433   0.621  0.00  0.00    -0.273 OA
ATOM     11  H   UNL d   1      -1.397  -2.659   0.124  0.00  0.00     0.170 HD
BRANCH   9  12
ATOM     12  C   UNL d   1      -0.137  -4.965   0.435  0.00  0.00     0.103 C 
BRANCH  12  13
ATOM     13  C   UNL d   1       0.007  -5.589   1.829  0.00  0.00     0.019 C 
BRANCH  13  14
ATOM     14  C   UNL d   1      -0.711  -4.822   2.938  0.00  0.00     0.110 C 
BRANCH  14  15
ATOM     15  C   UNL d   1      -2.177  -4.711   2.633  0.00  0.00     0.139 C 
ATOM     16  O   UNL d   1      -2.617  -3.856   1.871  0.00  0.00    -0.650 OA
BRANCH  15  17
ATOM     17  O   UNL d   1      -2.927  -5.691   3.165  0.00  0.00    -0.776 OA
ATOM     18  H   UNL d   1      -2.443  -6.330   3.727  0.00  0.00     0.167 HD
ENDBRANCH  15  17
ENDBRANCH  14  15
ENDBRANCH  13  14
ENDBRANCH  12  13
ENDBRANCH   9  12
ENDBRANCH   1   8
BRANCH   6  19
ATOM     19  C   UNL d   1       2.489   1.590  -0.143  0.00  0.00    -0.008 A 
ATOM     20  C   UNL d   1       3.807   1.112  -0.236  0.00  0.00     0.014 A 
ATOM     21  C   UNL d   1       4.880   1.997  -0.370  0.00  0.00     0.001 A 
ATOM     22  C   UNL d   1       4.652   3.370  -0.406  0.00  0.00     0.000 A 
ATOM     23  C   UNL d   1       3.354   3.861  -0.295  0.00  0.00     0.001 A 
ATOM     24  C   UNL d   1       2.280   2.976  -0.162  0.00  0.00     0.014 A 
ENDBRANCH   6  19
TORSDOF 7
