REMARK  3 active torsions:
REMARK  status: ('A' for Active; 'I' for Inactive)
REMARK    1  A    between atoms: C_10  and  N_5 
REMARK    2  A    between atoms: C_12  and  C_10 
REMARK    3  A    between atoms: C_15  and  C_12 
ROOT
ATOM      1  N   UNL d   1       0.630   0.287  -0.096  0.00  0.00    -0.251 N 
ATOM      2  C   UNL d   1       1.212  -0.937   0.150  0.00  0.00     0.174 A 
ATOM      3  C   UNL d   1       1.409   1.378  -0.398  0.00  0.00     0.324 C 
ATOM      4  C   UNL d   1       2.887   1.071  -0.624  0.00  0.00     0.331 C 
ATOM      5  N   UNL d   1       3.332  -0.138  -0.097  0.00  0.00    -0.243 N 
ATOM      6  N   UNL d   1       2.477  -1.184   0.195  0.00  0.00    -0.274 N 
ATOM      7  HN  UNL d   1       2.831  -2.110   0.435  1.00  0.00     0.189 HD
ATOM      8  S   UNL d   1       0.002  -2.187   0.397  0.00  0.00    -0.050 SA
ATOM      9  C   UNL d   1      -0.782   0.279  -0.012  0.00  0.00     0.062 A 
ATOM     10  C   UNL d   1      -1.301  -1.002   0.198  0.00  0.00     0.035 A 
ATOM     11  O   UNL d   1       3.585   1.853  -1.258  0.00  0.00    -0.260 OA
ATOM     12  O   UNL d   1       1.020   2.539  -0.523  0.00  0.00    -0.261 OA
ATOM     13  C   UNL d   1      -1.644   1.363  -0.129  0.00  0.00     0.031 A 
ATOM     14  C   UNL d   1      -2.667  -1.240   0.229  0.00  0.00     0.021 A 
ATOM     15  C   UNL d   1      -3.024   1.141  -0.066  0.00  0.00     0.002 A 
ATOM     16  C   UNL d   1      -3.533  -0.154   0.091  0.00  0.00     0.002 A 
ENDROOT
BRANCH   5  17
ATOM     17  C   UNL d   1       4.754  -0.442  -0.138  0.00  0.00     0.236 C 
BRANCH  17  18
ATOM     18  C   UNL d   1       5.494  -0.101   1.157  0.00  0.00     0.179 C 
ATOM     19  O   UNL d   1       4.979   0.498   2.099  0.00  0.00    -0.290 OA
BRANCH  18  20
ATOM     20  C   UNL d   1       6.922  -0.551   1.257  0.00  0.00     0.011 A 
ATOM     21  C   UNL d   1       7.619  -1.026   0.135  0.00  0.00     0.017 A 
ATOM     22  C   UNL d   1       8.915  -1.533   0.264  0.00  0.00     0.025 A 
ATOM     23  C   UNL d   1       9.528  -1.558   1.514  0.00  0.00     0.034 A 
ATOM     24  C   UNL d   1       8.868  -1.046   2.629  0.00  0.00     0.025 A 
ATOM     25 CL   UNL d   1      11.096  -2.244   1.677  0.00  0.00    -0.084 Cl
ATOM     26  C   UNL d   1       7.568  -0.538   2.502  0.00  0.00     0.017 A 
ENDBRANCH  18  20
ENDBRANCH  17  18
ENDBRANCH   5  17
TORSDOF 3
