REMARK  4 active torsions:
REMARK  status: ('A' for Active; 'I' for Inactive)
REMARK       I    between atoms: N_2  and  C_1 
REMARK       I    between atoms: N_3  and  C_1 
REMARK    1  A    between atoms: C_4  and  N_3 
REMARK    2  A    between atoms: C_5  and  C_10 
REMARK    3  A    between atoms: O_17  and  C_5 
REMARK    4  A    between atoms: C_21  and  O_17 
ROOT
ATOM      1  C   UNL d   1       0.973  -0.218  -0.086  0.00  0.00     0.322 C 
ATOM      2  N   UNL d   1       0.295  -0.657  -1.224  0.00  0.00    -0.334 N 
ATOM      3  N   UNL d   1       0.541   0.978   0.445  0.00  0.00    -0.308 N 
ATOM      4  O   UNL d   1       1.898  -0.882   0.379  0.00  0.00    -0.247 OA
ATOM      5  C   UNL d   1       0.763  -1.883  -1.873  0.00  0.00     0.128 C 
ATOM      6  C   UNL d   1      -0.827  -0.024  -1.916  0.00  0.00     0.128 C 
ATOM      7  C   UNL d   1      -1.642  -2.357  -2.551  0.00  0.00     0.088 C 
ATOM      8  C   UNL d   1      -2.015  -0.981  -1.987  0.00  0.00     0.034 C 
ATOM      9  C   UNL d   1      -0.355  -2.917  -1.946  0.00  0.00     0.034 C 
ATOM     10  H   UNL d   1      -0.130   1.482  -0.096  0.00  0.00     0.170 HD
ENDROOT
BRANCH   3  11
ATOM     11  C   UNL d   1       1.087   1.692   1.546  0.00  0.00     0.045 A 
ATOM     12  C   UNL d   1       2.091   1.149   2.358  0.00  0.00     0.072 A 
ATOM     13  C   UNL d   1       2.688   1.910   3.358  0.00  0.00     0.118 A 
ATOM     14  F   UNL d   1       3.661   1.372   4.106  0.00  0.00    -0.206 F 
ATOM     15  C   UNL d   1       2.304   3.220   3.586  0.00  0.00     0.043 A 
ATOM     16  C   UNL d   1       1.273   3.762   2.827  0.00  0.00     0.012 A 
ATOM     17  C   UNL d   1       0.631   3.004   1.824  0.00  0.00    -0.035 A 
ATOM     18  C   UNL d   1      -0.489   3.695   1.089  0.00  0.00     0.050 C 
ENDBRANCH   3  11
BRANCH   7  19
ATOM     19  C   UNL d   1      -1.587  -2.317  -4.068  0.00  0.00     0.263 C 
ATOM     20  O   UNL d   1      -1.303  -1.333  -4.732  0.00  0.00    -0.265 OA
BRANCH  19  21
ATOM     21  O   UNL d   1      -1.989  -3.520  -4.566  0.00  0.00    -0.322 OA
BRANCH  21  22
ATOM     22  C   UNL d   1      -2.360  -3.524  -5.952  0.00  0.00     0.174 C 
ATOM     23  C   UNL d   1      -3.824  -3.134  -6.057  0.00  0.00     0.034 C 
ENDBRANCH  21  22
ENDBRANCH  19  21
ENDBRANCH   7  19
TORSDOF 4
