REMARK  3 active torsions:
REMARK  status: ('A' for Active; 'I' for Inactive)
REMARK    1  A    between atoms: C_7  and  C_3 
REMARK    2  A    between atoms: C_15  and  C_4 
REMARK    3  A    between atoms: C_18  and  C_12 
ROOT
ATOM      1  C   UNL d   1       4.499   2.390  -1.151  0.00  0.00    -0.042 A 
ATOM      2  C   UNL d   1       4.666   3.388  -0.176  0.00  0.00    -0.043 A 
ATOM      3  C   UNL d   1       2.430   1.618  -0.010  0.00  0.00    -0.002 A 
ATOM      4  C   UNL d   1       3.353   1.571  -1.074  0.00  0.00     0.022 A 
ATOM      5  C   UNL d   1       3.754   3.423   0.905  0.00  0.00     0.016 A 
ATOM      6  C   UNL d   1       2.661   2.536   1.025  0.00  0.00    -0.045 A 
ATOM      7  C   UNL d   1       5.485   2.173  -2.304  0.00  0.00    -0.020 C 
ATOM      8  C   UNL d   1       5.810   4.408  -0.239  0.00  0.00    -0.020 C 
ATOM      9  C   UNL d   1       6.802   2.946  -2.078  0.00  0.00     0.015 C 
ATOM     10  C   UNL d   1       6.557   4.365  -1.595  0.00  0.00     0.015 C 
ATOM     11  C   UNL d   1       4.817   2.621  -3.621  0.00  0.00     0.020 C 
ATOM     12  C   UNL d   1       5.880   0.680  -2.437  0.00  0.00     0.020 C 
ATOM     13  C   UNL d   1       6.801   4.131   0.911  0.00  0.00     0.020 C 
ATOM     14  C   UNL d   1       5.271   5.850  -0.092  0.00  0.00     0.020 C 
ENDROOT
BRANCH   3  15
ATOM     15  C   UNL d   1       1.292   0.694  -0.040  0.00  0.00     0.050 A 
ATOM     16  N   UNL d   1       0.038   1.036   0.439  0.00  0.00    -0.349 N 
ATOM     17  C   UNL d   1      -0.807   0.030   0.293  0.00  0.00     0.084 A 
ATOM     18  HN  UNL d   1      -0.200   1.939   0.848  1.00  0.00     0.166 HD
ATOM     19  S   UNL d   1      -0.152  -1.344  -0.516  0.00  0.00    -0.081 SA
ATOM     20  C   UNL d   1       1.370  -0.576  -0.579  0.00  0.00     0.082 A 
BRANCH  17  21
ATOM     21  C   UNL d   1      -2.215   0.047   0.726  0.00  0.00    -0.002 A 
ATOM     22  C   UNL d   1      -2.909   1.265   0.782  0.00  0.00     0.014 A 
ATOM     23  C   UNL d   1      -4.249   1.306   1.185  0.00  0.00     0.001 A 
ATOM     24  C   UNL d   1      -4.908   0.137   1.550  0.00  0.00     0.000 A 
ATOM     25  C   UNL d   1      -4.231  -1.078   1.515  0.00  0.00     0.001 A 
ATOM     26  C   UNL d   1      -2.895  -1.122   1.110  0.00  0.00     0.014 A 
ENDBRANCH  17  21
ENDBRANCH   3  15
BRANCH   6  27
ATOM     27  C   UNL d   1       1.829   2.605   2.288  0.00  0.00     0.035 C 
ATOM     28  C   UNL d   1       0.737   3.664   2.244  0.00  0.00     0.010 C 
ENDBRANCH   6  27
TORSDOF 3
