REMARK  4 active torsions:
REMARK  status: ('A' for Active; 'I' for Inactive)
REMARK    1  A    between atoms: N_12  and  C_7 
REMARK    2  A    between atoms: N_16  and  C_8 
REMARK    3  A    between atoms: N_10  and  N_12 
REMARK    4  A    between atoms: C_17  and  C_13 
ROOT
ATOM      1  N   UNL d   1      -1.103   1.119  -0.288  0.00  0.00    -0.165 N 
ATOM      2  HN  UNL d   1      -1.951   1.672  -0.418  1.00  0.00     0.187 HD
ATOM      3  N   UNL d   1      -0.059  -0.954   0.071  0.00  0.00    -0.179 N 
ATOM      4  HN  UNL d   1      -0.112  -1.964   0.205  1.00  0.00     0.185 HD
ATOM      5  N   UNL d   1       1.228   1.022  -0.089  0.00  0.00    -0.322 N 
ATOM      6  HN  UNL d   1       2.133   1.492  -0.066  1.00  0.00     0.169 HD
ATOM      7  C   UNL d   1      -1.143  -0.202  -0.116  0.00  0.00     0.700 A 
ATOM      8  C   UNL d   1       0.093   1.671  -0.281  0.00  0.00     0.171 A 
ATOM      9  C   UNL d   1       1.099  -0.294   0.070  0.00  0.00     0.095 A 
ATOM     10  C   UNL d   1       2.350  -1.095   0.253  0.00  0.00     0.089 C 
ENDROOT
BRANCH   7  11
ATOM     11  N   UNL d   1      -2.373  -0.872  -0.131  0.00  0.00    -0.132 N 
ATOM     12  H   UNL d   1      -2.300  -1.849   0.124  0.00  0.00     0.205 HD
BRANCH  11  13
ATOM     13  N   UNL d   1      -3.526  -0.165  -0.159  0.00  0.00    -0.295 N 
ATOM     14  C   UNL d   1      -4.621  -0.855  -0.130  0.00  0.00     0.137 C 
ATOM     15  HN  UNL d   1      -3.532   0.854  -0.200  1.00  0.00     0.186 HD
BRANCH  14  16
ATOM     16  C   UNL d   1      -5.939  -0.191  -0.179  0.00  0.00     0.049 A 
ATOM     17  N   UNL d   1      -7.009  -1.021  -0.126  0.00  0.00    -0.365 N 
ATOM     18  C   UNL d   1      -8.223  -0.429  -0.174  0.00  0.00     0.088 A 
ATOM     19  HN  UNL d   1      -6.904  -2.033  -0.053  1.00  0.00     0.165 HD
ATOM     20  C   UNL d   1      -8.415   0.942  -0.271  0.00  0.00     0.017 A 
ATOM     21  C   UNL d   1      -7.296   1.766  -0.325  0.00  0.00     0.004 A 
ATOM     22  C   UNL d   1      -6.031   1.193  -0.279  0.00  0.00     0.031 A 
ENDBRANCH  14  16
ENDBRANCH  11  13
ENDBRANCH   7  11
BRANCH   8  23
ATOM     23  N   UNL d   1       0.159   3.042  -0.440  0.00  0.00    -0.273 NA
ATOM     24  H   UNL d   1       0.990   3.404   0.006  0.00  0.00     0.127 HD
ATOM     25  H   UNL d   1      -0.728   3.450  -0.176  0.00  0.00     0.127 HD
ENDBRANCH   8  23
TORSDOF 4
