REMARK  7 active torsions:
REMARK  status: ('A' for Active; 'I' for Inactive)
REMARK    1  A    between atoms: C_13  and  N_1 
REMARK    2  A    between atoms: C_12  and  C_2 
REMARK    3  A    between atoms: C_10  and  C_6 
REMARK    4  A    between atoms: N_9  and  N_7 
REMARK       I    between atoms: C_11  and  N_9 
REMARK    5  A    between atoms: C_16  and  N_9 
REMARK    6  A    between atoms: O_17  and  C_12 
REMARK    7  A    between atoms: C_14  and  O_17 
ROOT
ATOM      1  N   UNL d   1       0.747  -0.716   0.047  0.00  0.00    -0.258 N 
ATOM      2  C   UNL d   1      -0.559  -1.181  -0.000  0.00  0.00     0.061 C 
ATOM      3  N   UNL d   1       0.786   0.643   0.143  0.00  0.00    -0.292 N 
ATOM      4  HN  UNL d   1       1.605   1.228   0.310  1.00  0.00     0.187 HD
ATOM      5  C   UNL d   1      -1.359  -0.052  -0.043  0.00  0.00     0.061 C 
ATOM      6  C   UNL d   1      -0.481   1.051  -0.030  0.00  0.00     0.067 C 
ENDROOT
BRANCH   6   7
ATOM      7  C   UNL d   1      -0.785   2.464  -0.232  0.00  0.00     0.138 C 
ATOM      8  N   UNL d   1      -2.002   2.894  -0.117  0.00  0.00    -0.300 N 
ATOM      9  HN  UNL d   1      -2.740   2.263   0.195  1.00  0.00     0.186 HD
BRANCH   8  10
ATOM     10  N   UNL d   1      -2.300   4.229  -0.421  0.00  0.00    -0.225 N 
ATOM     11  C   UNL d   1      -1.524   5.349  -0.041  0.00  0.00     0.239 C 
ATOM     12  O   UNL d   1      -1.723   6.513  -0.399  0.00  0.00    -0.272 OA
ATOM     13  C   UNL d   1      -0.368   5.158   0.913  0.00  0.00     0.119 C 
BRANCH  10  14
ATOM     14  C   UNL d   1      -3.586   4.373  -1.094  0.00  0.00     0.059 A 
ATOM     15  C   UNL d   1      -4.019   5.574  -1.683  0.00  0.00     0.031 A 
ATOM     16  C   UNL d   1      -5.263   5.685  -2.323  0.00  0.00     0.002 A 
ATOM     17  C   UNL d   1      -6.113   4.592  -2.394  0.00  0.00     0.000 A 
ATOM     18  C   UNL d   1      -5.717   3.386  -1.828  0.00  0.00     0.002 A 
ATOM     19  C   UNL d   1      -4.468   3.278  -1.193  0.00  0.00     0.031 A 
ENDBRANCH  10  14
ENDBRANCH   8  10
ENDBRANCH   6   7
BRANCH   1  20
ATOM     20  C   UNL d   1       1.971  -1.444  -0.035  0.00  0.00     0.056 A 
ATOM     21  C   UNL d   1       2.077  -2.614  -0.799  0.00  0.00     0.031 A 
ATOM     22  C   UNL d   1       3.291  -3.302  -0.871  0.00  0.00     0.002 A 
ATOM     23  C   UNL d   1       4.404  -2.830  -0.180  0.00  0.00     0.000 A 
ATOM     24  C   UNL d   1       4.312  -1.657   0.569  0.00  0.00     0.002 A 
ATOM     25  C   UNL d   1       3.105  -0.954   0.629  0.00  0.00     0.031 A 
ENDBRANCH   1  20
BRANCH   2  26
ATOM     26  C   UNL d   1      -0.934  -2.624   0.005  0.00  0.00     0.238 C 
BRANCH  26  27
ATOM     27  O   UNL d   1      -2.244  -2.730   0.579  0.00  0.00    -0.316 OA
BRANCH  27  28
ATOM     28  C   UNL d   1      -3.178  -3.351  -0.176  0.00  0.00     0.255 C 
ATOM     29  O   UNL d   1      -3.010  -3.813  -1.298  0.00  0.00    -0.266 OA
ATOM     30  C   UNL d   1      -4.489  -3.405   0.554  0.00  0.00     0.126 C 
ENDBRANCH  27  28
ENDBRANCH  26  27
ENDBRANCH   2  26
TORSDOF 7
