REMARK  3 active torsions:
REMARK  status: ('A' for Active; 'I' for Inactive)
REMARK    1  A    between atoms: C_5  and  C_1 
REMARK       I    between atoms: C_2  and  N_3 
REMARK    2  A    between atoms: C_7  and  C_2 
REMARK    3  A    between atoms: N_4  and  C_6 
ROOT
ATOM      1  C   UNL d   1      -1.688   7.677   5.560  0.00  0.00     0.277 C 
ATOM      2  N   UNL d   1      -1.497   6.522   4.801  0.00  0.00    -0.343 N 
ATOM      3  N   UNL d   1      -0.476   4.387   3.224  0.00  0.00    -0.364 N 
ATOM      4  C   UNL d   1      -0.864   5.356   5.431  0.00  0.00     0.146 C 
ATOM      5  C   UNL d   1      -1.992   6.306   3.428  0.00  0.00     0.146 C 
ATOM      6  C   UNL d   1      -0.956   5.592   2.533  0.00  0.00     0.144 C 
ATOM      7  C   UNL d   1       0.173   4.689   4.509  0.00  0.00     0.144 C 
ATOM      8  O   UNL d   1      -1.095   7.822   6.632  0.00  0.00    -0.265 OA
ENDROOT
BRANCH   3   9
ATOM      9  C   UNL d   1       0.041   3.372   2.436  0.00  0.00     0.103 A 
ATOM     10  C   UNL d   1       0.213   2.098   2.977  0.00  0.00     0.049 A 
ATOM     11  C   UNL d   1       0.585   1.033   2.157  0.00  0.00     0.021 A 
ATOM     12  C   UNL d   1       0.786   1.248   0.800  0.00  0.00     0.063 A 
ATOM     13  C   UNL d   1       0.619   2.542   0.338  0.00  0.00     0.106 A 
ATOM     14  N   UNL d   1       0.251   3.587   1.119  0.00  0.00    -0.352 N 
ATOM     15  HN  UNL d   1       0.134   4.518   0.720  1.00  0.00     0.166 HD
BRANCH  12  16
ATOM     16  C   UNL d   1       1.125   0.128  -0.130  0.00  0.00     0.418 C 
ATOM     17  F   UNL d   1       1.385   0.533  -1.403  0.00  0.00    -0.166 F 
ATOM     18  F   UNL d   1       0.120  -0.787  -0.229  0.00  0.00    -0.166 F 
ATOM     19  F   UNL d   1       2.223  -0.571   0.271  0.00  0.00    -0.166 F 
ENDBRANCH  12  16
ENDBRANCH   3   9
BRANCH   1  20
ATOM     20  C   UNL d   1      -2.566   8.718   5.058  0.00  0.00     0.142 A 
ATOM     21  O   UNL d   1      -3.690   8.404   4.337  0.00  0.00    -0.317 OA
ATOM     22  C   UNL d   1      -4.322   9.570   4.043  0.00  0.00     0.143 A 
ATOM     23  C   UNL d   1      -3.639  10.636   4.577  0.00  0.00     0.027 A 
ATOM     24  C   UNL d   1      -2.522  10.087   5.251  0.00  0.00     0.045 A 
ENDBRANCH   1  20
TORSDOF 3
