REMARK  6 active torsions:
REMARK  status: ('A' for Active; 'I' for Inactive)
REMARK    1  A    between atoms: C_4  and  S_1 
REMARK    2  A    between atoms: N_9  and  S_1 
REMARK    3  A    between atoms: C_13  and  N_2 
REMARK       I    between atoms: C_3  and  N_8 
REMARK    4  A    between atoms: C_12  and  C_3 
REMARK    5  A    between atoms: N_5  and  C_12 
REMARK    6  A    between atoms: N_8  and  C_19 
ROOT
ATOM      1  C   UNL d   1      -2.359  -3.460  -5.912  0.00  0.00     0.250 C 
ATOM      2  N   UNL d   1      -2.987  -3.907  -4.761  0.00  0.00    -0.326 N 
ATOM      3  O   UNL d   1      -2.909  -2.968  -6.893  0.00  0.00    -0.271 OA
ATOM      4  H   UNL d   1      -2.348  -4.245  -4.046  0.00  0.00     0.169 HD
ENDROOT
BRANCH   1   5
ATOM      5  C   UNL d   1      -0.825  -3.648  -5.906  0.00  0.00     0.375 C 
BRANCH   5   6
ATOM      6  N   UNL d   1      -0.225  -3.580  -4.550  0.00  0.00     0.099 N 
ATOM      7  C   UNL d   1       1.252  -3.819  -4.620  0.00  0.00     0.287 C 
ATOM      8  C   UNL d   1       2.181  -2.625  -5.023  0.00  0.00     0.126 C 
ATOM      9  N   UNL d   1       1.791  -1.397  -4.305  0.00  0.00    -0.280 NA
ATOM     10  C   UNL d   1       0.362  -1.089  -4.445  0.00  0.00     0.126 C 
ATOM     11  C   UNL d   1      -0.449  -2.270  -3.881  0.00  0.00     0.287 C 
BRANCH   9  12
ATOM     12  C   UNL d   1       2.662  -0.309  -4.434  0.00  0.00     0.010 A 
ATOM     13  C   UNL d   1       3.778  -0.232  -3.590  0.00  0.00     0.024 A 
ATOM     14  C   UNL d   1       4.602   0.900  -3.576  0.00  0.00     0.002 A 
ATOM     15  C   UNL d   1       4.336   1.966  -4.429  0.00  0.00     0.000 A 
ATOM     16  C   UNL d   1       3.257   1.893  -5.306  0.00  0.00     0.002 A 
ATOM     17  C   UNL d   1       2.431   0.763  -5.308  0.00  0.00     0.024 A 
ENDBRANCH   9  12
ENDBRANCH   5   6
ENDBRANCH   1   5
BRANCH   2  18
ATOM     18  C   UNL d   1      -4.347  -3.746  -4.409  0.00  0.00     0.034 A 
ATOM     19  C   UNL d   1      -5.332  -3.286  -5.288  0.00  0.00     0.031 A 
ATOM     20  C   UNL d   1      -6.651  -3.089  -4.853  0.00  0.00     0.027 A 
ATOM     21  C   UNL d   1      -6.985  -3.345  -3.523  0.00  0.00     0.074 A 
ATOM     22  C   UNL d   1      -6.026  -3.843  -2.641  0.00  0.00     0.027 A 
ATOM     23  C   UNL d   1      -4.712  -4.044  -3.087  0.00  0.00     0.031 A 
BRANCH  21  24
ATOM     24  S   UNL d   1      -8.644  -3.091  -2.963  0.00  0.00     0.239 S 
ATOM     25  O   UNL d   1      -8.893  -3.933  -1.819  0.00  0.00    -0.206 OA
ATOM     26  O   UNL d   1      -9.535  -3.047  -4.102  0.00  0.00    -0.206 OA
BRANCH  24  27
ATOM     27  N   UNL d   1      -8.581  -1.519  -2.372  0.00  0.00    -0.225 NA
ATOM     28  H   UNL d   1      -8.771  -1.519  -1.369  0.00  0.00     0.136 HD
ATOM     29  H   UNL d   1      -9.211  -0.923  -2.909  0.00  0.00     0.136 HD
ENDBRANCH  24  27
ENDBRANCH  21  24
ENDBRANCH   2  18
TORSDOF 6
