REMARK  4 active torsions:
REMARK  status: ('A' for Active; 'I' for Inactive)
REMARK    1  A    between atoms: C_2  and  N_1 
REMARK    2  A    between atoms: O_11  and  C_3 
REMARK    3  A    between atoms: C_4  and  C_15 
REMARK    4  A    between atoms: C_19  and  O_11 
ROOT
ATOM      1  C   UNL d   1       1.019  -1.594  -3.425  0.00  0.00     0.017 A 
ATOM      2  C   UNL d   1      -0.295  -1.108  -3.378  0.00  0.00     0.018 A 
ATOM      3  C   UNL d   1       1.577  -2.126  -2.251  0.00  0.00     0.018 A 
ATOM      4  C   UNL d   1      -0.482  -1.719  -1.042  0.00  0.00     0.077 A 
ATOM      5  C   UNL d   1      -1.033  -1.152  -2.194  0.00  0.00     0.038 A 
ATOM      6  C   UNL d   1       0.833  -2.183  -1.065  0.00  0.00     0.038 A 
ENDROOT
BRANCH   4   7
ATOM      7  O   UNL d   1      -1.147  -1.789   0.163  0.00  0.00    -0.291 OA
BRANCH   7   8
ATOM      8  C   UNL d   1      -2.514  -2.003   0.124  0.00  0.00     0.181 A 
ATOM      9  C   UNL d   1      -3.344  -1.362   1.024  0.00  0.00     0.154 A 
ATOM     10  C   UNL d   1      -4.723  -1.585   0.984  0.00  0.00     0.042 A 
ATOM     11  C   UNL d   1      -5.225  -2.465   0.030  0.00  0.00     0.020 A 
ATOM     12  C   UNL d   1      -4.330  -3.097  -0.819  0.00  0.00     0.090 A 
ATOM     13  N   UNL d   1      -2.993  -2.895  -0.785  0.00  0.00    -0.345 N 
ATOM     14  HN  UNL d   1      -2.367  -3.393  -1.418  1.00  0.00     0.167 HD
BRANCH   9  15
ATOM     15  N   UNL d   1      -2.805  -0.445   1.993  0.00  0.00    -0.111 N 
ATOM     16  O   UNL d   1      -2.140   0.509   1.570  0.00  0.00    -0.532 OA
ATOM     17  O   UNL d   1      -3.099  -0.648   3.179  0.00  0.00    -0.532 OA
ENDBRANCH   9  15
ENDBRANCH   7   8
ENDBRANCH   4   7
BRANCH   1  18
ATOM     18  C   UNL d   1       1.800  -1.544  -4.653  0.00  0.00     0.173 A 
ATOM     19  N   UNL d   1       3.035  -1.939  -4.901  0.00  0.00    -0.278 N 
ATOM     20  N   UNL d   1       3.283  -1.649  -6.229  0.00  0.00    -0.288 N 
ATOM     21  HN  UNL d   1       3.680  -2.373  -4.240  1.00  0.00     0.189 HD
ATOM     22  C   UNL d   1       2.184  -1.100  -6.689  0.00  0.00     0.251 A 
ATOM     23  HN  UNL d   1       4.144  -1.826  -6.745  1.00  0.00     0.188 HD
ATOM     24  O   UNL d   1       1.197  -0.999  -5.761  0.00  0.00    -0.286 OA
ENDBRANCH   1  18
TORSDOF 4
