REMARK  6 active torsions:
REMARK  status: ('A' for Active; 'I' for Inactive)
REMARK    1  A    between atoms: C_10  and  C_3 
REMARK    2  A    between atoms: C_11  and  N_4 
REMARK    3  A    between atoms: C_12  and  N_5 
REMARK    4  A    between atoms: O_20  and  C_10 
REMARK    5  A    between atoms: C_29  and  O_20 
REMARK    6  A    between atoms: O_28  and  C_22 
ROOT
ATOM      1  C   UNL d   1       0.105  -0.764   0.288  0.00  0.00     0.165 C 
ATOM      2  C   UNL d   1       0.060   0.652  -0.237  0.00  0.00     0.197 C 
ATOM      3  C   UNL d   1      -1.315  -1.018   0.025  0.00  0.00     0.112 C 
ATOM      4  N   UNL d   1      -1.170   1.106   0.374  0.00  0.00    -0.182 NA
ATOM      5  N   UNL d   1       2.181  -0.065  -0.317  0.00  0.00    -0.250 N 
ATOM      6  C   UNL d   1       1.335  -1.180  -0.397  0.00  0.00     0.243 C 
ATOM      7  C   UNL d   1       1.444   1.053   0.106  0.00  0.00     0.252 C 
ATOM      8  N   UNL d   1      -2.073   0.036   0.203  0.00  0.00    -0.311 N 
ATOM      9  HN  UNL d   1      -3.092   0.075   0.216  1.00  0.00     0.181 HD
ATOM     10  O   UNL d   1       1.815   2.121   0.555  0.00  0.00    -0.271 OA
ATOM     11  O   UNL d   1       1.505  -2.279  -0.894  0.00  0.00    -0.272 OA
ENDROOT
BRANCH   5  12
ATOM     12  C   UNL d   1       3.522  -0.001  -0.791  0.00  0.00     0.045 A 
ATOM     13  C   UNL d   1       4.159   1.235  -0.990  0.00  0.00     0.033 A 
ATOM     14  C   UNL d   1       5.418   1.325  -1.597  0.00  0.00     0.039 A 
ATOM     15  C   UNL d   1       6.078   0.173  -2.006  0.00  0.00     0.068 A 
ATOM     16  C   UNL d   1       5.495  -1.065  -1.751  0.00  0.00     0.039 A 
ATOM     17  C   UNL d   1       4.229  -1.154  -1.156  0.00  0.00     0.033 A 
BRANCH  15  18
ATOM     18  O   UNL d   1       7.296   0.142  -2.624  0.00  0.00    -0.356 OA
ATOM     19  C   UNL d   1       7.612   1.286  -3.412  0.00  0.00     0.210 C 
ENDBRANCH  15  18
ENDBRANCH   5  12
BRANCH   3  20
ATOM     20  C   UNL d   1      -1.828  -2.390  -0.313  0.00  0.00     0.307 C 
ATOM     21  O   UNL d   1      -2.687  -2.573  -1.153  0.00  0.00    -0.258 OA
BRANCH  20  22
ATOM     22  O   UNL d   1      -1.203  -3.302   0.456  0.00  0.00    -0.317 OA
BRANCH  22  23
ATOM     23  C   UNL d   1      -1.651  -4.656   0.281  0.00  0.00     0.175 C 
ATOM     24  C   UNL d   1      -1.023  -5.295  -0.946  0.00  0.00     0.034 C 
ENDBRANCH  22  23
ENDBRANCH  20  22
ENDBRANCH   3  20
BRANCH   4  25
ATOM     25  C   UNL d   1      -1.671   2.397   0.158  0.00  0.00     0.031 A 
ATOM     26  C   UNL d   1      -0.975   3.391  -0.550  0.00  0.00     0.027 A 
ATOM     27  C   UNL d   1      -1.486   4.689  -0.682  0.00  0.00     0.026 A 
ATOM     28  C   UNL d   1      -2.703   5.016  -0.096  0.00  0.00     0.034 A 
ATOM     29  C   UNL d   1      -3.422   4.053   0.601  0.00  0.00     0.026 A 
ATOM     30 CL   UNL d   1      -3.312   6.620  -0.225  0.00  0.00    -0.084 Cl
ATOM     31  C   UNL d   1      -2.909   2.756   0.720  0.00  0.00     0.027 A 
ENDBRANCH   4  25
TORSDOF 6
