REMARK  3 active torsions:
REMARK  status: ('A' for Active; 'I' for Inactive)
REMARK    1  A    between atoms: C_17  and  C_4 
REMARK    2  A    between atoms: N_10  and  C_13 
REMARK    3  A    between atoms: C_16  and  C_11 
ROOT
ATOM      1  N   UNL d   1      -0.508  -0.794   0.049  0.00  0.00    -0.214 N 
ATOM      2  N   UNL d   1       0.457  -1.749   0.268  0.00  0.00    -0.293 N 
ATOM      3  HN  UNL d   1       0.213  -2.685   0.590  1.00  0.00     0.187 HD
ATOM      4  C   UNL d   1      -1.880  -0.996  -0.058  0.00  0.00     0.154 A 
ATOM      5  C   UNL d   1      -0.355   0.566  -0.070  0.00  0.00     0.182 A 
ATOM      6  N   UNL d   1      -2.461   0.177  -0.277  0.00  0.00    -0.281 N 
ATOM      7  HN  UNL d   1      -3.459   0.324  -0.432  1.00  0.00     0.188 HD
ATOM      8  N   UNL d   1      -1.502   1.161  -0.263  0.00  0.00    -0.277 N 
ATOM      9  HN  UNL d   1      -1.656   2.162  -0.379  1.00  0.00     0.189 HD
ATOM     10  C   UNL d   1       1.698  -1.411   0.050  0.00  0.00     0.046 C 
ATOM     11  S   UNL d   1       1.196   1.298   0.059  0.00  0.00    -0.085 SA
ATOM     12  C   UNL d   1       2.153  -0.094  -0.572  0.00  0.00     0.142 C 
ENDROOT
BRANCH  10  13
ATOM     13  C   UNL d   1       2.752  -2.434   0.359  0.00  0.00    -0.011 A 
ATOM     14  C   UNL d   1       3.976  -2.463  -0.323  0.00  0.00     0.016 A 
ATOM     15  C   UNL d   1       4.938  -3.431  -0.007  0.00  0.00     0.037 A 
ATOM     16  C   UNL d   1       4.669  -4.380   0.989  0.00  0.00     0.102 A 
ATOM     17  C   UNL d   1       3.445  -4.368   1.667  0.00  0.00     0.037 A 
ATOM     18  C   UNL d   1       2.491  -3.396   1.348  0.00  0.00     0.016 A 
BRANCH  16  19
ATOM     19  N   UNL d   1       5.678  -5.396   1.319  0.00  0.00    -0.116 N 
ATOM     20  O   UNL d   1       6.746  -5.369   0.691  0.00  0.00    -0.532 OA
ATOM     21  O   UNL d   1       5.400  -6.216   2.205  0.00  0.00    -0.532 OA
ENDBRANCH  16  19
ENDBRANCH  10  13
BRANCH   4  22
ATOM     22  C   UNL d   1      -2.579  -2.284  -0.006  0.00  0.00     0.011 A 
ATOM     23  C   UNL d   1      -2.100  -3.381   0.724  0.00  0.00     0.015 A 
ATOM     24  C   UNL d   1      -2.803  -4.589   0.750  0.00  0.00     0.001 A 
ATOM     25  C   UNL d   1      -4.001  -4.716   0.053  0.00  0.00     0.000 A 
ATOM     26  C   UNL d   1      -4.500  -3.634  -0.667  0.00  0.00     0.001 A 
ATOM     27  C   UNL d   1      -3.796  -2.427  -0.692  0.00  0.00     0.015 A 
ENDBRANCH   4  22
TORSDOF 3
