REMARK  2 active torsions:
REMARK  status: ('A' for Active; 'I' for Inactive)
REMARK    1  A    between atoms: C_2  and  C_1 
REMARK    2  A    between atoms: C_8  and  C_2 
REMARK       I    between atoms: C_5  and  N_3 
ROOT
ATOM      1  C   UNL d   1       2.278  -2.117   0.744  0.00  0.00     0.166 C 
ATOM      2  O   UNL d   1       1.226  -1.484   0.771  0.00  0.00    -0.292 OA
ENDROOT
BRANCH   1   3
ATOM      3  C   UNL d   1       3.327  -1.817   1.772  0.00  0.00     0.049 A 
ATOM      4  C   UNL d   1       4.387  -2.684   2.062  0.00  0.00     0.133 A 
ATOM      5  C   UNL d   1       5.354  -2.350   3.003  0.00  0.00     0.085 A 
ATOM      6  F   UNL d   1       4.509  -3.872   1.460  0.00  0.00    -0.205 F 
ATOM      7  C   UNL d   1       5.257  -1.145   3.680  0.00  0.00     0.119 A 
ATOM      8  C   UNL d   1       4.207  -0.269   3.431  0.00  0.00     0.043 A 
ATOM      9  F   UNL d   1       6.187  -0.819   4.588  0.00  0.00    -0.206 F 
ATOM     10  C   UNL d   1       3.239  -0.604   2.479  0.00  0.00     0.021 A 
ENDBRANCH   1   3
BRANCH   1  11
ATOM     11  C   UNL d   1       2.535  -3.191  -0.315  0.00  0.00     0.064 C 
ATOM     12  C   UNL d   1       1.990  -2.809  -1.694  0.00  0.00     0.032 C 
ATOM     13  C   UNL d   1       0.506  -3.093  -1.873  0.00  0.00     0.126 C 
ATOM     14  N   UNL d   1       0.159  -4.457  -1.486  0.00  0.00    -0.352 N 
ATOM     15  C   UNL d   1       0.551  -4.831  -0.134  0.00  0.00     0.126 C 
ATOM     16  C   UNL d   1      -0.819  -5.100  -2.238  0.00  0.00     0.215 C 
ATOM     17  C   UNL d   1       2.026  -4.556   0.154  0.00  0.00     0.032 C 
ATOM     18  O   UNL d   1      -1.173  -4.688  -3.346  0.00  0.00    -0.274 OA
ATOM     19  C   UNL d   1      -1.456  -6.361  -1.704  0.00  0.00     0.117 C 
ENDBRANCH   1  11
TORSDOF 2
