REMARK  4 active torsions:
REMARK  status: ('A' for Active; 'I' for Inactive)
REMARK    1  A    between atoms: C_12  and  N_3 
REMARK    2  A    between atoms: N_11  and  C_9 
REMARK    3  A    between atoms: C_19  and  N_11 
REMARK    4  A    between atoms: C_16  and  C_12 
ROOT
ATOM      1  C   UNL d   1      -0.203  -0.870  -0.051  0.00  0.00     0.160 A 
ATOM      2  C   UNL d   1      -0.449   0.471  -0.040  0.00  0.00     0.164 A 
ATOM      3  N   UNL d   1       1.886   0.860   0.027  0.00  0.00    -0.260 N 
ATOM      4  N   UNL d   1      -1.339  -1.600  -0.143  0.00  0.00    -0.174 N 
ATOM      5  HN  UNL d   1      -1.418  -2.615  -0.208  1.00  0.00     0.186 HD
ATOM      6  N   UNL d   1       1.064  -1.384   0.031  0.00  0.00    -0.287 N 
ATOM      7  C   UNL d   1       2.146  -0.518   0.141  0.00  0.00     0.333 C 
ATOM      8  C   UNL d   1       0.608   1.437  -0.028  0.00  0.00     0.283 C 
ATOM      9  C   UNL d   1      -2.319  -0.724  -0.132  0.00  0.00     0.682 A 
ATOM     10  N   UNL d   1      -1.820   0.566  -0.042  0.00  0.00    -0.178 N 
ATOM     11  O   UNL d   1       3.287  -0.951   0.337  0.00  0.00    -0.246 OA
ATOM     12  O   UNL d   1       0.411   2.650  -0.058  0.00  0.00    -0.265 OA
ATOM     13  C   UNL d   1       1.304  -2.814   0.052  0.00  0.00     0.163 C 
ATOM     14  C   UNL d   1      -2.622   1.763  -0.019  0.00  0.00     0.176 C 
ENDROOT
BRANCH   3  15
ATOM     15  C   UNL d   1       3.043   1.750   0.018  0.00  0.00     0.175 C 
BRANCH  15  16
ATOM     16  C   UNL d   1       3.663   1.891  -1.362  0.00  0.00    -0.040 A 
ATOM     17  C   UNL d   1       3.270   2.932  -2.219  0.00  0.00     0.012 A 
ATOM     18  C   UNL d   1       3.812   3.036  -3.503  0.00  0.00     0.043 A 
ATOM     19  C   UNL d   1       4.742   2.099  -3.937  0.00  0.00     0.116 A 
ATOM     20  C   UNL d   1       5.158   1.070  -3.104  0.00  0.00     0.043 A 
ATOM     21  F   UNL d   1       5.242   2.188  -5.177  0.00  0.00    -0.206 F 
ATOM     22  C   UNL d   1       4.624   0.969  -1.817  0.00  0.00     0.012 A 
ENDBRANCH  15  16
ENDBRANCH   3  15
BRANCH   9  23
ATOM     23  N   UNL d   1      -3.639  -0.999  -0.232  0.00  0.00    -0.221 N 
ATOM     24  H   UNL d   1      -4.337  -0.435   0.237  0.00  0.00     0.178 HD
BRANCH  23  25
ATOM     25  C   UNL d   1      -4.028  -2.350  -0.617  0.00  0.00     0.099 C 
ATOM     26  C   UNL d   1      -3.859  -2.547  -2.124  0.00  0.00     0.026 C 
ATOM     27  C   UNL d   1      -4.779  -3.708  -2.481  0.00  0.00     0.002 C 
ATOM     28  C   UNL d   1      -5.787  -3.814  -1.338  0.00  0.00     0.002 C 
ATOM     29  C   UNL d   1      -5.519  -2.615  -0.431  0.00  0.00     0.026 C 
ENDBRANCH  23  25
ENDBRANCH   9  23
TORSDOF 4
