REMARK  6 active torsions:
REMARK  status: ('A' for Active; 'I' for Inactive)
REMARK    1  A    between atoms: N_2  and  C_1 
REMARK    2  A    between atoms: N_6  and  C_1 
REMARK    3  A    between atoms: C_4  and  N_2 
REMARK    4  A    between atoms: C_12  and  N_6 
REMARK    5  A    between atoms: O_9  and  C_14 
REMARK    6  A    between atoms: C_14  and  C_12 
ROOT
ATOM      1  N   UNL d   1       0.544  -0.608   0.960  0.00  0.00    -0.333 N 
ATOM      2  H   UNL d   1      -0.400  -0.810   0.655  0.00  0.00     0.168 HD
ENDROOT
BRANCH   1   3
ATOM      3  C   UNL d   1       1.241   0.141   0.041  0.00  0.00     0.172 C 
ATOM      4  S   UNL d   1       2.814  -0.077  -0.478  0.00  0.00    -0.041 SA
BRANCH   3   5
ATOM      5  N   UNL d   1       0.515   1.133  -0.560  0.00  0.00    -0.365 N 
ATOM      6  H   UNL d   1       1.077   1.675  -1.212  0.00  0.00     0.161 HD
BRANCH   5   7
ATOM      7  C   UNL d   1      -0.538   1.923   0.074  0.00  0.00     0.148 C 
BRANCH   7   8
ATOM      8  C   UNL d   1       0.065   3.045   0.921  0.00  0.00     0.183 C 
BRANCH   8   9
ATOM      9  O   UNL d   1       0.833   3.910   0.082  0.00  0.00    -0.399 OA
ATOM     10  H   UNL d   1       1.343   4.495   0.668  0.00  0.00     0.209 HD
ENDBRANCH   8   9
ENDBRANCH   7   8
ENDBRANCH   5   7
ENDBRANCH   3   5
ENDBRANCH   1   3
BRANCH   1  11
ATOM     11  C   UNL d   1       1.081  -1.488   1.925  0.00  0.00     0.037 A 
ATOM     12  C   UNL d   1       2.225  -1.170   2.660  0.00  0.00     0.071 A 
ATOM     13  C   UNL d   1       2.713  -2.071   3.600  0.00  0.00     0.118 A 
ATOM     14  F   UNL d   1       3.807  -1.756   4.307  0.00  0.00    -0.206 F 
ATOM     15  C   UNL d   1       2.082  -3.287   3.826  0.00  0.00     0.042 A 
ATOM     16  C   UNL d   1       0.922  -3.597   3.119  0.00  0.00     0.005 A 
ATOM     17  C   UNL d   1       0.410  -2.689   2.187  0.00  0.00     0.029 A 
ENDBRANCH   1  11
TORSDOF 6
