REMARK  3 active torsions:
REMARK  status: ('A' for Active; 'I' for Inactive)
REMARK    1  A    between atoms: C_6  and  N_1 
REMARK    2  A    between atoms: N_7  and  C_6 
REMARK    3  A    between atoms: C_11  and  N_7 
ROOT
ATOM      1  N   UNL d   1       1.899   0.064  -0.024  0.00  0.00    -0.267 N 
ATOM      2  C   UNL d   1       1.090   0.457   1.004  0.00  0.00     0.262 A 
ATOM      3  C   UNL d   1       1.180  -0.400  -1.090  0.00  0.00     0.262 A 
ATOM      4  C   UNL d   1      -0.285   0.308   0.530  0.00  0.00     0.048 A 
ATOM      5  C   UNL d   1      -0.227  -0.211  -0.753  0.00  0.00     0.048 A 
ATOM      6  O   UNL d   1       1.393   0.840   2.117  0.00  0.00    -0.267 OA
ATOM      7  O   UNL d   1       1.560  -0.932  -2.115  0.00  0.00    -0.267 OA
ATOM      8  C   UNL d   1      -1.365  -0.488  -1.484  0.00  0.00     0.018 A 
ATOM      9  C   UNL d   1      -1.488   0.579   1.151  0.00  0.00     0.018 A 
ATOM     10  C   UNL d   1      -2.595  -0.214  -0.879  0.00  0.00     0.001 A 
ATOM     11  C   UNL d   1      -2.656   0.315   0.428  0.00  0.00     0.001 A 
ENDROOT
BRANCH   1  12
ATOM     12  C   UNL d   1       3.329  -0.011   0.054  0.00  0.00     0.230 C 
BRANCH  12  13
ATOM     13  N   UNL d   1       3.863   1.295  -0.307  0.00  0.00    -0.275 NA
ATOM     14  H   UNL d   1       3.389   2.002   0.241  0.00  0.00     0.129 HD
BRANCH  13  15
ATOM     15  C   UNL d   1       5.265   1.464  -0.271  0.00  0.00     0.016 A 
ATOM     16  C   UNL d   1       5.850   2.743  -0.057  0.00  0.00    -0.035 A 
ATOM     17  C   UNL d   1       7.265   2.890  -0.120  0.00  0.00    -0.054 A 
ATOM     18  C   UNL d   1       5.014   3.974   0.209  0.00  0.00     0.050 C 
ATOM     19  C   UNL d   1       7.982   4.198   0.100  0.00  0.00     0.049 C 
ATOM     20  C   UNL d   1       8.073   1.775  -0.383  0.00  0.00     0.007 A 
ATOM     21  C   UNL d   1       7.505   0.536  -0.630  0.00  0.00     0.002 A 
ATOM     22  C   UNL d   1       6.120   0.394  -0.598  0.00  0.00     0.024 A 
ENDBRANCH  13  15
ENDBRANCH  12  13
ENDBRANCH   1  12
TORSDOF 3
