REMARK  6 active torsions:
REMARK  status: ('A' for Active; 'I' for Inactive)
REMARK    1  A    between atoms: C_5  and  S_1 
REMARK    2  A    between atoms: N_6  and  S_1 
REMARK    3  A    between atoms: C_2  and  C_13 
REMARK    4  A    between atoms: C_16  and  N_6 
REMARK    5  A    between atoms: O_21  and  C_12 
REMARK    6  A    between atoms: O_22  and  C_17 
ROOT
ATOM      1  N   UNL d   1       0.388  -1.196  -1.000  0.00  0.00    -0.281 N 
ATOM      2  H   UNL d   1      -0.495  -1.634  -0.750  0.00  0.00     0.179 HD
ENDROOT
BRANCH   1   3
ATOM      3  S   UNL d   1       0.954  -0.050   0.088  0.00  0.00     0.263 S 
ATOM      4  O   UNL d   1       0.271  -0.309   1.336  0.00  0.00    -0.200 OA
ATOM      5  O   UNL d   1       2.397   0.002   0.018  0.00  0.00    -0.200 OA
BRANCH   3   6
ATOM      6  C   UNL d   1       0.314   1.480  -0.558  0.00  0.00     0.082 A 
ATOM      7  C   UNL d   1       1.112   2.262  -1.404  0.00  0.00     0.065 A 
ATOM      8  C   UNL d   1       0.625   3.473  -1.923  0.00  0.00     0.102 A 
ATOM      9  C   UNL d   1      -0.666   3.900  -1.557  0.00  0.00     0.101 A 
ATOM     10  C   UNL d   1      -1.438   3.114  -0.685  0.00  0.00     0.041 A 
ATOM     11  C   UNL d   1      -0.955   1.907  -0.182  0.00  0.00     0.028 A 
BRANCH   8  12
ATOM     12  O   UNL d   1       1.353   4.259  -2.774  0.00  0.00    -0.353 OA
ATOM     13  C   UNL d   1       2.657   3.832  -3.147  0.00  0.00     0.210 C 
ENDBRANCH   8  12
BRANCH   9  14
ATOM     14  O   UNL d   1      -1.332   5.039  -1.931  0.00  0.00    -0.353 OA
ATOM     15  C   UNL d   1      -0.711   5.939  -2.838  0.00  0.00     0.210 C 
ENDBRANCH   9  14
ENDBRANCH   3   6
ENDBRANCH   1   3
BRANCH   1  16
ATOM     16  C   UNL d   1       0.789  -1.172  -2.358  0.00  0.00     0.043 A 
ATOM     17  C   UNL d   1      -0.015  -0.559  -3.318  0.00  0.00     0.045 A 
ATOM     18  C   UNL d   1       0.352  -0.589  -4.673  0.00  0.00     0.012 A 
ATOM     19  C   UNL d   1       1.539  -1.242  -5.040  0.00  0.00     0.015 A 
ATOM     20  C   UNL d   1       2.345  -1.848  -4.072  0.00  0.00     0.003 A 
ATOM     21  C   UNL d   1       1.973  -1.806  -2.730  0.00  0.00     0.030 A 
BRANCH  18  22
ATOM     22  C   UNL d   1      -0.509   0.029  -5.676  0.00  0.00     0.137 A 
ATOM     23  N   UNL d   1      -1.677   0.681  -5.338  0.00  0.00    -0.329 N 
ATOM     24  C   UNL d   1      -2.139   1.049  -6.505  0.00  0.00     0.261 A 
ATOM     25  HN  UNL d   1      -2.078   0.838  -4.413  1.00  0.00     0.168 HD
ATOM     26  O   UNL d   1      -1.356   0.678  -7.548  0.00  0.00    -0.231 OA
ATOM     27  N   UNL d   1      -0.268  -0.000  -6.999  0.00  0.00    -0.243 N 
ATOM     28  HN  UNL d   1       0.524  -0.419  -7.486  1.00  0.00     0.196 HD
ENDBRANCH  18  22
ENDBRANCH   1  16
TORSDOF 6
