REMARK  3 active torsions:
REMARK  status: ('A' for Active; 'I' for Inactive)
REMARK       I    between atoms: N_2  and  C_1 
REMARK    1  A    between atoms: C_5  and  C_1 
REMARK    2  A    between atoms: C_3  and  N_4 
REMARK    3  A    between atoms: N_9  and  C_6 
ROOT
ATOM      1  C   UNL d   1       0.871   0.109   0.020  0.00  0.00     0.255 C 
ATOM      2  N   UNL d   1       0.193   0.254   1.227  0.00  0.00    -0.345 N 
ATOM      3  N   UNL d   1      -0.912   0.292   3.868  0.00  0.00    -0.375 N 
ATOM      4  C   UNL d   1       0.876   0.969   2.323  0.00  0.00     0.146 C 
ATOM      5  C   UNL d   1      -1.240  -0.009   1.446  0.00  0.00     0.146 C 
ATOM      6  C   UNL d   1      -1.553  -0.554   2.853  0.00  0.00     0.143 C 
ATOM      7  C   UNL d   1       0.553   0.378   3.711  0.00  0.00     0.143 C 
ATOM      8  O   UNL d   1       2.068   0.356  -0.107  0.00  0.00    -0.267 OA
ENDROOT
BRANCH   1   9
ATOM      9  C   UNL d   1       0.167  -0.408  -1.170  0.00  0.00     0.047 A 
ATOM     10  C   UNL d   1      -0.982   0.172  -1.675  0.00  0.00     0.106 A 
ATOM     11  N   UNL d   1      -1.635  -0.273  -2.781  0.00  0.00    -0.351 N 
ATOM     12  C   UNL d   1      -1.116  -1.311  -3.476  0.00  0.00     0.103 A 
ATOM     13  HN  UNL d   1      -2.502   0.170  -3.083  1.00  0.00     0.166 HD
ATOM     14  C   UNL d   1       0.072  -1.908  -3.042  0.00  0.00     0.049 A 
ATOM     15  C   UNL d   1       0.718  -1.458  -1.889  0.00  0.00     0.022 A 
BRANCH  12  16
ATOM     16  N   UNL d   1      -1.725  -1.705  -4.653  0.00  0.00    -0.363 N 
ATOM     17  C   UNL d   1      -2.829  -0.891  -5.193  0.00  0.00     0.150 C 
ATOM     18  C   UNL d   1      -4.181  -1.580  -4.966  0.00  0.00     0.187 C 
ATOM     19  O   UNL d   1      -4.185  -2.913  -5.509  0.00  0.00    -0.388 OA
ATOM     20  C   UNL d   1      -3.173  -3.706  -4.871  0.00  0.00     0.187 C 
ATOM     21  C   UNL d   1      -1.767  -3.114  -5.073  0.00  0.00     0.150 C 
ENDBRANCH  12  16
ENDBRANCH   1   9
BRANCH   3  22
ATOM     22  C   UNL d   1      -1.506   0.563   5.100  0.00  0.00     0.077 A 
ATOM     23  C   UNL d   1      -2.270  -0.370   5.838  0.00  0.00     0.077 A 
ATOM     24 CL   UNL d   1      -2.425  -2.044   5.423  0.00  0.00    -0.080 Cl
ATOM     25  C   UNL d   1      -2.908   0.030   7.016  0.00  0.00     0.113 A 
ATOM     26  N   UNL d   1      -2.835   1.268   7.546  0.00  0.00    -0.372 N 
ATOM     27  C   UNL d   1      -2.084   2.152   6.859  0.00  0.00     0.113 A 
ATOM     28  HN  UNL d   1      -3.316   1.519   8.410  1.00  0.00     0.164 HD
ATOM     29  C   UNL d   1      -1.423   1.861   5.666  0.00  0.00     0.077 A 
ATOM     30 CL   UNL d   1      -0.610   3.183   4.892  0.00  0.00    -0.080 Cl
ENDBRANCH   3  22
TORSDOF 3
