REMARK  4 active torsions:
REMARK  status: ('A' for Active; 'I' for Inactive)
REMARK    1  A    between atoms: C_5  and  C_1 
REMARK    2  A    between atoms: C_6  and  C_2 
REMARK       I    between atoms: N_7  and  C_5 
REMARK    3  A    between atoms: C_10  and  C_16 
REMARK    4  A    between atoms: O_22  and  C_17 
ROOT
ATOM      1  C   UNL d   1       0.233  -2.501  -0.207  0.00  0.00     0.258 C 
ATOM      2  N   UNL d   1      -0.240  -3.846  -0.290  0.00  0.00    -0.348 N 
ATOM      3  O   UNL d   1       0.932  -2.143   0.746  0.00  0.00    -0.267 OA
ATOM      4  C   UNL d   1      -0.026  -4.666   0.903  0.00  0.00     0.127 C 
ATOM      5  C   UNL d   1      -1.263  -4.293  -1.233  0.00  0.00     0.127 C 
ATOM      6  C   UNL d   1      -1.506  -6.560  -0.132  0.00  0.00     0.024 C 
ATOM      7  C   UNL d   1      -0.337  -6.165   0.787  0.00  0.00     0.029 C 
ATOM      8  C   UNL d   1      -1.353  -5.796  -1.448  0.00  0.00     0.029 C 
ENDROOT
BRANCH   1   9
ATOM      9  C   UNL d   1      -0.056  -1.541  -1.268  0.00  0.00     0.092 C 
ATOM     10  C   UNL d   1       0.814  -0.535  -1.847  0.00  0.00     0.086 C 
ATOM     11  N   UNL d   1       0.195   0.050  -2.885  0.00  0.00    -0.259 N 
ATOM     12  O   UNL d   1      -1.113  -0.337  -2.833  0.00  0.00    -0.241 OA
ATOM     13  HN  UNL d   1       0.620   0.665  -3.579  1.00  0.00     0.195 HD
ATOM     14  C   UNL d   1      -1.286  -1.222  -1.825  0.00  0.00     0.090 C 
ATOM     15  C   UNL d   1      -2.701  -1.556  -1.568  0.00  0.00     0.080 C 
BRANCH  10  16
ATOM     16  C   UNL d   1       2.165  -0.059  -1.512  0.00  0.00     0.037 A 
ATOM     17  C   UNL d   1       3.286  -0.906  -1.476  0.00  0.00     0.048 A 
ATOM     18 CL   UNL d   1       3.186  -2.610  -1.760  0.00  0.00    -0.083 Cl
ATOM     19  C   UNL d   1       4.579  -0.387  -1.271  0.00  0.00     0.025 A 
ATOM     20  C   UNL d   1       4.787   0.985  -1.131  0.00  0.00     0.003 A 
ATOM     21  C   UNL d   1       3.697   1.841  -1.161  0.00  0.00     0.025 A 
ATOM     22  C   UNL d   1       2.401   1.329  -1.326  0.00  0.00     0.048 A 
ATOM     23 CL   UNL d   1       1.127   2.513  -1.266  0.00  0.00    -0.083 Cl
ENDBRANCH  10  16
ENDBRANCH   1   9
BRANCH   6  24
ATOM     24  C   UNL d   1      -2.923  -6.503   0.455  0.00  0.00    -0.021 A 
ATOM     25  C   UNL d   1      -3.931  -7.384  -0.013  0.00  0.00     0.074 A 
ATOM     26  C   UNL d   1      -5.204  -7.380   0.578  0.00  0.00     0.037 A 
ATOM     27  C   UNL d   1      -5.512  -6.484   1.599  0.00  0.00     0.003 A 
ATOM     28  C   UNL d   1      -4.550  -5.584   2.034  0.00  0.00     0.001 A 
ATOM     29  C   UNL d   1      -3.272  -5.596   1.470  0.00  0.00     0.010 A 
BRANCH  25  30
ATOM     30  O   UNL d   1      -3.580  -8.237  -1.032  0.00  0.00    -0.355 OA
ATOM     31  C   UNL d   1      -4.646  -8.872  -1.732  0.00  0.00     0.210 C 
ENDBRANCH  25  30
ENDBRANCH   6  24
TORSDOF 4
