REMARK  3 active torsions:
REMARK  status: ('A' for Active; 'I' for Inactive)
REMARK       I    between atoms: N_2  and  C_1 
REMARK    1  A    between atoms: C_4  and  N_2 
REMARK    2  A    between atoms: O_7  and  C_5 
REMARK    3  A    between atoms: C_9  and  O_7 
ROOT
ATOM      1  C   UNL d   1       2.010   2.740  -0.246  0.00  0.00     0.066 A 
ATOM      2  C   UNL d   1       1.028   2.284   0.640  0.00  0.00     0.037 A 
ATOM      3  C   UNL d   1       2.500   4.045  -0.149  0.00  0.00     0.071 A 
ATOM      4  C   UNL d   1       1.098   4.425   1.781  0.00  0.00     0.005 A 
ATOM      5  C   UNL d   1       0.563   3.143   1.643  0.00  0.00     0.029 A 
ATOM      6  C   UNL d   1       2.071   4.870   0.890  0.00  0.00     0.037 A 
ENDROOT
BRANCH   2   7
ATOM      7  N   UNL d   1       0.443   1.001   0.560  0.00  0.00    -0.327 N 
ATOM      8  C   UNL d   1       0.847  -0.051  -0.239  0.00  0.00     0.218 C 
ATOM      9  O   UNL d   1       1.848  -0.099  -0.944  0.00  0.00    -0.274 OA
ATOM     10  C   UNL d   1      -0.079  -1.240  -0.157  0.00  0.00     0.117 C 
ATOM     11  H   UNL d   1      -0.328   0.828   1.192  0.00  0.00     0.169 HD
ENDBRANCH   2   7
BRANCH   3  12
ATOM     12  O   UNL d   1       3.391   4.622  -1.013  0.00  0.00    -0.347 OA
BRANCH  12  13
ATOM     13  C   UNL d   1       3.406   4.151  -2.370  0.00  0.00     0.120 C 
ATOM     14  C   UNL d   1       2.088   4.454  -3.087  0.00  0.00     0.040 C 
ATOM     15  C   UNL d   1       4.541   4.895  -3.073  0.00  0.00     0.040 C 
ENDBRANCH  12  13
ENDBRANCH   3  12
TORSDOF 3
