REMARK  4 active torsions:
REMARK  status: ('A' for Active; 'I' for Inactive)
REMARK    1  A    between atoms: C_13  and  C_6 
REMARK    2  A    between atoms: C_7  and  N_16 
REMARK    3  A    between atoms: N_10  and  C_13 
REMARK    4  A    between atoms: N_16  and  N_10 
ROOT
ATOM      1  C   UNL d   1      -0.906  -0.576   0.004  0.00  0.00     0.027 A 
ATOM      2  C   UNL d   1      -1.700   0.547  -0.009  0.00  0.00    -0.015 A 
ATOM      3  C   UNL d   1       0.545  -0.472   0.005  0.00  0.00     0.017 A 
ATOM      4  S   UNL d   1      -1.812  -2.013   0.020  0.00  0.00    -0.088 SA
ATOM      5  C   UNL d   1      -3.086   0.211  -0.005  0.00  0.00     0.031 A 
ATOM      6  C   UNL d   1      -3.289  -1.155   0.008  0.00  0.00     0.023 A 
ATOM      7  O   UNL d   1       0.344   1.984   0.031  0.00  0.00    -0.346 OA
ATOM      8  C   UNL d   1       1.085   0.828   0.015  0.00  0.00     0.080 A 
ATOM      9  C   UNL d   1      -1.098   1.910  -0.031  0.00  0.00     0.215 A 
ATOM     10  C   UNL d   1       1.410  -1.573  -0.002  0.00  0.00     0.039 A 
ATOM     11  C   UNL d   1       2.470   1.014   0.018  0.00  0.00     0.039 A 
ATOM     12  C   UNL d   1       2.791  -1.374   0.002  0.00  0.00     0.035 A 
ATOM     13  C   UNL d   1       3.325  -0.087   0.011  0.00  0.00     0.026 A 
ATOM     14 CL   UNL d   1       3.847  -2.733  -0.004  0.00  0.00    -0.084 Cl
ENDROOT
BRANCH   6  15
ATOM     15  C   UNL d   1      -4.536  -1.877   0.010  0.00  0.00     0.126 C 
BRANCH  15  16
ATOM     16  N   UNL d   1      -5.655  -1.222   0.001  0.00  0.00    -0.308 N 
ATOM     17  HN  UNL d   1      -5.686  -0.202  -0.007  1.00  0.00     0.186 HD
BRANCH  16  18
ATOM     18  N   UNL d   1      -6.790  -1.983   0.002  0.00  0.00    -0.277 N 
ATOM     19  H   UNL d   1      -6.743  -2.998   0.008  0.00  0.00     0.189 HD
BRANCH  18  20
ATOM     20  C   UNL d   1      -8.023  -1.390  -0.007  0.00  0.00     0.184 C 
ATOM     21  S   UNL d   1      -9.431  -2.265  -0.008  0.00  0.00    -0.040 SA
ATOM     22  N   UNL d   1      -8.015  -0.036  -0.016  0.00  0.00    -0.375 N 
ATOM     23  H   UNL d   1      -7.110   0.418  -0.012  0.00  0.00     0.158 HD
ATOM     24  H   UNL d   1      -8.867   0.504  -0.021  0.00  0.00     0.158 HD
ENDBRANCH  18  20
ENDBRANCH  16  18
ENDBRANCH  15  16
ENDBRANCH   6  15
TORSDOF 4
