REMARK  3 active torsions:
REMARK  status: ('A' for Active; 'I' for Inactive)
REMARK       I    between atoms: C_6  and  N_1 
REMARK    1  A    between atoms: C_10  and  C_6 
REMARK    2  A    between atoms: C_12  and  C_7 
REMARK    3  A    between atoms: N_11  and  C_10 
ROOT
ATOM      1  N   UNL d   1      -3.047   1.029  -0.122  0.00  0.00    -0.249 N 
ATOM      2  N   UNL d   1      -1.745   1.478  -0.236  0.00  0.00    -0.298 N 
ATOM      3  HN  UNL d   1      -1.435   2.407  -0.521  1.00  0.00     0.187 HD
ATOM      4  C   UNL d   1      -0.999   0.466   0.095  0.00  0.00     0.043 C 
ATOM      5  C   UNL d   1      -1.730  -0.725   0.665  0.00  0.00     0.068 C 
ATOM      6  C   UNL d   1      -4.169   1.839  -0.206  0.00  0.00     0.267 C 
ATOM      7  C   UNL d   1      -3.136  -0.412   0.147  0.00  0.00     0.154 C 
ATOM      8  C   UNL d   1       0.462   0.410   0.025  0.00  0.00    -0.005 A 
ATOM      9  C   UNL d   1      -1.075  -2.083   0.418  0.00  0.00     0.018 C 
ATOM     10  O   UNL d   1      -5.305   1.379  -0.044  0.00  0.00    -0.270 OA
ATOM     11  C   UNL d   1       1.045  -0.849  -0.184  0.00  0.00    -0.046 A 
ATOM     12  C   UNL d   1       0.168  -2.040  -0.472  0.00  0.00     0.040 C 
ATOM     13  C   UNL d   1       1.241   1.557   0.174  0.00  0.00     0.014 A 
ATOM     14  C   UNL d   1       2.439  -0.949  -0.222  0.00  0.00     0.008 A 
ATOM     15  C   UNL d   1       2.630   1.439   0.151  0.00  0.00     0.001 A 
ATOM     16  C   UNL d   1       3.227   0.190  -0.040  0.00  0.00     0.001 A 
ENDROOT
BRANCH   6  17
ATOM     17  C   UNL d   1      -3.936   3.334  -0.488  0.00  0.00     0.376 C 
BRANCH  17  18
ATOM     18  N   UNL d   1      -4.584   4.172   0.549  0.00  0.00     0.101 N 
ATOM     19  C   UNL d   1      -3.914   4.068   1.862  0.00  0.00     0.299 C 
ATOM     20  C   UNL d   1      -2.583   4.832   1.947  0.00  0.00     0.198 C 
ATOM     21  O   UNL d   1      -2.751   6.213   1.601  0.00  0.00    -0.388 OA
ATOM     22  C   UNL d   1      -3.300   6.339   0.283  0.00  0.00     0.198 C 
ATOM     23  C   UNL d   1      -4.639   5.594   0.156  0.00  0.00     0.299 C 
ENDBRANCH  17  18
ENDBRANCH   6  17
BRANCH   7  24
ATOM     24  C   UNL d   1      -3.593  -1.196  -1.074  0.00  0.00    -0.033 A 
ATOM     25  C   UNL d   1      -4.764  -1.969  -0.992  0.00  0.00     0.011 A 
ATOM     26  C   UNL d   1      -5.178  -2.759  -2.067  0.00  0.00     0.024 A 
ATOM     27  C   UNL d   1      -4.425  -2.780  -3.237  0.00  0.00     0.034 A 
ATOM     28  C   UNL d   1      -3.283  -1.992  -3.353  0.00  0.00     0.024 A 
ATOM     29 CL   UNL d   1      -4.904  -3.788  -4.546  0.00  0.00    -0.084 Cl
ATOM     30  C   UNL d   1      -2.877  -1.192  -2.282  0.00  0.00     0.011 A 
ENDBRANCH   7  24
TORSDOF 3
