REMARK  2 active torsions:
REMARK  status: ('A' for Active; 'I' for Inactive)
REMARK    1  A    between atoms: C_7  and  N_1 
REMARK    2  A    between atoms: C_8  and  C_2 
ROOT
ATOM      1  N   UNL d   1      -0.166  -1.356  -0.276  0.00  0.00    -0.238 N 
ATOM      2  C   UNL d   1       0.994  -0.709  -0.026  0.00  0.00     0.149 A 
ATOM      3  N   UNL d   1       0.854   0.570   0.121  0.00  0.00    -0.238 N 
ATOM      4  HN  UNL d   1       1.587   1.255   0.304  1.00  0.00     0.196 HD
ATOM      5  C   UNL d   1      -1.140  -0.408  -0.200  0.00  0.00     0.395 A 
ATOM      6  O   UNL d   1      -0.541   0.816  -0.024  0.00  0.00    -0.179 OA
ATOM      7  O   UNL d   1      -2.351  -0.575  -0.205  0.00  0.00    -0.235 OA
ENDROOT
BRANCH   1   8
ATOM      8  C   UNL d   1      -0.463  -2.717  -0.091  0.00  0.00     0.068 A 
ATOM      9  C   UNL d   1      -0.849  -3.522  -1.174  0.00  0.00     0.061 A 
ATOM     10 CL   UNL d   1      -0.905  -2.902  -2.786  0.00  0.00    -0.082 Cl
ATOM     11  C   UNL d   1      -1.129  -4.875  -0.976  0.00  0.00     0.026 A 
ATOM     12  C   UNL d   1      -1.062  -5.422   0.307  0.00  0.00     0.002 A 
ATOM     13  C   UNL d   1      -0.707  -4.620   1.391  0.00  0.00     0.002 A 
ATOM     14  C   UNL d   1      -0.397  -3.272   1.195  0.00  0.00     0.032 A 
ENDBRANCH   1   8
BRANCH   2  15
ATOM     15  C   UNL d   1       2.312  -1.368   0.029  0.00  0.00     0.026 A 
ATOM     16  C   UNL d   1       3.314  -0.793   0.801  0.00  0.00     0.102 A 
ATOM     17  N   UNL d   1       4.573  -1.291   0.905  0.00  0.00    -0.374 N 
ATOM     18  C   UNL d   1       4.851  -2.398   0.184  0.00  0.00     0.087 A 
ATOM     19  HN  UNL d   1       5.275  -0.850   1.499  1.00  0.00     0.164 HD
ATOM     20  C   UNL d   1       3.930  -3.029  -0.635  0.00  0.00     0.018 A 
ATOM     21  C   UNL d   1       2.643  -2.498  -0.719  0.00  0.00     0.018 A 
ENDBRANCH   2  15
TORSDOF 2
