REMARK  4 active torsions:
REMARK  status: ('A' for Active; 'I' for Inactive)
REMARK    1  A    between atoms: N_4  and  C_1 
REMARK    2  A    between atoms: C_8  and  N_4 
REMARK    3  A    between atoms: O_14  and  C_7 
REMARK    4  A    between atoms: O_17  and  C_11 
ROOT
ATOM      1  C   UNL d   1      -0.137   0.608   0.005  0.00  0.00     0.076 A 
ATOM      2  C   UNL d   1       0.705  -0.059  -0.913  0.00  0.00     0.065 A 
ATOM      3  C   UNL d   1      -0.896  -0.202   0.876  0.00  0.00     0.065 A 
ATOM      4  C   UNL d   1       0.778  -1.454  -0.968  0.00  0.00     0.063 A 
ATOM      5  C   UNL d   1      -0.829  -1.604   0.810  0.00  0.00     0.063 A 
ATOM      6  C   UNL d   1       0.018  -2.232  -0.098  0.00  0.00     0.071 A 
ATOM      7 CL   UNL d   1      -1.848   0.434   2.177  0.00  0.00    -0.082 Cl
ATOM      8 CL   UNL d   1       1.711   0.842  -2.002  0.00  0.00    -0.082 Cl
ENDROOT
BRANCH   1   9
ATOM      9  N   UNL d   1      -0.171   2.024   0.004  0.00  0.00    -0.353 N 
ATOM     10  H   UNL d   1       0.609   2.440  -0.503  0.00  0.00     0.166 HD
BRANCH   9  11
ATOM     11  C   UNL d   1      -1.244   2.919   0.150  0.00  0.00     0.032 A 
ATOM     12  C   UNL d   1      -0.985   4.189   0.684  0.00  0.00     0.032 A 
ATOM     13  C   UNL d   1      -2.027   5.078   0.969  0.00  0.00     0.039 A 
ATOM     14  C   UNL d   1      -3.347   4.715   0.723  0.00  0.00     0.068 A 
ATOM     15  C   UNL d   1      -3.609   3.477   0.132  0.00  0.00     0.039 A 
ATOM     16  C   UNL d   1      -2.568   2.587  -0.152  0.00  0.00     0.032 A 
BRANCH  14  17
ATOM     17  O   UNL d   1      -4.452   5.467   1.005  0.00  0.00    -0.356 OA
ATOM     18  C   UNL d   1      -4.252   6.588   1.859  0.00  0.00     0.210 C 
ENDBRANCH  14  17
ENDBRANCH   9  11
ENDBRANCH   1   9
BRANCH   6  19
ATOM     19  O   UNL d   1       0.179  -3.583  -0.226  0.00  0.00    -0.356 OA
ATOM     20  C   UNL d   1      -0.163  -4.363   0.916  0.00  0.00     0.210 C 
ENDBRANCH   6  19
TORSDOF 4
