REMARK  4 active torsions:
REMARK  status: ('A' for Active; 'I' for Inactive)
REMARK    1  A    between atoms: N_7  and  C_1 
REMARK    2  A    between atoms: C_11  and  C_2 
REMARK       I    between atoms: C_8  and  N_7 
REMARK       I    between atoms: N_12  and  C_8 
REMARK    3  A    between atoms: C_10  and  C_17 
REMARK    4  A    between atoms: C_17  and  N_12 
ROOT
ATOM      1  C   UNL d   1      -0.158  -1.182  -0.379  0.00  0.00     0.097 A 
ATOM      2  C   UNL d   1      -1.516  -0.954  -0.479  0.00  0.00     0.137 A 
ATOM      3  O   UNL d   1      -1.730   0.365  -0.725  0.00  0.00    -0.235 OA
ATOM      4  N   UNL d   1      -0.516   1.025  -0.794  0.00  0.00    -0.263 N 
ATOM      5  HN  UNL d   1      -0.368   2.018  -0.973  1.00  0.00     0.194 HD
ATOM      6  C   UNL d   1       0.426   0.095  -0.576  0.00  0.00     0.058 A 
ATOM      7  C   UNL d   1       1.838   0.522  -0.437  0.00  0.00     0.072 C 
ENDROOT
BRANCH   1   8
ATOM      8  N   UNL d   1       0.365  -2.410  -0.035  0.00  0.00    -0.305 N 
ATOM      9  C   UNL d   1       1.553  -3.000  -0.294  0.00  0.00     0.321 C 
ATOM     10  N   UNL d   1       2.215  -2.652  -1.440  0.00  0.00    -0.338 N 
ATOM     11  O   UNL d   1       1.900  -3.952   0.409  0.00  0.00    -0.247 OA
ATOM     12  H   UNL d   1       1.666  -2.161  -2.132  0.00  0.00     0.164 HD
ATOM     13  H   UNL d   1      -0.231  -2.994   0.542  0.00  0.00     0.171 HD
BRANCH  10  14
ATOM     14  C   UNL d   1       3.117  -3.671  -1.939  0.00  0.00     0.170 C 
BRANCH  14  15
ATOM     15  C   UNL d   1       3.812  -3.380  -3.233  0.00  0.00     0.000 A 
ATOM     16  S   UNL d   1       3.564  -1.974  -4.171  0.00  0.00    -0.105 SA
ATOM     17  C   UNL d   1       4.669  -2.496  -5.372  0.00  0.00     0.050 A 
ATOM     18  C   UNL d   1       5.215  -3.721  -5.075  0.00  0.00     0.008 A 
ATOM     19  C   UNL d   1       4.721  -4.230  -3.843  0.00  0.00     0.017 A 
ENDBRANCH  14  15
ENDBRANCH  10  14
ENDBRANCH   1   8
BRANCH   2  20
ATOM     20  C   UNL d   1      -2.691  -1.813  -0.466  0.00  0.00     0.002 A 
ATOM     21  C   UNL d   1      -3.868  -1.438   0.193  0.00  0.00     0.014 A 
ATOM     22  C   UNL d   1      -4.979  -2.288   0.195  0.00  0.00     0.001 A 
ATOM     23  C   UNL d   1      -4.926  -3.516  -0.464  0.00  0.00     0.000 A 
ATOM     24  C   UNL d   1      -3.764  -3.899  -1.126  0.00  0.00     0.001 A 
ATOM     25  C   UNL d   1      -2.654  -3.053  -1.126  0.00  0.00     0.014 A 
ENDBRANCH   2  20
TORSDOF 4
