REMARK  3 active torsions:
REMARK  status: ('A' for Active; 'I' for Inactive)
REMARK       I    between atoms: N_2  and  C_1 
REMARK    1  A    between atoms: C_3  and  C_1 
REMARK       I    between atoms: C_5  and  N_2 
REMARK    2  A    between atoms: C_4  and  N_10 
REMARK    3  A    between atoms: C_6  and  C_5 
REMARK       I    between atoms: N_10  and  C_6 
ROOT
ATOM      1  C   UNL d   1      -0.779  -0.665   0.536  0.00  0.00     0.262 C 
ATOM      2  N   UNL d   1       0.435  -1.321   0.557  0.00  0.00    -0.285 N 
ATOM      3  C   UNL d   1       0.945  -1.962   1.669  0.00  0.00     0.316 C 
ATOM      4  O   UNL d   1      -1.614  -0.712   1.432  0.00  0.00    -0.267 OA
ATOM      5  O   UNL d   1       0.358  -2.430   2.633  0.00  0.00    -0.262 OA
ATOM      6  H   UNL d   1       1.138  -1.073  -0.136  0.00  0.00     0.172 HD
ENDROOT
BRANCH   3   7
ATOM      7  C   UNL d   1       2.466  -2.160   1.580  0.00  0.00     0.315 C 
ATOM      8  N   UNL d   1       2.960  -2.836   2.670  0.00  0.00    -0.303 N 
ATOM      9  H   UNL d   1       2.283  -3.137   3.362  0.00  0.00     0.171 HD
ATOM     10  O   UNL d   1       3.036  -1.718   0.594  0.00  0.00    -0.262 OA
BRANCH   8  11
ATOM     11  C   UNL d   1       4.293  -3.095   2.897  0.00  0.00     0.131 A 
ATOM     12  N   UNL d   1       5.303  -2.710   2.112  0.00  0.00    -0.245 N 
ATOM     13  O   UNL d   1       6.461  -3.144   2.727  0.00  0.00    -0.241 OA
ATOM     14  HN  UNL d   1       5.232  -2.198   1.233  1.00  0.00     0.196 HD
ATOM     15  C   UNL d   1       6.145  -3.797   3.876  0.00  0.00     0.076 A 
ATOM     16  C   UNL d   1       4.779  -3.803   4.024  0.00  0.00     0.084 A 
ATOM     17  C   UNL d   1       7.276  -4.312   4.667  0.00  0.00     0.079 C 
ENDBRANCH   8  11
ENDBRANCH   3   7
BRANCH   1  18
ATOM     18  C   UNL d   1      -1.072   0.152  -0.673  0.00  0.00     0.075 A 
ATOM     19  C   UNL d   1      -2.315   0.023  -1.320  0.00  0.00     0.051 A 
ATOM     20 CL   UNL d   1      -3.489  -1.175  -0.894  0.00  0.00    -0.083 Cl
ATOM     21  C   UNL d   1      -2.643   0.851  -2.403  0.00  0.00     0.025 A 
ATOM     22  C   UNL d   1      -1.737   1.804  -2.863  0.00  0.00     0.003 A 
ATOM     23  C   UNL d   1      -0.498   1.928  -2.241  0.00  0.00     0.025 A 
ATOM     24  C   UNL d   1      -0.168   1.116  -1.147  0.00  0.00     0.051 A 
ATOM     25 CL   UNL d   1       1.374   1.404  -0.416  0.00  0.00    -0.083 Cl
ENDBRANCH   1  18
TORSDOF 3
