REMARK  6 active torsions:
REMARK  status: ('A' for Active; 'I' for Inactive)
REMARK    1  A    between atoms: C_12  and  N_2 
REMARK    2  A    between atoms: C_7  and  C_3 
REMARK    3  A    between atoms: C_10  and  C_4 
REMARK    4  A    between atoms: O_17  and  C_7 
REMARK    5  A    between atoms: C_13  and  C_12 
REMARK    6  A    between atoms: C_21  and  O_17 
ROOT
ATOM      1  C   UNL d   1      -1.306   0.004  -0.172  0.00  0.00     0.104 C 
ATOM      2  N   UNL d   1      -0.414  -1.058   0.117  0.00  0.00    -0.335 N 
ATOM      3  C   UNL d   1      -2.600   0.021  -0.581  0.00  0.00     0.153 C 
ATOM      4  C   UNL d   1       0.629  -0.606   0.942  0.00  0.00     0.052 C 
ATOM      5  S   UNL d   1      -0.518   1.603   0.237  0.00  0.00    -0.080 SA
ATOM      6  C   UNL d   1       0.710   0.725   1.107  0.00  0.00     0.082 C 
ATOM      7  C   UNL d   1      -3.299   1.241  -0.839  0.00  0.00     0.108 C 
ATOM      8  N   UNL d   1      -3.876   2.225  -1.049  0.00  0.00    -0.191 NA
ENDROOT
BRANCH   3   9
ATOM      9  C   UNL d   1      -3.414  -1.218  -0.667  0.00  0.00     0.306 C 
ATOM     10  O   UNL d   1      -3.177  -2.265  -0.083  0.00  0.00    -0.258 OA
BRANCH   9  11
ATOM     11  O   UNL d   1      -4.508  -1.022  -1.455  0.00  0.00    -0.317 OA
BRANCH  11  12
ATOM     12  C   UNL d   1      -5.381  -2.153  -1.614  0.00  0.00     0.174 C 
ATOM     13  C   UNL d   1      -6.308  -2.313  -0.421  0.00  0.00     0.034 C 
ENDBRANCH  11  12
ENDBRANCH   9  11
ENDBRANCH   3   9
BRANCH   2  14
ATOM     14  C   UNL d   1      -0.342  -2.364  -0.554  0.00  0.00     0.156 C 
BRANCH  14  15
ATOM     15  C   UNL d   1      -0.646  -2.285  -2.031  0.00  0.00    -0.017 C 
ATOM     16  C   UNL d   1      -0.000  -1.524  -2.928  0.00  0.00     0.008 C 
ENDBRANCH  14  15
ENDBRANCH   2  14
BRANCH   4  17
ATOM     17  C   UNL d   1       1.458  -1.513   1.744  0.00  0.00    -0.009 A 
ATOM     18  C   UNL d   1       0.943  -2.019   2.946  0.00  0.00     0.014 A 
ATOM     19  C   UNL d   1       1.734  -2.813   3.780  0.00  0.00     0.007 A 
ATOM     20  C   UNL d   1       3.050  -3.124   3.422  0.00  0.00    -0.062 A 
ATOM     21  C   UNL d   1       3.560  -2.630   2.215  0.00  0.00     0.007 A 
ATOM     22  C   UNL d   1       3.894  -3.959   4.341  0.00  0.00     0.048 C 
ATOM     23  C   UNL d   1       2.772  -1.825   1.383  0.00  0.00     0.014 A 
ENDBRANCH   4  17
TORSDOF 6
