REMARK  3 active torsions:
REMARK  status: ('A' for Active; 'I' for Inactive)
REMARK    1  A    between atoms: C_2  and  S_1 
REMARK    2  A    between atoms: C_10  and  S_1 
REMARK    3  A    between atoms: C_5  and  C_3 
ROOT
ATOM      1  C   UNL d   1       0.520  -0.865  -1.441  0.00  0.00     0.144 C 
ATOM      2  C   UNL d   1      -0.301  -1.931  -1.378  0.00  0.00     0.049 C 
ATOM      3  C   UNL d   1       1.011  -0.171  -0.305  0.00  0.00     0.112 C 
ATOM      4  N   UNL d   1       1.408   0.383   0.638  0.00  0.00    -0.191 NA
ENDROOT
BRANCH   1   5
ATOM      5  S   UNL d   1       0.925  -0.247  -3.016  0.00  0.00     0.216 S 
ATOM      6  O   UNL d   1       0.443   1.119  -3.130  0.00  0.00    -0.216 OA
ATOM      7  O   UNL d   1       0.561  -1.210  -4.044  0.00  0.00    -0.216 OA
BRANCH   5   8
ATOM      8  C   UNL d   1       2.706  -0.180  -3.027  0.00  0.00     0.065 A 
ATOM      9  C   UNL d   1       3.441  -1.302  -3.427  0.00  0.00     0.024 A 
ATOM     10  C   UNL d   1       4.829  -1.209  -3.541  0.00  0.00     0.002 A 
ATOM     11  C   UNL d   1       5.473  -0.001  -3.267  0.00  0.00     0.000 A 
ATOM     12  C   UNL d   1       4.734   1.116  -2.876  0.00  0.00     0.002 A 
ATOM     13  C   UNL d   1       3.347   1.033  -2.760  0.00  0.00     0.024 A 
ENDBRANCH   5   8
ENDBRANCH   1   5
BRANCH   2  14
ATOM     14  C   UNL d   1      -0.760  -2.556  -0.135  0.00  0.00     0.005 A 
ATOM     15  C   UNL d   1      -0.005  -3.568   0.473  0.00  0.00     0.129 A 
ATOM     16  C   UNL d   1      -0.431  -4.179   1.645  0.00  0.00     0.085 A 
ATOM     17  F   UNL d   1       1.154  -3.958  -0.079  0.00  0.00    -0.205 F 
ATOM     18  C   UNL d   1      -1.627  -3.769   2.217  0.00  0.00     0.119 A 
ATOM     19  C   UNL d   1      -2.391  -2.756   1.641  0.00  0.00     0.043 A 
ATOM     20  F   UNL d   1      -2.058  -4.360   3.338  0.00  0.00    -0.206 F 
ATOM     21  C   UNL d   1      -1.959  -2.147   0.461  0.00  0.00     0.017 A 
ENDBRANCH   2  14
TORSDOF 3
