REMARK  6 active torsions:
REMARK  status: ('A' for Active; 'I' for Inactive)
REMARK    1  A    between atoms: N_2  and  C_1 
REMARK       I    between atoms: C_4  and  N_3 
REMARK    2  A    between atoms: C_18  and  C_4 
REMARK    3  A    between atoms: C_9  and  C_19 
REMARK    4  A    between atoms: O_17  and  C_9 
REMARK    5  A    between atoms: S_16  and  C_18 
REMARK    6  A    between atoms: C_19  and  S_16 
ROOT
ATOM      1  N   UNL d   1       0.152   2.770  -0.040  0.00  0.00    -0.214 N 
ATOM      2  N   UNL d   1       0.637   5.575   0.203  0.00  0.00    -0.348 N 
ATOM      3  C   UNL d   1       1.221   6.754   0.623  0.00  0.00     0.229 C 
ATOM      4  C   UNL d   1      -0.466   3.502   1.073  0.00  0.00     0.161 C 
ATOM      5  C   UNL d   1       1.434   3.320  -0.503  0.00  0.00     0.161 C 
ATOM      6  C   UNL d   1       1.248   4.802  -0.888  0.00  0.00     0.146 C 
ATOM      7  C   UNL d   1      -0.617   4.993   0.711  0.00  0.00     0.146 C 
ATOM      8  O   UNL d   1       2.292   7.168   0.157  0.00  0.00    -0.273 OA
ENDROOT
BRANCH   3   9
ATOM      9  C   UNL d   1       0.583   7.545   1.755  0.00  0.00     0.177 C 
BRANCH   9  10
ATOM     10  S   UNL d   1       1.259   6.998   3.360  0.00  0.00    -0.149 SA
BRANCH  10  11
ATOM     11  C   UNL d   1       3.039   7.344   3.130  0.00  0.00     0.184 C 
BRANCH  11  12
ATOM     12  C   UNL d   1       3.319   8.808   2.874  0.00  0.00     0.149 C 
ATOM     13  O   UNL d   1       3.458   9.640   3.758  0.00  0.00    -0.649 OA
BRANCH  12  14
ATOM     14  O   UNL d   1       3.388   9.139   1.563  0.00  0.00    -0.776 OA
ATOM     15  H   UNL d   1       3.213   8.397   0.932  0.00  0.00     0.167 HD
ENDBRANCH  12  14
ENDBRANCH  11  12
ENDBRANCH  10  11
ENDBRANCH   9  10
ENDBRANCH   3   9
BRANCH   1  16
ATOM     16  C   UNL d   1       0.079   1.385   0.060  0.00  0.00     0.679 A 
ATOM     17  N   UNL d   1      -0.967   0.847   0.713  0.00  0.00    -0.202 N 
ATOM     18  C   UNL d   1      -1.083  -0.494   0.724  0.00  0.00     0.107 A 
ATOM     19  HN  UNL d   1      -1.652   1.437   1.185  1.00  0.00     0.183 HD
ATOM     20  C   UNL d   1      -0.189  -1.335   0.116  0.00  0.00     0.035 A 
ATOM     21  C   UNL d   1       0.856  -0.708  -0.511  0.00  0.00     0.107 A 
ATOM     22  N   UNL d   1       1.006   0.631  -0.553  0.00  0.00    -0.202 N 
ATOM     23  HN  UNL d   1       1.798   1.057  -1.035  1.00  0.00     0.183 HD
ENDBRANCH   1  16
TORSDOF 6
