REMARK  6 active torsions:
REMARK  status: ('A' for Active; 'I' for Inactive)
REMARK       I    between atoms: N_4  and  C_1 
REMARK       I    between atoms: N_5  and  C_1 
REMARK    1  A    between atoms: C_8  and  N_4 
REMARK    2  A    between atoms: C_11  and  N_5 
REMARK    3  A    between atoms: O_9  and  C_10 
REMARK    4  A    between atoms: C_13  and  O_9 
REMARK    5  A    between atoms: C_12  and  C_11 
REMARK    6  A    between atoms: C_22  and  C_13 
ROOT
ATOM      1  N   UNL d   1      -3.746  -2.809   6.869  0.00  0.00    -0.191 NA
ATOM      2  C   UNL d   1      -3.038  -2.254   6.133  0.00  0.00     0.099 C 
ATOM      3  C   UNL d   1      -2.171  -1.567   5.224  0.00  0.00     0.044 A 
ATOM      4  C   UNL d   1      -0.461  -0.210   3.443  0.00  0.00    -0.040 A 
ATOM      5  C   UNL d   1      -1.417  -2.282   4.289  0.00  0.00     0.023 A 
ATOM      6  C   UNL d   1      -2.062  -0.172   5.274  0.00  0.00     0.023 A 
ATOM      7  C   UNL d   1      -0.567  -1.609   3.406  0.00  0.00     0.010 A 
ATOM      8  C   UNL d   1      -1.215   0.501   4.388  0.00  0.00     0.010 A 
ENDROOT
BRANCH   4   9
ATOM      9  C   UNL d   1       0.489   0.511   2.516  0.00  0.00     0.162 C 
BRANCH   9  10
ATOM     10  N   UNL d   1       0.135   0.326   1.124  0.00  0.00    -0.339 N 
ATOM     11  C   UNL d   1       0.987  -0.311   0.249  0.00  0.00     0.320 C 
ATOM     12  N   UNL d   1       0.476  -0.354  -1.032  0.00  0.00    -0.309 N 
ATOM     13  O   UNL d   1       2.067  -0.754   0.613  0.00  0.00    -0.247 OA
ATOM     14  H   UNL d   1      -0.323   0.229  -1.218  0.00  0.00     0.170 HD
ATOM     15  H   UNL d   1      -0.781   0.614   0.823  0.00  0.00     0.164 HD
BRANCH  12  16
ATOM     16  C   UNL d   1       1.104  -0.940  -2.157  0.00  0.00     0.036 A 
ATOM     17  C   UNL d   1       2.192  -1.810  -2.060  0.00  0.00     0.032 A 
ATOM     18  C   UNL d   1       2.828  -2.299  -3.207  0.00  0.00     0.039 A 
ATOM     19  C   UNL d   1       2.388  -1.911  -4.469  0.00  0.00     0.069 A 
ATOM     20  C   UNL d   1       1.253  -1.107  -4.576  0.00  0.00     0.039 A 
ATOM     21  C   UNL d   1       0.612  -0.623  -3.427  0.00  0.00     0.032 A 
BRANCH  19  22
ATOM     22  O   UNL d   1       2.981  -2.263  -5.651  0.00  0.00    -0.347 OA
BRANCH  22  23
ATOM     23  C   UNL d   1       4.380  -2.556  -5.571  0.00  0.00     0.214 C 
BRANCH  23  24
ATOM     24  C   UNL d   1       5.035  -2.268  -6.901  0.00  0.00    -0.034 A 
ATOM     25  C   UNL d   1       4.960  -0.983  -7.458  0.00  0.00     0.009 A 
ATOM     26  C   UNL d   1       5.623  -0.684  -8.650  0.00  0.00     0.001 A 
ATOM     27  C   UNL d   1       6.369  -1.667  -9.297  0.00  0.00     0.000 A 
ATOM     28  C   UNL d   1       6.446  -2.950  -8.757  0.00  0.00     0.001 A 
ATOM     29  C   UNL d   1       5.784  -3.250  -7.564  0.00  0.00     0.009 A 
ENDBRANCH  23  24
ENDBRANCH  22  23
ENDBRANCH  19  22
ENDBRANCH  12  16
ENDBRANCH   9  10
ENDBRANCH   4   9
TORSDOF 6
