REMARK  4 active torsions:
REMARK  status: ('A' for Active; 'I' for Inactive)
REMARK    1  A    between atoms: C_2  and  N_1 
REMARK       I    between atoms: C_4  and  N_1 
REMARK    2  A    between atoms: N_5  and  C_2 
REMARK    3  A    between atoms: C_3  and  N_5 
REMARK    4  A    between atoms: C_13  and  C_4 
ROOT
ATOM      1  C   UNL d   1       0.144   0.299  -1.149  0.00  0.00     0.179 C 
ATOM      2  S   UNL d   1      -1.435   0.238  -0.592  0.00  0.00    -0.040 SA
ENDROOT
BRANCH   1   3
ATOM      3  N   UNL d   1       1.289  -0.005  -0.447  0.00  0.00    -0.299 N 
ATOM      4  C   UNL d   1       1.361  -0.676   0.774  0.00  0.00     0.257 C 
ATOM      5  O   UNL d   1       0.462  -1.347   1.269  0.00  0.00    -0.267 OA
ATOM      6  H   UNL d   1       2.155   0.324  -0.842  0.00  0.00     0.171 HD
BRANCH   4   7
ATOM      7  C   UNL d   1       2.684  -0.695   1.455  0.00  0.00     0.032 A 
ATOM      8  C   UNL d   1       3.572   0.384   1.407  0.00  0.00     0.017 A 
ATOM      9  C   UNL d   1       4.780   0.317   2.108  0.00  0.00     0.001 A 
ATOM     10  C   UNL d   1       5.101  -0.817   2.856  0.00  0.00     0.000 A 
ATOM     11  C   UNL d   1       4.213  -1.890   2.916  0.00  0.00     0.001 A 
ATOM     12  C   UNL d   1       3.008  -1.823   2.223  0.00  0.00     0.017 A 
ENDBRANCH   4   7
ENDBRANCH   1   3
BRANCH   1  13
ATOM     13  N   UNL d   1       0.267   0.619  -2.476  0.00  0.00    -0.330 N 
ATOM     14  H   UNL d   1      -0.612   0.381  -2.935  0.00  0.00     0.168 HD
BRANCH  13  15
ATOM     15  C   UNL d   1       1.400   0.537  -3.318  0.00  0.00     0.078 A 
ATOM     16  C   UNL d   1       1.456  -0.478  -4.290  0.00  0.00     0.064 A 
ATOM     17  C   UNL d   1       2.400  -0.440  -5.316  0.00  0.00     0.050 A 
ATOM     18 CL   UNL d   1       0.363  -1.816  -4.242  0.00  0.00    -0.082 Cl
ATOM     19  C   UNL d   1       3.270   0.642  -5.404  0.00  0.00     0.037 A 
ATOM     20  C   UNL d   1       3.243   1.654  -4.446  0.00  0.00     0.050 A 
ATOM     21 CL   UNL d   1       4.364   0.745  -6.727  0.00  0.00    -0.084 Cl
ATOM     22  C   UNL d   1       2.321   1.594  -3.395  0.00  0.00     0.064 A 
ATOM     23 CL   UNL d   1       2.295   2.907  -2.272  0.00  0.00    -0.082 Cl
ENDBRANCH  13  15
ENDBRANCH   1  13
TORSDOF 4
