REMARK  4 active torsions:
REMARK  status: ('A' for Active; 'I' for Inactive)
REMARK    1  A    between atoms: C_4  and  C_2 
REMARK    2  A    between atoms: C_8  and  C_4 
REMARK    3  A    between atoms: C_9  and  C_4 
REMARK    4  A    between atoms: N_5  and  C_8 
ROOT
ATOM      1  C   UNL d   1       1.462  -2.139   0.977  0.00  0.00     0.077 C 
ENDROOT
BRANCH   1   2
ATOM      2  C   UNL d   1       1.083  -1.261  -0.246  0.00  0.00     0.125 C 
ATOM      3  C   UNL d   1       2.033  -0.029  -0.314  0.00  0.00     0.231 C 
ATOM      4  N   UNL d   1       1.281   1.107  -0.073  0.00  0.00    -0.326 N 
ATOM      5  O   UNL d   1       3.229  -0.029  -0.552  0.00  0.00    -0.272 OA
ATOM      6  C   UNL d   1      -0.066   0.811   0.004  0.00  0.00     0.042 A 
ATOM      7  H   UNL d   1       1.681   2.034  -0.088  0.00  0.00     0.169 HD
ATOM      8  C   UNL d   1      -1.103   1.712   0.121  0.00  0.00     0.030 A 
ATOM      9  C   UNL d   1      -0.260  -0.564  -0.132  0.00  0.00    -0.017 A 
ATOM     10  C   UNL d   1      -2.400   1.201   0.078  0.00  0.00     0.002 A 
ATOM     11  C   UNL d   1      -2.620  -0.176  -0.101  0.00  0.00     0.001 A 
ATOM     12  C   UNL d   1      -1.547  -1.068  -0.219  0.00  0.00     0.010 A 
ENDBRANCH   1   2
BRANCH   1  13
ATOM     13  C   UNL d   1       0.517  -3.300   1.317  0.00  0.00     0.213 C 
BRANCH  13  14
ATOM     14  N   UNL d   1       0.549  -4.366   0.262  0.00  0.00    -0.155 N 
ATOM     15  O   UNL d   1       0.138  -4.061  -0.864  0.00  0.00    -0.537 OA
ATOM     16  O   UNL d   1       0.948  -5.488   0.598  0.00  0.00    -0.537 OA
ENDBRANCH  13  14
ENDBRANCH   1  13
BRANCH   1  17
ATOM     17  C   UNL d   1       2.888  -2.669   0.982  0.00  0.00     0.016 A 
ATOM     18  N   UNL d   1       3.453  -2.787   2.209  0.00  0.00    -0.369 N 
ATOM     19  C   UNL d   1       4.713  -3.272   2.276  0.00  0.00     0.088 A 
ATOM     20  HN  UNL d   1       2.945  -2.519   3.053  1.00  0.00     0.165 HD
ATOM     21  C   UNL d   1       5.444  -3.671   1.171  0.00  0.00     0.017 A 
ATOM     22  C   UNL d   1       4.846  -3.569  -0.077  0.00  0.00     0.003 A 
ATOM     23  C   UNL d   1       3.551  -3.069  -0.177  0.00  0.00     0.025 A 
ENDBRANCH   1  17
TORSDOF 4
