REMARK  5 active torsions:
REMARK  status: ('A' for Active; 'I' for Inactive)
REMARK    1  A    between atoms: C_2  and  C_1 
REMARK       I    between atoms: N_5  and  C_2 
REMARK    2  A    between atoms: C_4  and  C_3 
REMARK    3  A    between atoms: C_12  and  N_5 
REMARK    4  A    between atoms: O_24  and  C_11 
REMARK    5  A    between atoms: C_16  and  C_12 
ROOT
ATOM      1  C   UNL d   1       0.397   1.254  -0.059  0.00  0.00     0.062 A 
ATOM      2  C   UNL d   1       0.183   0.270  -1.031  0.00  0.00     0.069 A 
ATOM      3  C   UNL d   1       0.032   0.976   1.253  0.00  0.00     0.108 A 
ATOM      4  N   UNL d   1      -0.592  -0.159   1.644  0.00  0.00    -0.346 N 
ATOM      5  HN  UNL d   1      -0.883  -0.304   2.611  1.00  0.00     0.167 HD
ATOM      6  C   UNL d   1      -0.432  -0.930  -0.630  0.00  0.00     0.073 A 
ATOM      7  C   UNL d   1      -0.810  -1.089   0.692  0.00  0.00     0.142 A 
ENDROOT
BRANCH   1   8
ATOM      8  C   UNL d   1       1.116   2.509  -0.334  0.00  0.00     0.255 C 
ATOM      9  N   UNL d   1       0.530   3.740  -0.038  0.00  0.00    -0.348 N 
ATOM     10  C   UNL d   1      -0.850   3.950   0.395  0.00  0.00     0.153 C 
ATOM     11  O   UNL d   1       2.247   2.383  -0.803  0.00  0.00    -0.267 OA
BRANCH   9  12
ATOM     12  C   UNL d   1       1.288   4.954  -0.363  0.00  0.00     0.164 C 
BRANCH  12  13
ATOM     13  C   UNL d   1       1.817   5.695   0.849  0.00  0.00    -0.039 A 
ATOM     14  C   UNL d   1       2.500   5.022   1.875  0.00  0.00     0.034 A 
ATOM     15  C   UNL d   1       3.054   5.726   2.953  0.00  0.00     0.056 A 
ATOM     16 CL   UNL d   1       3.870   4.815   4.173  0.00  0.00    -0.083 Cl
ATOM     17  C   UNL d   1       2.945   7.119   3.006  0.00  0.00     0.055 A 
ATOM     18  C   UNL d   1       2.278   7.800   1.986  0.00  0.00     0.026 A 
ATOM     19 CL   UNL d   1       3.623   8.057   4.290  0.00  0.00    -0.083 Cl
ATOM     20  C   UNL d   1       1.720   7.093   0.915  0.00  0.00     0.010 A 
ENDBRANCH  12  13
ENDBRANCH   9  12
ENDBRANCH   1   8
BRANCH   2  21
ATOM     21  C   UNL d   1       0.611   0.405  -2.467  0.00  0.00     0.418 C 
ATOM     22  F   UNL d   1       0.770   1.679  -2.910  0.00  0.00    -0.166 F 
ATOM     23  F   UNL d   1       1.767  -0.259  -2.733  0.00  0.00    -0.166 F 
ATOM     24  F   UNL d   1      -0.317  -0.140  -3.312  0.00  0.00    -0.166 F 
ENDBRANCH   2  21
BRANCH   7  25
ATOM     25  O   UNL d   1      -1.425  -2.279   1.015  0.00  0.00    -0.341 OA
ATOM     26  C   UNL d   1      -1.877  -2.326   2.365  0.00  0.00     0.211 C 
ENDBRANCH   7  25
TORSDOF 5
