REMARK  6 active torsions:
REMARK  status: ('A' for Active; 'I' for Inactive)
REMARK    1  A    between atoms: C_10  and  N_1 
REMARK    2  A    between atoms: C_9  and  C_2 
REMARK    3  A    between atoms: C_8  and  C_7 
REMARK    4  A    between atoms: C_15  and  C_8 
REMARK    5  A    between atoms: C_11  and  N_16 
REMARK    6  A    between atoms: N_16  and  C_12 
ROOT
ATOM      1  N   UNL d   1       3.637  -3.495  -0.248  0.00  0.00    -0.365 N 
ATOM      2  H   UNL d   1       4.478  -2.949  -0.026  0.00  0.00     0.165 HD
ENDROOT
BRANCH   1   3
ATOM      3  C   UNL d   1       3.835  -4.894  -0.193  0.00  0.00     0.046 A 
ATOM      4  C   UNL d   1       4.715  -5.471   0.750  0.00  0.00     0.043 A 
ATOM      5  C   UNL d   1       4.839  -6.868   0.844  0.00  0.00     0.041 A 
ATOM      6  C   UNL d   1       4.055  -7.695   0.047  0.00  0.00     0.035 A 
ATOM      7  C   UNL d   1       3.179  -7.150  -0.882  0.00  0.00     0.026 A 
ATOM      8 CL   UNL d   1       4.158  -9.403   0.219  0.00  0.00    -0.084 Cl
ATOM      9  C   UNL d   1       3.087  -5.764  -1.009  0.00  0.00     0.032 A 
BRANCH   4  10
ATOM     10  C   UNL d   1       5.536  -4.597   1.638  0.00  0.00     0.194 C 
ATOM     11  O   UNL d   1       5.968  -3.534   1.196  0.00  0.00    -0.287 OA
BRANCH  10  12
ATOM     12  C   UNL d   1       5.852  -4.990   3.038  0.00  0.00     0.015 A 
ATOM     13  C   UNL d   1       4.953  -5.724   3.822  0.00  0.00     0.015 A 
ATOM     14  C   UNL d   1       5.300  -6.092   5.124  0.00  0.00     0.001 A 
ATOM     15  C   UNL d   1       6.533  -5.711   5.653  0.00  0.00     0.000 A 
ATOM     16  C   UNL d   1       7.419  -4.954   4.886  0.00  0.00     0.001 A 
ATOM     17  C   UNL d   1       7.078  -4.590   3.582  0.00  0.00     0.015 A 
ENDBRANCH  10  12
ENDBRANCH   4  10
ENDBRANCH   1   3
BRANCH   1  18
ATOM     18  C   UNL d   1       2.535  -2.809  -0.707  0.00  0.00     0.092 C 
ATOM     19  C   UNL d   1       1.259  -3.211  -0.637  0.00  0.00     0.068 C 
BRANCH  19  20
ATOM     20  C   UNL d   1       0.190  -2.498  -1.227  0.00  0.00     0.139 C 
ATOM     21  N   UNL d   1      -1.141  -2.863  -1.017  0.00  0.00    -0.225 N 
ATOM     22  N   UNL d   1      -1.882  -2.289  -1.997  0.00  0.00     0.001 NA
ATOM     23  N   UNL d   1      -1.069  -1.459  -2.631  0.00  0.00    -0.007 NA
ATOM     24  N   UNL d   1       0.210  -1.567  -2.164  0.00  0.00    -0.270 N 
ATOM     25  HN  UNL d   1       1.021  -1.033  -2.477  1.00  0.00     0.185 HD
BRANCH  21  26
ATOM     26  C   UNL d   1      -1.761  -3.656  -0.010  0.00  0.00     0.056 A 
ATOM     27  C   UNL d   1      -1.177  -3.822   1.255  0.00  0.00     0.033 A 
ATOM     28  C   UNL d   1      -1.820  -4.591   2.231  0.00  0.00     0.026 A 
ATOM     29  C   UNL d   1      -3.047  -5.189   1.951  0.00  0.00     0.034 A 
ATOM     30  C   UNL d   1      -3.643  -5.019   0.704  0.00  0.00     0.026 A 
ATOM     31 CL   UNL d   1      -3.835  -6.124   3.160  0.00  0.00    -0.084 Cl
ATOM     32  C   UNL d   1      -3.009  -4.245  -0.273  0.00  0.00     0.033 A 
ENDBRANCH  21  26
ENDBRANCH  19  20
ENDBRANCH   1  18
TORSDOF 6
