REMARK  1 active torsions:
REMARK  status: ('A' for Active; 'I' for Inactive)
REMARK    1  A    between atoms: C_7  and  O_21 
ROOT
ATOM      1  C   UNL d   1      -0.712  -1.549  -0.819  0.00  0.00    -0.016 C 
ATOM      2  C   UNL d   1       1.609   1.475   1.515  0.00  0.00     0.003 C 
ATOM      3  C   UNL d   1      -2.179  -1.154  -0.999  0.00  0.00    -0.068 C 
ATOM      4  C   UNL d   1       0.029  -0.472   0.048  0.00  0.00     0.002 C 
ATOM      5  C   UNL d   1       0.520   2.045   0.551  0.00  0.00     0.002 C 
ATOM      6  C   UNL d   1      -0.281   1.006  -0.302  0.00  0.00    -0.004 C 
ATOM      7  C   UNL d   1       0.914   1.594   2.918  0.00  0.00     0.128 C 
ATOM      8  C   UNL d   1      -3.206  -2.007  -0.839  0.00  0.00     0.053 C 
ATOM      9  C   UNL d   1      -0.210   0.658   3.180  0.00  0.00    -0.078 C 
ATOM     10  C   UNL d   1       2.170   0.060   1.247  0.00  0.00     0.014 C 
ATOM     11  C   UNL d   1       1.548  -0.658   0.066  0.00  0.00     0.007 C 
ATOM     12  C   UNL d   1      -0.618  -2.906  -0.050  0.00  0.00     0.022 C 
ATOM     13  C   UNL d   1      -1.792   1.248  -0.387  0.00  0.00     0.010 C 
ATOM     14  C   UNL d   1      -0.251   3.087   1.427  0.00  0.00     0.010 C 
ATOM     15  C   UNL d   1      -1.198  -0.001   3.398  0.00  0.00     0.015 C 
ATOM     16  C   UNL d   1      -2.445   0.284  -1.374  0.00  0.00     0.035 C 
ATOM     17  C   UNL d   1      -2.990  -3.445  -0.549  0.00  0.00     0.149 C 
ATOM     18  C   UNL d   1       0.312   2.995   2.856  0.00  0.00     0.052 C 
ATOM     19  O   UNL d   1      -3.964  -4.180  -0.400  0.00  0.00    -0.293 OA
ATOM     20  C   UNL d   1      -1.580  -3.969  -0.551  0.00  0.00     0.084 C 
ATOM     21  C   UNL d   1      -0.061  -1.710  -2.211  0.00  0.00     0.020 C 
ATOM     22  C   UNL d   1       2.837   2.434   1.388  0.00  0.00     0.020 C 
ENDROOT
BRANCH   7  23
ATOM     23  O   UNL d   1       1.850   1.481   3.978  0.00  0.00    -0.377 OA
ATOM     24  H   UNL d   1       1.906   0.534   4.199  0.00  0.00     0.211 HD
ENDBRANCH   7  23
TORSDOF 1
