REMARK  2 active torsions:
REMARK  status: ('A' for Active; 'I' for Inactive)
REMARK    1  A    between atoms: C_7  and  C_1 
REMARK    2  A    between atoms: C_9  and  C_7 
ROOT
ATOM      1  C   UNL d   1       0.004  -1.061   0.088  0.00  0.00     0.130 C 
ATOM      2  N   UNL d   1      -0.550   1.241   0.021  0.00  0.00    -0.306 N 
ATOM      3  HN  UNL d   1      -1.069   2.119   0.059  1.00  0.00     0.186 HD
ATOM      4  N   UNL d   1       0.799   1.087  -0.121  0.00  0.00    -0.270 N 
ATOM      5  C   UNL d   1       1.221  -0.225  -0.235  0.00  0.00     0.246 C 
ATOM      6  C   UNL d   1      -1.038   0.040   0.099  0.00  0.00     0.013 C 
ATOM      7  O   UNL d   1       2.341  -0.599  -0.536  0.00  0.00    -0.271 OA
ATOM      8  C   UNL d   1      -2.500  -0.237   0.186  0.00  0.00     0.066 C 
ATOM      9  H   UNL d   1       1.397   1.883  -0.312  0.00  0.00     0.190 HD
ENDROOT
BRANCH   1  10
ATOM     10  C   UNL d   1       0.070  -1.701   1.475  0.00  0.00     0.058 C 
BRANCH  10  11
ATOM     11  C   UNL d   1       1.208  -2.670   1.686  0.00  0.00    -0.057 A 
ATOM     12  C   UNL d   1       2.442  -2.206   2.164  0.00  0.00     0.007 A 
ATOM     13  C   UNL d   1       3.507  -3.085   2.362  0.00  0.00     0.001 A 
ATOM     14  C   UNL d   1       3.346  -4.442   2.096  0.00  0.00     0.000 A 
ATOM     15  C   UNL d   1       2.123  -4.917   1.626  0.00  0.00     0.001 A 
ATOM     16  C   UNL d   1       1.058  -4.036   1.416  0.00  0.00     0.007 A 
ENDBRANCH  10  11
ENDBRANCH   1  10
TORSDOF 2
