REMARK  8 active torsions:
REMARK  status: ('A' for Active; 'I' for Inactive)
REMARK    1  A    between atoms: C_6  and  C_1 
REMARK    2  A    between atoms: C_7  and  C_1 
REMARK    3  A    between atoms: C_2  and  C_3 
REMARK    4  A    between atoms: N_8  and  N_4 
REMARK    5  A    between atoms: C_9  and  C_6 
REMARK    6  A    between atoms: O_16  and  C_7 
REMARK    7  A    between atoms: C_10  and  N_8 
REMARK    8  A    between atoms: O_17  and  C_9 
ROOT
ATOM      1  C   UNL d   1       0.991   0.169   0.105  0.00  0.00     0.105 C 
ATOM      2  N   UNL d   1       0.221   1.068   0.649  0.00  0.00    -0.315 N 
ATOM      3  HN  UNL d   1      -0.787   1.051   0.494  1.00  0.00     0.181 HD
ENDROOT
BRANCH   2   4
ATOM      4  N   UNL d   1       0.788   2.034   1.430  0.00  0.00    -0.205 NA
ATOM      5  H   UNL d   1       1.355   1.688   2.212  0.00  0.00     0.153 HD
BRANCH   4   6
ATOM      6  C   UNL d   1      -0.103   3.067   1.845  0.00  0.00     0.042 A 
ATOM      7  C   UNL d   1       0.055   3.755   3.064  0.00  0.00     0.070 A 
ATOM      8  C   UNL d   1      -0.858   4.779   3.407  0.00  0.00     0.018 A 
ATOM      9  C   UNL d   1      -1.882   5.153   2.541  0.00  0.00     0.001 A 
ATOM     10  C   UNL d   1      -2.007   4.517   1.314  0.00  0.00     0.002 A 
ATOM     11  C   UNL d   1      -1.126   3.489   0.973  0.00  0.00     0.026 A 
BRANCH   7  12
ATOM     12  C   UNL d   1       1.153   3.453   4.046  0.00  0.00     0.419 C 
ATOM     13  F   UNL d   1       1.983   2.437   3.664  0.00  0.00    -0.166 F 
ATOM     14  F   UNL d   1       1.965   4.525   4.268  0.00  0.00    -0.166 F 
ATOM     15  F   UNL d   1       0.678   3.091   5.271  0.00  0.00    -0.166 F 
ENDBRANCH   7  12
ENDBRANCH   4   6
ENDBRANCH   2   4
BRANCH   1  16
ATOM     16  C   UNL d   1       2.494   0.120   0.151  0.00  0.00     0.175 C 
BRANCH  16  17
ATOM     17  C   UNL d   1       3.018  -1.131   0.790  0.00  0.00     0.264 C 
ATOM     18  O   UNL d   1       2.325  -1.996   1.310  0.00  0.00    -0.265 OA
BRANCH  17  19
ATOM     19  O   UNL d   1       4.379  -1.134   0.742  0.00  0.00    -0.326 OA
ATOM     20  C   UNL d   1       5.008  -2.258   1.363  0.00  0.00     0.213 C 
ENDBRANCH  17  19
ENDBRANCH  16  17
ENDBRANCH   1  16
BRANCH   1  21
ATOM     21  C   UNL d   1       0.328  -0.927  -0.725  0.00  0.00     0.306 C 
ATOM     22  O   UNL d   1       0.895  -1.438  -1.676  0.00  0.00    -0.258 OA
BRANCH  21  23
ATOM     23  O   UNL d   1      -0.904  -1.200  -0.256  0.00  0.00    -0.322 OA
ATOM     24  C   UNL d   1      -1.624  -2.178  -1.003  0.00  0.00     0.213 C 
ENDBRANCH  21  23
ENDBRANCH   1  21
TORSDOF 8
