REMARK  2 active torsions:
REMARK  status: ('A' for Active; 'I' for Inactive)
REMARK    1  A    between atoms: C_2  and  C_1 
REMARK       I    between atoms: N_6  and  C_2 
REMARK    2  A    between atoms: C_12  and  N_6 
ROOT
ATOM      1  C   UNL d   1       2.302  -0.784   0.271  0.00  0.00     0.035 C 
ATOM      2  C   UNL d   1       1.139  -1.390   0.541  0.00  0.00     0.029 C 
ATOM      3  C   UNL d   1      -0.083  -0.623   0.344  0.00  0.00    -0.000 A 
ATOM      4  O   UNL d   1       1.164   1.437  -0.006  0.00  0.00    -0.346 OA
ATOM      5  C   UNL d   1      -0.011   0.749   0.074  0.00  0.00     0.079 A 
ATOM      6  C   UNL d   1       2.379   0.674  -0.115  0.00  0.00     0.220 C 
ATOM      7  C   UNL d   1      -1.333  -1.246   0.408  0.00  0.00     0.038 A 
ATOM      8  C   UNL d   1      -1.176   1.493  -0.110  0.00  0.00     0.039 A 
ATOM      9  C   UNL d   1      -2.493  -0.501   0.195  0.00  0.00     0.035 A 
ATOM     10  C   UNL d   1      -2.420   0.868  -0.058  0.00  0.00     0.026 A 
ATOM     11 CL   UNL d   1      -4.025  -1.284   0.232  0.00  0.00    -0.084 Cl
ENDROOT
BRANCH   1  12
ATOM     12  C   UNL d   1       3.629  -1.470   0.333  0.00  0.00     0.254 C 
ATOM     13  N   UNL d   1       3.596  -2.831   0.096  0.00  0.00    -0.323 N 
ATOM     14  H   UNL d   1       2.707  -3.239  -0.157  0.00  0.00     0.169 HD
ATOM     15  O   UNL d   1       4.639  -0.786   0.475  0.00  0.00    -0.268 OA
BRANCH  13  16
ATOM     16  C   UNL d   1       4.715  -3.679  -0.058  0.00  0.00     0.035 A 
ATOM     17  C   UNL d   1       6.021  -3.300   0.261  0.00  0.00     0.031 A 
ATOM     18  C   UNL d   1       7.100  -4.138  -0.040  0.00  0.00     0.026 A 
ATOM     19  C   UNL d   1       6.872  -5.368  -0.648  0.00  0.00     0.034 A 
ATOM     20  C   UNL d   1       5.571  -5.788  -0.912  0.00  0.00     0.026 A 
ATOM     21 CL   UNL d   1       8.202  -6.363  -1.091  0.00  0.00    -0.084 Cl
ATOM     22  C   UNL d   1       4.494  -4.950  -0.606  0.00  0.00     0.031 A 
ENDBRANCH  13  16
ENDBRANCH   1  12
TORSDOF 2
