REMARK  1 active torsions:
REMARK  status: ('A' for Active; 'I' for Inactive)
REMARK    1  A    between atoms: O_12  and  C_6 
ROOT
ATOM      1  C   UNL d   1      -1.436   0.005   0.005  0.00  0.00     0.025 A 
ATOM      2  N   UNL d   1       0.666  -1.232  -0.010  0.00  0.00    -0.313 N 
ATOM      3  C   UNL d   1       0.000  -2.452  -0.006  0.00  0.00     0.250 A 
ATOM      4  C   UNL d   1      -1.478  -2.427  -0.007  0.00  0.00     0.112 A 
ATOM      5  C   UNL d   1      -0.026   0.003  -0.000  0.00  0.00     0.056 A 
ATOM      6  C   UNL d   1      -2.153  -1.275  -0.001  0.00  0.00     0.083 A 
ATOM      7  C   UNL d   1       0.667   1.216  -0.000  0.00  0.00    -0.030 A 
ATOM      8  C   UNL d   1      -2.131   1.226   0.009  0.00  0.00     0.023 A 
ATOM      9  C   UNL d   1      -0.051   2.426   0.007  0.00  0.00     0.016 A 
ATOM     10  O   UNL d   1       0.560  -3.546   0.003  0.00  0.00    -0.268 OA
ATOM     11  C   UNL d   1      -1.445   2.443   0.009  0.00  0.00    -0.060 A 
ATOM     12  C   UNL d   1       2.111  -1.292   0.029  0.00  0.00     0.133 A 
ATOM     13  C   UNL d   1       2.158   1.306  -0.021  0.00  0.00     0.042 A 
ATOM     14  C   UNL d   1       2.915  -0.005  -0.040  0.00  0.00     0.025 A 
ATOM     15  C   UNL d   1      -2.198   3.739   0.002  0.00  0.00     0.048 C 
ENDROOT
BRANCH   6  16
ATOM     16  O   UNL d   1      -3.532  -1.219   0.003  0.00  0.00    -0.360 OA
ATOM     17  H   UNL d   1      -3.881  -2.126  -0.000  0.00  0.00     0.217 HD
ENDBRANCH   6  16
TORSDOF 1
