REMARK  5 active torsions:
REMARK  status: ('A' for Active; 'I' for Inactive)
REMARK    1  A    between atoms: C_11  and  N_2 
REMARK    2  A    between atoms: N_19  and  C_9 
REMARK    3  A    between atoms: C_14  and  C_11 
REMARK    4  A    between atoms: N_15  and  N_19 
REMARK    5  A    between atoms: C_23  and  C_21 
ROOT
ATOM      1  C   UNL d   1      -0.149  -0.852  -0.137  0.00  0.00     0.160 A 
ATOM      2  N   UNL d   1       1.892   0.898  -0.025  0.00  0.00    -0.260 N 
ATOM      3  C   UNL d   1      -0.420   0.478  -0.160  0.00  0.00     0.164 A 
ATOM      4  N   UNL d   1      -1.265  -1.605  -0.183  0.00  0.00    -0.172 N 
ATOM      5  HN  UNL d   1      -1.326  -2.621  -0.259  1.00  0.00     0.186 HD
ATOM      6  N   UNL d   1       1.118  -1.355  -0.032  0.00  0.00    -0.287 N 
ATOM      7  C   UNL d   1       2.186  -0.475   0.058  0.00  0.00     0.333 A 
ATOM      8  C   UNL d   1       0.610   1.460  -0.122  0.00  0.00     0.283 A 
ATOM      9  C   UNL d   1      -2.256  -0.748  -0.109  0.00  0.00     0.701 A 
ATOM     10  N   UNL d   1      -1.796   0.548  -0.170  0.00  0.00    -0.177 N 
ATOM     11  O   UNL d   1       3.341  -0.890   0.194  0.00  0.00    -0.246 OA
ATOM     12  O   UNL d   1       0.394   2.669  -0.176  0.00  0.00    -0.265 OA
ATOM     13  C   UNL d   1       1.361  -2.784   0.055  0.00  0.00     0.163 C 
ATOM     14  C   UNL d   1      -2.608   1.740  -0.089  0.00  0.00     0.176 C 
ENDROOT
BRANCH   9  15
ATOM     15  N   UNL d   1      -3.562  -1.075   0.111  0.00  0.00    -0.132 N 
ATOM     16  H   UNL d   1      -4.290  -0.449  -0.236  0.00  0.00     0.205 HD
BRANCH  15  17
ATOM     17  N   UNL d   1      -4.009  -2.338   0.436  0.00  0.00    -0.295 N 
ATOM     18  C   UNL d   1      -3.228  -3.040   1.211  0.00  0.00     0.137 C 
ATOM     19  HN  UNL d   1      -4.897  -2.702   0.091  1.00  0.00     0.186 HD
BRANCH  18  20
ATOM     20  C   UNL d   1      -3.588  -4.374   1.741  0.00  0.00     0.049 C 
ATOM     21  N   UNL d   1      -2.720  -4.869   2.663  0.00  0.00    -0.354 N 
ATOM     22  C   UNL d   1      -3.240  -5.635   3.637  0.00  0.00     0.043 C 
ATOM     23  HN  UNL d   1      -1.721  -4.669   2.618  1.00  0.00     0.166 HD
ATOM     24  C   UNL d   1      -2.438  -6.074   4.678  0.00  0.00     0.030 C 
ATOM     25  C   UNL d   1      -4.620  -5.912   3.701  0.00  0.00    -0.009 C 
ATOM     26  C   UNL d   1      -2.998  -6.466   5.898  0.00  0.00     0.002 C 
ATOM     27  C   UNL d   1      -4.379  -6.559   6.025  0.00  0.00     0.001 C 
ATOM     28  C   UNL d   1      -5.181  -6.379   4.901  0.00  0.00     0.013 C 
ATOM     29  C   UNL d   1      -5.402  -5.627   2.575  0.00  0.00     0.016 C 
ATOM     30  C   UNL d   1      -4.878  -4.833   1.567  0.00  0.00     0.032 C 
ENDBRANCH  18  20
ENDBRANCH  15  17
ENDBRANCH   9  15
BRANCH   2  31
ATOM     31  C   UNL d   1       3.036   1.804  -0.021  0.00  0.00     0.177 C 
BRANCH  31  32
ATOM     32  C   UNL d   1       3.675   2.024  -1.384  0.00  0.00    -0.018 A 
ATOM     33  C   UNL d   1       4.839   2.806  -1.499  0.00  0.00     0.042 A 
ATOM     34 CL   UNL d   1       5.616   3.492  -0.114  0.00  0.00    -0.084 Cl
ATOM     35  C   UNL d   1       5.415   3.060  -2.749  0.00  0.00     0.024 A 
ATOM     36  C   UNL d   1       4.844   2.532  -3.905  0.00  0.00     0.002 A 
ATOM     37  C   UNL d   1       3.708   1.736  -3.811  0.00  0.00     0.001 A 
ATOM     38  C   UNL d   1       3.129   1.485  -2.565  0.00  0.00     0.010 A 
ENDBRANCH  31  32
ENDBRANCH   2  31
TORSDOF 5
