REMARK  6 active torsions:
REMARK  status: ('A' for Active; 'I' for Inactive)
REMARK    1  A    between atoms: C_8  and  C_1 
REMARK    2  A    between atoms: C_9  and  N_2 
REMARK    3  A    between atoms: S_12  and  C_5 
REMARK    4  A    between atoms: C_10  and  C_8 
REMARK    5  A    between atoms: C_11  and  C_8 
REMARK    6  A    between atoms: O_15  and  C_8 
ROOT
ATOM      1  C   UNL d   1      -0.227  -1.339   0.018  0.00  0.00     0.150 A 
ATOM      2  N   UNL d   1      -1.069  -0.227   0.184  0.00  0.00    -0.276 N 
ATOM      3  N   UNL d   1       1.034  -0.933   0.015  0.00  0.00    -0.283 N 
ATOM      4  HN  UNL d   1       1.852  -1.541  -0.035  1.00  0.00     0.188 HD
ATOM      5  C   UNL d   1      -0.174   0.844   0.128  0.00  0.00     0.165 A 
ATOM      6  N   UNL d   1       1.064   0.420   0.091  0.00  0.00    -0.278 N 
ATOM      7  HN  UNL d   1       1.900   1.003   0.114  1.00  0.00     0.189 HD
ENDROOT
BRANCH   1   8
ATOM      8  C   UNL d   1      -0.559  -2.825  -0.050  0.00  0.00     0.172 C 
BRANCH   8   9
ATOM      9  C   UNL d   1      -1.273  -3.300   1.233  0.00  0.00    -0.012 A 
ATOM     10  C   UNL d   1      -2.574  -3.832   1.260  0.00  0.00     0.011 A 
ATOM     11  C   UNL d   1      -3.151  -4.287   2.450  0.00  0.00     0.001 A 
ATOM     12  C   UNL d   1      -2.448  -4.205   3.647  0.00  0.00     0.000 A 
ATOM     13  C   UNL d   1      -1.169  -3.662   3.659  0.00  0.00     0.001 A 
ATOM     14  C   UNL d   1      -0.590  -3.215   2.469  0.00  0.00     0.011 A 
ENDBRANCH   8   9
BRANCH   8  15
ATOM     15  C   UNL d   1      -1.109  -3.295  -1.412  0.00  0.00    -0.012 C 
ATOM     16  C   UNL d   1      -1.234  -2.431  -2.522  0.00  0.00     0.011 C 
ATOM     17  C   UNL d   1      -1.870  -2.845  -3.697  0.00  0.00     0.001 C 
ATOM     18  C   UNL d   1      -2.335  -4.149  -3.816  0.00  0.00     0.000 C 
ATOM     19  C   UNL d   1      -2.119  -5.054  -2.783  0.00  0.00     0.001 C 
ATOM     20  C   UNL d   1      -1.493  -4.638  -1.605  0.00  0.00     0.011 C 
ENDBRANCH   8  15
BRANCH   8  21
ATOM     21  O   UNL d   1       0.717  -3.518  -0.006  0.00  0.00    -0.373 OA
ATOM     22  H   UNL d   1       1.406  -2.826   0.023  0.00  0.00     0.212 HD
ENDBRANCH   8  21
ENDBRANCH   1   8
BRANCH   2  23
ATOM     23  C   UNL d   1      -2.491  -0.143   0.356  0.00  0.00     0.043 A 
ATOM     24  C   UNL d   1      -3.042   0.869   1.160  0.00  0.00     0.033 A 
ATOM     25  C   UNL d   1      -4.429   1.024   1.276  0.00  0.00     0.044 A 
ATOM     26  C   UNL d   1      -5.276   0.147   0.618  0.00  0.00     0.116 A 
ATOM     27  C   UNL d   1      -4.760  -0.881  -0.152  0.00  0.00     0.044 A 
ATOM     28  F   UNL d   1      -6.603   0.295   0.722  0.00  0.00    -0.206 F 
ATOM     29  C   UNL d   1      -3.374  -1.020  -0.284  0.00  0.00     0.033 A 
ENDBRANCH   2  23
BRANCH   5  30
ATOM     30  S   UNL d   1      -0.557   2.524  -0.114  0.00  0.00    -0.105 SA
ATOM     31  H   UNL d   1      -1.799   2.401  -0.599  0.00  0.00     0.110 HD
ENDBRANCH   5  30
TORSDOF 6
