REMARK  7 active torsions:
REMARK  status: ('A' for Active; 'I' for Inactive)
REMARK    1  A    between atoms: O_13  and  C_1 
REMARK    2  A    between atoms: O_14  and  C_2 
REMARK    3  A    between atoms: C_3  and  C_11 
REMARK    4  A    between atoms: C_12  and  C_4 
REMARK    5  A    between atoms: N_7  and  N_5 
REMARK    6  A    between atoms: O_15  and  C_9 
REMARK    7  A    between atoms: O_16  and  C_10 
ROOT
ATOM      1  N   UNL d   1       2.348  -3.011   0.830  0.00  0.00    -0.311 N 
ATOM      2  HN  UNL d   1       2.898  -2.290   0.364  1.00  0.00     0.186 HD
ATOM      3  C   UNL d   1       1.284  -2.770   1.530  0.00  0.00     0.121 C 
ENDROOT
BRANCH   1   4
ATOM      4  N   UNL d   1       2.650  -4.365   0.789  0.00  0.00    -0.311 N 
ATOM      5  C   UNL d   1       3.816  -4.542   0.250  0.00  0.00     0.121 C 
ATOM      6  HN  UNL d   1       2.044  -5.111   1.132  1.00  0.00     0.186 HD
BRANCH   5   7
ATOM      7  C   UNL d   1       4.375  -5.883   0.022  0.00  0.00     0.017 A 
ATOM      8  C   UNL d   1       5.756  -6.132   0.153  0.00  0.00     0.113 A 
ATOM      9  C   UNL d   1       6.252  -7.395  -0.217  0.00  0.00     0.102 A 
ATOM     10  C   UNL d   1       5.360  -8.371  -0.694  0.00  0.00     0.040 A 
ATOM     11  C   UNL d   1       3.994  -8.121  -0.798  0.00  0.00     0.004 A 
ATOM     12  C   UNL d   1       3.497  -6.877  -0.431  0.00  0.00     0.016 A 
BRANCH   8  13
ATOM     13  O   UNL d   1       6.626  -5.146   0.544  0.00  0.00    -0.352 OA
ATOM     14  C   UNL d   1       6.375  -4.646   1.861  0.00  0.00     0.210 C 
ENDBRANCH   8  13
BRANCH   9  15
ATOM     15  O   UNL d   1       7.543  -7.852  -0.200  0.00  0.00    -0.353 OA
ATOM     16  C   UNL d   1       8.545  -7.072   0.430  0.00  0.00     0.210 C 
ENDBRANCH   9  15
ENDBRANCH   5   7
ENDBRANCH   1   4
BRANCH   3  17
ATOM     17  C   UNL d   1       0.725  -1.404   1.594  0.00  0.00     0.017 A 
ATOM     18  C   UNL d   1       0.202  -0.774   2.739  0.00  0.00     0.113 A 
ATOM     19  C   UNL d   1      -0.291   0.547   2.583  0.00  0.00     0.102 A 
ATOM     20  C   UNL d   1      -0.306   1.176   1.331  0.00  0.00     0.040 A 
ATOM     21  C   UNL d   1       0.210   0.539   0.213  0.00  0.00     0.004 A 
ATOM     22  C   UNL d   1       0.728  -0.741   0.349  0.00  0.00     0.016 A 
BRANCH  18  23
ATOM     23  O   UNL d   1       0.136  -1.247   4.016  0.00  0.00    -0.352 OA
ATOM     24  C   UNL d   1       0.267  -2.619   4.326  0.00  0.00     0.210 C 
ENDBRANCH  18  23
BRANCH  19  25
ATOM     25  O   UNL d   1      -0.863   1.324   3.565  0.00  0.00    -0.353 OA
ATOM     26  C   UNL d   1      -0.249   1.283   4.848  0.00  0.00     0.210 C 
ENDBRANCH  19  25
ENDBRANCH   3  17
TORSDOF 7
