REMARK  4 active torsions:
REMARK  status: ('A' for Active; 'I' for Inactive)
REMARK       I    between atoms: C_9  and  N_1 
REMARK    1  A    between atoms: C_10  and  C_2 
REMARK    2  A    between atoms: C_11  and  C_5 
REMARK    3  A    between atoms: C_14  and  C_9 
REMARK    4  A    between atoms: C_20  and  C_14 
ROOT
ATOM      1  N   UNL d   1      -0.886  -1.394  -0.769  0.00  0.00    -0.306 N 
ATOM      2  C   UNL d   1      -2.152  -1.220  -0.007  0.00  0.00     0.131 C 
ATOM      3  N   UNL d   1      -0.823   1.541  -0.588  0.00  0.00    -0.357 N 
ATOM      4  HN  UNL d   1      -0.688   2.335  -1.214  1.00  0.00     0.166 HD
ATOM      5  C   UNL d   1      -2.008   1.280  -0.119  0.00  0.00     0.022 C 
ATOM      6  C   UNL d   1      -2.270   0.093   0.798  0.00  0.00     0.088 C 
ATOM      7  C   UNL d   1       0.264  -0.675  -0.291  0.00  0.00     0.064 A 
ATOM      8  C   UNL d   1       0.272   0.733  -0.235  0.00  0.00     0.059 A 
ATOM      9  C   UNL d   1      -0.726  -2.527  -1.587  0.00  0.00     0.225 C 
ATOM     10  O   UNL d   1      -1.516  -3.471  -1.608  0.00  0.00    -0.273 OA
ATOM     11  C   UNL d   1       1.420  -1.379   0.097  0.00  0.00     0.032 A 
ATOM     12  C   UNL d   1       1.463   1.392   0.096  0.00  0.00     0.032 A 
ATOM     13  C   UNL d   1       2.596  -0.708   0.423  0.00  0.00     0.002 A 
ATOM     14  C   UNL d   1       2.624   0.680   0.406  0.00  0.00     0.002 A 
ENDROOT
BRANCH   2  15
ATOM     15  C   UNL d   1      -3.436  -1.393  -0.830  0.00  0.00    -0.035 A 
ATOM     16  C   UNL d   1      -4.563  -1.981  -0.227  0.00  0.00     0.009 A 
ATOM     17  C   UNL d   1      -5.751  -2.154  -0.942  0.00  0.00     0.001 A 
ATOM     18  C   UNL d   1      -5.827  -1.741  -2.270  0.00  0.00     0.000 A 
ATOM     19  C   UNL d   1      -4.725  -1.143  -2.876  0.00  0.00     0.001 A 
ATOM     20  C   UNL d   1      -3.540  -0.961  -2.163  0.00  0.00     0.009 A 
ENDBRANCH   2  15
BRANCH   9  21
ATOM     21  C   UNL d   1       0.503  -2.521  -2.503  0.00  0.00     0.103 C 
BRANCH  21  22
ATOM     22  C   UNL d   1       0.261  -3.148  -3.871  0.00  0.00     0.005 C 
ATOM     23  C   UNL d   1       1.555  -3.160  -4.675  0.00  0.00     0.005 C 
ENDBRANCH  21  22
ENDBRANCH   9  21
BRANCH   5  24
ATOM     24  C   UNL d   1      -3.147   2.145  -0.553  0.00  0.00    -0.013 A 
ATOM     25  C   UNL d   1      -4.271   2.369   0.245  0.00  0.00     0.013 A 
ATOM     26  C   UNL d   1      -5.325   3.153  -0.236  0.00  0.00     0.001 A 
ATOM     27  C   UNL d   1      -5.256   3.721  -1.508  0.00  0.00     0.000 A 
ATOM     28  C   UNL d   1      -4.128   3.520  -2.300  0.00  0.00     0.001 A 
ATOM     29  C   UNL d   1      -3.074   2.741  -1.821  0.00  0.00     0.013 A 
ENDBRANCH   5  24
TORSDOF 4
