REMARK  3 active torsions:
REMARK  status: ('A' for Active; 'I' for Inactive)
REMARK    1  A    between atoms: C_2  and  C_1 
REMARK    2  A    between atoms: C_15  and  C_3 
REMARK    3  A    between atoms: C_11  and  C_16 
ROOT
ATOM      1  C   UNL d   1       0.332   0.788   0.925  0.00  0.00     0.184 A 
ATOM      2  C   UNL d   1      -0.182  -1.071  -0.005  0.00  0.00     0.175 A 
ATOM      3  O   UNL d   1      -0.165  -0.465   1.222  0.00  0.00    -0.272 OA
ATOM      4  N   UNL d   1       0.610   0.899  -0.361  0.00  0.00    -0.276 N 
ATOM      5  HN  UNL d   1       0.996   1.721  -0.826  1.00  0.00     0.189 HD
ATOM      6  N   UNL d   1       0.283  -0.298  -0.958  0.00  0.00    -0.277 N 
ATOM      7  HN  UNL d   1       0.383  -0.536  -1.945  1.00  0.00     0.189 HD
ENDROOT
BRANCH   2   8
ATOM      8  C   UNL d   1      -0.679  -2.439  -0.055  0.00  0.00     0.032 A 
ATOM      9  C   UNL d   1      -1.524  -2.908  -1.083  0.00  0.00     0.062 A 
ATOM     10  C   UNL d   1      -1.879  -4.275  -1.103  0.00  0.00     0.017 A 
ATOM     11  C   UNL d   1      -1.443  -5.152  -0.112  0.00  0.00     0.001 A 
ATOM     12  C   UNL d   1      -0.644  -4.680   0.921  0.00  0.00     0.001 A 
ATOM     13  C   UNL d   1      -0.265  -3.338   0.948  0.00  0.00     0.017 A 
BRANCH   9  14
ATOM     14  C   UNL d   1      -2.082  -2.032  -2.183  0.00  0.00     0.418 C 
ATOM     15  F   UNL d   1      -2.127  -0.704  -1.903  0.00  0.00    -0.166 F 
ATOM     16  F   UNL d   1      -1.397  -2.165  -3.351  0.00  0.00    -0.166 F 
ATOM     17  F   UNL d   1      -3.374  -2.363  -2.481  0.00  0.00    -0.166 F 
ENDBRANCH   9  14
ENDBRANCH   2   8
BRANCH   1  18
ATOM     18  C   UNL d   1       0.521   1.825   1.884  0.00  0.00     0.095 A 
ATOM     19  C   UNL d   1       0.816   3.174   1.730  0.00  0.00     0.041 A 
ATOM     20  N   UNL d   1       0.937   3.877   2.926  0.00  0.00    -0.296 N 
ATOM     21  C   UNL d   1       0.999   3.955   0.478  0.00  0.00     0.071 C 
ATOM     22  N   UNL d   1       0.740   3.110   3.982  0.00  0.00    -0.061 NA
ATOM     23  HN  UNL d   1       1.153   4.872   2.980  1.00  0.00     0.183 HD
ATOM     24  S   UNL d   1       0.398   1.529   3.573  0.00  0.00     0.006 SA
ENDBRANCH   1  18
TORSDOF 3
