REMARK  4 active torsions:
REMARK  status: ('A' for Active; 'I' for Inactive)
REMARK    1  A    between atoms: C_9  and  C_1 
REMARK       I    between atoms: N_14  and  C_9 
REMARK    2  A    between atoms: C_15  and  N_14 
REMARK    3  A    between atoms: C_17  and  C_15 
REMARK    4  A    between atoms: C_16  and  C_17 
ROOT
ATOM      1  C   UNL d   1      -1.411  -3.027   0.016  0.00  0.00     0.254 C 
ATOM      2  O   UNL d   1      -0.351  -3.636   0.038  0.00  0.00    -0.268 OA
ATOM      3  N   UNL d   1      -2.643  -3.668   0.011  0.00  0.00    -0.356 N 
ATOM      4  H   UNL d   1      -3.494  -3.114  -0.017  0.00  0.00     0.162 HD
ENDROOT
BRANCH   1   5
ATOM      5  C   UNL d   1      -1.407  -1.542  -0.007  0.00  0.00     0.061 A 
ATOM      6  C   UNL d   1      -2.602  -0.767  -0.037  0.00  0.00     0.082 A 
ATOM      7  N   UNL d   1      -3.872  -1.220  -0.030  0.00  0.00    -0.310 N 
ATOM      8  C   UNL d   1      -2.540   0.744  -0.083  0.00  0.00     0.068 A 
ATOM      9  S   UNL d   1      -4.867   0.106  -0.071  0.00  0.00     0.068 SA
ATOM     10  HN  UNL d   1      -4.166  -2.196  -0.003  1.00  0.00     0.176 HD
ATOM     11  N   UNL d   1      -3.749   1.327  -0.108  0.00  0.00    -0.310 N 
ATOM     12  HN  UNL d   1      -3.942   2.328  -0.142  1.00  0.00     0.176 HD
ATOM     13  C   UNL d   1      -1.308   1.435  -0.096  0.00  0.00     0.032 A 
ATOM     14  C   UNL d   1      -0.156   0.635  -0.055  0.00  0.00     0.003 A 
ATOM     15  C   UNL d   1      -0.201  -0.786  -0.012  0.00  0.00     0.019 A 
ENDBRANCH   1   5
BRANCH   3  16
ATOM     16  C   UNL d   1      -2.737  -5.116   0.043  0.00  0.00     0.127 C 
BRANCH  16  17
ATOM     17  C   UNL d   1      -4.183  -5.607   0.035  0.00  0.00     0.058 C 
BRANCH  17  18
ATOM     18  C   UNL d   1      -4.279  -7.113   0.068  0.00  0.00    -0.057 A 
ATOM     19  C   UNL d   1      -4.317  -7.795   1.292  0.00  0.00     0.007 A 
ATOM     20  C   UNL d   1      -4.447  -9.184   1.324  0.00  0.00     0.001 A 
ATOM     21  C   UNL d   1      -4.542  -9.904   0.135  0.00  0.00     0.000 A 
ATOM     22  C   UNL d   1      -4.487  -9.238  -1.087  0.00  0.00     0.001 A 
ATOM     23  C   UNL d   1      -4.341  -7.849  -1.122  0.00  0.00     0.007 A 
ENDBRANCH  17  18
ENDBRANCH  16  17
ENDBRANCH   3  16
TORSDOF 4
