REMARK  2 active torsions:
REMARK  status: ('A' for Active; 'I' for Inactive)
REMARK    1  A    between atoms: C_11  and  C_3 
REMARK    2  A    between atoms: O_12  and  C_5 
ROOT
ATOM      1  N   UNL d   1      -0.101  -1.094   0.018  0.00  0.00    -0.276 N 
ATOM      2  C   UNL d   1      -0.659  -2.385   0.030  0.00  0.00     0.266 A 
ATOM      3  C   UNL d   1      -2.166  -2.424   0.028  0.00  0.00     0.077 A 
ATOM      4  C   UNL d   1      -0.902   0.029   0.012  0.00  0.00     0.067 A 
ATOM      5  C   UNL d   1      -2.916  -1.292   0.023  0.00  0.00     0.094 A 
ATOM      6  C   UNL d   1      -2.297   0.044   0.015  0.00  0.00     0.026 A 
ATOM      7  C   UNL d   1       1.232  -0.697   0.008  0.00  0.00     0.054 A 
ATOM      8  C   UNL d   1      -0.104   1.157   0.003  0.00  0.00     0.005 A 
ATOM      9  C   UNL d   1       1.250   0.705   0.002  0.00  0.00     0.004 A 
ATOM     10  O   UNL d   1       0.069  -3.370   0.041  0.00  0.00    -0.267 OA
ATOM     11  C   UNL d   1      -2.902   1.308   0.006  0.00  0.00     0.017 A 
ATOM     12  C   UNL d   1      -0.732   2.417  -0.003  0.00  0.00     0.014 A 
ATOM     13  C   UNL d   1       2.424  -1.444   0.005  0.00  0.00     0.031 A 
ATOM     14  C   UNL d   1       2.492   1.374  -0.004  0.00  0.00     0.014 A 
ATOM     15  C   UNL d   1      -2.131   2.476  -0.002  0.00  0.00     0.002 A 
ATOM     16  C   UNL d   1       3.642  -0.754  -0.002  0.00  0.00     0.002 A 
ATOM     17  C   UNL d   1       3.678   0.635  -0.006  0.00  0.00     0.001 A 
ENDROOT
BRANCH   3  18
ATOM     18  C   UNL d   1      -2.839  -3.742   0.019  0.00  0.00    -0.018 A 
ATOM     19  C   UNL d   1      -3.154  -4.367  -1.196  0.00  0.00     0.012 A 
ATOM     20  C   UNL d   1      -3.863  -5.572  -1.211  0.00  0.00     0.001 A 
ATOM     21  C   UNL d   1      -4.245  -6.172  -0.012  0.00  0.00     0.000 A 
ATOM     22  C   UNL d   1      -3.907  -5.576   1.202  0.00  0.00     0.001 A 
ATOM     23  C   UNL d   1      -3.212  -4.362   1.219  0.00  0.00     0.012 A 
ENDBRANCH   3  18
BRANCH   5  24
ATOM     24  O   UNL d   1      -4.299  -1.356   0.022  0.00  0.00    -0.359 OA
ATOM     25  H   UNL d   1      -4.678  -0.467   0.011  0.00  0.00     0.217 HD
ENDBRANCH   5  24
TORSDOF 2
