REMARK  4 active torsions:
REMARK  status: ('A' for Active; 'I' for Inactive)
REMARK    1  A    between atoms: C_8  and  N_1 
REMARK    2  A    between atoms: C_10  and  C_2 
REMARK    3  A    between atoms: C_13  and  C_7 
REMARK    4  A    between atoms: C_9  and  C_8 
REMARK       I    between atoms: N_14  and  C_9 
ROOT
ATOM      1  N   UNL d   1       0.031  -1.471   0.014  0.00  0.00    -0.289 N 
ATOM      2  C   UNL d   1       1.320  -1.023  -0.086  0.00  0.00     0.121 C 
ATOM      3  N   UNL d   1       1.447   0.277  -0.069  0.00  0.00    -0.337 N 
ATOM      4  HN  UNL d   1       2.313   0.816  -0.083  1.00  0.00     0.167 HD
ATOM      5  C   UNL d   1       0.161   0.762  -0.027  0.00  0.00     0.103 C 
ATOM      6  C   UNL d   1      -0.790  -0.386  -0.063  0.00  0.00     0.276 C 
ATOM      7  C   UNL d   1      -0.160   2.061   0.045  0.00  0.00     0.046 C 
ATOM      8  O   UNL d   1      -2.003  -0.361  -0.176  0.00  0.00    -0.265 OA
ENDROOT
BRANCH   7   9
ATOM      9  C   UNL d   1      -1.531   2.568   0.115  0.00  0.00    -0.034 A 
ATOM     10  C   UNL d   1      -2.160   2.715   1.358  0.00  0.00     0.014 A 
ATOM     11  C   UNL d   1      -3.489   3.135   1.424  0.00  0.00     0.043 A 
ATOM     12  C   UNL d   1      -4.181   3.409   0.250  0.00  0.00     0.116 A 
ATOM     13  C   UNL d   1      -3.568   3.278  -0.990  0.00  0.00     0.043 A 
ATOM     14  F   UNL d   1      -5.460   3.803   0.316  0.00  0.00    -0.206 F 
ATOM     15  C   UNL d   1      -2.238   2.857  -1.060  0.00  0.00     0.014 A 
ENDBRANCH   7   9
BRANCH   1  16
ATOM     16  C   UNL d   1      -0.540  -2.812   0.010  0.00  0.00     0.236 C 
BRANCH  16  17
ATOM     17  C   UNL d   1      -0.106  -3.673   1.189  0.00  0.00     0.233 C 
ATOM     18  O   UNL d   1       0.009  -4.893   1.105  0.00  0.00    -0.272 OA
ATOM     19  N   UNL d   1       0.018  -3.054   2.400  0.00  0.00    -0.369 N 
ATOM     20  H   UNL d   1      -0.344  -2.128   2.568  0.00  0.00     0.159 HD
ATOM     21  H   UNL d   1       0.191  -3.651   3.200  0.00  0.00     0.159 HD
ENDBRANCH  16  17
ENDBRANCH   1  16
BRANCH   2  22
ATOM     22  C   UNL d   1       2.515  -1.906  -0.175  0.00  0.00     0.008 A 
ATOM     23  C   UNL d   1       2.505  -3.136  -0.842  0.00  0.00     0.015 A 
ATOM     24  C   UNL d   1       3.666  -3.908  -0.931  0.00  0.00     0.001 A 
ATOM     25  C   UNL d   1       4.861  -3.442  -0.394  0.00  0.00     0.000 A 
ATOM     26  C   UNL d   1       4.895  -2.201   0.239  0.00  0.00     0.001 A 
ATOM     27  C   UNL d   1       3.730  -1.438   0.352  0.00  0.00     0.015 A 
ENDBRANCH   2  22
TORSDOF 4
