REMARK  3 active torsions:
REMARK  status: ('A' for Active; 'I' for Inactive)
REMARK    1  A    between atoms: C_2  and  C_1 
REMARK    2  A    between atoms: C_6  and  C_2 
REMARK    3  A    between atoms: N_8  and  C_3 
ROOT
ATOM      1  N   UNL d   1      -1.718   0.369   0.521  0.00  0.00    -0.363 N 
ATOM      2  HN  UNL d   1      -1.210  -0.513   0.596  1.00  0.00     0.165 HD
ATOM      3  C   UNL d   1      -1.104   1.506   0.096  0.00  0.00     0.082 A 
ATOM      4  C   UNL d   1      -3.026   0.458   0.840  0.00  0.00     0.088 A 
ATOM      5  C   UNL d   1      -1.770   2.721  -0.036  0.00  0.00     0.034 A 
ATOM      6  C   UNL d   1      -3.761   1.629   0.753  0.00  0.00     0.017 A 
ATOM      7  C   UNL d   1      -3.120   2.778   0.304  0.00  0.00     0.004 A 
ENDROOT
BRANCH   3   8
ATOM      8  C   UNL d   1       0.364   1.431  -0.194  0.00  0.00     0.199 C 
ATOM      9  O   UNL d   1       1.002   2.430  -0.515  0.00  0.00    -0.286 OA
BRANCH   8  10
ATOM     10  C   UNL d   1       0.999   0.088  -0.059  0.00  0.00     0.074 C 
ATOM     11  C   UNL d   1       2.328  -0.056   0.033  0.00  0.00     0.088 C 
BRANCH  11  12
ATOM     12  N   UNL d   1       3.074  -1.220   0.182  0.00  0.00    -0.398 N 
ATOM     13  C   UNL d   1       2.510  -2.569   0.191  0.00  0.00     0.148 C 
ATOM     14  C   UNL d   1       4.525  -1.185   0.367  0.00  0.00     0.148 C 
ENDBRANCH  11  12
ENDBRANCH   8  10
ENDBRANCH   3   8
TORSDOF 3
