REMARK  7 active torsions:
REMARK  status: ('A' for Active; 'I' for Inactive)
REMARK    1  A    between atoms: N_2  and  S_1 
REMARK    2  A    between atoms: C_5  and  S_1 
REMARK    3  A    between atoms: C_7  and  N_2 
REMARK    4  A    between atoms: C_8  and  N_2 
REMARK    5  A    between atoms: C_6  and  C_14 
REMARK    6  A    between atoms: C_24  and  C_7 
REMARK    7  A    between atoms: C_23  and  C_8 
ROOT
ATOM      1  N   UNL d   1       0.458   0.274  -1.421  0.00  0.00    -0.195 NA
ENDROOT
BRANCH   1   2
ATOM      2  S   UNL d   1       1.113   0.181   0.149  0.00  0.00     0.244 S 
ATOM      3  O   UNL d   1       0.132   0.647   1.101  0.00  0.00    -0.206 OA
ATOM      4  O   UNL d   1       2.445   0.751   0.103  0.00  0.00    -0.206 OA
BRANCH   2   5
ATOM      5  C   UNL d   1       1.343  -1.566   0.467  0.00  0.00     0.074 A 
ATOM      6  C   UNL d   1       2.637  -2.052   0.688  0.00  0.00     0.026 A 
ATOM      7  C   UNL d   1       2.833  -3.385   1.069  0.00  0.00     0.016 A 
ATOM      8  C   UNL d   1       1.746  -4.257   1.226  0.00  0.00    -0.001 A 
ATOM      9  C   UNL d   1       0.454  -3.751   1.011  0.00  0.00     0.016 A 
ATOM     10  C   UNL d   1       0.249  -2.410   0.653  0.00  0.00     0.026 A 
BRANCH   8  11
ATOM     11  C   UNL d   1       1.965  -5.644   1.617  0.00  0.00     0.102 A 
ATOM     12  O   UNL d   1       0.861  -6.452   1.731  0.00  0.00    -0.304 OA
ATOM     13  C   UNL d   1       1.368  -7.662   2.091  0.00  0.00     0.233 A 
ATOM     14  N   UNL d   1       2.673  -7.707   2.222  0.00  0.00    -0.354 N 
ATOM     15  C   UNL d   1       3.062  -6.425   1.922  0.00  0.00     0.127 A 
ATOM     16  HN  UNL d   1       3.257  -8.501   2.483  1.00  0.00     0.166 HD
ENDBRANCH   8  11
ENDBRANCH   2   5
ENDBRANCH   1   2
BRANCH   1  17
ATOM     17  C   UNL d   1      -1.038   0.151  -1.496  0.00  0.00     0.164 C 
BRANCH  17  18
ATOM     18  C   UNL d   1      -1.623   0.200  -2.902  0.00  0.00     0.023 A 
ATOM     19  N   UNL d   1      -1.296  -0.811  -3.748  0.00  0.00    -0.368 N 
ATOM     20  C   UNL d   1      -1.710  -0.705  -5.030  0.00  0.00     0.088 A 
ATOM     21  HN  UNL d   1      -0.761  -1.618  -3.429  1.00  0.00     0.165 HD
ATOM     22  C   UNL d   1      -2.433   0.367  -5.525  0.00  0.00     0.017 A 
ATOM     23  C   UNL d   1      -2.780   1.383  -4.646  0.00  0.00     0.003 A 
ATOM     24  C   UNL d   1      -2.384   1.295  -3.315  0.00  0.00     0.026 A 
ENDBRANCH  17  18
ENDBRANCH   1  17
BRANCH   1  25
ATOM     25  C   UNL d   1       0.992   1.424  -2.220  0.00  0.00     0.164 C 
BRANCH  25  26
ATOM     26  C   UNL d   1       0.721   2.810  -1.656  0.00  0.00     0.023 A 
ATOM     27  N   UNL d   1      -0.576   3.188  -1.503  0.00  0.00    -0.368 N 
ATOM     28  C   UNL d   1      -0.820   4.404  -0.972  0.00  0.00     0.088 A 
ATOM     29  HN  UNL d   1      -1.340   2.571  -1.781  1.00  0.00     0.165 HD
ATOM     30  C   UNL d   1       0.173   5.292  -0.602  0.00  0.00     0.017 A 
ATOM     31  C   UNL d   1       1.495   4.904  -0.778  0.00  0.00     0.003 A 
ATOM     32  C   UNL d   1       1.778   3.648  -1.308  0.00  0.00     0.026 A 
ENDBRANCH  25  26
ENDBRANCH   1  25
TORSDOF 7
