REMARK  3 active torsions:
REMARK  status: ('A' for Active; 'I' for Inactive)
REMARK    1  A    between atoms: C_5  and  C_1 
REMARK    2  A    between atoms: C_17  and  C_4 
REMARK       I    between atoms: N_8  and  C_5 
REMARK    3  A    between atoms: C_11  and  N_8 
ROOT
ATOM      1  C   UNL d   1       2.452   1.643   0.025  0.00  0.00     0.273 C 
ATOM      2  N   UNL d   1       2.185   2.999   0.045  0.00  0.00    -0.322 N 
ATOM      3  O   UNL d   1       3.574   1.142   0.049  0.00  0.00    -0.266 OA
ATOM      4  H   UNL d   1       1.210   3.249   0.183  0.00  0.00     0.169 HD
ENDROOT
BRANCH   1   5
ATOM      5  C   UNL d   1       1.264   0.779  -0.014  0.00  0.00     0.108 A 
ATOM      6  N   UNL d   1      -0.059   1.245  -0.060  0.00  0.00    -0.345 N 
ATOM      7  C   UNL d   1      -0.897   0.216  -0.090  0.00  0.00     0.085 A 
ATOM      8  HN  UNL d   1      -0.336   2.227  -0.069  1.00  0.00     0.167 HD
ATOM      9  S   UNL d   1      -0.133  -1.336  -0.161  0.00  0.00    -0.081 SA
ATOM     10  C   UNL d   1       1.388  -0.598  -0.032  0.00  0.00     0.087 A 
BRANCH   7  11
ATOM     11  C   UNL d   1      -2.373   0.287  -0.098  0.00  0.00    -0.002 A 
ATOM     12  C   UNL d   1      -3.032   1.381  -0.677  0.00  0.00     0.014 A 
ATOM     13  C   UNL d   1      -4.431   1.442  -0.704  0.00  0.00     0.001 A 
ATOM     14  C   UNL d   1      -5.193   0.414  -0.147  0.00  0.00     0.000 A 
ATOM     15  C   UNL d   1      -4.559  -0.672   0.443  0.00  0.00     0.001 A 
ATOM     16  C   UNL d   1      -3.164  -0.731   0.471  0.00  0.00     0.014 A 
ENDBRANCH   7  11
ENDBRANCH   1   5
BRANCH   2  17
ATOM     17  C   UNL d   1       3.139   4.029  -0.127  0.00  0.00     0.037 A 
ATOM     18  C   UNL d   1       4.444   3.797  -0.578  0.00  0.00     0.061 A 
ATOM     19  C   UNL d   1       5.335   4.832  -0.838  0.00  0.00     0.061 A 
ATOM     20  N   UNL d   1       6.560   4.541  -1.327  0.00  0.00    -0.363 N 
ATOM     21  C   UNL d   1       4.927   6.165  -0.617  0.00  0.00     0.059 A 
ATOM     22  C   UNL d   1       7.362   5.589  -1.604  0.00  0.00     0.105 A 
ATOM     23  HN  UNL d   1       6.863   3.579  -1.478  1.00  0.00     0.165 HD
ATOM     24  C   UNL d   1       6.963   6.892  -1.393  0.00  0.00     0.105 A 
ATOM     25  N   UNL d   1       5.747   7.202  -0.888  0.00  0.00    -0.363 N 
ATOM     26  HN  UNL d   1       5.465   8.168  -0.722  1.00  0.00     0.165 HD
ATOM     27  C   UNL d   1       3.646   6.397  -0.129  0.00  0.00     0.034 A 
ATOM     28  C   UNL d   1       2.747   5.346   0.104  0.00  0.00     0.032 A 
ENDBRANCH   2  17
TORSDOF 3
