REMARK  1 active torsions:
REMARK  status: ('A' for Active; 'I' for Inactive)
REMARK    1  A    between atoms: C_2  and  N_1 
ROOT
ATOM      1  C   UNL d   1      -0.005   2.316   0.032  0.00  0.00     0.067 A 
ATOM      2  C   UNL d   1      -0.695   3.072   1.000  0.00  0.00     0.063 A 
ATOM      3  C   UNL d   1      -0.685   4.470   0.948  0.00  0.00     0.050 A 
ATOM      4  C   UNL d   1       0.704   2.993  -0.974  0.00  0.00     0.034 A 
ATOM      5  C   UNL d   1      -0.003   5.120  -0.076  0.00  0.00     0.035 A 
ATOM      6 CL   UNL d   1      -1.436   2.346   2.386  0.00  0.00    -0.082 Cl
ATOM      7  C   UNL d   1       0.690   4.389  -1.038  0.00  0.00     0.026 A 
ATOM      8 CL   UNL d   1       0.007   6.838  -0.140  0.00  0.00    -0.084 Cl
ENDROOT
BRANCH   1   9
ATOM      9  N   UNL d   1       0.006   0.906   0.052  0.00  0.00    -0.244 N 
ATOM     10  C   UNL d   1       1.114   0.130  -0.112  0.00  0.00     0.255 A 
ATOM     11  C   UNL d   1       0.669  -1.269  -0.063  0.00  0.00     0.080 A 
ATOM     12  O   UNL d   1       2.281   0.446  -0.253  0.00  0.00    -0.268 OA
ATOM     13  C   UNL d   1      -0.660  -1.272   0.037  0.00  0.00     0.080 A 
ATOM     14  C   UNL d   1      -1.115   0.125   0.059  0.00  0.00     0.255 A 
ATOM     15  O   UNL d   1      -2.290   0.432  -0.018  0.00  0.00    -0.268 OA
ENDBRANCH   1   9
TORSDOF 1
