REMARK  7 active torsions:
REMARK  status: ('A' for Active; 'I' for Inactive)
REMARK    1  A    between atoms: C_11  and  N_1 
REMARK    2  A    between atoms: C_13  and  C_2 
REMARK    3  A    between atoms: N_4  and  C_8 
REMARK    4  A    between atoms: C_9  and  O_14 
REMARK    5  A    between atoms: C_16  and  C_9 
REMARK    6  A    between atoms: C_21  and  C_11 
REMARK    7  A    between atoms: O_14  and  C_13 
ROOT
ATOM      1  N   UNL d   1       1.491   1.092   0.006  0.00  0.00    -0.351 N 
ATOM      2  C   UNL d   1       1.637  -1.144   0.100  0.00  0.00    -0.006 A 
ATOM      3  C   UNL d   1       0.258  -0.772   0.027  0.00  0.00     0.003 A 
ATOM      4  C   UNL d   1       2.362   0.032   0.101  0.00  0.00     0.102 A 
ATOM      5  C   UNL d   1       0.192   0.624  -0.072  0.00  0.00     0.045 A 
ATOM      6  C   UNL d   1      -0.942  -1.515   0.026  0.00  0.00     0.050 A 
ATOM      7  C   UNL d   1      -2.165  -0.839  -0.076  0.00  0.00     0.103 A 
ATOM      8  C   UNL d   1      -1.032   1.301  -0.219  0.00  0.00     0.033 A 
ATOM      9  C   UNL d   1      -2.212   0.550  -0.218  0.00  0.00     0.038 A 
ENDROOT
BRANCH   2  10
ATOM     10  C   UNL d   1       2.186  -2.538   0.125  0.00  0.00     0.220 C 
BRANCH  10  11
ATOM     11  O   UNL d   1       1.755  -3.263   1.291  0.00  0.00    -0.313 OA
BRANCH  11  12
ATOM     12  C   UNL d   1       1.123  -4.439   1.056  0.00  0.00     0.293 C 
ATOM     13  O   UNL d   1       0.866  -4.910  -0.038  0.00  0.00    -0.259 OA
BRANCH  12  14
ATOM     14  C   UNL d   1       0.745  -5.106   2.333  0.00  0.00     0.039 A 
ATOM     15  C   UNL d   1      -0.029  -6.273   2.266  0.00  0.00     0.018 A 
ATOM     16  C   UNL d   1      -0.440  -6.920   3.435  0.00  0.00     0.007 A 
ATOM     17  C   UNL d   1      -0.079  -6.413   4.689  0.00  0.00    -0.062 A 
ATOM     18  C   UNL d   1       0.712  -5.259   4.755  0.00  0.00     0.007 A 
ATOM     19  C   UNL d   1      -0.583  -7.076   5.938  0.00  0.00     0.048 C 
ATOM     20  C   UNL d   1       1.123  -4.609   3.586  0.00  0.00     0.018 A 
ENDBRANCH  12  14
ENDBRANCH  11  12
ENDBRANCH  10  11
ENDBRANCH   2  10
BRANCH   1  21
ATOM     21  C   UNL d   1       1.903   2.494   0.070  0.00  0.00     0.167 C 
BRANCH  21  22
ATOM     22  C   UNL d   1       2.253   3.039  -1.292  0.00  0.00    -0.040 A 
ATOM     23  C   UNL d   1       1.301   3.735  -2.051  0.00  0.00     0.009 A 
ATOM     24  C   UNL d   1       1.603   4.171  -3.342  0.00  0.00     0.001 A 
ATOM     25  C   UNL d   1       2.861   3.925  -3.886  0.00  0.00     0.000 A 
ATOM     26  C   UNL d   1       3.828   3.265  -3.131  0.00  0.00     0.001 A 
ATOM     27  C   UNL d   1       3.528   2.827  -1.840  0.00  0.00     0.009 A 
ENDBRANCH  21  22
ENDBRANCH   1  21
BRANCH   7  28
ATOM     28  N   UNL d   1      -3.414  -1.609  -0.014  0.00  0.00    -0.116 N 
ATOM     29  O   UNL d   1      -3.337  -2.833   0.152  0.00  0.00    -0.532 OA
ATOM     30  O   UNL d   1      -4.481  -0.982  -0.120  0.00  0.00    -0.532 OA
ENDBRANCH   7  28
TORSDOF 7
