REMARK  5 active torsions:
REMARK  status: ('A' for Active; 'I' for Inactive)
REMARK    1  A    between atoms: N_2  and  C_10 
REMARK    2  A    between atoms: C_7  and  C_5 
REMARK    3  A    between atoms: S_18  and  C_6 
REMARK    4  A    between atoms: N_14  and  C_8 
REMARK    5  A    between atoms: C_17  and  N_14 
ROOT
ATOM      1  C   UNL d   1       0.592   0.074  -0.011  0.00  0.00     0.093 A 
ATOM      2  N   UNL d   1      -1.560  -1.011   0.013  0.00  0.00    -0.336 N 
ATOM      3  HN  UNL d   1      -2.108  -1.871   0.035  1.00  0.00     0.168 HD
ATOM      4  C   UNL d   1      -0.054   1.322  -0.015  0.00  0.00     0.074 A 
ATOM      5  C   UNL d   1      -0.207  -1.072   0.006  0.00  0.00     0.092 A 
ATOM      6  C   UNL d   1      -2.184   0.181  -0.010  0.00  0.00     0.107 A 
ATOM      7  C   UNL d   1       2.019  -0.038  -0.034  0.00  0.00     0.103 C 
ATOM      8  N   UNL d   1       3.178  -0.111  -0.056  0.00  0.00    -0.191 NA
ATOM      9  C   UNL d   1      -1.461   1.359  -0.025  0.00  0.00     0.066 A 
ENDROOT
BRANCH   4  10
ATOM     10  C   UNL d   1       0.660   2.649   0.002  0.00  0.00     0.419 C 
ATOM     11  F   UNL d   1       2.012   2.590   0.015  0.00  0.00    -0.166 F 
ATOM     12  F   UNL d   1       0.328   3.406  -1.080  0.00  0.00    -0.166 F 
ATOM     13  F   UNL d   1       0.309   3.390   1.090  0.00  0.00    -0.166 F 
ENDBRANCH   4  10
BRANCH   5  14
ATOM     14  S   UNL d   1       0.492  -2.725   0.012  0.00  0.00    -0.115 SA
ATOM     15  C   UNL d   1      -1.004  -3.751   0.075  0.00  0.00     0.097 C 
ENDBRANCH   5  14
BRANCH   6  16
ATOM     16  N   UNL d   1      -3.594   0.242   0.017  0.00  0.00    -0.342 N 
ATOM     17  H   UNL d   1      -3.950   0.775  -0.768  0.00  0.00     0.167 HD
BRANCH  16  18
ATOM     18  C   UNL d   1      -4.421  -0.840   0.387  0.00  0.00     0.035 A 
ATOM     19  C   UNL d   1      -4.106  -1.620   1.508  0.00  0.00     0.065 A 
ATOM     20  C   UNL d   1      -4.879  -2.737   1.834  0.00  0.00     0.105 A 
ATOM     21  C   UNL d   1      -5.997  -3.075   1.064  0.00  0.00     0.036 A 
ATOM     22  C   UNL d   1      -6.336  -2.281  -0.034  0.00  0.00     0.005 A 
ATOM     23  C   UNL d   1      -5.554  -1.169  -0.368  0.00  0.00     0.029 A 
BRANCH  20  24
ATOM     24  N   UNL d   1      -4.491  -3.570   2.977  0.00  0.00    -0.116 N 
ATOM     25  O   UNL d   1      -3.471  -3.250   3.607  0.00  0.00    -0.532 OA
ATOM     26  O   UNL d   1      -5.200  -4.550   3.240  0.00  0.00    -0.532 OA
ENDBRANCH  20  24
ENDBRANCH  16  18
ENDBRANCH   6  16
TORSDOF 5
