REMARK  3 active torsions:
REMARK  status: ('A' for Active; 'I' for Inactive)
REMARK    1  A    between atoms: N_15  and  C_8 
REMARK    2  A    between atoms: N_13  and  N_15 
REMARK    3  A    between atoms: C_17  and  C_16 
ROOT
ATOM      1  C   UNL d   1       1.285  -0.811   0.015  0.00  0.00     0.150 A 
ATOM      2  C   UNL d   1       0.838   0.496   0.010  0.00  0.00     0.105 A 
ATOM      3  N   UNL d   1       2.569  -1.212   0.038  0.00  0.00    -0.172 N 
ATOM      4  HN  UNL d   1       2.867  -2.188   0.038  1.00  0.00     0.186 HD
ATOM      5  N   UNL d   1       0.185  -1.621  -0.000  0.00  0.00    -0.339 N 
ATOM      6  N   UNL d   1       1.729   1.511   0.022  0.00  0.00    -0.282 N 
ATOM      7  HN  UNL d   1       1.437   2.489   0.010  1.00  0.00     0.187 HD
ATOM      8  C   UNL d   1       3.417  -0.154   0.062  0.00  0.00     0.713 A 
ATOM      9  C   UNL d   1      -0.581   0.482  -0.001  0.00  0.00     0.022 A 
ATOM     10  C   UNL d   1      -0.971  -0.862  -0.004  0.00  0.00     0.046 A 
ATOM     11  N   UNL d   1       3.021   1.154   0.050  0.00  0.00    -0.130 N 
ATOM     12  HN  UNL d   1       3.734   1.883   0.062  1.00  0.00     0.205 HD
ATOM     13  C   UNL d   1      -1.577   1.479  -0.004  0.00  0.00     0.016 A 
ATOM     14  C   UNL d   1      -2.316  -1.252  -0.010  0.00  0.00     0.030 A 
ATOM     15  C   UNL d   1      -2.925   1.102  -0.009  0.00  0.00     0.001 A 
ATOM     16  C   UNL d   1      -3.286  -0.245  -0.011  0.00  0.00     0.002 A 
ATOM     17  H   UNL d   1       0.222  -2.629   0.000  0.00  0.00     0.167 HD
ENDROOT
BRANCH   8  18
ATOM     18  N   UNL d   1       4.786  -0.468   0.121  0.00  0.00    -0.131 N 
ATOM     19  H   UNL d   1       4.974  -1.461   0.072  0.00  0.00     0.205 HD
BRANCH  18  20
ATOM     20  N   UNL d   1       5.720   0.510   0.081  0.00  0.00    -0.297 N 
ATOM     21  C   UNL d   1       6.956   0.132   0.105  0.00  0.00     0.119 C 
ATOM     22  HN  UNL d   1       5.462   1.496   0.034  1.00  0.00     0.186 HD
BRANCH  21  23
ATOM     23  C   UNL d   1       8.054   1.124   0.037  0.00  0.00    -0.019 A 
ATOM     24  C   UNL d   1       7.765   2.495  -0.015  0.00  0.00     0.016 A 
ATOM     25  C   UNL d   1       8.799   3.421  -0.158  0.00  0.00     0.043 A 
ATOM     26  C   UNL d   1      10.112   2.972  -0.245  0.00  0.00     0.116 A 
ATOM     27  C   UNL d   1      10.412   1.615  -0.168  0.00  0.00     0.043 A 
ATOM     28  F   UNL d   1      11.102   3.858  -0.415  0.00  0.00    -0.206 F 
ATOM     29  C   UNL d   1       9.381   0.682  -0.019  0.00  0.00     0.016 A 
ENDBRANCH  21  23
ENDBRANCH  18  20
ENDBRANCH   8  18
TORSDOF 3
