REMARK  3 active torsions:
REMARK  status: ('A' for Active; 'I' for Inactive)
REMARK       I    between atoms: N_2  and  C_1 
REMARK    1  A    between atoms: C_4  and  C_1 
REMARK    2  A    between atoms: C_3  and  C_7 
REMARK    3  A    between atoms: C_10  and  C_3 
ROOT
ATOM      1  C   UNL d   1       0.824  -0.138   0.056  0.00  0.00     0.253 C 
ATOM      2  N   UNL d   1       0.160  -0.712  -1.026  0.00  0.00    -0.348 N 
ATOM      3  C   UNL d   1      -0.890  -0.104  -1.839  0.00  0.00     0.127 C 
ATOM      4  C   UNL d   1       0.608  -2.006  -1.531  0.00  0.00     0.127 C 
ATOM      5  C   UNL d   1      -1.808  -2.455  -2.249  0.00  0.00     0.064 C 
ATOM      6  O   UNL d   1       1.832  -0.638   0.555  0.00  0.00    -0.267 OA
ATOM      7  C   UNL d   1      -2.124  -1.007  -1.821  0.00  0.00     0.032 C 
ATOM      8  C   UNL d   1      -0.556  -2.999  -1.540  0.00  0.00     0.032 C 
ENDROOT
BRANCH   1   9
ATOM      9  C   UNL d   1       0.331   1.125   0.674  0.00  0.00     0.032 A 
ATOM     10  C   UNL d   1      -1.025   1.358   0.930  0.00  0.00     0.018 A 
ATOM     11  C   UNL d   1      -1.438   2.562   1.509  0.00  0.00     0.025 A 
ATOM     12  C   UNL d   1      -0.489   3.508   1.892  0.00  0.00     0.034 A 
ATOM     13  C   UNL d   1       0.869   3.258   1.706  0.00  0.00     0.025 A 
ATOM     14 CL   UNL d   1      -0.999   4.983   2.614  0.00  0.00    -0.084 Cl
ATOM     15  C   UNL d   1       1.279   2.068   1.097  0.00  0.00     0.018 A 
ENDBRANCH   1   9
BRANCH   5  16
ATOM     16  C   UNL d   1      -1.671  -2.549  -3.768  0.00  0.00     0.163 C 
ATOM     17  O   UNL d   1      -1.286  -1.591  -4.436  0.00  0.00    -0.292 OA
BRANCH  16  18
ATOM     18  C   UNL d   1      -2.012  -3.819  -4.486  0.00  0.00     0.010 A 
ATOM     19  C   UNL d   1      -2.373  -5.000  -3.826  0.00  0.00     0.015 A 
ATOM     20  C   UNL d   1      -2.690  -6.145  -4.566  0.00  0.00     0.001 A 
ATOM     21  C   UNL d   1      -2.647  -6.118  -5.959  0.00  0.00     0.000 A 
ATOM     22  C   UNL d   1      -2.284  -4.948  -6.622  0.00  0.00     0.001 A 
ATOM     23  C   UNL d   1      -1.969  -3.804  -5.888  0.00  0.00     0.015 A 
ENDBRANCH  16  18
ENDBRANCH   5  16
TORSDOF 3
