REMARK  5 active torsions:
REMARK  status: ('A' for Active; 'I' for Inactive)
REMARK    1  A    between atoms: S_13  and  C_2 
REMARK    2  A    between atoms: C_20  and  C_4 
REMARK    3  A    between atoms: N_9  and  C_6 
REMARK    4  A    between atoms: C_10  and  C_15 
REMARK    5  A    between atoms: C_11  and  S_13 
ROOT
ATOM      1  C   UNL d   1       0.483  -0.213   0.121  0.00  0.00     0.135 A 
ATOM      2  C   UNL d   1      -2.225  -0.117  -0.132  0.00  0.00     0.152 A 
ATOM      3  N   UNL d   1      -1.551   1.044   0.059  0.00  0.00    -0.302 N 
ATOM      4  C   UNL d   1      -0.274  -1.310  -0.122  0.00  0.00     0.042 A 
ATOM      5  C   UNL d   1      -0.203   1.088   0.211  0.00  0.00     0.270 A 
ATOM      6  N   UNL d   1      -1.659  -1.277  -0.232  0.00  0.00    -0.338 N 
ATOM      7  HN  UNL d   1      -2.203  -2.126  -0.385  1.00  0.00     0.168 HD
ATOM      8  C   UNL d   1       1.894  -0.224   0.261  0.00  0.00     0.107 C 
ATOM      9  N   UNL d   1       3.049  -0.295   0.369  0.00  0.00    -0.191 NA
ATOM     10  O   UNL d   1       0.393   2.141   0.408  0.00  0.00    -0.266 OA
ATOM     11  H   UNL d   1      -2.053   1.923   0.148  0.00  0.00     0.171 HD
ENDROOT
BRANCH   4  12
ATOM     12  C   UNL d   1       0.415  -2.670  -0.296  0.00  0.00     0.037 C 
ATOM     13  C   UNL d   1      -0.398  -3.947  -0.019  0.00  0.00     0.011 C 
ATOM     14  C   UNL d   1       0.548  -5.160  -0.019  0.00  0.00     0.001 C 
ATOM     15  C   UNL d   1       1.394  -5.270  -1.291  0.00  0.00     0.000 C 
ATOM     16  C   UNL d   1       2.041  -3.952  -1.707  0.00  0.00     0.001 C 
ATOM     17  C   UNL d   1       1.040  -2.800  -1.698  0.00  0.00     0.011 C 
ENDBRANCH   4  12
BRANCH   2  18
ATOM     18  S   UNL d   1      -3.947   0.121  -0.281  0.00  0.00    -0.052 SA
BRANCH  18  19
ATOM     19  C   UNL d   1      -4.477   0.119   1.430  0.00  0.00     0.041 A 
ATOM     20  C   UNL d   1      -4.609   1.242   2.268  0.00  0.00     0.120 A 
ATOM     21  C   UNL d   1      -5.060   1.130   3.597  0.00  0.00     0.053 A 
ATOM     22  C   UNL d   1      -5.421  -0.122   4.114  0.00  0.00     0.050 A 
ATOM     23  C   UNL d   1      -5.351  -1.237   3.267  0.00  0.00     0.017 A 
ATOM     24  C   UNL d   1      -4.884  -1.118   1.951  0.00  0.00     0.022 A 
BRANCH  20  25
ATOM     25  N   UNL d   1      -4.315   2.585   1.794  0.00  0.00    -0.114 N 
ATOM     26  O   UNL d   1      -3.201   2.784   1.293  0.00  0.00    -0.532 OA
ATOM     27  O   UNL d   1      -5.188   3.445   1.963  0.00  0.00    -0.532 OA
ENDBRANCH  20  25
BRANCH  22  28
ATOM     28  C   UNL d   1      -5.882  -0.285   5.545  0.00  0.00     0.417 C 
ATOM     29  F   UNL d   1      -5.839   0.872   6.260  0.00  0.00    -0.166 F 
ATOM     30  F   UNL d   1      -7.161  -0.738   5.632  0.00  0.00    -0.166 F 
ATOM     31  F   UNL d   1      -5.115  -1.177   6.229  0.00  0.00    -0.166 F 
ENDBRANCH  22  28
ENDBRANCH  18  19
ENDBRANCH   2  18
TORSDOF 5
