REMARK  11 active torsions:
REMARK  status: ('A' for Active; 'I' for Inactive)
REMARK    1  A    between atoms: N_4  and  C_1 
REMARK       I    between atoms: C_8  and  N_4 
REMARK    2  A    between atoms: C_13  and  C_8 
REMARK    3  A    between atoms: C_14  and  C_13 
REMARK    4  A    between atoms: C_21  and  C_14 
REMARK    5  A    between atoms: C_15  and  C_16 
REMARK    6  A    between atoms: C_16  and  C_20 
REMARK    7  A    between atoms: C_17  and  C_22 
REMARK    8  A    between atoms: C_18  and  C_17 
REMARK    9  A    between atoms: C_19  and  C_18 
REMARK   10  A    between atoms: C_20  and  C_19 
REMARK   11  A    between atoms: C_22  and  C_21 
ROOT
ATOM      1  N   UNL d   1       3.821   1.137   1.103  0.00  0.00    -0.326 N 
ATOM      2  C   UNL d   1       5.164   0.808   1.150  0.00  0.00     0.222 C 
ATOM      3  O   UNL d   1       5.625  -0.329   1.085  0.00  0.00    -0.273 OA
ATOM      4  H   UNL d   1       3.569   2.111   0.957  0.00  0.00     0.169 HD
ENDROOT
BRANCH   2   5
ATOM      5  C   UNL d   1       6.111   1.978   1.275  0.00  0.00     0.103 C 
BRANCH   5   6
ATOM      6  C   UNL d   1       6.104   2.860   0.036  0.00  0.00     0.009 C 
BRANCH   6   7
ATOM      7  C   UNL d   1       7.207   3.918   0.069  0.00  0.00     0.000 C 
BRANCH   7   8
ATOM      8  C   UNL d   1       8.609   3.313   0.060  0.00  0.00     0.000 C 
BRANCH   8   9
ATOM      9  C   UNL d   1       9.668   4.405   0.075  0.00  0.00     0.000 C 
BRANCH   9  10
ATOM     10  C   UNL d   1      11.063   3.793   0.091  0.00  0.00     0.000 C 
BRANCH  10  11
ATOM     11  C   UNL d   1      12.116   4.891   0.119  0.00  0.00     0.000 C 
BRANCH  11  12
ATOM     12  C   UNL d   1      13.518   4.296   0.126  0.00  0.00     0.000 C 
BRANCH  12  13
ATOM     13  C   UNL d   1      14.564   5.404   0.149  0.00  0.00    -0.000 C 
BRANCH  13  14
ATOM     14  C   UNL d   1      15.973   4.822   0.152  0.00  0.00    -0.005 C 
ATOM     15  C   UNL d   1      17.014   5.926   0.175  0.00  0.00     0.005 C 
ENDBRANCH  13  14
ENDBRANCH  12  13
ENDBRANCH  11  12
ENDBRANCH  10  11
ENDBRANCH   9  10
ENDBRANCH   8   9
ENDBRANCH   7   8
ENDBRANCH   6   7
ENDBRANCH   5   6
ENDBRANCH   2   5
BRANCH   1  16
ATOM     16  C   UNL d   1       2.761   0.196   1.023  0.00  0.00     0.058 A 
ATOM     17  C   UNL d   1       2.947  -1.145   1.378  0.00  0.00     0.057 A 
ATOM     18  C   UNL d   1       1.925  -2.082   1.248  0.00  0.00     0.058 A 
ATOM     19 CL   UNL d   1       2.278  -3.721   1.676  0.00  0.00    -0.082 Cl
ATOM     20  C   UNL d   1       0.668  -1.678   0.781  0.00  0.00     0.057 A 
ATOM     21  C   UNL d   1       0.451  -0.339   0.458  0.00  0.00     0.051 A 
ATOM     22 CL   UNL d   1      -0.638  -2.788   0.588  0.00  0.00    -0.082 Cl
ATOM     23  C   UNL d   1       1.486   0.597   0.584  0.00  0.00     0.062 A 
ATOM     24 CL   UNL d   1       1.167   2.233   0.132  0.00  0.00    -0.082 Cl
ENDBRANCH   1  16
TORSDOF 11
