REMARK  6 active torsions:
REMARK  status: ('A' for Active; 'I' for Inactive)
REMARK    1  A    between atoms: N_6  and  C_1 
REMARK       I    between atoms: C_8  and  N_7 
REMARK    2  A    between atoms: C_20  and  C_8 
REMARK    3  A    between atoms: C_9  and  C_23 
REMARK    4  A    between atoms: O_19  and  C_9 
REMARK    5  A    between atoms: O_16  and  C_20 
REMARK    6  A    between atoms: C_23  and  O_16 
ROOT
ATOM      1  N   UNL d   1      -0.085   2.606   1.024  0.00  0.00     0.105 N 
ATOM      2  N   UNL d   1      -2.252   2.271   3.028  0.00  0.00    -0.347 N 
ATOM      3  C   UNL d   1      -3.375   2.002   3.814  0.00  0.00     0.243 C 
ATOM      4  C   UNL d   1       0.121   1.945   2.322  0.00  0.00     0.293 C 
ATOM      5  C   UNL d   1      -1.193   3.564   1.116  0.00  0.00     0.293 C 
ATOM      6  C   UNL d   1      -1.134   1.327   2.951  0.00  0.00     0.156 C 
ATOM      7  C   UNL d   1      -2.475   3.103   1.846  0.00  0.00     0.156 C 
ATOM      8  O   UNL d   1      -4.489   2.466   3.558  0.00  0.00    -0.271 OA
ENDROOT
BRANCH   1   9
ATOM      9  C   UNL d   1      -0.046   1.758  -0.183  0.00  0.00     0.290 C 
ATOM     10  C   UNL d   1      -1.092   0.649  -0.283  0.00  0.00    -0.009 C 
ATOM     11  C   UNL d   1      -0.478  -0.616  -0.151  0.00  0.00    -0.017 C 
ATOM     12  C   UNL d   1      -2.456   0.749  -0.501  0.00  0.00     0.010 C 
ATOM     13  C   UNL d   1      -1.247  -1.766  -0.055  0.00  0.00     0.013 C 
ATOM     14  C   UNL d   1       0.958  -0.443  -0.164  0.00  0.00    -0.017 A 
ATOM     15  C   UNL d   1      -2.636  -1.648  -0.143  0.00  0.00     0.001 C 
ATOM     16  C   UNL d   1      -3.234  -0.404  -0.394  0.00  0.00     0.001 C 
ATOM     17  C   UNL d   1       1.249   0.938  -0.233  0.00  0.00    -0.009 A 
ATOM     18  C   UNL d   1       1.980  -1.377  -0.150  0.00  0.00     0.013 A 
ATOM     19  C   UNL d   1       2.558   1.398  -0.280  0.00  0.00     0.010 A 
ATOM     20  C   UNL d   1       3.587   0.457  -0.260  0.00  0.00     0.001 A 
ATOM     21  C   UNL d   1       3.301  -0.919  -0.197  0.00  0.00     0.001 A 
ENDBRANCH   1   9
BRANCH   3  22
ATOM     22  C   UNL d   1      -3.171   1.121   5.048  0.00  0.00     0.271 C 
BRANCH  22  23
ATOM     23  O   UNL d   1      -2.208   1.727   5.910  0.00  0.00    -0.372 OA
BRANCH  23  24
ATOM     24  C   UNL d   1      -1.994   0.952   7.094  0.00  0.00     0.277 C 
BRANCH  24  25
ATOM     25  C   UNL d   1      -0.977   1.681   7.954  0.00  0.00     0.164 C 
ATOM     26  O   UNL d   1      -0.544   1.271   9.021  0.00  0.00    -0.648 OA
BRANCH  25  27
ATOM     27  O   UNL d   1      -0.585   2.861   7.400  0.00  0.00    -0.775 OA
ATOM     28  H   UNL d   1      -1.075   2.972   6.553  0.00  0.00     0.167 HD
ENDBRANCH  25  27
ENDBRANCH  24  25
ENDBRANCH  23  24
ENDBRANCH  22  23
ENDBRANCH   3  22
TORSDOF 6
