REMARK  7 active torsions:
REMARK  status: ('A' for Active; 'I' for Inactive)
REMARK    1  A    between atoms: C_7  and  C_2 
REMARK       I    between atoms: C_8  and  N_9 
REMARK    2  A    between atoms: C_20  and  C_8 
REMARK    3  A    between atoms: N_9  and  C_16 
REMARK    4  A    between atoms: C_10  and  C_21 
REMARK    5  A    between atoms: O_17  and  C_10 
REMARK    6  A    between atoms: S_15  and  C_20 
REMARK    7  A    between atoms: C_21  and  S_15 
ROOT
ATOM      1  C   UNL d   1       2.462  -1.635   0.043  0.00  0.00    -0.008 A 
ATOM      2  C   UNL d   1       2.635  -2.520  -1.029  0.00  0.00     0.016 A 
ATOM      3  C   UNL d   1       3.451  -1.589   1.030  0.00  0.00     0.016 A 
ATOM      4  C   UNL d   1       4.731  -3.324  -0.093  0.00  0.00     0.034 A 
ATOM      5  C   UNL d   1       4.572  -2.422   0.961  0.00  0.00     0.030 A 
ATOM      6  C   UNL d   1       3.768  -3.346  -1.105  0.00  0.00     0.030 A 
ENDROOT
BRANCH   4   7
ATOM      7  N   UNL d   1       5.829  -4.208  -0.184  0.00  0.00    -0.327 N 
ATOM      8  C   UNL d   1       6.712  -4.514   0.838  0.00  0.00     0.231 C 
ATOM      9  O   UNL d   1       6.649  -4.109   2.002  0.00  0.00    -0.272 OA
ATOM     10  H   UNL d   1       5.926  -4.714  -1.057  0.00  0.00     0.169 HD
BRANCH   8  11
ATOM     11  C   UNL d   1       7.877  -5.395   0.429  0.00  0.00     0.177 C 
BRANCH  11  12
ATOM     12  S   UNL d   1       9.329  -4.372   0.014  0.00  0.00    -0.149 SA
BRANCH  12  13
ATOM     13  C   UNL d   1       9.516  -3.364   1.528  0.00  0.00     0.184 C 
BRANCH  13  14
ATOM     14  C   UNL d   1       9.806  -4.194   2.759  0.00  0.00     0.149 C 
ATOM     15  O   UNL d   1      10.925  -4.569   3.078  0.00  0.00    -0.649 OA
BRANCH  14  16
ATOM     16  O   UNL d   1       8.714  -4.510   3.494  0.00  0.00    -0.776 OA
ATOM     17  H   UNL d   1       7.853  -4.195   3.122  0.00  0.00     0.167 HD
ENDBRANCH  14  16
ENDBRANCH  13  14
ENDBRANCH  12  13
ENDBRANCH  11  12
ENDBRANCH   8  11
ENDBRANCH   4   7
BRANCH   1  18
ATOM     18  C   UNL d   1       1.266  -0.807   0.139  0.00  0.00     0.063 A 
ATOM     19  N   UNL d   1       0.064  -1.204  -0.437  0.00  0.00    -0.292 N 
ATOM     20  N   UNL d   1      -0.907  -0.336  -0.204  0.00  0.00    -0.061 NA
ATOM     21  HN  UNL d   1      -0.055  -2.062  -0.975  1.00  0.00     0.183 HD
ATOM     22  S   UNL d   1      -0.402   0.982   0.691  0.00  0.00    -0.010 SA
ATOM     23  C   UNL d   1       1.212   0.410   0.800  0.00  0.00     0.096 A 
ENDBRANCH   1  18
TORSDOF 7
