REMARK  2 active torsions:
REMARK  status: ('A' for Active; 'I' for Inactive)
REMARK    1  A    between atoms: C_14  and  C_4 
REMARK    2  A    between atoms: C_11  and  C_7 
ROOT
ATOM      1  C   UNL d   1       0.071  -0.963   0.039  0.00  0.00     0.071 A 
ATOM      2  N   UNL d   1      -1.664   0.519   0.109  0.00  0.00    -0.256 N 
ATOM      3  HN  UNL d   1      -2.600   0.923   0.117  1.00  0.00     0.195 HD
ATOM      4  C   UNL d   1      -1.373  -0.749   0.101  0.00  0.00     0.081 A 
ATOM      5  C   UNL d   1       0.650   0.387   0.106  0.00  0.00     0.317 A 
ATOM      6  O   UNL d   1      -0.425   1.248   0.105  0.00  0.00    -0.194 OA
ATOM      7  C   UNL d   1       0.721  -2.123  -0.123  0.00  0.00     0.031 C 
ATOM      8  O   UNL d   1       1.825   0.707   0.123  0.00  0.00    -0.257 OA
ENDROOT
BRANCH   4   9
ATOM      9  C   UNL d   1      -2.388  -1.816   0.146  0.00  0.00    -0.006 A 
ATOM     10  C   UNL d   1      -3.607  -1.607  -0.509  0.00  0.00     0.014 A 
ATOM     11  C   UNL d   1      -4.567  -2.621  -0.538  0.00  0.00     0.001 A 
ATOM     12  C   UNL d   1      -4.315  -3.842   0.087  0.00  0.00     0.000 A 
ATOM     13  C   UNL d   1      -3.124  -4.036   0.783  0.00  0.00     0.001 A 
ATOM     14  C   UNL d   1      -2.174  -3.015   0.836  0.00  0.00     0.014 A 
ENDBRANCH   4   9
BRANCH   7  15
ATOM     15  C   UNL d   1       2.171  -2.300  -0.119  0.00  0.00    -0.032 A 
ATOM     16  C   UNL d   1       2.879  -2.306  -1.324  0.00  0.00     0.051 A 
ATOM     17  C   UNL d   1       4.238  -2.530  -1.262  0.00  0.00     0.105 A 
ATOM     18  O   UNL d   1       5.081  -2.575  -2.328  0.00  0.00    -0.323 OA
ATOM     19  C   UNL d   1       4.887  -2.750  -0.069  0.00  0.00     0.105 A 
ATOM     20  C   UNL d   1       6.344  -2.777  -1.661  0.00  0.00     0.352 A 
ATOM     21  O   UNL d   1       6.220  -2.958  -0.236  0.00  0.00    -0.323 OA
ATOM     22  C   UNL d   1       4.216  -2.755   1.133  0.00  0.00     0.040 A 
ATOM     23  C   UNL d   1       2.838  -2.523   1.106  0.00  0.00     0.014 A 
ENDBRANCH   7  15
TORSDOF 2
