REMARK  7 active torsions:
REMARK  status: ('A' for Active; 'I' for Inactive)
REMARK    1  A    between atoms: S_8  and  C_3 
REMARK    2  A    between atoms: C_10  and  C_4 
REMARK    3  A    between atoms: C_11  and  S_8 
REMARK    4  A    between atoms: S_9  and  C_10 
REMARK    5  A    between atoms: C_12  and  S_9 
REMARK    6  A    between atoms: O_23  and  C_13 
REMARK    7  A    between atoms: O_24  and  C_14 
ROOT
ATOM      1  N   UNL d   1       1.431  -0.690  -0.041  0.00  0.00    -0.332 N 
ATOM      2  HN  UNL d   1       2.352  -1.126   0.011  1.00  0.00     0.168 HD
ATOM      3  C   UNL d   1       0.283  -1.328  -0.088  0.00  0.00     0.134 A 
ATOM      4  C   UNL d   1       1.179   0.683  -0.074  0.00  0.00     0.098 A 
ATOM      5  N   UNL d   1      -0.091   1.109  -0.084  0.00  0.00    -0.313 N 
ATOM      6  HN  UNL d   1      -0.409   2.079  -0.078  1.00  0.00     0.175 HD
ATOM      7  S   UNL d   1      -1.054  -0.259  -0.108  0.00  0.00     0.013 SA
ENDROOT
BRANCH   4   8
ATOM      8  C   UNL d   1       2.301   1.681  -0.042  0.00  0.00     0.156 C 
BRANCH   8   9
ATOM      9  S   UNL d   1       3.763   1.107  -0.978  0.00  0.00    -0.122 SA
BRANCH   9  10
ATOM     10  C   UNL d   1       4.934   2.449  -0.836  0.00  0.00     0.001 A 
ATOM     11  C   UNL d   1       4.697   3.673  -0.200  0.00  0.00     0.021 A 
ATOM     12  C   UNL d   1       5.682   4.674  -0.184  0.00  0.00     0.038 A 
ATOM     13  C   UNL d   1       6.914   4.459  -0.799  0.00  0.00     0.068 A 
ATOM     14  C   UNL d   1       7.168   3.229  -1.403  0.00  0.00     0.038 A 
ATOM     15  C   UNL d   1       6.184   2.238  -1.427  0.00  0.00     0.021 A 
BRANCH  13  16
ATOM     16  O   UNL d   1       7.949   5.352  -0.836  0.00  0.00    -0.356 OA
ATOM     17  C   UNL d   1       7.576   6.725  -0.819  0.00  0.00     0.210 C 
ENDBRANCH  13  16
ENDBRANCH   9  10
ENDBRANCH   8   9
ENDBRANCH   4   8
BRANCH   3  18
ATOM     18  S   UNL d   1       0.172  -3.064  -0.026  0.00  0.00    -0.064 SA
BRANCH  18  19
ATOM     19  C   UNL d   1       0.103  -3.428  -1.772  0.00  0.00     0.007 A 
ATOM     20  C   UNL d   1       1.125  -3.058  -2.655  0.00  0.00     0.021 A 
ATOM     21  C   UNL d   1       1.077  -3.444  -4.005  0.00  0.00     0.038 A 
ATOM     22  C   UNL d   1       0.009  -4.206  -4.477  0.00  0.00     0.068 A 
ATOM     23  C   UNL d   1      -1.003  -4.586  -3.596  0.00  0.00     0.038 A 
ATOM     24  C   UNL d   1      -0.963  -4.197  -2.254  0.00  0.00     0.021 A 
BRANCH  22  25
ATOM     25  O   UNL d   1      -0.129  -4.686  -5.751  0.00  0.00    -0.356 OA
ATOM     26  C   UNL d   1       0.527  -3.949  -6.774  0.00  0.00     0.210 C 
ENDBRANCH  22  25
ENDBRANCH  18  19
ENDBRANCH   3  18
TORSDOF 7
