REMARK  8 active torsions:
REMARK  status: ('A' for Active; 'I' for Inactive)
REMARK    1  A    between atoms: C_9  and  C_1 
REMARK    2  A    between atoms: N_7  and  C_2 
REMARK    3  A    between atoms: C_18  and  C_5 
REMARK    4  A    between atoms: O_22  and  C_9 
REMARK    5  A    between atoms: C_21  and  N_13 
REMARK    6  A    between atoms: O_23  and  C_15 
REMARK    7  A    between atoms: O_24  and  C_17 
REMARK    8  A    between atoms: C_27  and  O_22 
ROOT
ATOM      1  C   UNL d   1       1.690   1.774  -0.170  0.00  0.00     0.097 A 
ATOM      2  C   UNL d   1       3.024   1.252  -0.159  0.00  0.00     0.094 A 
ATOM      3  C   UNL d   1       0.837   0.696   0.048  0.00  0.00     0.064 A 
ATOM      4  N   UNL d   1       1.655  -0.432   0.157  0.00  0.00    -0.342 N 
ATOM      5  C   UNL d   1       3.006  -0.107   0.134  0.00  0.00     0.074 A 
ATOM      6  C   UNL d   1      -0.639   0.530   0.099  0.00  0.00     0.001 A 
ATOM      7  C   UNL d   1      -1.161  -0.737  -0.206  0.00  0.00    -0.041 A 
ATOM      8  C   UNL d   1      -1.545   1.534   0.485  0.00  0.00     0.054 A 
ATOM      9  C   UNL d   1       1.072  -1.762   0.271  0.00  0.00     0.134 C 
ATOM     10  C   UNL d   1      -2.943   1.297   0.522  0.00  0.00     0.102 A 
ATOM     11  C   UNL d   1      -2.541  -0.947  -0.229  0.00  0.00     0.047 A 
ATOM     12  C   UNL d   1      -3.451   0.050   0.139  0.00  0.00     0.102 A 
ATOM     13  C   UNL d   1      -0.234  -1.891  -0.505  0.00  0.00     0.060 C 
ENDROOT
BRANCH   2  14
ATOM     14  N   UNL d   1       4.183   2.013  -0.417  0.00  0.00    -0.297 N 
ATOM     15  N   UNL d   1       4.153   2.505  -1.569  0.00  0.00    -0.300 N 
ATOM     16  HN  UNL d   1       3.380   2.359  -2.218  1.00  0.00     0.187 HD
ATOM     17  HN  UNL d   1       4.946   2.146   0.247  1.00  0.00     0.187 HD
BRANCH  15  18
ATOM     18  C   UNL d   1       5.290   3.280  -1.887  0.00  0.00     0.048 A 
ATOM     19  C   UNL d   1       6.587   2.971  -1.454  0.00  0.00     0.031 A 
ATOM     20  C   UNL d   1       7.687   3.724  -1.888  0.00  0.00     0.002 A 
ATOM     21  C   UNL d   1       7.505   4.794  -2.759  0.00  0.00     0.000 A 
ATOM     22  C   UNL d   1       6.223   5.124  -3.192  0.00  0.00     0.002 A 
ATOM     23  C   UNL d   1       5.127   4.369  -2.758  0.00  0.00     0.031 A 
ENDBRANCH  15  18
ENDBRANCH   2  14
BRANCH   1  24
ATOM     24  C   UNL d   1       1.347   3.160  -0.445  0.00  0.00     0.298 C 
ATOM     25  O   UNL d   1       2.011   4.109  -0.055  0.00  0.00    -0.259 OA
BRANCH  24  26
ATOM     26  O   UNL d   1       0.263   3.271  -1.265  0.00  0.00    -0.318 OA
BRANCH  26  27
ATOM     27  C   UNL d   1       0.091   4.547  -1.890  0.00  0.00     0.174 C 
ATOM     28  C   UNL d   1       0.675   4.463  -3.288  0.00  0.00     0.034 C 
ENDBRANCH  26  27
ENDBRANCH  24  26
ENDBRANCH   1  24
BRANCH   5  29
ATOM     29  C   UNL d   1       4.117  -1.075   0.303  0.00  0.00    -0.007 A 
ATOM     30  C   UNL d   1       4.035  -2.134   1.224  0.00  0.00     0.014 A 
ATOM     31  C   UNL d   1       5.054  -3.087   1.340  0.00  0.00     0.001 A 
ATOM     32  C   UNL d   1       6.209  -2.966   0.577  0.00  0.00     0.000 A 
ATOM     33  C   UNL d   1       6.339  -1.895  -0.303  0.00  0.00     0.001 A 
ATOM     34  C   UNL d   1       5.297  -0.969  -0.448  0.00  0.00     0.014 A 
ENDBRANCH   5  29
BRANCH  10  35
ATOM     35  O   UNL d   1      -3.695   2.252   1.162  0.00  0.00    -0.353 OA
ATOM     36  C   UNL d   1      -4.419   3.122   0.292  0.00  0.00     0.210 C 
ENDBRANCH  10  35
BRANCH  12  37
ATOM     37  O   UNL d   1      -4.722  -0.442   0.120  0.00  0.00    -0.353 OA
ATOM     38  C   UNL d   1      -5.833   0.384   0.393  0.00  0.00     0.210 C 
ENDBRANCH  12  37
TORSDOF 8
