REMARK  9 active torsions:
REMARK  status: ('A' for Active; 'I' for Inactive)
REMARK    1  A    between atoms: C_11  and  N_1 
REMARK    2  A    between atoms: S_10  and  C_2 
REMARK    3  A    between atoms: C_14  and  C_3 
REMARK    4  A    between atoms: C_20  and  S_10 
REMARK    5  A    between atoms: C_12  and  O_15 
REMARK    6  A    between atoms: C_13  and  C_20 
REMARK       I    between atoms: N_22  and  C_13 
REMARK    7  A    between atoms: O_15  and  C_14 
REMARK    8  A    between atoms: C_21  and  C_26 
REMARK    9  A    between atoms: C_26  and  N_22 
ROOT
ATOM      1  N   UNL d   1      -0.294  -1.349  -0.021  0.00  0.00    -0.277 N 
ATOM      2  C   UNL d   1       0.949  -0.723   0.037  0.00  0.00     0.168 A 
ATOM      3  C   UNL d   1      -1.198  -0.280  -0.035  0.00  0.00     0.129 A 
ATOM      4  N   UNL d   1       0.807   0.579   0.102  0.00  0.00    -0.278 N 
ATOM      5  HN  UNL d   1       1.562   1.263   0.169  1.00  0.00     0.189 HD
ATOM      6  N   UNL d   1      -0.526   0.857   0.064  0.00  0.00    -0.285 N 
ATOM      7  HN  UNL d   1      -0.939   1.788   0.105  1.00  0.00     0.188 HD
ENDROOT
BRANCH   3   8
ATOM      8  C   UNL d   1      -2.692  -0.352   0.062  0.00  0.00     0.254 C 
BRANCH   8   9
ATOM      9  O   UNL d   1      -3.243   0.090  -1.187  0.00  0.00    -0.343 OA
BRANCH   9  10
ATOM     10  C   UNL d   1      -4.606   0.240  -1.242  0.00  0.00     0.076 A 
ATOM     11  C   UNL d   1      -5.139   0.823  -2.392  0.00  0.00    -0.018 A 
ATOM     12  C   UNL d   1      -6.523   0.985  -2.561  0.00  0.00    -0.043 A 
ATOM     13  C   UNL d   1      -4.385   1.355  -3.570  0.00  0.00     0.042 A 
ATOM     14  C   UNL d   1      -6.853   1.629  -3.870  0.00  0.00     0.040 A 
ATOM     15  C   UNL d   1      -7.423   0.576  -1.584  0.00  0.00    -0.055 A 
ATOM     16  C   UNL d   1      -5.486   1.868  -4.516  0.00  0.00     0.009 A 
ATOM     17  C   UNL d   1      -6.897   0.007  -0.421  0.00  0.00     0.010 A 
ATOM     18  C   UNL d   1      -8.904   0.745  -1.760  0.00  0.00     0.049 C 
ATOM     19  C   UNL d   1      -5.508  -0.161  -0.251  0.00  0.00     0.038 A 
ENDBRANCH   9  10
ENDBRANCH   8   9
ENDBRANCH   3   8
BRANCH   1  20
ATOM     20  C   UNL d   1      -0.567  -2.751  -0.043  0.00  0.00     0.043 A 
ATOM     21  C   UNL d   1       0.251  -3.644   0.670  0.00  0.00     0.030 A 
ATOM     22  C   UNL d   1       0.068  -5.024   0.560  0.00  0.00     0.002 A 
ATOM     23  C   UNL d   1      -0.961  -5.526  -0.228  0.00  0.00     0.000 A 
ATOM     24  C   UNL d   1      -1.814  -4.647  -0.895  0.00  0.00     0.002 A 
ATOM     25  C   UNL d   1      -1.618  -3.264  -0.811  0.00  0.00     0.030 A 
ENDBRANCH   1  20
BRANCH   2  26
ATOM     26  S   UNL d   1       2.498  -1.504  -0.108  0.00  0.00    -0.083 SA
BRANCH  26  27
ATOM     27  C   UNL d   1       3.607  -0.354   0.751  0.00  0.00     0.185 C 
BRANCH  27  28
ATOM     28  C   UNL d   1       3.335  -0.310   2.246  0.00  0.00     0.227 C 
ATOM     29  O   UNL d   1       4.039  -0.906   3.056  0.00  0.00    -0.273 OA
ATOM     30  N   UNL d   1       2.254   0.461   2.610  0.00  0.00    -0.357 N 
ATOM     31  H   UNL d   1       1.726   0.949   1.889  0.00  0.00     0.162 HD
BRANCH  30  32
ATOM     32  C   UNL d   1       1.848   0.648   3.977  0.00  0.00     0.149 C 
BRANCH  32  33
ATOM     33  C   UNL d   1       2.316   2.002   4.400  0.00  0.00    -0.018 C 
ATOM     34  C   UNL d   1       1.513   3.009   4.764  0.00  0.00     0.008 C 
ENDBRANCH  32  33
ENDBRANCH  30  32
ENDBRANCH  27  28
ENDBRANCH  26  27
ENDBRANCH   2  26
TORSDOF 9
