REMARK  2 active torsions:
REMARK  status: ('A' for Active; 'I' for Inactive)
REMARK    1  A    between atoms: C_10  and  N_3 
REMARK    2  A    between atoms: N_12  and  C_10 
ROOT
ATOM      1  N   UNL d   1       0.682   0.328  -0.043  0.00  0.00    -0.251 N 
ATOM      2  C   UNL d   1       1.261  -0.911  -0.115  0.00  0.00     0.174 A 
ATOM      3  N   UNL d   1       3.411  -0.107  -0.059  0.00  0.00    -0.233 N 
ATOM      4  C   UNL d   1       1.469   1.456  -0.015  0.00  0.00     0.324 C 
ATOM      5  C   UNL d   1       2.967   1.196   0.197  0.00  0.00     0.332 C 
ATOM      6  N   UNL d   1       2.523  -1.166  -0.130  0.00  0.00    -0.272 N 
ATOM      7  HN  UNL d   1       2.860  -2.126  -0.194  1.00  0.00     0.189 HD
ATOM      8  S   UNL d   1       0.062  -2.191  -0.182  0.00  0.00    -0.050 SA
ATOM      9  C   UNL d   1      -0.735   0.304  -0.056  0.00  0.00     0.062 A 
ATOM     10  C   UNL d   1      -1.245  -0.999  -0.114  0.00  0.00     0.035 A 
ATOM     11  O   UNL d   1       3.678   2.116   0.585  0.00  0.00    -0.260 OA
ATOM     12  O   UNL d   1       1.084   2.612  -0.147  0.00  0.00    -0.261 OA
ATOM     13  C   UNL d   1      -1.607   1.383   0.006  0.00  0.00     0.031 A 
ATOM     14  C   UNL d   1      -2.607  -1.254  -0.108  0.00  0.00     0.021 A 
ATOM     15  C   UNL d   1      -2.985   1.139   0.009  0.00  0.00     0.002 A 
ATOM     16  C   UNL d   1      -3.482  -0.170  -0.046  0.00  0.00     0.002 A 
ENDROOT
BRANCH   3  17
ATOM     17  C   UNL d   1       4.796  -0.433   0.279  0.00  0.00     0.271 C 
BRANCH  17  18
ATOM     18  N   UNL d   1       5.507  -1.271  -0.673  0.00  0.00    -0.391 N 
ATOM     19  C   UNL d   1       4.954  -2.577  -1.018  0.00  0.00     0.145 C 
ATOM     20  C   UNL d   1       4.261  -2.610  -2.390  0.00  0.00     0.187 C 
ATOM     21  O   UNL d   1       5.147  -2.144  -3.416  0.00  0.00    -0.388 OA
ATOM     22  C   UNL d   1       5.513  -0.783  -3.160  0.00  0.00     0.187 C 
ATOM     23  C   UNL d   1       6.183  -0.611  -1.787  0.00  0.00     0.145 C 
ENDBRANCH  17  18
ENDBRANCH   3  17
TORSDOF 2
