REMARK  7 active torsions:
REMARK  status: ('A' for Active; 'I' for Inactive)
REMARK    1  A    between atoms: C_8  and  N_1 
REMARK    2  A    between atoms: S_9  and  C_2 
REMARK    3  A    between atoms: O_15  and  C_3 
REMARK    4  A    between atoms: C_13  and  C_8 
REMARK    5  A    between atoms: C_12  and  S_9 
REMARK    6  A    between atoms: C_10  and  C_12 
REMARK    7  A    between atoms: C_11  and  C_10 
ROOT
ATOM      1  N   UNL d   1      -0.153  -1.285  -0.097  0.00  0.00    -0.282 N 
ATOM      2  C   UNL d   1       1.124  -0.780  -0.101  0.00  0.00     0.165 A 
ATOM      3  C   UNL d   1      -0.953  -0.163   0.005  0.00  0.00     0.241 A 
ATOM      4  N   UNL d   1       1.092   0.526   0.050  0.00  0.00    -0.277 N 
ATOM      5  HN  UNL d   1       1.902   1.144   0.095  1.00  0.00     0.189 HD
ATOM      6  N   UNL d   1      -0.218   0.912   0.136  0.00  0.00    -0.263 N 
ATOM      7  HN  UNL d   1      -0.559   1.863   0.276  1.00  0.00     0.190 HD
ENDROOT
BRANCH   2   8
ATOM      8  S   UNL d   1       2.589  -1.681  -0.291  0.00  0.00    -0.085 SA
BRANCH   8   9
ATOM      9  C   UNL d   1       3.801  -0.326  -0.203  0.00  0.00     0.166 C 
BRANCH   9  10
ATOM     10  C   UNL d   1       5.222  -0.784  -0.487  0.00  0.00     0.169 C 
ATOM     11  O   UNL d   1       5.517  -1.913  -0.868  0.00  0.00    -0.291 OA
BRANCH  10  12
ATOM     12  C   UNL d   1       6.323   0.220  -0.302  0.00  0.00     0.011 A 
ATOM     13  C   UNL d   1       6.072   1.556   0.051  0.00  0.00     0.018 A 
ATOM     14  C   UNL d   1       7.133   2.449   0.225  0.00  0.00     0.043 A 
ATOM     15  C   UNL d   1       8.440   2.014   0.043  0.00  0.00     0.116 A 
ATOM     16  C   UNL d   1       8.709   0.699  -0.315  0.00  0.00     0.043 A 
ATOM     17  F   UNL d   1       9.452   2.873   0.215  0.00  0.00    -0.206 F 
ATOM     18  C   UNL d   1       7.652  -0.198  -0.489  0.00  0.00     0.018 A 
ENDBRANCH  10  12
ENDBRANCH   9  10
ENDBRANCH   8   9
ENDBRANCH   2   8
BRANCH   1  19
ATOM     19  C   UNL d   1      -0.659  -2.653  -0.026  0.00  0.00     0.124 C 
ATOM     20  C   UNL d   1       0.142  -3.648   0.819  0.00  0.00     0.038 C 
BRANCH  19  21
ATOM     21  C   UNL d   1      -1.010  -3.229  -1.391  0.00  0.00    -0.035 A 
ATOM     22  C   UNL d   1      -0.047  -3.408  -2.395  0.00  0.00     0.009 A 
ATOM     23  C   UNL d   1      -0.375  -4.034  -3.601  0.00  0.00     0.001 A 
ATOM     24  C   UNL d   1      -1.671  -4.491  -3.822  0.00  0.00     0.000 A 
ATOM     25  C   UNL d   1      -2.643  -4.314  -2.843  0.00  0.00     0.001 A 
ATOM     26  C   UNL d   1      -2.318  -3.687  -1.637  0.00  0.00     0.009 A 
ENDBRANCH  19  21
ENDBRANCH   1  19
BRANCH   3  27
ATOM     27  O   UNL d   1      -2.276  -0.141   0.014  0.00  0.00    -0.331 OA
ATOM     28  H   UNL d   1      -2.596  -0.862  -0.549  0.00  0.00     0.221 HD
ENDBRANCH   3  27
TORSDOF 7
