REMARK  4 active torsions:
REMARK  status: ('A' for Active; 'I' for Inactive)
REMARK    1  A    between atoms: C_11  and  C_1 
REMARK    2  A    between atoms: C_13  and  C_5 
REMARK       I    between atoms: N_16  and  C_11 
REMARK    3  A    between atoms: C_12  and  C_21 
REMARK    4  A    between atoms: C_21  and  N_16 
ROOT
ATOM      1  C   UNL d   1      -3.050  -0.793   0.069  0.00  0.00     0.270 C 
ATOM      2  N   UNL d   1      -3.588  -2.057   0.114  0.00  0.00    -0.350 N 
ATOM      3  O   UNL d   1      -1.839  -0.582   0.026  0.00  0.00    -0.266 OA
ATOM      4  H   UNL d   1      -4.599  -2.118   0.193  0.00  0.00     0.163 HD
ENDROOT
BRANCH   2   5
ATOM      5  C   UNL d   1      -2.787  -3.251   0.031  0.00  0.00     0.180 C 
BRANCH   5   6
ATOM      6  C   UNL d   1      -2.475  -3.775   1.397  0.00  0.00     0.034 A 
ATOM      7  N   UNL d   1      -3.350  -4.673   2.005  0.00  0.00    -0.351 N 
ATOM      8  C   UNL d   1      -2.882  -5.055   3.180  0.00  0.00     0.091 A 
ATOM      9  HN  UNL d   1      -4.230  -4.991   1.599  1.00  0.00     0.166 HD
ATOM     10  S   UNL d   1      -1.367  -4.357   3.611  0.00  0.00    -0.081 SA
ATOM     11  C   UNL d   1      -1.341  -3.494   2.136  0.00  0.00     0.078 A 
BRANCH   8  12
ATOM     12  C   UNL d   1      -3.600  -6.002   4.009  0.00  0.00     0.038 A 
ATOM     13  S   UNL d   1      -3.083  -6.486   5.577  0.00  0.00    -0.099 SA
ATOM     14  C   UNL d   1      -4.418  -7.529   5.787  0.00  0.00     0.050 A 
ATOM     15  C   UNL d   1      -5.253  -7.522   4.694  0.00  0.00     0.008 A 
ATOM     16  C   UNL d   1      -4.782  -6.644   3.674  0.00  0.00     0.022 A 
ENDBRANCH   8  12
ENDBRANCH   5   6
ENDBRANCH   2   5
BRANCH   1  17
ATOM     17  C   UNL d   1      -4.047   0.292   0.054  0.00  0.00     0.117 A 
ATOM     18  N   UNL d   1      -5.378   0.066   0.064  0.00  0.00    -0.294 N 
ATOM     19  N   UNL d   1      -5.926   1.299   0.028  0.00  0.00    -0.301 N 
ATOM     20  HN  UNL d   1      -5.860  -0.833   0.093  1.00  0.00     0.187 HD
ATOM     21  C   UNL d   1      -7.364   1.447   0.031  0.00  0.00     0.177 C 
ATOM     22  C   UNL d   1      -5.001   2.312  -0.006  0.00  0.00     0.026 A 
ATOM     23  C   UNL d   1      -3.776   1.684   0.005  0.00  0.00     0.063 A 
ATOM     24  C   UNL d   1      -5.351   3.753  -0.046  0.00  0.00     0.070 C 
ENDBRANCH   1  17
TORSDOF 4
