REMARK  1 active torsions:
REMARK  status: ('A' for Active; 'I' for Inactive)
REMARK    1  A    between atoms: C_12  and  C_4 
ROOT
ATOM      1  C   UNL d   1       0.005  -0.785   0.012  0.00  0.00     0.070 A 
ATOM      2  C   UNL d   1       1.291  -1.518   0.023  0.00  0.00     0.189 A 
ATOM      3  C   UNL d   1       2.517  -0.711   0.008  0.00  0.00     0.093 A 
ATOM      4  C   UNL d   1       2.423   0.622  -0.004  0.00  0.00     0.090 A 
ATOM      5  C   UNL d   1       0.063   0.617   0.004  0.00  0.00     0.093 A 
ATOM      6  O   UNL d   1       1.242   1.331  -0.005  0.00  0.00    -0.309 OA
ATOM      7  C   UNL d   1      -1.248  -1.418   0.011  0.00  0.00     0.052 A 
ATOM      8  C   UNL d   1      -1.109   1.378  -0.000  0.00  0.00     0.062 A 
ATOM      9  C   UNL d   1      -2.420  -0.650   0.004  0.00  0.00     0.049 A 
ATOM     10  C   UNL d   1      -2.345   0.739   0.000  0.00  0.00     0.038 A 
ATOM     11  O   UNL d   1       1.393  -2.736   0.044  0.00  0.00    -0.287 OA
ATOM     12 CL   UNL d   1      -1.473  -3.132   0.013  0.00  0.00    -0.083 Cl
ATOM     13 CL   UNL d   1      -3.792   1.668  -0.006  0.00  0.00    -0.084 Cl
ENDROOT
BRANCH   4  14
ATOM     14  C   UNL d   1       3.652   1.419  -0.028  0.00  0.00    -0.002 A 
ATOM     15  C   UNL d   1       4.221   1.798  -1.250  0.00  0.00     0.014 A 
ATOM     16  C   UNL d   1       5.470   2.423  -1.281  0.00  0.00     0.001 A 
ATOM     17  C   UNL d   1       6.153   2.678  -0.092  0.00  0.00     0.000 A 
ATOM     18  C   UNL d   1       5.581   2.326   1.130  0.00  0.00     0.001 A 
ATOM     19  C   UNL d   1       4.333   1.700   1.163  0.00  0.00     0.014 A 
ENDBRANCH   4  14
TORSDOF 1
