REMARK  5 active torsions:
REMARK  status: ('A' for Active; 'I' for Inactive)
REMARK    1  A    between atoms: N_2  and  S_1 
REMARK    2  A    between atoms: C_3  and  S_1 
REMARK    3  A    between atoms: C_14  and  N_4 
REMARK    4  A    between atoms: N_8  and  C_5 
REMARK    5  A    between atoms: O_27  and  C_22 
ROOT
ATOM      1  S   UNL d   1       1.064  -0.050  -0.298  0.00  0.00     0.245 S 
ATOM      2  O   UNL d   1       2.426  -0.083   0.198  0.00  0.00    -0.206 OA
ATOM      3  O   UNL d   1       0.789  -0.128  -1.714  0.00  0.00    -0.206 OA
ENDROOT
BRANCH   1   4
ATOM      4  N   UNL d   1       0.299   1.331   0.329  0.00  0.00    -0.203 NA
ATOM      5  C   UNL d   1      -0.820   1.899  -0.496  0.00  0.00     0.127 C 
ATOM      6  C   UNL d   1      -0.278   2.820  -1.613  0.00  0.00     0.138 C 
ATOM      7  N   UNL d   1       0.502   3.921  -0.996  0.00  0.00    -0.379 N 
ATOM      8  C   UNL d   1       1.664   3.411  -0.236  0.00  0.00     0.138 C 
ATOM      9  C   UNL d   1       1.178   2.433   0.864  0.00  0.00     0.127 C 
BRANCH   7  10
ATOM     10  C   UNL d   1       0.655   5.020  -1.847  0.00  0.00     0.030 A 
ATOM     11  C   UNL d   1       1.855   5.371  -2.471  0.00  0.00     0.032 A 
ATOM     12  C   UNL d   1       1.927   6.465  -3.353  0.00  0.00     0.039 A 
ATOM     13  C   UNL d   1       0.797   7.238  -3.616  0.00  0.00     0.068 A 
ATOM     14  C   UNL d   1      -0.404   6.906  -2.996  0.00  0.00     0.039 A 
ATOM     15  C   UNL d   1      -0.468   5.819  -2.119  0.00  0.00     0.032 A 
BRANCH  13  16
ATOM     16  O   UNL d   1       0.731   8.291  -4.486  0.00  0.00    -0.356 OA
ATOM     17  C   UNL d   1       1.946   8.997  -4.706  0.00  0.00     0.210 C 
ENDBRANCH  13  16
ENDBRANCH   7  10
ENDBRANCH   1   4
BRANCH   1  18
ATOM     18  C   UNL d   1       0.204  -1.388   0.479  0.00  0.00     0.090 A 
ATOM     19  C   UNL d   1       0.668  -1.888   1.681  0.00  0.00     0.114 A 
ATOM     20  N   UNL d   1       0.119  -2.955   2.314  0.00  0.00    -0.351 N 
ATOM     21  C   UNL d   1      -0.904  -3.617   1.731  0.00  0.00     0.103 A 
ATOM     22  HN  UNL d   1       0.475  -3.254   3.221  1.00  0.00     0.166 HD
ATOM     23  C   UNL d   1      -1.388  -3.191   0.490  0.00  0.00     0.050 A 
ATOM     24  C   UNL d   1      -0.839  -2.066  -0.142  0.00  0.00     0.030 A 
BRANCH  21  25
ATOM     25  N   UNL d   1      -1.498  -4.644   2.423  0.00  0.00    -0.363 N 
ATOM     26  C   UNL d   1      -2.052  -5.858   1.817  0.00  0.00     0.150 C 
ATOM     27  C   UNL d   1      -3.381  -6.183   2.524  0.00  0.00     0.187 C 
ATOM     28  O   UNL d   1      -3.207  -6.316   3.948  0.00  0.00    -0.388 OA
ATOM     29  C   UNL d   1      -2.642  -5.116   4.511  0.00  0.00     0.187 C 
ATOM     30  C   UNL d   1      -1.285  -4.770   3.869  0.00  0.00     0.150 C 
ENDBRANCH  21  25
ENDBRANCH   1  18
TORSDOF 5
