REMARK  6 active torsions:
REMARK  status: ('A' for Active; 'I' for Inactive)
REMARK    1  A    between atoms: N_2  and  S_1 
REMARK    2  A    between atoms: C_3  and  S_1 
REMARK    3  A    between atoms: C_8  and  N_2 
REMARK    4  A    between atoms: C_4  and  C_7 
REMARK    5  A    between atoms: C_5  and  C_6 
REMARK    6  A    between atoms: N_23  and  C_12 
ROOT
ATOM      1  S   UNL d   1       0.850   0.116   0.071  0.00  0.00     0.263 S 
ATOM      2  O   UNL d   1      -0.097   0.235   1.158  0.00  0.00    -0.200 OA
ATOM      3  O   UNL d   1       2.272   0.023   0.329  0.00  0.00    -0.200 OA
ENDROOT
BRANCH   1   4
ATOM      4  N   UNL d   1       0.646   1.391  -0.987  0.00  0.00    -0.279 N 
ATOM      5  H   UNL d   1       1.465   1.685  -1.512  0.00  0.00     0.179 HD
BRANCH   4   6
ATOM      6  C   UNL d   1      -0.644   1.733  -1.478  0.00  0.00     0.063 A 
ATOM      7  C   UNL d   1      -1.509   2.535  -0.708  0.00  0.00     0.034 A 
ATOM      8  C   UNL d   1      -2.718   2.947  -1.278  0.00  0.00     0.032 A 
ATOM      9  C   UNL d   1      -3.116   2.493  -2.545  0.00  0.00    -0.060 A 
ATOM     10  C   UNL d   1      -2.269   1.639  -3.262  0.00  0.00     0.009 A 
ATOM     11  C   UNL d   1      -4.425   2.945  -3.122  0.00  0.00     0.048 C 
ATOM     12  C   UNL d   1      -1.030   1.273  -2.738  0.00  0.00     0.032 A 
BRANCH   7  13
ATOM     13  N   UNL d   1      -1.074   3.132   0.493  0.00  0.00    -0.301 NA
ATOM     14  H   UNL d   1      -0.393   2.541   0.972  0.00  0.00     0.124 HD
ATOM     15  H   UNL d   1      -1.834   3.386   1.115  0.00  0.00     0.124 HD
ENDBRANCH   7  13
ENDBRANCH   4   6
ENDBRANCH   1   4
BRANCH   1  16
ATOM     16  C   UNL d   1       0.408  -1.312  -0.904  0.00  0.00     0.081 A 
ATOM     17  C   UNL d   1       1.396  -1.938  -1.677  0.00  0.00     0.041 A 
ATOM     18  C   UNL d   1       1.096  -3.105  -2.397  0.00  0.00     0.050 A 
ATOM     19  C   UNL d   1      -0.207  -3.629  -2.321  0.00  0.00     0.032 A 
ATOM     20  C   UNL d   1      -1.200  -3.017  -1.533  0.00  0.00     0.050 A 
ATOM     21  C   UNL d   1      -0.880  -1.850  -0.819  0.00  0.00     0.041 A 
BRANCH  18  22
ATOM     22  C   UNL d   1       2.148  -3.808  -3.227  0.00  0.00     0.417 C 
ATOM     23  F   UNL d   1       3.370  -3.212  -3.173  0.00  0.00    -0.166 F 
ATOM     24  F   UNL d   1       2.339  -5.097  -2.838  0.00  0.00    -0.166 F 
ATOM     25  F   UNL d   1       1.813  -3.857  -4.545  0.00  0.00    -0.166 F 
ENDBRANCH  18  22
BRANCH  20  26
ATOM     26  C   UNL d   1      -2.579  -3.635  -1.455  0.00  0.00     0.417 C 
ATOM     27  F   UNL d   1      -3.429  -2.972  -0.626  0.00  0.00    -0.166 F 
ATOM     28  F   UNL d   1      -3.192  -3.676  -2.670  0.00  0.00    -0.166 F 
ATOM     29  F   UNL d   1      -2.542  -4.921  -1.010  0.00  0.00    -0.166 F 
ENDBRANCH  20  26
ENDBRANCH   1  16
TORSDOF 6
