REMARK  5 active torsions:
REMARK  status: ('A' for Active; 'I' for Inactive)
REMARK    1  A    between atoms: N_10  and  C_3 
REMARK    2  A    between atoms: N_14  and  C_6 
REMARK    3  A    between atoms: C_9  and  N_10 
REMARK    4  A    between atoms: C_19  and  C_12 
REMARK    5  A    between atoms: C_18  and  C_13 
ROOT
ATOM      1  N   UNL d   1      -0.427   1.343   0.470  0.00  0.00    -0.166 N 
ATOM      2  HN  UNL d   1      -1.099   2.105   0.373  1.00  0.00     0.187 HD
ATOM      3  C   UNL d   1      -0.739   0.082   0.183  0.00  0.00     0.685 A 
ATOM      4  N   UNL d   1       0.124  -0.925   0.239  0.00  0.00    -0.188 N 
ATOM      5  HN  UNL d   1      -0.126  -1.878  -0.027  1.00  0.00     0.185 HD
ATOM      6  C   UNL d   1       0.814   1.546   0.892  0.00  0.00     0.170 A 
ATOM      7  N   UNL d   1       1.744   0.616   1.002  0.00  0.00    -0.328 N 
ATOM      8  HN  UNL d   1       2.693   0.815   1.318  1.00  0.00     0.169 HD
ATOM      9  C   UNL d   1       1.335  -0.601   0.666  0.00  0.00     0.200 A 
ENDROOT
BRANCH   3  10
ATOM     10  N   UNL d   1      -2.064  -0.142  -0.202  0.00  0.00    -0.191 N 
ATOM     11  H   UNL d   1      -2.579   0.717  -0.072  0.00  0.00     0.184 HD
BRANCH  10  12
ATOM     12  C   UNL d   1      -2.876  -1.291  -0.068  0.00  0.00     0.061 A 
ATOM     13  C   UNL d   1      -2.905  -2.116   1.095  0.00  0.00    -0.031 A 
ATOM     14  C   UNL d   1      -3.800  -3.202   1.125  0.00  0.00     0.009 A 
ATOM     15  C   UNL d   1      -4.699  -3.442   0.090  0.00  0.00     0.001 A 
ATOM     16  C   UNL d   1      -4.707  -2.614  -1.022  0.00  0.00     0.009 A 
ATOM     17  C   UNL d   1      -3.800  -1.547  -1.123  0.00  0.00    -0.031 A 
BRANCH  13  18
ATOM     18  C   UNL d   1      -1.951  -1.919   2.261  0.00  0.00     0.036 C 
ATOM     19  C   UNL d   1      -2.427  -2.347   3.648  0.00  0.00     0.010 C 
ENDBRANCH  13  18
BRANCH  17  20
ATOM     20  C   UNL d   1      -3.812  -0.734  -2.401  0.00  0.00     0.036 C 
ATOM     21  C   UNL d   1      -4.815   0.409  -2.367  0.00  0.00     0.010 C 
ENDBRANCH  17  20
ENDBRANCH  10  12
ENDBRANCH   3  10
BRANCH   6  22
ATOM     22  N   UNL d   1       1.176   2.842   1.210  0.00  0.00    -0.273 NA
ATOM     23  H   UNL d   1       0.601   3.504   0.711  0.00  0.00     0.127 HD
ATOM     24  H   UNL d   1       2.179   2.950   1.134  0.00  0.00     0.127 HD
ENDBRANCH   6  22
TORSDOF 5
