REMARK  4 active torsions:
REMARK  status: ('A' for Active; 'I' for Inactive)
REMARK    1  A    between atoms: C_6  and  C_1 
REMARK    2  A    between atoms: N_7  and  N_3 
REMARK       I    between atoms: C_5  and  N_7 
REMARK    3  A    between atoms: O_14  and  C_5 
REMARK    4  A    between atoms: C_17  and  O_14 
ROOT
ATOM      1  N   UNL d   1       2.533  -3.240   0.117  0.00  0.00    -0.300 N 
ATOM      2  HN  UNL d   1       3.455  -3.675   0.134  1.00  0.00     0.186 HD
ATOM      3  C   UNL d   1       2.437  -1.942   0.070  0.00  0.00     0.035 C 
ATOM      4  C   UNL d   1       1.134  -1.168   0.027  0.00  0.00     0.070 C 
ENDROOT
BRANCH   3   5
ATOM      5  C   UNL d   1       3.725  -1.160   0.049  0.00  0.00     0.026 A 
ATOM      6  C   UNL d   1       3.768   0.240   0.036  0.00  0.00     0.131 A 
ATOM      7  C   UNL d   1       4.978   0.928   0.027  0.00  0.00     0.085 A 
ATOM      8  F   UNL d   1       2.648   0.978   0.036  0.00  0.00    -0.205 F 
ATOM      9  C   UNL d   1       6.168   0.214   0.028  0.00  0.00     0.119 A 
ATOM     10  C   UNL d   1       6.163  -1.175   0.036  0.00  0.00     0.043 A 
ATOM     11  F   UNL d   1       7.332   0.873   0.024  0.00  0.00    -0.206 F 
ATOM     12  C   UNL d   1       4.947  -1.861   0.046  0.00  0.00     0.020 A 
ENDBRANCH   3   5
BRANCH   1  13
ATOM     13  N   UNL d   1       1.426  -4.020   0.142  0.00  0.00    -0.245 N 
ATOM     14  C   UNL d   1       1.519  -5.381  -0.022  0.00  0.00     0.379 C 
ATOM     15  O   UNL d   1       2.543  -6.040  -0.124  0.00  0.00    -0.237 OA
ATOM     16  H   UNL d   1       0.493  -3.640   0.109  0.00  0.00     0.192 HD
BRANCH  14  17
ATOM     17  O   UNL d   1       0.257  -5.880  -0.132  0.00  0.00    -0.303 OA
BRANCH  17  18
ATOM     18  C   UNL d   1       0.169  -7.216  -0.645  0.00  0.00     0.176 C 
ATOM     19  C   UNL d   1       0.096  -7.140  -2.160  0.00  0.00     0.034 C 
ENDBRANCH  17  18
ENDBRANCH  14  17
ENDBRANCH   1  13
TORSDOF 4
