REMARK  3 active torsions:
REMARK  status: ('A' for Active; 'I' for Inactive)
REMARK    1  A    between atoms: N_2  and  C_1 
REMARK    2  A    between atoms: N_6  and  C_3 
REMARK    3  A    between atoms: C_4  and  C_7 
ROOT
ATOM      1  C   UNL d   1       1.378  -0.278   0.117  0.00  0.00     0.130 A 
ATOM      2  C   UNL d   1       0.545  -1.410   0.030  0.00  0.00     0.063 A 
ATOM      3  C   UNL d   1       0.884   1.043   0.200  0.00  0.00     0.054 A 
ATOM      4  C   UNL d   1      -0.492   1.283   0.191  0.00  0.00     0.050 A 
ATOM      5  C   UNL d   1      -0.835  -1.120  -0.004  0.00  0.00     0.032 A 
ATOM      6  C   UNL d   1      -1.347   0.185   0.075  0.00  0.00     0.018 A 
ENDROOT
BRANCH   2   7
ATOM      7  N   UNL d   1       0.931  -2.732  -0.007  0.00  0.00    -0.379 N 
ATOM      8  C   UNL d   1       2.099  -3.341   0.627  0.00  0.00     0.123 C 
ATOM      9  C   UNL d   1       2.543  -4.387  -0.387  0.00  0.00     0.021 C 
ATOM     10  C   UNL d   1       1.225  -4.896  -0.945  0.00  0.00     0.021 C 
ATOM     11  C   UNL d   1       0.338  -3.651  -0.989  0.00  0.00     0.123 C 
ENDBRANCH   2   7
BRANCH   1  12
ATOM     12  N   UNL d   1       2.820  -0.383   0.015  0.00  0.00    -0.113 N 
ATOM     13  O   UNL d   1       3.291  -0.800  -1.054  0.00  0.00    -0.532 OA
ATOM     14  O   UNL d   1       3.480   0.008   0.987  0.00  0.00    -0.532 OA
ENDBRANCH   1  12
BRANCH   4  15
ATOM     15  C   UNL d   1      -1.054   2.679   0.299  0.00  0.00     0.417 C 
ATOM     16  F   UNL d   1      -0.098   3.641   0.410  0.00  0.00    -0.166 F 
ATOM     17  F   UNL d   1      -1.808   3.021  -0.781  0.00  0.00    -0.166 F 
ATOM     18  F   UNL d   1      -1.863   2.827   1.384  0.00  0.00    -0.166 F 
ENDBRANCH   4  15
TORSDOF 3
