REMARK  5 active torsions:
REMARK  status: ('A' for Active; 'I' for Inactive)
REMARK    1  A    between atoms: C_3  and  C_1 
REMARK    2  A    between atoms: C_2  and  C_10 
REMARK    3  A    between atoms: N_6  and  C_3 
REMARK    4  A    between atoms: C_13  and  C_3 
REMARK    5  A    between atoms: O_23  and  C_4 
ROOT
ATOM      1  C   UNL d   1       2.768  -2.080   0.013  0.00  0.00     0.292 C 
ENDROOT
BRANCH   1   2
ATOM      2  C   UNL d   1       1.693  -1.057   0.451  0.00  0.00     0.015 A 
ATOM      3  C   UNL d   1       0.347  -1.086  -0.007  0.00  0.00     0.077 A 
ATOM      4  C   UNL d   1      -0.628  -0.196   0.460  0.00  0.00     0.076 A 
ATOM      5  C   UNL d   1      -0.265   0.694   1.439  0.00  0.00     0.107 A 
ATOM      6  C   UNL d   1       1.016   0.726   1.933  0.00  0.00     0.105 A 
ATOM      7  O   UNL d   1      -1.080   1.584   2.067  0.00  0.00    -0.323 OA
ATOM      8  C   UNL d   1       2.000  -0.122   1.466  0.00  0.00     0.052 A 
ATOM      9  O   UNL d   1       1.168   1.644   2.925  0.00  0.00    -0.323 OA
ATOM     10  C   UNL d   1      -0.201   2.063   3.104  0.00  0.00     0.352 C 
BRANCH   3  11
ATOM     11  O   UNL d   1      -0.111  -2.012  -0.903  0.00  0.00    -0.360 OA
ATOM     12  H   UNL d   1       0.654  -2.591  -1.136  0.00  0.00     0.217 HD
ENDBRANCH   3  11
ENDBRANCH   1   2
BRANCH   1  13
ATOM     13  N   UNL d   1       2.467  -2.756  -1.285  0.00  0.00     0.106 N 
ATOM     14  C   UNL d   1       2.555  -1.931  -2.512  0.00  0.00     0.299 C 
ATOM     15  C   UNL d   1       3.888  -1.963  -3.276  0.00  0.00     0.198 C 
ATOM     16  O   UNL d   1       4.319  -3.305  -3.519  0.00  0.00    -0.388 OA
ATOM     17  C   UNL d   1       4.485  -3.992  -2.277  0.00  0.00     0.198 C 
ATOM     18  C   UNL d   1       3.161  -4.048  -1.491  0.00  0.00     0.299 C 
ENDBRANCH   1  13
BRANCH   1  19
ATOM     19  C   UNL d   1       4.224  -1.621   0.139  0.00  0.00    -0.021 A 
ATOM     20  C   UNL d   1       5.190  -2.507   0.651  0.00  0.00     0.010 A 
ATOM     21  C   UNL d   1       6.550  -2.205   0.580  0.00  0.00     0.017 A 
ATOM     22  C   UNL d   1       6.978  -0.982   0.045  0.00  0.00     0.047 A 
ATOM     23  C   UNL d   1       6.012  -0.043  -0.342  0.00  0.00     0.017 A 
ATOM     24  C   UNL d   1       4.657  -0.363  -0.311  0.00  0.00     0.010 A 
BRANCH  22  25
ATOM     25  C   UNL d   1       8.442  -0.688  -0.169  0.00  0.00     0.417 C 
ATOM     26  F   UNL d   1       9.258  -1.737   0.129  0.00  0.00    -0.166 F 
ATOM     27  F   UNL d   1       8.715  -0.364  -1.464  0.00  0.00    -0.166 F 
ATOM     28  F   UNL d   1       8.884   0.359   0.581  0.00  0.00    -0.166 F 
ENDBRANCH  22  25
ENDBRANCH   1  19
TORSDOF 5
