REMARK  4 active torsions:
REMARK  status: ('A' for Active; 'I' for Inactive)
REMARK    1  A    between atoms: C_2  and  C_1 
REMARK       I    between atoms: N_8  and  C_2 
REMARK    2  A    between atoms: C_9  and  N_8 
REMARK    3  A    between atoms: C_11  and  C_9 
REMARK    4  A    between atoms: C_10  and  C_11 
ROOT
ATOM      1  C   UNL d   1      -0.587   2.534  -0.128  0.00  0.00     0.275 C 
ATOM      2  O   UNL d   1      -1.787   2.793  -0.116  0.00  0.00    -0.265 OA
ATOM      3  N   UNL d   1       0.379   3.521  -0.107  0.00  0.00    -0.355 N 
ATOM      4  H   UNL d   1       1.347   3.220  -0.074  0.00  0.00     0.162 HD
ENDROOT
BRANCH   3   5
ATOM      5  C   UNL d   1       0.025   4.926  -0.048  0.00  0.00     0.127 C 
BRANCH   5   6
ATOM      6  C   UNL d   1       1.253   5.836  -0.073  0.00  0.00     0.058 C 
BRANCH   6   7
ATOM      7  C   UNL d   1       0.893   7.301  -0.036  0.00  0.00    -0.057 A 
ATOM      8  C   UNL d   1       0.732   7.966   1.188  0.00  0.00     0.007 A 
ATOM      9  C   UNL d   1       0.414   9.325   1.220  0.00  0.00     0.001 A 
ATOM     10  C   UNL d   1       0.246  10.032   0.031  0.00  0.00     0.000 A 
ATOM     11  C   UNL d   1       0.389   9.379  -1.191  0.00  0.00     0.001 A 
ATOM     12  C   UNL d   1       0.707   8.019  -1.225  0.00  0.00     0.007 A 
ENDBRANCH   6   7
ENDBRANCH   5   6
ENDBRANCH   3   5
BRANCH   1  13
ATOM     13  C   UNL d   1      -0.064   1.183  -0.160  0.00  0.00     0.142 A 
ATOM     14  O   UNL d   1       1.292   0.974  -0.203  0.00  0.00    -0.317 OA
ATOM     15  C   UNL d   1       1.487  -0.371  -0.234  0.00  0.00     0.143 A 
ATOM     16  C   UNL d   1       0.285  -1.037  -0.206  0.00  0.00     0.027 A 
ATOM     17  C   UNL d   1      -0.716  -0.037  -0.159  0.00  0.00     0.045 A 
ENDBRANCH   1  13
TORSDOF 4
