REMARK  2 active torsions:
REMARK  status: ('A' for Active; 'I' for Inactive)
REMARK    1  A    between atoms: C_6  and  N_1 
REMARK    2  A    between atoms: N_11  and  C_2 
ROOT
ATOM      1  N   UNL d   1       0.987  -0.579  -0.029  0.00  0.00    -0.239 N 
ATOM      2  C   UNL d   1       0.906   0.740   0.444  0.00  0.00     0.143 C 
ATOM      3  N   UNL d   1      -0.175  -0.964  -0.629  0.00  0.00    -0.302 N 
ATOM      4  HN  UNL d   1      -0.356  -1.827  -1.142  1.00  0.00     0.186 HD
ATOM      5  C   UNL d   1      -0.406   1.120   0.246  0.00  0.00     0.106 C 
ATOM      6  C   UNL d   1      -1.021   0.039  -0.395  0.00  0.00     0.134 C 
ATOM      7  C   UNL d   1      -0.986   2.380   0.558  0.00  0.00     0.104 C 
ATOM      8  N   UNL d   1      -1.448   3.418   0.799  0.00  0.00    -0.191 NA
ENDROOT
BRANCH   2   9
ATOM      9  N   UNL d   1       1.965   1.460   0.918  0.00  0.00    -0.383 N 
ATOM     10  H   UNL d   1       2.917   1.195   0.664  0.00  0.00     0.157 HD
ATOM     11  H   UNL d   1       1.885   2.471   1.027  0.00  0.00     0.157 HD
ENDBRANCH   2   9
BRANCH   1  12
ATOM     12  C   UNL d   1       2.098  -1.465   0.008  0.00  0.00     0.060 A 
ATOM     13  C   UNL d   1       2.232  -2.439  -0.992  0.00  0.00     0.055 A 
ATOM     14  C   UNL d   1       3.372  -3.242  -1.016  0.00  0.00     0.036 A 
ATOM     15 CL   UNL d   1       3.591  -4.377  -2.291  0.00  0.00    -0.084 Cl
ATOM     16  C   UNL d   1       4.354  -3.114  -0.034  0.00  0.00     0.024 A 
ATOM     17  C   UNL d   1       4.192  -2.187   0.994  0.00  0.00     0.004 A 
ATOM     18  C   UNL d   1       3.065  -1.365   1.018  0.00  0.00     0.032 A 
ENDBRANCH   1  12
TORSDOF 2
