REMARK  6 active torsions:
REMARK  status: ('A' for Active; 'I' for Inactive)
REMARK    1  A    between atoms: C_7  and  C_1 
REMARK    2  A    between atoms: N_13  and  C_1 
REMARK    3  A    between atoms: C_2  and  C_8 
REMARK    4  A    between atoms: N_14  and  C_2 
REMARK    5  A    between atoms: O_15  and  N_3 
REMARK    6  A    between atoms: O_16  and  N_5 
ROOT
ATOM      1  C   UNL d   1      -1.090   4.929  -6.998  0.00  0.00     0.004 A 
ATOM      2  C   UNL d   1      -1.663   4.310  -4.319  0.00  0.00     0.004 A 
ATOM      3  C   UNL d   1      -0.629   3.646  -4.993  0.00  0.00     0.016 A 
ATOM      4  C   UNL d   1      -0.352   3.946  -6.332  0.00  0.00     0.016 A 
ATOM      5  C   UNL d   1      -2.115   5.603  -6.328  0.00  0.00     0.016 A 
ATOM      6  C   UNL d   1      -2.401   5.290  -4.996  0.00  0.00     0.016 A 
ENDROOT
BRANCH   1   7
ATOM      7  C   UNL d   1      -0.788   5.256  -8.420  0.00  0.00     0.108 C 
ATOM      8  N   UNL d   1      -0.277   4.330  -9.182  0.00  0.00    -0.258 N 
ATOM      9  HN  UNL d   1      -0.071   3.378  -8.877  1.00  0.00     0.195 HD
BRANCH   8  10
ATOM     10  O   UNL d   1      -0.049   4.818 -10.480  0.00  0.00    -0.289 OA
ATOM     11  H   UNL d   1       0.183   4.003 -10.963  0.00  0.00     0.244 HD
ENDBRANCH   8  10
BRANCH   7  12
ATOM     12  N   UNL d   1      -1.044   6.528  -8.882  0.00  0.00    -0.287 NA
ATOM     13  H   UNL d   1      -0.598   6.653  -9.788  0.00  0.00     0.125 HD
ATOM     14  H   UNL d   1      -0.805   7.271  -8.235  0.00  0.00     0.125 HD
ENDBRANCH   7  12
ENDBRANCH   1   7
BRANCH   2  15
ATOM     15  C   UNL d   1      -1.992   3.989  -2.890  0.00  0.00     0.108 C 
ATOM     16  N   UNL d   1      -2.946   4.660  -2.304  0.00  0.00    -0.258 N 
ATOM     17  HN  UNL d   1      -3.475   5.413  -2.743  1.00  0.00     0.195 HD
BRANCH  16  18
ATOM     18  O   UNL d   1      -3.149   4.208  -0.989  0.00  0.00    -0.289 OA
ATOM     19  H   UNL d   1      -3.845   4.814  -0.674  0.00  0.00     0.244 HD
ENDBRANCH  16  18
BRANCH  15  20
ATOM     20  N   UNL d   1      -1.301   2.999  -2.229  0.00  0.00    -0.287 NA
ATOM     21  H   UNL d   1      -1.158   2.146  -2.753  0.00  0.00     0.125 HD
ATOM     22  H   UNL d   1      -1.765   2.816  -1.341  0.00  0.00     0.125 HD
ENDBRANCH  15  20
ENDBRANCH   2  15
TORSDOF 6
