REMARK  6 active torsions:
REMARK  status: ('A' for Active; 'I' for Inactive)
REMARK    1  A    between atoms: N_11  and  N_1 
REMARK    2  A    between atoms: C_21  and  C_2 
REMARK    3  A    between atoms: C_6  and  C_16 
REMARK    4  A    between atoms: C_23  and  N_7 
REMARK    5  A    between atoms: C_19  and  C_10 
REMARK    6  A    between atoms: N_14  and  C_17 
ROOT
ATOM      1  N   UNL d   1       4.606  -5.155  -0.619  0.00  0.00    -0.292 N 
ATOM      2  HN  UNL d   1       5.028  -5.962  -1.080  1.00  0.00     0.187 HD
ATOM      3  C   UNL d   1       3.157  -3.506  -0.012  0.00  0.00     0.027 A 
ATOM      4  N   UNL d   1       5.151  -4.404   0.368  0.00  0.00    -0.266 N 
ATOM      5  C   UNL d   1       3.398  -4.624  -0.869  0.00  0.00     0.072 A 
ATOM      6  C   UNL d   1       4.316  -3.372   0.723  0.00  0.00     0.132 A 
ENDROOT
BRANCH   3   7
ATOM      7  C   UNL d   1       1.994  -2.668   0.177  0.00  0.00     0.123 C 
ATOM      8  N   UNL d   1       0.847  -3.163  -0.135  0.00  0.00    -0.300 N 
ATOM      9  HN  UNL d   1       0.783  -4.100  -0.534  1.00  0.00     0.186 HD
BRANCH   8  10
ATOM     10  N   UNL d   1      -0.277  -2.428   0.070  0.00  0.00    -0.211 N 
ATOM     11  C   UNL d   1      -1.511  -2.998   0.285  0.00  0.00     0.154 A 
ATOM     12  N   UNL d   1      -2.504  -2.152   0.184  0.00  0.00    -0.281 N 
ATOM     13  N   UNL d   1      -1.914  -0.958  -0.128  0.00  0.00    -0.273 N 
ATOM     14  HN  UNL d   1      -3.498  -2.341   0.311  1.00  0.00     0.188 HD
ATOM     15  C   UNL d   1      -0.537  -1.112  -0.281  0.00  0.00     0.214 A 
ATOM     16  H   UNL d   1      -2.460  -0.134  -0.355  0.00  0.00     0.189 HD
ATOM     17  S   UNL d   1       0.444   0.103  -0.842  0.00  0.00    -0.037 SA
BRANCH  11  18
ATOM     18  C   UNL d   1      -1.706  -4.433   0.603  0.00  0.00     0.014 A 
ATOM     19  C   UNL d   1      -0.721  -5.218   1.204  0.00  0.00     0.032 A 
ATOM     20  C   UNL d   1      -1.011  -6.542   1.483  0.00  0.00     0.088 A 
ATOM     21  N   UNL d   1      -2.204  -7.116   1.226  0.00  0.00    -0.375 N 
ATOM     22  C   UNL d   1      -3.149  -6.334   0.663  0.00  0.00     0.088 A 
ATOM     23  HN  UNL d   1      -2.383  -8.096   1.446  1.00  0.00     0.164 HD
ATOM     24  C   UNL d   1      -2.952  -5.004   0.336  0.00  0.00     0.032 A 
ENDBRANCH  11  18
ENDBRANCH   8  10
ENDBRANCH   3   7
BRANCH   5  25
ATOM     25  C   UNL d   1       2.540  -5.205  -1.915  0.00  0.00    -0.007 A 
ATOM     26  C   UNL d   1       2.560  -6.587  -2.168  0.00  0.00     0.016 A 
ATOM     27  C   UNL d   1       1.742  -7.150  -3.158  0.00  0.00     0.037 A 
ATOM     28  C   UNL d   1       0.887  -6.327  -3.900  0.00  0.00     0.102 A 
ATOM     29  C   UNL d   1       0.860  -4.948  -3.669  0.00  0.00     0.037 A 
ATOM     30  C   UNL d   1       1.701  -4.396  -2.698  0.00  0.00     0.016 A 
BRANCH  28  31
ATOM     31  N   UNL d   1       0.024  -6.905  -4.936  0.00  0.00    -0.116 N 
ATOM     32  O   UNL d   1       0.098  -8.127  -5.135  0.00  0.00    -0.532 OA
ATOM     33  O   UNL d   1      -0.735  -6.141  -5.548  0.00  0.00    -0.532 OA
ENDBRANCH  28  31
ENDBRANCH   5  25
BRANCH   4  34
ATOM     34  C   UNL d   1       6.419  -4.728   0.930  0.00  0.00     0.056 A 
ATOM     35  C   UNL d   1       6.935  -4.009   2.020  0.00  0.00     0.031 A 
ATOM     36  C   UNL d   1       8.174  -4.355   2.566  0.00  0.00     0.002 A 
ATOM     37  C   UNL d   1       8.908  -5.410   2.030  0.00  0.00     0.000 A 
ATOM     38  C   UNL d   1       8.405  -6.125   0.945  0.00  0.00     0.002 A 
ATOM     39  C   UNL d   1       7.164  -5.791   0.397  0.00  0.00     0.031 A 
ENDBRANCH   4  34
TORSDOF 6
