REMARK  3 active torsions:
REMARK  status: ('A' for Active; 'I' for Inactive)
REMARK    1  A    between atoms: CA_2  and  C_6 
REMARK    2  A    between atoms: C_7  and  C_4 
REMARK    3  A    between atoms: OXT_9  and  C_6 
ROOT
ATOM      1  N   UNL d   1      -1.356   1.203   0.164  0.00  0.00     0.118 N 
ATOM      2  CA  UNL d   1      -0.025   1.358  -0.502  0.00  0.00     0.336 C 
ATOM      3  S   UNL d   1      -0.214  -1.204   0.101  0.00  0.00    -0.117 SA
ATOM      4  C   UNL d   1      -1.736  -0.213  -0.011  0.00  0.00     0.317 C 
ATOM      5  C   UNL d   1       0.905   0.245   0.021  0.00  0.00     0.044 C 
ATOM      6  C   UNL d   1       1.443   0.472   1.440  0.00  0.00     0.029 C 
ATOM      7  C   UNL d   1       2.049  -0.038  -0.951  0.00  0.00     0.029 C 
ATOM      8  H   UNL d   1      -2.044   1.765  -0.345  0.00  0.00     0.319 HD
ENDROOT
BRANCH   4   9
ATOM      9  C   UNL d   1      -2.541  -0.441  -1.285  0.00  0.00    -0.015 A 
ATOM     10  C   UNL d   1      -3.942  -0.293  -1.234  0.00  0.00     0.010 A 
ATOM     11  C   UNL d   1      -4.727  -0.472  -2.376  0.00  0.00     0.001 A 
ATOM     12  C   UNL d   1      -4.128  -0.793  -3.594  0.00  0.00     0.000 A 
ATOM     13  C   UNL d   1      -2.745  -0.924  -3.669  0.00  0.00     0.001 A 
ATOM     14  C   UNL d   1      -1.959  -0.747  -2.526  0.00  0.00     0.010 A 
ENDBRANCH   4   9
BRANCH   2  15
ATOM     15  C   UNL d   1       0.534   2.750  -0.205  0.00  0.00     0.175 C 
ATOM     16  O   UNL d   1       1.415   3.296  -0.850  0.00  0.00    -0.648 OA
BRANCH  15  17
ATOM     17  OXT UNL d   1      -0.038   3.308   0.893  0.00  0.00    -0.775 OA
ATOM     18  HXT UNL d   1      -0.709   2.670   1.234  0.00  0.00     0.167 HD
ENDBRANCH  15  17
ENDBRANCH   2  15
TORSDOF 3
