REMARK  3 active torsions:
REMARK  status: ('A' for Active; 'I' for Inactive)
REMARK    1  A    between atoms: C_4  and  C_3 
REMARK    2  A    between atoms: C_11  and  C_7 
REMARK    3  A    between atoms: C_8  and  C_10 
ROOT
ATOM      1  N   UNL d   1       1.237   0.163   0.172  0.00  0.00    -0.318 N 
ATOM      2  HN  UNL d   1       2.213   0.308   0.431  1.00  0.00     0.169 HD
ATOM      3  C   UNL d   1       0.261   1.105  -0.065  0.00  0.00     0.140 A 
ATOM      4  N   UNL d   1      -0.922   0.590  -0.429  0.00  0.00    -0.242 N 
ATOM      5  HN  UNL d   1      -1.776   1.087  -0.683  1.00  0.00     0.196 HD
ATOM      6  C   UNL d   1       0.598  -0.969  -0.016  0.00  0.00     0.182 A 
ATOM      7  O   UNL d   1      -0.708  -0.788  -0.376  0.00  0.00    -0.217 OA
ENDROOT
BRANCH   3   8
ATOM      8  C   UNL d   1       0.553   2.526  -0.037  0.00  0.00     0.040 A 
ATOM      9  C   UNL d   1      -0.303   3.514   0.471  0.00  0.00     0.064 A 
ATOM     10  C   UNL d   1       0.088   4.862   0.346  0.00  0.00     0.034 A 
ATOM     11  C   UNL d   1       1.308   5.170  -0.231  0.00  0.00     0.088 A 
ATOM     12  N   UNL d   1       2.163   4.238  -0.685  0.00  0.00    -0.374 N 
ATOM     13  C   UNL d   1       1.769   2.946  -0.578  0.00  0.00     0.103 A 
ATOM     14  HN  UNL d   1       3.064   4.491  -1.091  1.00  0.00     0.164 HD
BRANCH   9  15
ATOM     15  C   UNL d   1      -1.619   3.231   1.149  0.00  0.00     0.418 C 
ATOM     16  F   UNL d   1      -1.746   1.992   1.689  0.00  0.00    -0.166 F 
ATOM     17  F   UNL d   1      -1.834   4.086   2.196  0.00  0.00    -0.166 F 
ATOM     18  F   UNL d   1      -2.680   3.411   0.317  0.00  0.00    -0.166 F 
ENDBRANCH   9  15
ENDBRANCH   3   8
BRANCH   6  19
ATOM     19  C   UNL d   1       1.088  -2.343   0.065  0.00  0.00     0.017 A 
ATOM     20  C   UNL d   1       2.445  -2.578   0.340  0.00  0.00     0.016 A 
ATOM     21  C   UNL d   1       2.949  -3.880   0.402  0.00  0.00     0.001 A 
ATOM     22  C   UNL d   1       2.100  -4.966   0.194  0.00  0.00     0.000 A 
ATOM     23  C   UNL d   1       0.750  -4.750  -0.073  0.00  0.00     0.001 A 
ATOM     24  C   UNL d   1       0.247  -3.447  -0.136  0.00  0.00     0.016 A 
ENDBRANCH   6  19
TORSDOF 3
