REMARK  4 active torsions:
REMARK  status: ('A' for Active; 'I' for Inactive)
REMARK    1  A    between atoms: C_3  and  C_1 
REMARK    2  A    between atoms: C_17  and  N_2 
REMARK    3  A    between atoms: C_16  and  C_10 
REMARK    4  A    between atoms: C_15  and  C_11 
ROOT
ATOM      1  C   UNL d   1      -0.386  -2.748  -0.087  0.00  0.00     0.054 A 
ATOM      2  N   UNL d   1      -0.183  -4.862   1.045  0.00  0.00    -0.340 N 
ATOM      3  HN  UNL d   1       0.107  -5.409   1.856  1.00  0.00     0.167 HD
ATOM      4  C   UNL d   1       0.021  -3.514   1.005  0.00  0.00     0.059 A 
ATOM      5  C   UNL d   1      -0.778  -5.459  -0.011  0.00  0.00     0.117 A 
ATOM      6  N   UNL d   1      -1.199  -4.797  -1.095  0.00  0.00    -0.351 N 
ATOM      7  HN  UNL d   1      -1.665  -5.274  -1.867  1.00  0.00     0.166 HD
ATOM      8  C   UNL d   1      -0.979  -3.474  -1.116  0.00  0.00     0.107 A 
ENDROOT
BRANCH   1   9
ATOM      9  C   UNL d   1      -0.150  -1.318  -0.264  0.00  0.00     0.152 A 
ATOM     10  N   UNL d   1      -1.028  -0.380  -0.806  0.00  0.00    -0.224 N 
ATOM     11  N   UNL d   1      -0.341   0.761  -1.038  0.00  0.00     0.001 NA
ATOM     12  N   UNL d   1       0.861   0.574  -0.522  0.00  0.00    -0.007 NA
ATOM     13  N   UNL d   1       1.003  -0.703  -0.062  0.00  0.00    -0.269 N 
ATOM     14  HN  UNL d   1       1.841  -1.107   0.358  1.00  0.00     0.185 HD
BRANCH  10  15
ATOM     15  C   UNL d   1      -2.390  -0.503  -1.168  0.00  0.00     0.056 A 
ATOM     16  C   UNL d   1      -3.260  -1.333  -0.446  0.00  0.00     0.031 A 
ATOM     17  C   UNL d   1      -4.565  -1.527  -0.901  0.00  0.00     0.002 A 
ATOM     18  C   UNL d   1      -5.000  -0.898  -2.067  0.00  0.00     0.000 A 
ATOM     19  C   UNL d   1      -4.147  -0.043  -2.763  0.00  0.00     0.002 A 
ATOM     20  C   UNL d   1      -2.848   0.176  -2.304  0.00  0.00     0.031 A 
ENDBRANCH  10  15
ENDBRANCH   1   9
BRANCH   4  21
ATOM     21  C   UNL d   1       0.767  -2.992   2.188  0.00  0.00    -0.008 A 
ATOM     22  C   UNL d   1       1.770  -3.778   2.793  0.00  0.00     0.015 A 
ATOM     23  C   UNL d   1       2.584  -3.274   3.816  0.00  0.00     0.024 A 
ATOM     24  C   UNL d   1       2.413  -1.967   4.254  0.00  0.00     0.034 A 
ATOM     25  C   UNL d   1       1.392  -1.187   3.726  0.00  0.00     0.024 A 
ATOM     26 CL   UNL d   1       3.469  -1.310   5.441  0.00  0.00    -0.084 Cl
ATOM     27  C   UNL d   1       0.558  -1.710   2.730  0.00  0.00     0.015 A 
ENDBRANCH   4  21
BRANCH   5  28
ATOM     28  C   UNL d   1      -0.932  -6.917  -0.011  0.00  0.00     0.023 A 
ATOM     29  C   UNL d   1      -1.525  -7.588  -1.086  0.00  0.00     0.102 A 
ATOM     30  N   UNL d   1      -1.691  -8.933  -1.179  0.00  0.00    -0.374 N 
ATOM     31  C   UNL d   1      -1.239  -9.668  -0.146  0.00  0.00     0.087 A 
ATOM     32  HN  UNL d   1      -2.136  -9.364  -1.989  1.00  0.00     0.164 HD
ATOM     33  C   UNL d   1      -0.635  -9.121   0.973  0.00  0.00     0.018 A 
ATOM     34  C   UNL d   1      -0.484  -7.735   1.036  0.00  0.00     0.018 A 
ENDBRANCH   5  28
TORSDOF 4
