REMARK  6 active torsions:
REMARK  status: ('A' for Active; 'I' for Inactive)
REMARK    1  A    between atoms: O_2  and  C_1 
REMARK       I    between atoms: N_7  and  C_1 
REMARK    2  A    between atoms: C_6  and  O_2 
REMARK    3  A    between atoms: N_4  and  C_16 
REMARK    4  A    between atoms: C_17  and  N_7 
REMARK    5  A    between atoms: C_9  and  C_8 
REMARK    6  A    between atoms: C_16  and  C_17 
ROOT
ATOM      1  C   UNL d   1       4.954  -0.210  -0.602  0.00  0.00     0.139 C 
ENDROOT
BRANCH   1   2
ATOM      2  N   UNL d   1       5.568  -0.699  -1.841  0.00  0.00    -0.397 N 
ATOM      3  C   UNL d   1       6.772  -1.142  -1.754  0.00  0.00     0.094 C 
ATOM      4  HN  UNL d   1       5.064  -0.687  -2.729  1.00  0.00     0.158 HD
BRANCH   3   5
ATOM      5  C   UNL d   1       7.462  -1.690  -2.941  0.00  0.00    -0.021 A 
ATOM      6  C   UNL d   1       6.816  -1.715  -4.184  0.00  0.00     0.014 A 
ATOM      7  C   UNL d   1       7.462  -2.260  -5.296  0.00  0.00     0.024 A 
ATOM      8  C   UNL d   1       8.750  -2.775  -5.162  0.00  0.00     0.034 A 
ATOM      9  C   UNL d   1       9.400  -2.745  -3.927  0.00  0.00     0.024 A 
ATOM     10 CL   UNL d   1       9.542  -3.457  -6.528  0.00  0.00    -0.084 Cl
ATOM     11  C   UNL d   1       8.756  -2.200  -2.811  0.00  0.00     0.014 A 
ENDBRANCH   3   5
ENDBRANCH   1   2
BRANCH   1  12
ATOM     12  C   UNL d   1       3.446  -0.445  -0.723  0.00  0.00     0.144 C 
BRANCH  12  13
ATOM     13  N   UNL d   1       2.636   0.305   0.214  0.00  0.00    -0.335 N 
ATOM     14  C   UNL d   1       2.331  -0.072   1.487  0.00  0.00     0.361 C 
ATOM     15  O   UNL d   1       1.395   0.443   2.081  0.00  0.00    -0.238 OA
ATOM     16  H   UNL d   1       1.983   0.981  -0.160  0.00  0.00     0.164 HD
BRANCH  14  17
ATOM     17  O   UNL d   1       3.153  -1.029   1.973  0.00  0.00    -0.294 OA
BRANCH  17  18
ATOM     18  C   UNL d   1       2.901  -1.608   3.280  0.00  0.00     0.061 C 
ATOM     19  C   UNL d   1       1.605  -2.428   3.251  0.00  0.00     0.046 C 
ATOM     20  C   UNL d   1       4.082  -2.558   3.530  0.00  0.00     0.046 C 
ATOM     21  C   UNL d   1       2.885  -0.559   4.399  0.00  0.00     0.046 C 
ENDBRANCH  17  18
ENDBRANCH  14  17
ENDBRANCH  12  13
ENDBRANCH   1  12
TORSDOF 6
