REMARK  5 active torsions:
REMARK  status: ('A' for Active; 'I' for Inactive)
REMARK    1  A    between atoms: C_12  and  C_1 
REMARK    2  A    between atoms: C_2  and  C_11 
REMARK    3  A    between atoms: N_3  and  N_5 
REMARK    4  A    between atoms: O_22  and  C_7 
REMARK    5  A    between atoms: O_21  and  C_8 
ROOT
ATOM      1  N   UNL d   1       3.208  -4.822   0.288  0.00  0.00    -0.311 N 
ATOM      2  HN  UNL d   1       4.210  -4.748   0.115  1.00  0.00     0.186 HD
ATOM      3  C   UNL d   1       2.554  -5.939   0.331  0.00  0.00     0.121 C 
ENDROOT
BRANCH   1   4
ATOM      4  N   UNL d   1       2.369  -3.741   0.508  0.00  0.00    -0.311 N 
ATOM      5  C   UNL d   1       3.062  -2.655   0.635  0.00  0.00     0.121 C 
ATOM      6  HN  UNL d   1       1.352  -3.794   0.561  1.00  0.00     0.186 HD
BRANCH   5   7
ATOM      7  C   UNL d   1       2.422  -1.365   0.907  0.00  0.00     0.015 A 
ATOM      8  C   UNL d   1       2.927  -0.432   1.823  0.00  0.00     0.080 A 
ATOM      9  C   UNL d   1       2.280   0.808   1.932  0.00  0.00     0.039 A 
ATOM     10  C   UNL d   1       1.159   1.116   1.156  0.00  0.00     0.022 A 
ATOM     11  C   UNL d   1       0.669   0.177   0.257  0.00  0.00     0.011 A 
ATOM     12  C   UNL d   1       1.286  -1.064   0.134  0.00  0.00     0.034 A 
ATOM     13 BR   UNL d   1      -0.819   0.599  -0.829  0.00  0.00    -0.051 Br
BRANCH   8  14
ATOM     14  O   UNL d   1       4.011  -0.527   2.649  0.00  0.00    -0.355 OA
ATOM     15  C   UNL d   1       4.471  -1.806   3.061  0.00  0.00     0.210 C 
ENDBRANCH   8  14
ENDBRANCH   5   7
ENDBRANCH   1   4
BRANCH   3  16
ATOM     16  C   UNL d   1       3.229  -7.228   0.109  0.00  0.00     0.015 A 
ATOM     17  C   UNL d   1       2.510  -8.379  -0.235  0.00  0.00     0.080 A 
ATOM     18  C   UNL d   1       3.180  -9.600  -0.363  0.00  0.00     0.039 A 
ATOM     19  C   UNL d   1       4.565  -9.669  -0.181  0.00  0.00     0.022 A 
ATOM     20  C   UNL d   1       5.276  -8.515   0.141  0.00  0.00     0.011 A 
ATOM     21  C   UNL d   1       4.618  -7.296   0.284  0.00  0.00     0.034 A 
ATOM     22 BR   UNL d   1       7.144  -8.607   0.416  0.00  0.00    -0.051 Br
BRANCH  17  23
ATOM     23  O   UNL d   1       1.151  -8.422  -0.393  0.00  0.00    -0.355 OA
ATOM     24  C   UNL d   1       0.690  -7.662  -1.514  0.00  0.00     0.210 C 
ENDBRANCH  17  23
ENDBRANCH   3  16
TORSDOF 5
