REMARK  4 active torsions:
REMARK  status: ('A' for Active; 'I' for Inactive)
REMARK    1  A    between atoms: C_7  and  N_1 
REMARK    2  A    between atoms: C_10  and  C_7 
REMARK       I    between atoms: N_15  and  C_10 
REMARK    3  A    between atoms: C_14  and  C_18 
REMARK    4  A    between atoms: C_18  and  N_15 
ROOT
ATOM      1  C   UNL d   1       4.158   0.768   0.337  0.00  0.00     0.236 C 
ATOM      2  N   UNL d   1       3.890   2.078   0.050  0.00  0.00    -0.357 N 
ATOM      3  O   UNL d   1       3.318  -0.115   0.147  0.00  0.00    -0.272 OA
ATOM      4  H   UNL d   1       4.551   2.801   0.306  0.00  0.00     0.162 HD
ENDROOT
BRANCH   1   5
ATOM      5  C   UNL d   1       5.542   0.400   0.862  0.00  0.00     0.238 C 
BRANCH   5   6
ATOM      6  N   UNL d   1       6.584   1.391   1.094  0.00  0.00    -0.271 N 
ATOM      7  C   UNL d   1       6.978   1.711   2.366  0.00  0.00     0.262 A 
ATOM      8  C   UNL d   1       8.389   2.088   2.298  0.00  0.00     0.048 A 
ATOM      9  O   UNL d   1       6.357   1.602   3.411  0.00  0.00    -0.267 OA
ATOM     10  C   UNL d   1       9.299   2.304   3.318  0.00  0.00     0.018 A 
ATOM     11  C   UNL d   1       8.782   1.986   0.978  0.00  0.00     0.048 A 
ATOM     12  C   UNL d   1      10.648   2.406   2.965  0.00  0.00     0.001 A 
ATOM     13  C   UNL d   1      11.050   2.300   1.617  0.00  0.00     0.001 A 
ATOM     14  C   UNL d   1      10.109   2.092   0.601  0.00  0.00     0.018 A 
ATOM     15  C   UNL d   1       7.617   1.551   0.206  0.00  0.00     0.262 A 
ATOM     16  O   UNL d   1       7.652   1.285  -0.982  0.00  0.00    -0.267 OA
ENDBRANCH   5   6
ENDBRANCH   1   5
BRANCH   2  17
ATOM     17  C   UNL d   1       2.643   2.455  -0.604  0.00  0.00     0.157 C 
BRANCH  17  18
ATOM     18  C   UNL d   1       1.377   2.357   0.288  0.00  0.00     0.171 C 
ATOM     19  O   UNL d   1       1.521   3.140   1.487  0.00  0.00    -0.339 OA
ATOM     20  C   UNL d   1       1.380   4.479   1.232  0.00  0.00     0.102 A 
ATOM     21  C   UNL d   1       1.918   5.346   2.179  0.00  0.00     0.039 A 
ATOM     22  C   UNL d   1       0.799   4.976   0.062  0.00  0.00     0.102 A 
ATOM     23  C   UNL d   1       1.950   6.714   1.916  0.00  0.00     0.003 A 
ATOM     24  C   UNL d   1       1.430   7.209   0.718  0.00  0.00     0.003 A 
ATOM     25  C   UNL d   1       0.840   6.342  -0.204  0.00  0.00     0.039 A 
ATOM     26  O   UNL d   1       0.237   4.173  -0.899  0.00  0.00    -0.346 OA
ATOM     27  C   UNL d   1       0.119   2.814  -0.455  0.00  0.00     0.209 C 
ENDBRANCH  17  18
ENDBRANCH   2  17
TORSDOF 4
