REMARK  5 active torsions:
REMARK  status: ('A' for Active; 'I' for Inactive)
REMARK    1  A    between atoms: C_6  and  C_1 
REMARK    2  A    between atoms: N_10  and  C_2 
REMARK    3  A    between atoms: C_11  and  N_3 
REMARK    4  A    between atoms: N_7  and  C_12 
REMARK       I    between atoms: C_9  and  N_10 
REMARK       I    between atoms: N_13  and  C_9 
REMARK    5  A    between atoms: C_24  and  N_13 
ROOT
ATOM      1  C   UNL d   1       1.184  -0.904   0.166  0.00  0.00     0.168 C 
ATOM      2  C   UNL d   1      -0.136  -1.271   0.370  0.00  0.00     0.087 C 
ATOM      3  N   UNL d   1       1.274   0.425   0.532  0.00  0.00    -0.250 N 
ATOM      4  N   UNL d   1       0.202   0.782   1.301  0.00  0.00    -0.302 N 
ATOM      5  HN  UNL d   1       0.091   1.621   1.870  1.00  0.00     0.186 HD
ATOM      6  C   UNL d   1      -0.661  -0.215   1.138  0.00  0.00     0.139 C 
ENDROOT
BRANCH   2   7
ATOM      7  N   UNL d   1      -0.803  -2.444   0.022  0.00  0.00    -0.305 N 
ATOM      8  C   UNL d   1      -0.463  -3.181  -1.103  0.00  0.00     0.325 C 
ATOM      9  N   UNL d   1      -1.233  -4.324  -1.235  0.00  0.00    -0.309 N 
ATOM     10  O   UNL d   1       0.401  -2.812  -1.895  0.00  0.00    -0.247 OA
ATOM     11  H   UNL d   1      -2.018  -4.430  -0.612  0.00  0.00     0.170 HD
ATOM     12  H   UNL d   1      -1.746  -2.545   0.369  0.00  0.00     0.171 HD
BRANCH   9  13
ATOM     13  C   UNL d   1      -1.147  -5.255  -2.299  0.00  0.00     0.036 A 
ATOM     14  C   UNL d   1      -0.070  -5.304  -3.194  0.00  0.00     0.032 A 
ATOM     15  C   UNL d   1      -0.099  -6.159  -4.299  0.00  0.00     0.044 A 
ATOM     16  C   UNL d   1      -1.197  -6.981  -4.500  0.00  0.00     0.116 A 
ATOM     17  C   UNL d   1      -2.245  -6.999  -3.588  0.00  0.00     0.044 A 
ATOM     18  F   UNL d   1      -1.249  -7.762  -5.586  0.00  0.00    -0.206 F 
ATOM     19  C   UNL d   1      -2.214  -6.147  -2.479  0.00  0.00     0.032 A 
ENDBRANCH   9  13
ENDBRANCH   2   7
BRANCH   1  20
ATOM     20  C   UNL d   1       2.388  -1.698  -0.137  0.00  0.00     0.436 C 
ATOM     21  F   UNL d   1       2.202  -3.032   0.043  0.00  0.00    -0.164 F 
ATOM     22  F   UNL d   1       2.866  -1.523  -1.391  0.00  0.00    -0.164 F 
ATOM     23  F   UNL d   1       3.404  -1.370   0.711  0.00  0.00    -0.164 F 
ENDBRANCH   1  20
BRANCH   3  24
ATOM     24  C   UNL d   1       2.291   1.392   0.268  0.00  0.00     0.057 A 
ATOM     25  C   UNL d   1       3.082   1.338  -0.888  0.00  0.00     0.034 A 
ATOM     26  C   UNL d   1       4.112   2.268  -1.086  0.00  0.00     0.038 A 
ATOM     27  C   UNL d   1       4.346   3.259  -0.124  0.00  0.00     0.103 A 
ATOM     28  C   UNL d   1       3.519   3.363   1.000  0.00  0.00     0.038 A 
ATOM     29  C   UNL d   1       2.483   2.440   1.184  0.00  0.00     0.034 A 
BRANCH  27  30
ATOM     30  N   UNL d   1       5.472   4.188  -0.288  0.00  0.00    -0.116 N 
ATOM     31  O   UNL d   1       5.656   5.034   0.599  0.00  0.00    -0.532 OA
ATOM     32  O   UNL d   1       6.180   4.064  -1.298  0.00  0.00    -0.532 OA
ENDBRANCH  27  30
ENDBRANCH   3  24
TORSDOF 5
