REMARK  3 active torsions:
REMARK  status: ('A' for Active; 'I' for Inactive)
REMARK    1  A    between atoms: C_12  and  N_3 
REMARK    2  A    between atoms: C_8  and  C_4 
REMARK       I    between atoms: N_9  and  C_8 
REMARK    3  A    between atoms: C_15  and  N_9 
ROOT
ATOM      1  N   UNL d   1      -0.312  -0.699  -0.320  0.00  0.00    -0.272 N 
ATOM      2  HN  UNL d   1      -0.639  -1.654  -0.468  1.00  0.00     0.189 HD
ATOM      3  N   UNL d   1       0.939  -0.261   0.002  0.00  0.00    -0.196 N 
ATOM      4  C   UNL d   1      -1.007   0.455  -0.391  0.00  0.00     0.141 C 
ATOM      5  N   UNL d   1       1.037   1.053   0.331  0.00  0.00    -0.281 N 
ATOM      6  HN  UNL d   1       1.838   1.557   0.713  1.00  0.00     0.189 HD
ATOM      7  C   UNL d   1      -0.179   1.520   0.030  0.00  0.00     0.057 C 
ATOM      8  C   UNL d   1      -0.504   2.956   0.173  0.00  0.00     0.072 C 
ENDROOT
BRANCH   4   9
ATOM      9  C   UNL d   1      -2.398   0.529  -0.851  0.00  0.00     0.276 C 
ATOM     10  N   UNL d   1      -3.088  -0.653  -0.658  0.00  0.00    -0.322 N 
ATOM     11  H   UNL d   1      -2.595  -1.352  -0.112  0.00  0.00     0.169 HD
ATOM     12  O   UNL d   1      -2.863   1.569  -1.299  0.00  0.00    -0.266 OA
BRANCH  10  13
ATOM     13  C   UNL d   1      -4.388  -0.960  -1.101  0.00  0.00     0.035 A 
ATOM     14  C   UNL d   1      -5.021  -0.263  -2.139  0.00  0.00     0.043 A 
ATOM     15  C   UNL d   1      -6.280  -0.699  -2.606  0.00  0.00    -0.006 A 
ATOM     16  C   UNL d   1      -7.140  -0.283  -3.661  0.00  0.00     0.030 A 
ATOM     17  C   UNL d   1      -6.892  -1.785  -1.982  0.00  0.00     0.042 A 
ATOM     18  C   UNL d   1      -8.240  -1.111  -3.657  0.00  0.00     0.089 A 
ATOM     19  N   UNL d   1      -8.091  -1.998  -2.624  0.00  0.00    -0.365 N 
ATOM     20  H   UNL d   1      -8.749  -2.726  -2.383  0.00  0.00     0.165 HD
ATOM     21  C   UNL d   1      -6.303  -2.468  -0.914  0.00  0.00     0.033 A 
ATOM     22  C   UNL d   1      -5.030  -2.051  -0.505  0.00  0.00     0.032 A 
ENDBRANCH  10  13
ENDBRANCH   4   9
BRANCH   3  23
ATOM     23  C   UNL d   1       2.083  -1.102  -0.054  0.00  0.00     0.074 A 
ATOM     24  C   UNL d   1       1.976  -2.417  -0.526  0.00  0.00     0.033 A 
ATOM     25  C   UNL d   1       3.121  -3.213  -0.632  0.00  0.00     0.002 A 
ATOM     26  C   UNL d   1       4.366  -2.706  -0.260  0.00  0.00     0.000 A 
ATOM     27  C   UNL d   1       4.474  -1.403   0.222  0.00  0.00     0.002 A 
ATOM     28  C   UNL d   1       3.337  -0.598   0.323  0.00  0.00     0.033 A 
ENDBRANCH   3  23
TORSDOF 3
