REMARK  7 active torsions:
REMARK  status: ('A' for Active; 'I' for Inactive)
REMARK    1  A    between atoms: C_7  and  N_1 
REMARK    2  A    between atoms: C_2  and  C_4 
REMARK    3  A    between atoms: C_3  and  C_6 
REMARK    4  A    between atoms: C_5  and  C_4 
REMARK    5  A    between atoms: O_10  and  C_8 
REMARK    6  A    between atoms: C_14  and  O_10 
REMARK    7  A    between atoms: C_19  and  C_14 
ROOT
ATOM      1  N   UNL d   1       0.173   0.480  -0.321  0.00  0.00     0.119 N 
ATOM      2  C   UNL d   1       0.853  -0.828  -0.464  0.00  0.00     0.336 A 
ATOM      3  C   UNL d   1      -0.654  -0.728  -0.307  0.00  0.00     0.298 A 
ENDROOT
BRANCH   2   4
ATOM      4  C   UNL d   1       1.979  -0.864  -1.460  0.00  0.00     0.198 C 
ATOM      5  O   UNL d   1       3.104  -0.840  -0.965  0.00  0.00    -0.290 OA
BRANCH   4   6
ATOM      6  C   UNL d   1       1.893  -1.009  -2.952  0.00  0.00     0.045 A 
ATOM      7  C   UNL d   1       2.936  -0.600  -3.812  0.00  0.00     0.083 A 
ATOM      8  C   UNL d   1       2.795  -0.800  -5.201  0.00  0.00     0.038 A 
ATOM      9  C   UNL d   1       1.631  -1.330  -5.748  0.00  0.00     0.003 A 
ATOM     10  C   UNL d   1       0.611  -1.726  -4.907  0.00  0.00     0.001 A 
ATOM     11  C   UNL d   1       0.775  -1.597  -3.530  0.00  0.00     0.018 A 
BRANCH   7  12
ATOM     12  O   UNL d   1       4.052   0.010  -3.272  0.00  0.00    -0.346 OA
BRANCH  12  13
ATOM     13  C   UNL d   1       4.970   0.586  -4.206  0.00  0.00     0.214 C 
BRANCH  13  14
ATOM     14  C   UNL d   1       6.017   1.481  -3.584  0.00  0.00    -0.034 A 
ATOM     15  C   UNL d   1       6.533   1.265  -2.302  0.00  0.00     0.009 A 
ATOM     16  C   UNL d   1       7.555   2.083  -1.811  0.00  0.00     0.001 A 
ATOM     17  C   UNL d   1       8.072   3.116  -2.594  0.00  0.00     0.000 A 
ATOM     18  C   UNL d   1       7.573   3.336  -3.873  0.00  0.00     0.001 A 
ATOM     19  C   UNL d   1       6.558   2.518  -4.366  0.00  0.00     0.009 A 
ENDBRANCH  13  14
ENDBRANCH  12  13
ENDBRANCH   7  12
ENDBRANCH   4   6
ENDBRANCH   2   4
BRANCH   1  20
ATOM     20  C   UNL d   1      -0.051   1.422  -1.421  0.00  0.00     0.225 C 
ATOM     21  C   UNL d   1       1.193   2.178  -1.929  0.00  0.00     0.036 C 
ATOM     22  C   UNL d   1       1.873   3.030  -0.868  0.00  0.00     0.002 C 
ATOM     23  C   UNL d   1       0.905   4.054  -0.293  0.00  0.00     0.000 C 
ATOM     24  C   UNL d   1      -0.385   3.404   0.197  0.00  0.00     0.002 C 
ATOM     25  C   UNL d   1      -1.023   2.503  -0.869  0.00  0.00     0.036 C 
ENDBRANCH   1  20
BRANCH   3  26
ATOM     26  C   UNL d   1      -1.643  -1.286  -1.306  0.00  0.00    -0.022 C 
ATOM     27  C   UNL d   1      -1.690  -2.681  -1.538  0.00  0.00     0.011 C 
ATOM     28  C   UNL d   1      -2.476  -3.239  -2.556  0.00  0.00     0.024 C 
ATOM     29  C   UNL d   1      -3.303  -2.417  -3.311  0.00  0.00     0.034 C 
ATOM     30  C   UNL d   1      -3.403  -1.068  -3.003  0.00  0.00     0.024 C 
ATOM     31 CL   UNL d   1      -4.185  -3.064  -4.637  0.00  0.00    -0.084 Cl
ATOM     32  C   UNL d   1      -2.600  -0.521  -1.993  0.00  0.00     0.011 C 
ENDBRANCH   3  26
TORSDOF 7
