REMARK  3 active torsions:
REMARK  status: ('A' for Active; 'I' for Inactive)
REMARK    1  A    between atoms: S_9  and  C_5 
REMARK    2  A    between atoms: N_10  and  C_6 
REMARK    3  A    between atoms: N_11  and  C_7 
ROOT
ATOM      1  N   UNL d   1       1.191   1.045   0.061  0.00  0.00    -0.328 N 
ATOM      2  HN  UNL d   1       2.057   1.578   0.130  1.00  0.00     0.169 HD
ATOM      3  N   UNL d   1      -1.192   1.004   0.029  0.00  0.00    -0.328 N 
ATOM      4  HN  UNL d   1      -2.077   1.510   0.073  1.00  0.00     0.169 HD
ATOM      5  C   UNL d   1      -0.012   1.641   0.093  0.00  0.00     0.146 A 
ATOM      6  C   UNL d   1       1.190  -0.285  -0.067  0.00  0.00     0.082 A 
ATOM      7  C   UNL d   1      -1.148  -0.323  -0.094  0.00  0.00     0.082 A 
ATOM      8  C   UNL d   1       0.032  -1.023  -0.160  0.00  0.00     0.084 A 
ENDROOT
BRANCH   6   9
ATOM      9  N   UNL d   1       2.431  -0.910  -0.168  0.00  0.00    -0.288 NA
ATOM     10  H   UNL d   1       3.153  -0.206  -0.037  0.00  0.00     0.125 HD
ATOM     11  H   UNL d   1       2.532  -1.689   0.471  0.00  0.00     0.125 HD
ENDBRANCH   6   9
BRANCH   5  12
ATOM     12  S   UNL d   1      -0.091   3.416   0.173  0.00  0.00    -0.098 SA
ATOM     13  C   UNL d   1       1.434   3.764   1.076  0.00  0.00     0.099 C 
ENDBRANCH   5  12
BRANCH   7  14
ATOM     14  N   UNL d   1      -2.372  -0.981  -0.215  0.00  0.00    -0.288 NA
ATOM     15  H   UNL d   1      -2.467  -1.754   0.433  0.00  0.00     0.125 HD
ATOM     16  H   UNL d   1      -3.107  -0.288  -0.097  0.00  0.00     0.125 HD
ENDBRANCH   7  14
TORSDOF 3
