REMARK  2 active torsions:
REMARK  status: ('A' for Active; 'I' for Inactive)
REMARK    1  A    between atoms: C_2  and  C_1 
REMARK    2  A    between atoms: N_8  and  C_2 
ROOT
ATOM      1  C   UNL d   1       0.909   1.035  -0.019  0.00  0.00     0.059 A 
ATOM      2  C   UNL d   1       0.102  -0.089   0.005  0.00  0.00     0.031 A 
ATOM      3  S   UNL d   1       2.568   0.549  -0.066  0.00  0.00    -0.098 SA
ATOM      4  C   UNL d   1       0.817  -1.317   0.004  0.00  0.00     0.028 A 
ATOM      5  C   UNL d   1       2.175  -1.111  -0.029  0.00  0.00     0.052 A 
ATOM      6 BR   UNL d   1      -1.792  -0.127   0.078  0.00  0.00    -0.050 Br
ENDROOT
BRANCH   1   7
ATOM      7  C   UNL d   1       0.544   2.440  -0.051  0.00  0.00     0.113 C 
ATOM      8  S   UNL d   1       1.408   3.641   0.722  0.00  0.00    -0.059 SA
BRANCH   7   9
ATOM      9  N   UNL d   1      -0.581   2.791  -0.745  0.00  0.00    -0.389 N 
ATOM     10  H   UNL d   1      -1.170   2.111  -1.209  0.00  0.00     0.157 HD
ATOM     11  H   UNL d   1      -0.867   3.762  -0.760  0.00  0.00     0.157 HD
ENDBRANCH   7   9
ENDBRANCH   1   7
TORSDOF 2
