REMARK  11 active torsions:
REMARK  status: ('A' for Active; 'I' for Inactive)
REMARK    1  A    between atoms: C_7  and  C_1 
REMARK    2  A    between atoms: C_4  and  C_1 
REMARK    3  A    between atoms: N_8  and  N_2 
REMARK    4  A    between atoms: C_4  and  O_11 
REMARK    5  A    between atoms: C_4  and  C_9 
REMARK    6  A    between atoms: N_10  and  N_5 
REMARK    7  A    between atoms: C_12  and  N_8 
REMARK    8  A    between atoms: C_9  and  C_16 
REMARK    9  A    between atoms: C_9  and  O_13 
REMARK   10  A    between atoms: C_14  and  N_10 
REMARK   11  A    between atoms: O_15  and  C_16 
ROOT
ATOM      1  C   UNL d   1       3.201  -0.714   1.327  0.00  0.00     0.069 C 
ATOM      2  N   UNL d   1       4.387  -0.504   1.820  0.00  0.00    -0.317 N 
ATOM      3  HN  UNL d   1       4.719  -1.054   2.612  1.00  0.00     0.181 HD
ENDROOT
BRANCH   1   4
ATOM      4  C   UNL d   1       2.462  -1.869   1.954  0.00  0.00     0.136 C 
ATOM      5  N   UNL d   1       1.176  -1.842   2.064  0.00  0.00    -0.309 N 
ATOM      6  HN  UNL d   1       0.612  -1.073   1.703  1.00  0.00     0.186 HD
BRANCH   5   7
ATOM      7  N   UNL d   1       0.630  -2.911   2.695  0.00  0.00    -0.301 N 
ATOM      8  H   UNL d   1       1.156  -3.756   2.900  0.00  0.00     0.187 HD
BRANCH   7   9
ATOM      9  C   UNL d   1      -0.757  -2.959   2.922  0.00  0.00     0.048 A 
ATOM     10  C   UNL d   1      -1.614  -1.924   2.526  0.00  0.00     0.031 A 
ATOM     11  C   UNL d   1      -2.986  -1.976   2.801  0.00  0.00     0.002 A 
ATOM     12  C   UNL d   1      -3.518  -3.060   3.490  0.00  0.00     0.000 A 
ATOM     13  C   UNL d   1      -2.680  -4.094   3.903  0.00  0.00     0.002 A 
ATOM     14  C   UNL d   1      -1.307  -4.040   3.623  0.00  0.00     0.031 A 
ENDBRANCH   7   9
ENDBRANCH   5   7
ENDBRANCH   1   4
BRANCH   1  15
ATOM     15  C   UNL d   1       2.496   0.054   0.212  0.00  0.00     0.201 C 
BRANCH  15  16
ATOM     16  O   UNL d   1       2.621   1.466   0.407  0.00  0.00    -0.387 OA
ATOM     17  H   UNL d   1       3.421   1.599   0.957  0.00  0.00     0.210 HD
ENDBRANCH  15  16
BRANCH  15  18
ATOM     18  C   UNL d   1       3.061  -0.323  -1.168  0.00  0.00     0.176 C 
BRANCH  18  19
ATOM     19  C   UNL d   1       2.205   0.226  -2.319  0.00  0.00     0.198 C 
BRANCH  19  20
ATOM     20  O   UNL d   1       0.963  -0.479  -2.359  0.00  0.00    -0.398 OA
ATOM     21  H   UNL d   1       0.499  -0.180  -3.162  0.00  0.00     0.209 HD
ENDBRANCH  19  20
ENDBRANCH  18  19
BRANCH  18  22
ATOM     22  O   UNL d   1       3.146  -1.746  -1.305  0.00  0.00    -0.390 OA
ATOM     23  H   UNL d   1       2.233  -2.039  -1.505  0.00  0.00     0.210 HD
ENDBRANCH  18  22
ENDBRANCH  15  18
ENDBRANCH   1  15
BRANCH   2  24
ATOM     24  N   UNL d   1       5.181   0.459   1.269  0.00  0.00    -0.206 NA
ATOM     25  H   UNL d   1       5.300   0.406   0.256  0.00  0.00     0.153 HD
BRANCH  24  26
ATOM     26  C   UNL d   1       6.480   0.562   1.847  0.00  0.00     0.027 A 
ATOM     27  C   UNL d   1       7.528   1.110   1.091  0.00  0.00     0.025 A 
ATOM     28  C   UNL d   1       8.813   1.228   1.630  0.00  0.00     0.002 A 
ATOM     29  C   UNL d   1       9.057   0.836   2.943  0.00  0.00     0.000 A 
ATOM     30  C   UNL d   1       8.015   0.343   3.724  0.00  0.00     0.002 A 
ATOM     31  C   UNL d   1       6.733   0.220   3.180  0.00  0.00     0.025 A 
ENDBRANCH  24  26
ENDBRANCH   2  24
TORSDOF 11
