REMARK  4 active torsions:
REMARK  status: ('A' for Active; 'I' for Inactive)
REMARK    1  A    between atoms: S_10  and  C_1 
REMARK    2  A    between atoms: C_8  and  C_7 
REMARK    3  A    between atoms: C_11  and  C_8 
REMARK    4  A    between atoms: C_9  and  S_10 
ROOT
ATOM      1  C   UNL d   1      -6.126  -0.494  -0.149  0.00  0.00     0.063 C 
ATOM      2  C   UNL d   1      -4.821  -0.287   0.090  0.00  0.00     0.056 C 
ENDROOT
BRANCH   2   3
ATOM      3  S   UNL d   1      -3.703  -1.613   0.026  0.00  0.00    -0.077 SA
BRANCH   3   4
ATOM      4  C   UNL d   1      -2.189  -0.761   0.291  0.00  0.00     0.117 A 
ATOM      5  N   UNL d   1      -1.994   0.482  -0.086  0.00  0.00    -0.344 N 
ATOM      6  C   UNL d   1      -0.701   0.870   0.229  0.00  0.00     0.050 A 
ATOM      7  HN  UNL d   1      -2.690   1.072  -0.542  1.00  0.00     0.167 HD
ATOM      8  C   UNL d   1      -0.135   2.137  -0.017  0.00  0.00     0.031 A 
ATOM      9  C   UNL d   1       0.086  -0.107   0.842  0.00  0.00     0.034 A 
ATOM     10  C   UNL d   1       1.188   2.396   0.360  0.00  0.00     0.002 A 
ATOM     11  C   UNL d   1       1.952   1.407   0.972  0.00  0.00     0.002 A 
ATOM     12  C   UNL d   1       1.417   0.140   1.222  0.00  0.00     0.021 A 
ATOM     13  S   UNL d   1      -0.845  -1.545   1.012  0.00  0.00    -0.063 SA
ENDBRANCH   3   4
ENDBRANCH   2   3
BRANCH   1  14
ATOM     14  C   UNL d   1      -7.086   0.637  -0.069  0.00  0.00     0.182 C 
ATOM     15  O   UNL d   1      -6.827   1.667   0.543  0.00  0.00    -0.288 OA
BRANCH  14  16
ATOM     16  C   UNL d   1      -8.412   0.471  -0.728  0.00  0.00     0.014 A 
ATOM     17  C   UNL d   1      -9.515   1.153  -0.192  0.00  0.00     0.018 A 
ATOM     18  C   UNL d   1     -10.765   1.065  -0.809  0.00  0.00     0.043 A 
ATOM     19  C   UNL d   1     -10.907   0.306  -1.965  0.00  0.00     0.116 A 
ATOM     20  C   UNL d   1      -9.823  -0.374  -2.511  0.00  0.00     0.043 A 
ATOM     21  F   UNL d   1     -12.100   0.236  -2.568  0.00  0.00    -0.206 F 
ATOM     22  C   UNL d   1      -8.571  -0.293  -1.895  0.00  0.00     0.018 A 
ENDBRANCH  14  16
ENDBRANCH   1  14
TORSDOF 4
