REMARK  3 active torsions:
REMARK  status: ('A' for Active; 'I' for Inactive)
REMARK    1  A    between atoms: C_6  and  N_1 
REMARK    2  A    between atoms: O_16  and  C_11 
REMARK    3  A    between atoms: C_17  and  O_16 
ROOT
ATOM      1  N   UNL d   1       1.925  -0.048  -0.096  0.00  0.00    -0.244 N 
ATOM      2  C   UNL d   1       1.162   0.935   0.503  0.00  0.00     0.266 A 
ATOM      3  C   UNL d   1       1.114  -1.011  -0.661  0.00  0.00     0.266 A 
ATOM      4  C   UNL d   1      -0.238   0.575   0.293  0.00  0.00     0.048 A 
ATOM      5  C   UNL d   1      -0.265  -0.616  -0.399  0.00  0.00     0.048 A 
ATOM      6  O   UNL d   1       1.470   1.958   1.089  0.00  0.00    -0.267 OA
ATOM      7  O   UNL d   1       1.370  -2.046  -1.252  0.00  0.00    -0.267 OA
ATOM      8  C   UNL d   1      -1.450  -1.244  -0.731  0.00  0.00     0.018 A 
ATOM      9  C   UNL d   1      -1.397   1.229   0.665  0.00  0.00     0.018 A 
ATOM     10  C   UNL d   1      -2.612   0.622   0.330  0.00  0.00     0.001 A 
ATOM     11  C   UNL d   1      -2.638  -0.610  -0.355  0.00  0.00     0.001 A 
ENDROOT
BRANCH   1  12
ATOM     12  C   UNL d   1       3.346  -0.073  -0.124  0.00  0.00     0.046 A 
ATOM     13  C   UNL d   1       4.104   0.660   0.802  0.00  0.00     0.033 A 
ATOM     14  C   UNL d   1       5.507   0.618   0.797  0.00  0.00     0.039 A 
ATOM     15  C   UNL d   1       6.183  -0.138  -0.155  0.00  0.00     0.068 A 
ATOM     16  C   UNL d   1       5.446  -0.869  -1.081  0.00  0.00     0.039 A 
ATOM     17  C   UNL d   1       4.046  -0.837  -1.067  0.00  0.00     0.033 A 
BRANCH  15  18
ATOM     18  O   UNL d   1       7.538  -0.277  -0.246  0.00  0.00    -0.352 OA
BRANCH  18  19
ATOM     19  C   UNL d   1       8.316   0.806   0.263  0.00  0.00     0.171 C 
ATOM     20  C   UNL d   1       9.779   0.487   0.014  0.00  0.00     0.034 C 
ENDBRANCH  18  19
ENDBRANCH  15  18
ENDBRANCH   1  12
TORSDOF 3
