REMARK  2 active torsions:
REMARK  status: ('A' for Active; 'I' for Inactive)
REMARK       I    between atoms: C_4  and  N_1 
REMARK    1  A    between atoms: N_2  and  C_6 
REMARK    2  A    between atoms: C_13  and  C_4 
ROOT
ATOM      1  N   UNL d   1       1.549   1.128  -0.072  0.00  0.00    -0.314 N 
ATOM      2  C   UNL d   1       0.211   0.679  -0.035  0.00  0.00     0.044 A 
ATOM      3  C   UNL d   1       1.952   2.455  -0.117  0.00  0.00     0.247 C 
ATOM      4  C   UNL d   1       0.173  -0.719  -0.016  0.00  0.00    -0.027 A 
ATOM      5  C   UNL d   1      -2.215  -0.681   0.050  0.00  0.00     0.103 A 
ATOM      6  C   UNL d   1       2.424  -0.057   0.037  0.00  0.00     0.137 C 
ATOM      7  C   UNL d   1      -1.025  -1.421   0.023  0.00  0.00     0.045 A 
ATOM      8  C   UNL d   1      -0.966   1.412  -0.017  0.00  0.00     0.033 A 
ATOM      9  C   UNL d   1       1.545  -1.302  -0.100  0.00  0.00     0.061 C 
ATOM     10  C   UNL d   1      -2.190   0.728   0.027  0.00  0.00     0.038 A 
ATOM     11  O   UNL d   1       1.196   3.422  -0.159  0.00  0.00    -0.268 OA
ENDROOT
BRANCH   3  12
ATOM     12  C   UNL d   1       3.434   2.678  -0.128  0.00  0.00     0.064 C 
ATOM     13  C   UNL d   1       3.963   3.907  -0.217  0.00  0.00     0.017 C 
ENDBRANCH   3  12
BRANCH   5  14
ATOM     14  N   UNL d   1      -3.502  -1.390   0.094  0.00  0.00    -0.116 N 
ATOM     15  O   UNL d   1      -3.475  -2.629   0.115  0.00  0.00    -0.532 OA
ATOM     16  O   UNL d   1      -4.536  -0.706   0.109  0.00  0.00    -0.532 OA
ENDBRANCH   5  14
TORSDOF 2
