REMARK  2 active torsions:
REMARK  status: ('A' for Active; 'I' for Inactive)
REMARK    1  A    between atoms: N_5  and  C_9 
REMARK    2  A    between atoms: C_8  and  C_7 
ROOT
ATOM      1  C   UNL d   1      -0.788  -1.095  -0.055  0.00  0.00     0.082 C 
ATOM      2  N   UNL d   1      -0.232   0.709   1.339  0.00  0.00    -0.307 N 
ATOM      3  C   UNL d   1      -1.199   0.238   0.494  0.00  0.00     0.264 C 
ATOM      4  C   UNL d   1       0.894  -0.032   1.507  0.00  0.00     0.146 C 
ATOM      5  S   UNL d   1       0.850  -1.410   0.440  0.00  0.00    -0.054 SA
ATOM      6  C   UNL d   1      -1.565  -1.968  -0.728  0.00  0.00    -0.029 C 
ATOM      7  S   UNL d   1       2.094   0.343   2.583  0.00  0.00    -0.052 SA
ATOM      8  O   UNL d   1      -2.235   0.838   0.260  0.00  0.00    -0.267 OA
ATOM      9  C   UNL d   1      -1.134  -3.330  -1.214  0.00  0.00     0.050 C 
ATOM     10  H   UNL d   1      -0.382   1.570   1.843  0.00  0.00     0.170 HD
ENDROOT
BRANCH   6  11
ATOM     11  C   UNL d   1      -2.992  -1.694  -0.986  0.00  0.00    -0.026 A 
ATOM     12  C   UNL d   1      -3.950  -2.088  -0.043  0.00  0.00     0.048 A 
ATOM     13  C   UNL d   1      -5.308  -1.829  -0.283  0.00  0.00     0.103 A 
ATOM     14  C   UNL d   1      -5.714  -1.184  -1.458  0.00  0.00     0.036 A 
ATOM     15  C   UNL d   1      -4.755  -0.796  -2.395  0.00  0.00     0.003 A 
ATOM     16  C   UNL d   1      -3.401  -1.050  -2.161  0.00  0.00     0.012 A 
BRANCH  13  17
ATOM     17  N   UNL d   1      -6.309  -2.243   0.707  0.00  0.00    -0.116 N 
ATOM     18  O   UNL d   1      -5.908  -2.819   1.727  0.00  0.00    -0.532 OA
ATOM     19  O   UNL d   1      -7.500  -2.002   0.458  0.00  0.00    -0.532 OA
ENDBRANCH  13  17
ENDBRANCH   6  11
TORSDOF 2
