REMARK  8 active torsions:
REMARK  status: ('A' for Active; 'I' for Inactive)
REMARK    1  A    between atoms: O_11  and  C_1 
REMARK    2  A    between atoms: O_13  and  C_2 
REMARK    3  A    between atoms: O_12  and  C_3 
REMARK    4  A    between atoms: N_8  and  C_4 
REMARK       I    between atoms: C_7  and  N_8 
REMARK    5  A    between atoms: C_9  and  C_7 
REMARK    6  A    between atoms: C_16  and  C_9 
REMARK    7  A    between atoms: C_15  and  O_22 
REMARK    8  A    between atoms: O_22  and  C_16 
ROOT
ATOM      1  C   UNL d   1      -3.534   1.465  -0.140  0.00  0.00     0.224 C 
ATOM      2  N   UNL d   1      -2.687   0.383  -0.066  0.00  0.00    -0.327 N 
ATOM      3  O   UNL d   1      -3.185   2.645  -0.154  0.00  0.00    -0.273 OA
ATOM      4  H   UNL d   1      -3.117  -0.533  -0.114  0.00  0.00     0.169 HD
ENDROOT
BRANCH   2   5
ATOM      5  C   UNL d   1      -1.274   0.386  -0.104  0.00  0.00     0.040 A 
ATOM      6  C   UNL d   1      -0.464   1.514  -0.177  0.00  0.00     0.069 A 
ATOM      7  C   UNL d   1       0.936   1.398  -0.345  0.00  0.00     0.106 A 
ATOM      8  C   UNL d   1       1.537   0.126  -0.465  0.00  0.00     0.135 A 
ATOM      9  C   UNL d   1       0.708  -1.006  -0.374  0.00  0.00     0.106 A 
ATOM     10  C   UNL d   1      -0.668  -0.866  -0.136  0.00  0.00     0.069 A 
BRANCH   7  11
ATOM     11  O   UNL d   1       1.547   2.630  -0.377  0.00  0.00    -0.353 OA
ATOM     12  C   UNL d   1       2.880   2.734  -0.854  0.00  0.00     0.210 C 
ENDBRANCH   7  11
BRANCH   8  13
ATOM     13  O   UNL d   1       2.897   0.095  -0.622  0.00  0.00    -0.351 OA
ATOM     14  C   UNL d   1       3.507  -1.039  -1.219  0.00  0.00     0.210 C 
ENDBRANCH   8  13
BRANCH   9  15
ATOM     15  O   UNL d   1       1.219  -2.280  -0.473  0.00  0.00    -0.353 OA
ATOM     16  C   UNL d   1       0.518  -3.060  -1.450  0.00  0.00     0.210 C 
ENDBRANCH   9  15
ENDBRANCH   2   5
BRANCH   1  17
ATOM     17  C   UNL d   1      -5.011   1.128  -0.316  0.00  0.00     0.130 C 
BRANCH  17  18
ATOM     18  C   UNL d   1      -5.496  -0.211   0.231  0.00  0.00     0.185 C 
BRANCH  18  19
ATOM     19  O   UNL d   1      -5.251  -1.244  -0.740  0.00  0.00    -0.351 OA
BRANCH  19  20
ATOM     20  C   UNL d   1      -5.958  -2.399  -0.543  0.00  0.00     0.069 A 
ATOM     21  C   UNL d   1      -6.308  -3.121  -1.695  0.00  0.00     0.040 A 
ATOM     22  C   UNL d   1      -7.024  -4.319  -1.591  0.00  0.00     0.045 A 
ATOM     23  C   UNL d   1      -7.376  -4.801  -0.335  0.00  0.00     0.116 A 
ATOM     24  C   UNL d   1      -7.018  -4.105   0.819  0.00  0.00     0.045 A 
ATOM     25  F   UNL d   1      -8.058  -5.944  -0.229  0.00  0.00    -0.206 F 
ATOM     26  C   UNL d   1      -6.306  -2.908   0.711  0.00  0.00     0.040 A 
ENDBRANCH  19  20
ENDBRANCH  18  19
ENDBRANCH  17  18
ENDBRANCH   1  17
TORSDOF 8
