REMARK  6 active torsions:
REMARK  status: ('A' for Active; 'I' for Inactive)
REMARK    1  A    between atoms: N_2  and  C_1 
REMARK    2  A    between atoms: N_13  and  C_1 
REMARK    3  A    between atoms: C_6  and  N_2 
REMARK    4  A    between atoms: C_7  and  N_2 
REMARK    5  A    between atoms: C_3  and  C_6 
REMARK    6  A    between atoms: C_14  and  C_7 
ROOT
ATOM      1  N   UNL d   1       0.327  -1.144   0.064  0.00  0.00    -0.349 N 
ENDROOT
BRANCH   1   2
ATOM      2  C   UNL d   1       1.235  -0.093  -0.152  0.00  0.00     0.170 C 
ATOM      3  S   UNL d   1       0.809   1.396  -0.806  0.00  0.00    -0.041 SA
BRANCH   2   4
ATOM      4  N   UNL d   1       2.529  -0.397   0.235  0.00  0.00    -0.371 N 
ATOM      5  C   UNL d   1       3.618   0.564   0.332  0.00  0.00     0.148 C 
ATOM      6  H   UNL d   1       2.609  -1.155   0.897  0.00  0.00     0.161 HD
ENDBRANCH   2   4
ENDBRANCH   1   2
BRANCH   1   7
ATOM      7  C   UNL d   1      -1.108  -0.886   0.269  0.00  0.00     0.171 C 
BRANCH   7   8
ATOM      8  C   UNL d   1      -1.959  -1.124  -0.946  0.00  0.00     0.000 A 
ATOM      9  S   UNL d   1      -3.659  -1.246  -0.715  0.00  0.00    -0.105 SA
ATOM     10  C   UNL d   1      -3.948  -1.415  -2.389  0.00  0.00     0.050 A 
ATOM     11  C   UNL d   1      -2.780  -1.398  -3.114  0.00  0.00     0.008 A 
ATOM     12  C   UNL d   1      -1.631  -1.233  -2.284  0.00  0.00     0.017 A 
ENDBRANCH   7   8
ENDBRANCH   1   7
BRANCH   1  13
ATOM     13  C   UNL d   1       0.738  -2.557   0.071  0.00  0.00     0.165 C 
BRANCH  13  14
ATOM     14  C   UNL d   1       1.190  -3.104   1.403  0.00  0.00    -0.025 A 
ATOM     15  C   UNL d   1       2.014  -4.230   1.431  0.00  0.00     0.096 A 
ATOM     16  N   UNL d   1       2.463  -4.825   2.557  0.00  0.00    -0.375 N 
ATOM     17  C   UNL d   1       2.062  -4.292   3.730  0.00  0.00     0.087 A 
ATOM     18  HN  UNL d   1       3.077  -5.640   2.522  1.00  0.00     0.164 HD
ATOM     19  C   UNL d   1       1.240  -3.183   3.821  0.00  0.00     0.018 A 
ATOM     20  C   UNL d   1       0.801  -2.584   2.642  0.00  0.00     0.011 A 
ENDBRANCH  13  14
ENDBRANCH   1  13
TORSDOF 6
