REMARK  8 active torsions:
REMARK  status: ('A' for Active; 'I' for Inactive)
REMARK    1  A    between atoms: C_2  and  C_1 
REMARK    2  A    between atoms: O_9  and  C_2 
REMARK    3  A    between atoms: C_3  and  C_12 
REMARK    4  A    between atoms: O_23  and  C_4 
REMARK    5  A    between atoms: N_5  and  O_9 
REMARK    6  A    between atoms: C_13  and  C_8 
REMARK    7  A    between atoms: N_22  and  C_8 
REMARK    8  A    between atoms: C_24  and  O_23 
ROOT
ATOM      1  N   UNL d   1      -2.622   2.283  -0.190  0.00  0.00    -0.246 N 
ATOM      2  HN  UNL d   1      -1.873   2.940  -0.410  1.00  0.00     0.196 HD
ATOM      3  C   UNL d   1      -3.859   2.629   0.011  0.00  0.00     0.109 C 
ENDROOT
BRANCH   3   4
ATOM      4  C   UNL d   1      -4.201   4.090  -0.055  0.00  0.00     0.004 A 
ATOM      5  C   UNL d   1      -3.429   4.959  -0.835  0.00  0.00     0.015 A 
ATOM      6  C   UNL d   1      -3.756   6.317  -0.911  0.00  0.00     0.017 A 
ATOM      7  C   UNL d   1      -4.852   6.831  -0.201  0.00  0.00     0.048 A 
ATOM      8  C   UNL d   1      -5.612   5.956   0.592  0.00  0.00     0.017 A 
ATOM      9  C   UNL d   1      -5.291   4.596   0.664  0.00  0.00     0.015 A 
BRANCH   7  10
ATOM     10  C   UNL d   1      -5.218   8.296  -0.271  0.00  0.00     0.417 C 
ATOM     11  F   UNL d   1      -4.407   9.026  -1.086  0.00  0.00    -0.166 F 
ATOM     12  F   UNL d   1      -6.484   8.492  -0.734  0.00  0.00    -0.166 F 
ATOM     13  F   UNL d   1      -5.169   8.905   0.947  0.00  0.00    -0.166 F 
ENDBRANCH   7  10
ENDBRANCH   3   4
BRANCH   3  14
ATOM     14  N   UNL d   1      -4.872   1.731   0.265  0.00  0.00    -0.286 NA
ATOM     15  H   UNL d   1      -4.611   0.779   0.031  0.00  0.00     0.125 HD
ATOM     16  H   UNL d   1      -5.779   1.979  -0.114  0.00  0.00     0.125 HD
ENDBRANCH   3  14
BRANCH   1  17
ATOM     17  O   UNL d   1      -2.440   0.884  -0.066  0.00  0.00    -0.193 OA
BRANCH  17  18
ATOM     18  C   UNL d   1      -1.113   0.553  -0.279  0.00  0.00     0.325 C 
ATOM     19  O   UNL d   1      -0.240   1.352  -0.610  0.00  0.00    -0.257 OA
BRANCH  18  20
ATOM     20  C   UNL d   1      -0.886  -0.866  -0.033  0.00  0.00     0.115 A 
ATOM     21  C   UNL d   1       0.257  -1.551   0.370  0.00  0.00     0.092 A 
ATOM     22  C   UNL d   1       0.080  -2.969   0.335  0.00  0.00     0.045 A 
ATOM     23  C   UNL d   1      -1.187  -3.339  -0.045  0.00  0.00     0.053 A 
ATOM     24  S   UNL d   1      -2.170  -1.983  -0.355  0.00  0.00    -0.093 SA
BRANCH  21  25
ATOM     25  O   UNL d   1       1.479  -1.056   0.702  0.00  0.00    -0.350 OA
BRANCH  25  26
ATOM     26  C   UNL d   1       1.497   0.170   1.429  0.00  0.00     0.171 C 
ATOM     27  C   UNL d   1       2.673   0.149   2.391  0.00  0.00     0.034 C 
ENDBRANCH  25  26
ENDBRANCH  21  25
ENDBRANCH  18  20
ENDBRANCH  17  18
ENDBRANCH   1  17
TORSDOF 8
