REMARK  8 active torsions:
REMARK  status: ('A' for Active; 'I' for Inactive)
REMARK    1  A    between atoms: C_3  and  S_1 
REMARK    2  A    between atoms: N_14  and  S_1 
REMARK    3  A    between atoms: C_2  and  C_4 
REMARK    4  A    between atoms: C_16  and  C_5 
REMARK    5  A    between atoms: C_15  and  C_6 
REMARK    6  A    between atoms: C_21  and  N_14 
REMARK    7  A    between atoms: O_29  and  C_15 
REMARK    8  A    between atoms: O_28  and  C_16 
ROOT
ATOM      1  C   UNL d   1       0.978  -1.330   1.234  0.00  0.00     0.121 C 
ATOM      2  C   UNL d   1       0.522  -3.645   1.477  0.00  0.00    -0.015 C 
ATOM      3  C   UNL d   1       1.341  -2.619   0.864  0.00  0.00     0.045 C 
ATOM      4  S   UNL d   1      -0.459  -1.333   2.143  0.00  0.00    -0.088 SA
ATOM      5  C   UNL d   1      -0.505  -3.050   2.189  0.00  0.00     0.063 C 
ENDROOT
BRANCH   2   6
ATOM      6  C   UNL d   1       0.759  -5.116   1.421  0.00  0.00     0.011 A 
ATOM      7  C   UNL d   1       2.111  -5.610   1.465  0.00  0.00     0.073 A 
ATOM      8  C   UNL d   1       2.339  -6.979   1.295  0.00  0.00     0.022 A 
ATOM      9  C   UNL d   1       3.660  -7.687   1.244  0.00  0.00     0.069 C 
ATOM     10  N   UNL d   1       1.314  -7.854   1.179  0.00  0.00    -0.362 N 
ATOM     11  C   UNL d   1       0.031  -7.424   1.199  0.00  0.00     0.022 A 
ATOM     12  HN  UNL d   1       1.510  -8.850   1.074  1.00  0.00     0.165 HD
ATOM     13  C   UNL d   1      -0.304  -6.065   1.296  0.00  0.00     0.073 A 
ATOM     14  C   UNL d   1      -0.954  -8.553   1.087  0.00  0.00     0.069 C 
BRANCH   7  15
ATOM     15  C   UNL d   1       3.244  -4.716   1.841  0.00  0.00     0.295 C 
ATOM     16  O   UNL d   1       3.176  -3.917   2.763  0.00  0.00    -0.259 OA
BRANCH  15  17
ATOM     17  O   UNL d   1       4.311  -4.875   1.020  0.00  0.00    -0.322 OA
ATOM     18  C   UNL d   1       5.462  -4.076   1.335  0.00  0.00     0.213 C 
ENDBRANCH  15  17
ENDBRANCH   7  15
BRANCH  13  19
ATOM     19  C   UNL d   1      -1.743  -5.676   1.166  0.00  0.00     0.295 C 
ATOM     20  O   UNL d   1      -2.149  -4.741   0.503  0.00  0.00    -0.259 OA
BRANCH  19  21
ATOM     21  O   UNL d   1      -2.528  -6.506   1.906  0.00  0.00    -0.322 OA
ATOM     22  C   UNL d   1      -3.946  -6.319   1.794  0.00  0.00     0.213 C 
ENDBRANCH  19  21
ENDBRANCH  13  19
ENDBRANCH   2   6
BRANCH   1  23
ATOM     23  S   UNL d   1       1.751   0.224   0.902  0.00  0.00     0.269 S 
ATOM     24  O   UNL d   1       0.688   1.210   0.770  0.00  0.00    -0.200 OA
ATOM     25  O   UNL d   1       2.678  -0.025  -0.180  0.00  0.00    -0.200 OA
BRANCH  23  26
ATOM     26  N   UNL d   1       2.658   0.723   2.247  0.00  0.00    -0.280 N 
ATOM     27  H   UNL d   1       2.143   1.289   2.918  0.00  0.00     0.179 HD
BRANCH  26  28
ATOM     28  C   UNL d   1       3.773  -0.031   2.695  0.00  0.00     0.044 A 
ATOM     29  C   UNL d   1       5.026   0.211   2.133  0.00  0.00     0.057 A 
ATOM     30  C   UNL d   1       6.149  -0.453   2.633  0.00  0.00     0.074 A 
ATOM     31 CL   UNL d   1       7.700  -0.143   1.950  0.00  0.00    -0.081 Cl
ATOM     32  C   UNL d   1       6.011  -1.361   3.682  0.00  0.00     0.138 A 
ATOM     33  C   UNL d   1       4.757  -1.616   4.231  0.00  0.00     0.046 A 
ATOM     34  F   UNL d   1       7.073  -2.025   4.160  0.00  0.00    -0.204 F 
ATOM     35  C   UNL d   1       3.634  -0.947   3.737  0.00  0.00     0.033 A 
ENDBRANCH  26  28
ENDBRANCH  23  26
ENDBRANCH   1  23
TORSDOF 8
