REMARK  6 active torsions:
REMARK  status: ('A' for Active; 'I' for Inactive)
REMARK    1  A    between atoms: C_2  and  N_1 
REMARK    2  A    between atoms: O_7  and  C_3 
REMARK    3  A    between atoms: C_4  and  C_10 
REMARK    4  A    between atoms: C_5  and  C_4 
REMARK    5  A    between atoms: O_11  and  C_5 
REMARK    6  A    between atoms: C_10  and  O_7 
ROOT
ATOM      1  C   UNL d   1      -0.091  -1.609   2.801  0.00  0.00     0.136 A 
ATOM      2  C   UNL d   1       0.956  -1.137   1.996  0.00  0.00     0.102 A 
ATOM      3  C   UNL d   1      -0.994  -2.588   2.357  0.00  0.00     0.039 A 
ATOM      4  C   UNL d   1       1.084  -1.682   0.716  0.00  0.00     0.039 A 
ATOM      5  C   UNL d   1      -0.851  -3.107   1.074  0.00  0.00     0.003 A 
ATOM      6  C   UNL d   1       0.184  -2.654   0.257  0.00  0.00     0.003 A 
ENDROOT
BRANCH   2   7
ATOM      7  O   UNL d   1       1.813  -0.215   2.530  0.00  0.00    -0.343 OA
BRANCH   7   8
ATOM      8  C   UNL d   1       2.574   0.629   1.646  0.00  0.00     0.135 C 
ATOM      9  C   UNL d   1       3.705   1.224   2.490  0.00  0.00     0.040 C 
BRANCH   8  10
ATOM     10  C   UNL d   1       1.662   1.726   1.087  0.00  0.00     0.142 C 
BRANCH  10  11
ATOM     11  C   UNL d   1       2.364   2.584   0.070  0.00  0.00     0.141 C 
ATOM     12  O   UNL d   1       3.316   2.224  -0.603  0.00  0.00    -0.650 OA
BRANCH  11  13
ATOM     13  O   UNL d   1       1.796   3.802  -0.071  0.00  0.00    -0.776 OA
ATOM     14  H   UNL d   1       1.026   3.959   0.509  0.00  0.00     0.167 HD
ENDBRANCH  11  13
ENDBRANCH  10  11
ENDBRANCH   8  10
ENDBRANCH   7   8
ENDBRANCH   2   7
BRANCH   1  15
ATOM     15  N   UNL d   1      -0.297  -1.062   4.130  0.00  0.00    -0.113 N 
ATOM     16  O   UNL d   1      -0.485   0.160   4.219  0.00  0.00    -0.532 OA
ATOM     17  O   UNL d   1      -0.342  -1.867   5.069  0.00  0.00    -0.532 OA
ENDBRANCH   1  15
TORSDOF 6
