REMARK  4 active torsions:
REMARK  status: ('A' for Active; 'I' for Inactive)
REMARK    1  A    between atoms: C_2  and  C_1 
REMARK    2  A    between atoms: N_3  and  C_1 
REMARK    3  A    between atoms: C_4  and  N_3 
REMARK    4  A    between atoms: O_11  and  N_5 
ROOT
ATOM      1  C   UNL d   1       1.096  -0.083   0.074  0.00  0.00     0.137 C 
ATOM      2  N   UNL d   1       2.388  -0.057   0.266  0.00  0.00    -0.252 N 
ATOM      3  HN  UNL d   1       2.859   0.612   0.875  1.00  0.00     0.196 HD
ENDROOT
BRANCH   1   4
ATOM      4  C   UNL d   1       0.328   1.058   0.708  0.00  0.00     0.031 A 
ATOM      5  C   UNL d   1      -0.875   1.585   0.218  0.00  0.00     0.048 A 
ATOM      6 CL   UNL d   1      -1.626   1.064  -1.251  0.00  0.00    -0.083 Cl
ATOM      7  C   UNL d   1      -1.520   2.627   0.904  0.00  0.00     0.025 A 
ATOM      8  C   UNL d   1      -0.971   3.157   2.073  0.00  0.00     0.002 A 
ATOM      9  C   UNL d   1       0.232   2.658   2.556  0.00  0.00     0.001 A 
ATOM     10  C   UNL d   1       0.875   1.619   1.880  0.00  0.00     0.017 A 
ENDBRANCH   1   4
BRANCH   1  11
ATOM     11  N   UNL d   1       0.399  -1.035  -0.647  0.00  0.00    -0.339 N 
ATOM     12  H   UNL d   1      -0.459  -0.754  -1.111  0.00  0.00     0.167 HD
BRANCH  11  13
ATOM     13  C   UNL d   1       0.508  -2.442  -0.534  0.00  0.00     0.055 A 
ATOM     14  C   UNL d   1       0.090  -3.272  -1.594  0.00  0.00     0.060 A 
ATOM     15 CL   UNL d   1      -0.618  -2.595  -3.022  0.00  0.00    -0.082 Cl
ATOM     16  C   UNL d   1       0.247  -4.660  -1.534  0.00  0.00     0.026 A 
ATOM     17  C   UNL d   1       0.829  -5.248  -0.411  0.00  0.00     0.002 A 
ATOM     18  C   UNL d   1       1.255  -4.447   0.644  0.00  0.00     0.002 A 
ATOM     19  C   UNL d   1       1.103  -3.058   0.578  0.00  0.00     0.031 A 
ENDBRANCH  11  13
ENDBRANCH   1  11
BRANCH   2  20
ATOM     20  O   UNL d   1       3.051  -1.052  -0.461  0.00  0.00    -0.288 OA
ATOM     21  H   UNL d   1       3.985  -0.891  -0.241  0.00  0.00     0.244 HD
ENDBRANCH   2  20
TORSDOF 4
