REMARK  2 active torsions:
REMARK  status: ('A' for Active; 'I' for Inactive)
REMARK    1  A    between atoms: C_4  and  C_1 
REMARK    2  A    between atoms: S_8  and  C_3 
REMARK       I    between atoms: N_9  and  C_4 
ROOT
ATOM      1  C   UNL d   1       0.132   1.214  -0.019  0.00  0.00     0.073 A 
ATOM      2  S   UNL d   1      -1.034  -0.040  -0.016  0.00  0.00    -0.078 SA
ATOM      3  C   UNL d   1       0.159  -1.265  -0.006  0.00  0.00     0.041 A 
ATOM      4  C   UNL d   1       1.413   0.697  -0.014  0.00  0.00     0.026 A 
ATOM      5  C   UNL d   1       1.429  -0.730  -0.001  0.00  0.00     0.027 A 
ENDROOT
BRANCH   1   6
ATOM      6  C   UNL d   1      -0.238   2.619  -0.019  0.00  0.00     0.256 C 
ATOM      7  O   UNL d   1       0.572   3.542  -0.016  0.00  0.00    -0.267 OA
ATOM      8  N   UNL d   1      -1.575   2.908  -0.022  0.00  0.00    -0.366 N 
ATOM      9  H   UNL d   1      -2.277   2.181  -0.010  0.00  0.00     0.159 HD
ATOM     10  H   UNL d   1      -1.853   3.878  -0.010  0.00  0.00     0.159 HD
ENDBRANCH   1   6
BRANCH   3  11
ATOM     11  S   UNL d   1      -0.306  -2.959   0.040  0.00  0.00    -0.127 SA
ATOM     12  C   UNL d   1       1.022  -3.754  -0.886  0.00  0.00     0.096 C 
ENDBRANCH   3  11
TORSDOF 2
