REMARK  4 active torsions:
REMARK  status: ('A' for Active; 'I' for Inactive)
REMARK    1  A    between atoms: O_4  and  N_1 
REMARK    2  A    between atoms: C_3  and  O_4 
REMARK    3  A    between atoms: C_6  and  C_3 
REMARK    4  A    between atoms: C_7  and  C_5 
ROOT
ATOM      1  N   UNL d   1       1.012   0.027   0.049  0.00  0.00    -0.261 N 
ATOM      2  HN  UNL d   1       0.510  -0.157  -0.819  1.00  0.00     0.194 HD
ATOM      3  C   UNL d   1       2.310   0.041   0.133  0.00  0.00     0.039 C 
ATOM      4  C   UNL d   1       3.067   0.322   1.415  0.00  0.00     0.071 C 
ENDROOT
BRANCH   1   5
ATOM      5  O   UNL d   1       0.363   0.290   1.277  0.00  0.00    -0.195 OA
BRANCH   5   6
ATOM      6  C   UNL d   1      -0.992   0.307   1.084  0.00  0.00     0.315 C 
ATOM      7  O   UNL d   1      -1.589   0.157   0.026  0.00  0.00    -0.257 OA
BRANCH   6   8
ATOM      8  C   UNL d   1      -1.727   0.533   2.366  0.00  0.00     0.041 A 
ATOM      9  C   UNL d   1      -3.132   0.530   2.316  0.00  0.00     0.019 A 
ATOM     10  C   UNL d   1      -3.895   0.725   3.471  0.00  0.00     0.025 A 
ATOM     11  C   UNL d   1      -3.255   0.925   4.691  0.00  0.00     0.034 A 
ATOM     12  C   UNL d   1      -1.860   0.934   4.760  0.00  0.00     0.025 A 
ATOM     13 CL   UNL d   1      -4.189   1.159   6.116  0.00  0.00    -0.084 Cl
ATOM     14  C   UNL d   1      -1.095   0.740   3.603  0.00  0.00     0.019 A 
ENDBRANCH   6   8
ENDBRANCH   5   6
ENDBRANCH   1   5
BRANCH   3  15
ATOM     15  C   UNL d   1       3.122  -0.242  -1.107  0.00  0.00    -0.012 A 
ATOM     16  C   UNL d   1       2.470  -0.479  -2.330  0.00  0.00     0.016 A 
ATOM     17  C   UNL d   1       3.207  -0.748  -3.489  0.00  0.00     0.043 A 
ATOM     18  C   UNL d   1       4.595  -0.783  -3.429  0.00  0.00     0.116 A 
ATOM     19  C   UNL d   1       5.260  -0.552  -2.234  0.00  0.00     0.043 A 
ATOM     20  F   UNL d   1       5.302  -1.041  -4.537  0.00  0.00    -0.206 F 
ATOM     21  C   UNL d   1       4.526  -0.283  -1.073  0.00  0.00     0.016 A 
ENDBRANCH   3  15
TORSDOF 4
