REMARK  3 active torsions:
REMARK  status: ('A' for Active; 'I' for Inactive)
REMARK    1  A    between atoms: C_10  and  C_1 
REMARK       I    between atoms: C_4  and  N_8 
REMARK    2  A    between atoms: C_7  and  C_4 
REMARK    3  A    between atoms: N_8  and  C_13 
ROOT
ATOM      1  C   UNL d   1       0.567   2.518   0.246  0.00  0.00     0.012 A 
ATOM      2  C   UNL d   1       1.630   4.305  -1.035  0.00  0.00     0.035 A 
ATOM      3  C   UNL d   1       1.403   2.948  -0.800  0.00  0.00     0.044 A 
ATOM      4  C   UNL d   1      -0.004   3.474   1.094  0.00  0.00     0.015 A 
ATOM      5  C   UNL d   1       0.239   4.833   0.887  0.00  0.00     0.003 A 
ATOM      6  C   UNL d   1       1.043   5.244  -0.178  0.00  0.00     0.029 A 
ENDROOT
BRANCH   2   7
ATOM      7  N   UNL d   1       2.395   4.796  -2.112  0.00  0.00    -0.322 N 
ATOM      8  C   UNL d   1       3.027   4.074  -3.114  0.00  0.00     0.263 C 
ATOM      9  O   UNL d   1       3.053   2.850  -3.178  0.00  0.00    -0.267 OA
ATOM     10  H   UNL d   1       2.468   5.803  -2.194  0.00  0.00     0.169 HD
BRANCH   8  11
ATOM     11  C   UNL d   1       3.690   4.887  -4.134  0.00  0.00     0.072 A 
ATOM     12  S   UNL d   1       3.650   6.601  -4.131  0.00  0.00    -0.097 SA
ATOM     13  C   UNL d   1       4.603   6.696  -5.547  0.00  0.00     0.050 A 
ATOM     14  C   UNL d   1       4.943   5.451  -6.025  0.00  0.00     0.009 A 
ATOM     15  C   UNL d   1       4.411   4.410  -5.215  0.00  0.00     0.025 A 
ENDBRANCH   8  11
ENDBRANCH   2   7
BRANCH   1  16
ATOM     16  C   UNL d   1       0.265   1.097   0.384  0.00  0.00     0.137 A 
ATOM     17  N   UNL d   1       0.823   0.147  -0.447  0.00  0.00    -0.329 N 
ATOM     18  C   UNL d   1       0.231  -0.950  -0.058  0.00  0.00     0.261 A 
ATOM     19  HN  UNL d   1       1.521   0.270  -1.180  1.00  0.00     0.168 HD
ATOM     20  O   UNL d   1      -0.644  -0.770   0.961  0.00  0.00    -0.231 OA
ATOM     21  N   UNL d   1      -0.621   0.593   1.263  0.00  0.00    -0.243 N 
ATOM     22  HN  UNL d   1      -1.150   1.089   1.980  1.00  0.00     0.196 HD
ENDBRANCH   1  16
TORSDOF 3
