REMARK  3 active torsions:
REMARK  status: ('A' for Active; 'I' for Inactive)
REMARK    1  A    between atoms: C_3  and  C_1 
REMARK    2  A    between atoms: C_9  and  C_2 
REMARK       I    between atoms: N_6  and  C_3 
REMARK    3  A    between atoms: C_13  and  N_6 
ROOT
ATOM      1  C   UNL d   1      -0.433  -0.958  -0.092  0.00  0.00     0.137 A 
ATOM      2  C   UNL d   1       0.944  -0.863  -0.224  0.00  0.00     0.119 A 
ATOM      3  N   UNL d   1      -0.975   0.321   0.067  0.00  0.00    -0.340 N 
ATOM      4  HN  UNL d   1      -1.957   0.584   0.157  1.00  0.00     0.167 HD
ATOM      5  C   UNL d   1       0.077   1.100   0.072  0.00  0.00     0.234 A 
ATOM      6  O   UNL d   1       1.265   0.469  -0.097  0.00  0.00    -0.303 OA
ENDROOT
BRANCH   1   7
ATOM      7  C   UNL d   1      -1.275  -2.152  -0.115  0.00  0.00     0.275 C 
ATOM      8  N   UNL d   1      -2.617  -1.828  -0.220  0.00  0.00    -0.322 N 
ATOM      9  H   UNL d   1      -2.805  -0.830  -0.284  0.00  0.00     0.169 HD
ATOM     10  O   UNL d   1      -0.804  -3.281  -0.079  0.00  0.00    -0.266 OA
BRANCH   8  11
ATOM     11  C   UNL d   1      -3.697  -2.713  -0.397  0.00  0.00     0.035 A 
ATOM     12  C   UNL d   1      -3.592  -4.097  -0.239  0.00  0.00     0.029 A 
ATOM     13  C   UNL d   1      -4.685  -4.927  -0.506  0.00  0.00     0.002 A 
ATOM     14  C   UNL d   1      -5.892  -4.380  -0.930  0.00  0.00     0.000 A 
ATOM     15  C   UNL d   1      -6.018  -2.998  -1.060  0.00  0.00     0.002 A 
ATOM     16  C   UNL d   1      -4.928  -2.167  -0.781  0.00  0.00     0.029 A 
ENDBRANCH   8  11
ENDBRANCH   1   7
BRANCH   2  17
ATOM     17  C   UNL d   1       2.079  -1.743  -0.492  0.00  0.00     0.000 A 
ATOM     18  C   UNL d   1       1.962  -2.866  -1.323  0.00  0.00     0.016 A 
ATOM     19  C   UNL d   1       3.076  -3.666  -1.613  0.00  0.00     0.024 A 
ATOM     20  C   UNL d   1       4.321  -3.341  -1.081  0.00  0.00     0.034 A 
ATOM     21  C   UNL d   1       4.460  -2.233  -0.253  0.00  0.00     0.024 A 
ATOM     22 CL   UNL d   1       5.693  -4.306  -1.458  0.00  0.00    -0.084 Cl
ATOM     23  C   UNL d   1       3.345  -1.440   0.037  0.00  0.00     0.016 A 
ENDBRANCH   2  17
TORSDOF 3
