REMARK  4 active torsions:
REMARK  status: ('A' for Active; 'I' for Inactive)
REMARK    1  A    between atoms: C_6  and  C_1 
REMARK    2  A    between atoms: C_12  and  N_2 
REMARK    3  A    between atoms: O_8  and  C_6 
REMARK    4  A    between atoms: C_9  and  O_8 
ROOT
ATOM      1  C   UNL d   1      -0.147  -1.224   0.173  0.00  0.00     0.087 A 
ATOM      2  N   UNL d   1       1.151   0.589   0.137  0.00  0.00    -0.260 N 
ATOM      3  N   UNL d   1      -0.095   1.044   0.407  0.00  0.00    -0.297 N 
ATOM      4  HN  UNL d   1      -0.371   2.006   0.604  1.00  0.00     0.187 HD
ATOM      5  C   UNL d   1       1.176  -0.796   0.067  0.00  0.00     0.049 A 
ATOM      6  C   UNL d   1      -0.887  -0.028   0.364  0.00  0.00     0.041 A 
ATOM      7  C   UNL d   1       2.416  -1.624   0.030  0.00  0.00     0.071 C 
ATOM      8  C   UNL d   1      -2.351   0.172   0.536  0.00  0.00     0.071 C 
ENDROOT
BRANCH   1   9
ATOM      9  C   UNL d   1      -0.600  -2.614   0.185  0.00  0.00     0.302 C 
ATOM     10  O   UNL d   1       0.124  -3.571  -0.062  0.00  0.00    -0.259 OA
BRANCH   9  11
ATOM     11  O   UNL d   1      -1.935  -2.726   0.562  0.00  0.00    -0.273 OA
BRANCH  11  12
ATOM     12  C   UNL d   1      -2.242  -3.921   1.225  0.00  0.00     0.101 A 
ATOM     13  C   UNL d   1      -1.788  -4.165   2.529  0.00  0.00     0.069 A 
ATOM     14  C   UNL d   1      -2.203  -5.312   3.203  0.00  0.00     0.050 A 
ATOM     15 CL   UNL d   1      -0.771  -3.049   3.367  0.00  0.00    -0.081 Cl
ATOM     16  C   UNL d   1      -3.084  -6.193   2.578  0.00  0.00     0.035 A 
ATOM     17  C   UNL d   1      -3.551  -5.942   1.286  0.00  0.00     0.026 A 
ATOM     18 CL   UNL d   1      -3.628  -7.589   3.424  0.00  0.00    -0.084 Cl
ATOM     19  C   UNL d   1      -3.131  -4.799   0.603  0.00  0.00     0.041 A 
ENDBRANCH  11  12
ENDBRANCH   9  11
ENDBRANCH   1   9
BRANCH   2  20
ATOM     20  C   UNL d   1       2.207   1.535  -0.011  0.00  0.00     0.056 A 
ATOM     21  C   UNL d   1       3.304   1.286  -0.843  0.00  0.00     0.031 A 
ATOM     22  C   UNL d   1       4.326   2.235  -0.950  0.00  0.00     0.002 A 
ATOM     23  C   UNL d   1       4.258   3.426  -0.228  0.00  0.00     0.000 A 
ATOM     24  C   UNL d   1       3.157   3.687   0.584  0.00  0.00     0.002 A 
ATOM     25  C   UNL d   1       2.124   2.754   0.679  0.00  0.00     0.031 A 
ENDBRANCH   2  20
TORSDOF 4
