REMARK  4 active torsions:
REMARK  status: ('A' for Active; 'I' for Inactive)
REMARK    1  A    between atoms: C_2  and  C_1 
REMARK       I    between atoms: N_5  and  C_1 
REMARK    2  A    between atoms: C_4  and  C_3 
REMARK    3  A    between atoms: O_9  and  C_4 
REMARK    4  A    between atoms: C_8  and  N_5 
ROOT
ATOM      1  C   UNL d   1       0.979   0.075   0.056  0.00  0.00     0.257 C 
ATOM      2  N   UNL d   1       0.161  -0.085   1.159  0.00  0.00    -0.323 N 
ATOM      3  O   UNL d   1       2.202   0.057   0.062  0.00  0.00    -0.267 OA
ATOM      4  H   UNL d   1      -0.844  -0.093   1.026  0.00  0.00     0.169 HD
ENDROOT
BRANCH   1   5
ATOM      5  C   UNL d   1       0.307   0.276  -1.262  0.00  0.00     0.049 A 
ATOM      6  C   UNL d   1      -0.903  -0.297  -1.678  0.00  0.00     0.053 A 
ATOM      7  C   UNL d   1      -1.438   0.064  -2.934  0.00  0.00     0.019 A 
ATOM      8  C   UNL d   1      -0.767   0.948  -3.777  0.00  0.00     0.001 A 
ATOM      9  C   UNL d   1       0.459   1.473  -3.390  0.00  0.00     0.001 A 
ATOM     10  C   UNL d   1       0.992   1.137  -2.146  0.00  0.00     0.018 A 
BRANCH   6  11
ATOM     11  C   UNL d   1      -1.736  -1.247  -0.901  0.00  0.00     0.177 C 
ATOM     12  O   UNL d   1      -2.956  -1.210  -0.946  0.00  0.00    -0.646 OA
BRANCH  11  13
ATOM     13  O   UNL d   1      -1.079  -2.151  -0.154  0.00  0.00    -0.773 OA
ATOM     14  H   UNL d   1      -0.103  -2.173  -0.204  0.00  0.00     0.167 HD
ENDBRANCH  11  13
ENDBRANCH   6  11
ENDBRANCH   1   5
BRANCH   2  15
ATOM     15  C   UNL d   1       0.573  -0.309   2.492  0.00  0.00     0.035 A 
ATOM     16  C   UNL d   1       1.903  -0.256   2.922  0.00  0.00     0.032 A 
ATOM     17  C   UNL d   1       2.227  -0.533   4.253  0.00  0.00     0.044 A 
ATOM     18  C   UNL d   1       1.222  -0.857   5.154  0.00  0.00     0.116 A 
ATOM     19  C   UNL d   1      -0.106  -0.890   4.753  0.00  0.00     0.044 A 
ATOM     20  F   UNL d   1       1.538  -1.144   6.423  0.00  0.00    -0.206 F 
ATOM     21  C   UNL d   1      -0.431  -0.611   3.424  0.00  0.00     0.032 A 
ENDBRANCH   2  15
TORSDOF 4
