REMARK  4 active torsions:
REMARK  status: ('A' for Active; 'I' for Inactive)
REMARK    1  A    between atoms: N_2  and  C_1 
REMARK    2  A    between atoms: N_3  and  C_1 
REMARK    3  A    between atoms: C_5  and  N_2 
REMARK    4  A    between atoms: C_4  and  N_3 
ROOT
ATOM      1  C   UNL d   1       0.996   0.038  -0.044  0.00  0.00     0.177 C 
ATOM      2  S   UNL d   1       0.734   0.401  -1.664  0.00  0.00    -0.040 SA
ENDROOT
BRANCH   1   3
ATOM      3  N   UNL d   1       2.189   0.287   0.616  0.00  0.00    -0.319 N 
ATOM      4  H   UNL d   1       2.683  -0.500   1.012  0.00  0.00     0.169 HD
BRANCH   3   5
ATOM      5  C   UNL d   1       3.001   1.423   0.520  0.00  0.00     0.107 A 
ATOM      6  N   UNL d   1       4.298   1.223   0.834  0.00  0.00    -0.346 N 
ATOM      7  C   UNL d   1       5.129   2.295   0.793  0.00  0.00     0.007 A 
ATOM      8  HN  UNL d   1       4.642   0.298   1.092  1.00  0.00     0.167 HD
ATOM      9  C   UNL d   1       6.587   2.050   1.045  0.00  0.00     0.068 C 
ATOM     10  C   UNL d   1       4.685   3.582   0.508  0.00  0.00     0.025 A 
ATOM     11  C   UNL d   1       3.337   3.775   0.238  0.00  0.00     0.006 A 
ATOM     12  C   UNL d   1       2.481   2.679   0.237  0.00  0.00     0.048 A 
ENDBRANCH   3   5
ENDBRANCH   1   3
BRANCH   1  13
ATOM     13  N   UNL d   1       0.115  -0.639   0.793  0.00  0.00    -0.332 N 
ATOM     14  H   UNL d   1       0.568  -1.245   1.462  0.00  0.00     0.168 HD
BRANCH  13  15
ATOM     15  C   UNL d   1      -1.284  -0.821   0.656  0.00  0.00     0.046 A 
ATOM     16  C   UNL d   1      -1.817  -2.106   0.931  0.00  0.00    -0.035 A 
ATOM     17  C   UNL d   1      -3.208  -2.303   0.904  0.00  0.00     0.009 A 
ATOM     18  C   UNL d   1      -0.974  -3.316   1.239  0.00  0.00     0.050 C 
ATOM     19  C   UNL d   1      -4.073  -1.262   0.591  0.00  0.00     0.001 A 
ATOM     20  C   UNL d   1      -3.554  -0.001   0.326  0.00  0.00     0.009 A 
ATOM     21  C   UNL d   1      -2.170   0.248   0.386  0.00  0.00    -0.035 A 
ATOM     22  C   UNL d   1      -1.769   1.692   0.235  0.00  0.00     0.050 C 
ENDBRANCH  13  15
ENDBRANCH   1  13
TORSDOF 4
