REMARK  7 active torsions:
REMARK  status: ('A' for Active; 'I' for Inactive)
REMARK    1  A    between atoms: S_8  and  C_1 
REMARK    2  A    between atoms: C_9  and  N_2 
REMARK    3  A    between atoms: C_7  and  C_5 
REMARK    4  A    between atoms: C_16  and  S_8 
REMARK    5  A    between atoms: C_11  and  C_16 
REMARK    6  A    between atoms: O_21  and  C_11 
REMARK    7  A    between atoms: C_23  and  O_21 
ROOT
ATOM      1  C   UNL d   1       1.023  -0.733   0.052  0.00  0.00     0.152 A 
ATOM      2  N   UNL d   1      -0.288  -1.200   0.095  0.00  0.00    -0.301 N 
ATOM      3  N   UNL d   1       1.085   0.585   0.039  0.00  0.00    -0.334 N 
ATOM      4  HN  UNL d   1       1.924   1.164   0.019  1.00  0.00     0.168 HD
ATOM      5  C   UNL d   1      -0.217   1.009   0.058  0.00  0.00     0.067 A 
ATOM      6  C   UNL d   1      -1.076  -0.063   0.089  0.00  0.00     0.130 A 
ENDROOT
BRANCH   1   7
ATOM      7  S   UNL d   1       2.427  -1.736  -0.202  0.00  0.00    -0.083 SA
BRANCH   7   8
ATOM      8  C   UNL d   1       3.720  -0.759   0.609  0.00  0.00     0.193 C 
BRANCH   8   9
ATOM      9  C   UNL d   1       3.397  -0.460   2.055  0.00  0.00     0.268 C 
ATOM     10  O   UNL d   1       2.685  -1.129   2.794  0.00  0.00    -0.264 OA
BRANCH   9  11
ATOM     11  O   UNL d   1       4.040   0.689   2.422  0.00  0.00    -0.321 OA
BRANCH  11  12
ATOM     12  C   UNL d   1       3.539   1.321   3.607  0.00  0.00     0.174 C 
ATOM     13  C   UNL d   1       2.366   2.200   3.213  0.00  0.00     0.034 C 
ENDBRANCH  11  12
ENDBRANCH   9  11
ENDBRANCH   8   9
ENDBRANCH   7   8
ENDBRANCH   1   7
BRANCH   2  14
ATOM     14  C   UNL d   1      -0.807  -2.531   0.107  0.00  0.00     0.041 A 
ATOM     15  C   UNL d   1      -0.095  -3.589   0.679  0.00  0.00     0.030 A 
ATOM     16  C   UNL d   1      -0.595  -4.892   0.614  0.00  0.00     0.009 A 
ATOM     17  C   UNL d   1      -1.821  -5.159  -0.006  0.00  0.00    -0.062 A 
ATOM     18  C   UNL d   1      -2.555  -4.095  -0.533  0.00  0.00     0.009 A 
ATOM     19  C   UNL d   1      -2.310  -6.570  -0.121  0.00  0.00     0.048 C 
ATOM     20  C   UNL d   1      -2.060  -2.788  -0.469  0.00  0.00     0.030 A 
ENDBRANCH   2  14
BRANCH   5  21
ATOM     21  C   UNL d   1      -0.638   2.443   0.029  0.00  0.00     0.033 A 
ATOM     22  S   UNL d   1      -2.256   2.985   0.148  0.00  0.00    -0.100 SA
ATOM     23  C   UNL d   1      -1.789   4.625   0.028  0.00  0.00     0.050 A 
ATOM     24  C   UNL d   1      -0.423   4.760  -0.115  0.00  0.00     0.008 A 
ATOM     25  C   UNL d   1       0.242   3.497  -0.110  0.00  0.00     0.021 A 
ENDBRANCH   5  21
TORSDOF 7
