REMARK  3 active torsions:
REMARK  status: ('A' for Active; 'I' for Inactive)
REMARK    1  A    between atoms: C_14  and  C_1 
REMARK    2  A    between atoms: C_13  and  C_3 
REMARK    3  A    between atoms: C_18  and  C_6 
ROOT
ATOM      1  C   UNL d   1       0.122   1.198  -0.023  0.00  0.00     0.100 A 
ATOM      2  C   UNL d   1      -0.211  -2.683   0.014  0.00  0.00     0.181 A 
ATOM      3  C   UNL d   1      -1.305  -4.518  -0.078  0.00  0.00     0.176 A 
ATOM      4  S   UNL d   1      -1.045  -0.070  -0.071  0.00  0.00    -0.081 SA
ATOM      5  C   UNL d   1       0.137  -1.292  -0.014  0.00  0.00     0.059 A 
ATOM      6  C   UNL d   1       1.420   0.689  -0.027  0.00  0.00    -0.003 A 
ATOM      7  O   UNL d   1      -1.491  -3.166  -0.118  0.00  0.00    -0.272 OA
ATOM      8  N   UNL d   1       0.663  -3.661   0.168  0.00  0.00    -0.277 N 
ATOM      9  HN  UNL d   1       1.670  -3.560   0.295  1.00  0.00     0.189 HD
ATOM     10  N   UNL d   1      -0.045  -4.844   0.125  0.00  0.00    -0.277 N 
ATOM     11  HN  UNL d   1       0.333  -5.785   0.231  1.00  0.00     0.189 HD
ATOM     12  C   UNL d   1       1.404  -0.751  -0.011  0.00  0.00     0.037 A 
ENDROOT
BRANCH   3  13
ATOM     13  C   UNL d   1      -2.474  -5.385  -0.203  0.00  0.00     0.038 A 
ATOM     14  C   UNL d   1      -3.649  -5.050  -0.899  0.00  0.00     0.050 A 
ATOM     15  C   UNL d   1      -4.712  -5.963  -0.991  0.00  0.00     0.048 A 
ATOM     16 CL   UNL d   1      -3.872  -3.549  -1.733  0.00  0.00    -0.083 Cl
ATOM     17  C   UNL d   1      -4.607  -7.216  -0.396  0.00  0.00     0.035 A 
ATOM     18  C   UNL d   1      -3.456  -7.572   0.295  0.00  0.00     0.025 A 
ATOM     19 CL   UNL d   1      -5.906  -8.338  -0.531  0.00  0.00    -0.084 Cl
ATOM     20  C   UNL d   1      -2.398  -6.663   0.388  0.00  0.00     0.019 A 
ENDBRANCH   3  13
BRANCH   1  21
ATOM     21  C   UNL d   1      -0.379   2.611   0.021  0.00  0.00     0.424 C 
ATOM     22  F   UNL d   1      -1.705   2.701   0.307  0.00  0.00    -0.166 F 
ATOM     23  F   UNL d   1       0.260   3.355   0.959  0.00  0.00    -0.166 F 
ATOM     24  F   UNL d   1      -0.211   3.241  -1.170  0.00  0.00    -0.166 F 
ENDBRANCH   1  21
BRANCH   6  25
ATOM     25  C   UNL d   1       2.643   1.504   0.003  0.00  0.00    -0.025 A 
ATOM     26  C   UNL d   1       3.731   1.083   0.786  0.00  0.00     0.012 A 
ATOM     27  C   UNL d   1       4.927   1.806   0.806  0.00  0.00     0.001 A 
ATOM     28  C   UNL d   1       5.050   2.971   0.055  0.00  0.00     0.000 A 
ATOM     29  C   UNL d   1       3.982   3.400  -0.730  0.00  0.00     0.001 A 
ATOM     30  C   UNL d   1       2.794   2.662  -0.770  0.00  0.00     0.012 A 
ENDBRANCH   6  25
TORSDOF 3
