REMARK  3 active torsions:
REMARK  status: ('A' for Active; 'I' for Inactive)
REMARK    1  A    between atoms: C_7  and  C_1 
REMARK    2  A    between atoms: C_8  and  C_6 
REMARK    3  A    between atoms: O_16  and  C_9 
ROOT
ATOM      1  C   UNL d   1       1.113  -0.545  -0.012  0.00  0.00     0.063 A 
ATOM      2  N   UNL d   1      -1.077   0.051   0.167  0.00  0.00    -0.299 N 
ATOM      3  HN  UNL d   1      -2.085  -0.014   0.312  1.00  0.00     0.187 HD
ATOM      4  C   UNL d   1       1.023   0.822  -0.190  0.00  0.00     0.063 A 
ATOM      5  N   UNL d   1      -0.184  -0.950   0.154  0.00  0.00    -0.299 N 
ATOM      6  C   UNL d   1      -0.351   1.157  -0.053  0.00  0.00     0.060 A 
ATOM      7  H   UNL d   1      -0.526  -1.894   0.294  0.00  0.00     0.187 HD
ENDROOT
BRANCH   1   8
ATOM      8  C   UNL d   1       2.263  -1.452   0.012  0.00  0.00     0.025 A 
ATOM      9  C   UNL d   1       3.477  -1.110   0.632  0.00  0.00     0.078 A 
ATOM     10  C   UNL d   1       4.577  -1.969   0.599  0.00  0.00     0.037 A 
ATOM     11  C   UNL d   1       4.473  -3.204  -0.034  0.00  0.00     0.003 A 
ATOM     12  C   UNL d   1       3.274  -3.575  -0.636  0.00  0.00     0.001 A 
ATOM     13  C   UNL d   1       2.179  -2.703  -0.621  0.00  0.00     0.016 A 
BRANCH   9  14
ATOM     14  O   UNL d   1       3.658   0.053   1.335  0.00  0.00    -0.360 OA
ATOM     15  H   UNL d   1       2.781   0.401   1.569  0.00  0.00     0.217 HD
ENDBRANCH   9  14
ENDBRANCH   1   8
BRANCH   6  16
ATOM     16  C   UNL d   1      -0.961   2.489  -0.102  0.00  0.00    -0.008 A 
ATOM     17  C   UNL d   1      -0.311   3.559  -0.738  0.00  0.00     0.015 A 
ATOM     18  C   UNL d   1      -0.889   4.833  -0.759  0.00  0.00     0.024 A 
ATOM     19  C   UNL d   1      -2.120   5.047  -0.142  0.00  0.00     0.034 A 
ATOM     20  C   UNL d   1      -2.781   3.998   0.489  0.00  0.00     0.024 A 
ATOM     21 CL   UNL d   1      -2.825   6.616  -0.164  0.00  0.00    -0.084 Cl
ATOM     22  C   UNL d   1      -2.205   2.724   0.505  0.00  0.00     0.015 A 
ENDBRANCH   6  16
TORSDOF 3
