REMARK  5 active torsions:
REMARK  status: ('A' for Active; 'I' for Inactive)
REMARK    1  A    between atoms: N_5  and  C_1 
REMARK       I    between atoms: C_8  and  N_5 
REMARK    2  A    between atoms: C_12  and  C_8 
REMARK    3  A    between atoms: C_9  and  C_13 
REMARK    4  A    between atoms: O_14  and  C_9 
REMARK    5  A    between atoms: C_13  and  C_12 
ROOT
ATOM      1  N   UNL d   1      -2.414  -1.707  -0.057  0.00  0.00    -0.312 N 
ATOM      2  C   UNL d   1      -2.375  -3.075   0.071  0.00  0.00     0.223 C 
ATOM      3  O   UNL d   1      -1.380  -3.776   0.252  0.00  0.00    -0.273 OA
ATOM      4  H   UNL d   1      -3.303  -1.227  -0.053  0.00  0.00     0.170 HD
ENDROOT
BRANCH   1   5
ATOM      5  C   UNL d   1      -1.288  -0.903  -0.050  0.00  0.00     0.130 A 
ATOM      6  N   UNL d   1      -0.025  -1.338  -0.057  0.00  0.00    -0.245 N 
ATOM      7  O   UNL d   1       0.775  -0.215  -0.059  0.00  0.00    -0.241 OA
ATOM      8  HN  UNL d   1       0.286  -2.309  -0.060  1.00  0.00     0.196 HD
ATOM      9  C   UNL d   1      -0.007   0.895  -0.051  0.00  0.00     0.076 A 
ATOM     10  C   UNL d   1      -1.326   0.512  -0.042  0.00  0.00     0.084 A 
ATOM     11  C   UNL d   1       0.701   2.186  -0.057  0.00  0.00     0.079 C 
ENDBRANCH   1   5
BRANCH   2  12
ATOM     12  C   UNL d   1      -3.744  -3.723   0.097  0.00  0.00     0.113 C 
BRANCH  12  13
ATOM     13  C   UNL d   1      -3.813  -4.668   1.290  0.00  0.00     0.119 C 
BRANCH  13  14
ATOM     14  C   UNL d   1      -3.656  -3.885   2.567  0.00  0.00     0.139 C 
ATOM     15  O   UNL d   1      -4.592  -3.356   3.146  0.00  0.00    -0.650 OA
BRANCH  14  16
ATOM     16  O   UNL d   1      -2.375  -3.735   2.964  0.00  0.00    -0.776 OA
ATOM     17  H   UNL d   1      -1.702  -4.090   2.336  0.00  0.00     0.167 HD
ENDBRANCH  14  16
ENDBRANCH  13  14
ENDBRANCH  12  13
ENDBRANCH   2  12
TORSDOF 5
