REMARK  5 active torsions:
REMARK  status: ('A' for Active; 'I' for Inactive)
REMARK    1  A    between atoms: C_2  and  C_1 
REMARK       I    between atoms: N_5  and  C_1 
REMARK    2  A    between atoms: C_3  and  C_4 
REMARK    3  A    between atoms: O_14  and  C_3 
REMARK    4  A    between atoms: C_13  and  N_5 
REMARK    5  A    between atoms: C_6  and  C_7 
ROOT
ATOM      1  C   UNL d   1      -2.918  -0.506  -0.883  0.00  0.00     0.245 C 
ATOM      2  N   UNL d   1      -1.955  -0.089   0.002  0.00  0.00    -0.324 N 
ATOM      3  O   UNL d   1      -3.449  -1.607  -0.974  0.00  0.00    -0.268 OA
ATOM      4  H   UNL d   1      -1.560   0.832  -0.138  0.00  0.00     0.169 HD
ENDROOT
BRANCH   2   5
ATOM      5  C   UNL d   1      -1.364  -0.873   1.019  0.00  0.00     0.035 A 
ATOM      6  C   UNL d   1      -1.780  -2.167   1.336  0.00  0.00     0.030 A 
ATOM      7  C   UNL d   1      -1.127  -2.904   2.329  0.00  0.00     0.017 A 
ATOM      8  C   UNL d   1      -0.040  -2.361   3.017  0.00  0.00     0.009 A 
ATOM      9  C   UNL d   1       0.364  -1.054   2.732  0.00  0.00     0.017 A 
ATOM     10  C   UNL d   1      -0.296  -0.317   1.737  0.00  0.00     0.030 A 
BRANCH   8  11
ATOM     11  C   UNL d   1       0.630  -3.211   4.037  0.00  0.00     0.155 C 
ATOM     12  O   UNL d   1      -0.024  -4.064   4.634  0.00  0.00    -0.293 OA
ATOM     13  C   UNL d   1       2.108  -3.057   4.283  0.00  0.00     0.096 C 
ENDBRANCH   8  11
ENDBRANCH   2   5
BRANCH   1  14
ATOM     14  C   UNL d   1      -3.267   0.512  -1.890  0.00  0.00     0.081 C 
ATOM     15  C   UNL d   1      -3.191   0.279  -3.208  0.00  0.00     0.086 C 
BRANCH  15  16
ATOM     16  C   UNL d   1      -2.685  -0.892  -3.953  0.00  0.00     0.165 C 
ATOM     17  O   UNL d   1      -2.283  -0.751  -5.101  0.00  0.00    -0.647 OA
BRANCH  16  18
ATOM     18  O   UNL d   1      -2.698  -2.081  -3.339  0.00  0.00    -0.773 OA
ATOM     19  H   UNL d   1      -3.139  -2.117  -2.457  0.00  0.00     0.167 HD
ENDBRANCH  16  18
ENDBRANCH  15  16
ENDBRANCH   1  14
TORSDOF 5
