REMARK  5 active torsions:
REMARK  status: ('A' for Active; 'I' for Inactive)
REMARK    1  A    between atoms: C_17  and  N_1 
REMARK    2  A    between atoms: C_2  and  C_12 
REMARK    3  A    between atoms: C_16  and  C_7 
REMARK    4  A    between atoms: C_18  and  C_8 
REMARK       I    between atoms: C_12  and  N_15 
REMARK    5  A    between atoms: N_15  and  C_16 
ROOT
ATOM      1  C   UNL d   1       4.099   0.509  -0.803  0.00  0.00     0.271 C 
ATOM      2  N   UNL d   1       3.413   0.794   0.350  0.00  0.00    -0.350 N 
ATOM      3  O   UNL d   1       3.718   0.889  -1.906  0.00  0.00    -0.266 OA
ATOM      4  H   UNL d   1       3.654   0.259   1.179  0.00  0.00     0.163 HD
ENDROOT
BRANCH   2   5
ATOM      5  C   UNL d   1       2.177   1.539   0.321  0.00  0.00     0.183 C 
BRANCH   5   6
ATOM      6  C   UNL d   1       1.034   0.600   0.184  0.00  0.00     0.069 A 
ATOM      7  N   UNL d   1       0.766  -0.303   1.134  0.00  0.00    -0.280 N 
ATOM      8  N   UNL d   1      -0.295  -0.973   0.614  0.00  0.00    -0.197 N 
ATOM      9  HN  UNL d   1       1.240  -0.452   2.024  1.00  0.00     0.189 HD
ATOM     10  N   UNL d   1      -0.755  -0.517  -0.583  0.00  0.00    -0.282 N 
ATOM     11  C   UNL d   1       0.090   0.482  -0.861  0.00  0.00     0.049 A 
ATOM     12  HN  UNL d   1      -1.547  -0.853  -1.131  1.00  0.00     0.189 HD
ATOM     13  C   UNL d   1      -0.040   1.279  -2.101  0.00  0.00     0.072 C 
BRANCH   8  14
ATOM     14  C   UNL d   1      -0.888  -2.068   1.291  0.00  0.00     0.074 A 
ATOM     15  C   UNL d   1      -0.412  -2.443   2.557  0.00  0.00     0.033 A 
ATOM     16  C   UNL d   1      -0.994  -3.519   3.228  0.00  0.00     0.002 A 
ATOM     17  C   UNL d   1      -2.041  -4.225   2.637  0.00  0.00     0.000 A 
ATOM     18  C   UNL d   1      -2.512  -3.858   1.376  0.00  0.00     0.002 A 
ATOM     19  C   UNL d   1      -1.941  -2.777   0.701  0.00  0.00     0.033 A 
ENDBRANCH   8  14
ENDBRANCH   5   6
ENDBRANCH   2   5
BRANCH   1  20
ATOM     20  C   UNL d   1       5.329  -0.239  -0.581  0.00  0.00     0.137 A 
ATOM     21  C   UNL d   1       6.436  -0.279  -1.412  0.00  0.00     0.119 A 
ATOM     22  O   UNL d   1       7.355  -1.117  -0.830  0.00  0.00    -0.303 OA
ATOM     23  C   UNL d   1       6.769  -1.501   0.337  0.00  0.00     0.234 A 
ATOM     24  N   UNL d   1       5.575  -0.999   0.558  0.00  0.00    -0.340 N 
ATOM     25  HN  UNL d   1       4.973  -1.134   1.370  1.00  0.00     0.167 HD
BRANCH  21  26
ATOM     26  C   UNL d   1       6.843   0.377  -2.647  0.00  0.00     0.000 A 
ATOM     27  C   UNL d   1       6.441   1.694  -2.916  0.00  0.00     0.014 A 
ATOM     28  C   UNL d   1       6.778   2.320  -4.117  0.00  0.00     0.001 A 
ATOM     29  C   UNL d   1       7.545   1.641  -5.059  0.00  0.00     0.000 A 
ATOM     30  C   UNL d   1       7.979   0.344  -4.794  0.00  0.00     0.001 A 
ATOM     31  C   UNL d   1       7.633  -0.285  -3.594  0.00  0.00     0.014 A 
ENDBRANCH  21  26
ENDBRANCH   1  20
TORSDOF 5
