REMARK  2 active torsions:
REMARK  status: ('A' for Active; 'I' for Inactive)
REMARK    1  A    between atoms: C_10  and  C_5 
REMARK    2  A    between atoms: C_13  and  C_9 
ROOT
ATOM      1  C   UNL d   1      -2.225   0.482  -0.853  0.00  0.00     0.003 C 
ATOM      2  C   UNL d   1      -1.071   1.400  -0.654  0.00  0.00     0.190 C 
ATOM      3  C   UNL d   1       0.247   0.962  -1.202  0.00  0.00     0.031 A 
ATOM      4  S   UNL d   1      -0.845  -1.518  -2.006  0.00  0.00    -0.124 SA
ATOM      5  C   UNL d   1      -3.405   1.028  -1.206  0.00  0.00     0.023 C 
ATOM      6  C   UNL d   1       0.426  -0.273  -1.852  0.00  0.00     0.015 A 
ATOM      7  C   UNL d   1      -1.920  -0.966  -0.663  0.00  0.00     0.122 C 
ATOM      8  O   UNL d   1      -1.201   2.479  -0.087  0.00  0.00    -0.287 OA
ATOM      9  C   UNL d   1       1.325   1.854  -1.107  0.00  0.00     0.017 A 
ATOM     10  C   UNL d   1       1.670  -0.576  -2.423  0.00  0.00     0.019 A 
ATOM     11  C   UNL d   1       2.563   1.534  -1.669  0.00  0.00     0.001 A 
ATOM     12  C   UNL d   1       2.733   0.322  -2.334  0.00  0.00     0.001 A 
ENDROOT
BRANCH   5  13
ATOM     13  C   UNL d   1      -4.542   0.184  -1.577  0.00  0.00    -0.036 A 
ATOM     14  C   UNL d   1      -5.439  -0.269  -0.612  0.00  0.00     0.012 A 
ATOM     15  C   UNL d   1      -6.369  -1.261  -0.934  0.00  0.00     0.008 A 
ATOM     16  C   UNL d   1      -6.411  -1.819  -2.223  0.00  0.00    -0.055 A 
ATOM     17  C   UNL d   1      -5.562  -1.295  -3.207  0.00  0.00     0.008 A 
ATOM     18  C   UNL d   1      -4.633  -0.302  -2.887  0.00  0.00     0.012 A 
BRANCH  16  19
ATOM     19  C   UNL d   1      -7.294  -3.014  -2.543  0.00  0.00     0.010 C 
ATOM     20  C   UNL d   1      -6.951  -4.207  -1.642  0.00  0.00     0.015 C 
ATOM     21  C   UNL d   1      -8.782  -2.680  -2.451  0.00  0.00     0.015 C 
ENDBRANCH  16  19
ENDBRANCH   5  13
TORSDOF 2
