REMARK  4 active torsions:
REMARK  status: ('A' for Active; 'I' for Inactive)
REMARK    1  A    between atoms: C_2  and  C_1 
REMARK       I    between atoms: N_3  and  C_1 
REMARK    2  A    between atoms: C_5  and  N_3 
REMARK    3  A    between atoms: S_6  and  C_4 
REMARK    4  A    between atoms: C_11  and  S_6 
ROOT
ATOM      1  C   UNL d   1      -1.808  -0.956   2.081  0.00  0.00     0.101 A 
ATOM      2  C   UNL d   1      -1.167  -0.704   0.858  0.00  0.00     0.069 A 
ATOM      3  N   UNL d   1      -3.156  -1.085   2.209  0.00  0.00    -0.358 N 
ATOM      4  HN  UNL d   1      -3.588  -1.270   3.114  1.00  0.00     0.166 HD
ATOM      5  C   UNL d   1      -1.978  -0.597  -0.275  0.00  0.00     0.034 A 
ATOM      6  C   UNL d   1      -3.896  -0.958   1.089  0.00  0.00     0.089 A 
ATOM      7  C   UNL d   1      -3.360  -0.721  -0.162  0.00  0.00     0.019 A 
ENDROOT
BRANCH   2   8
ATOM      8  N   UNL d   1       0.249  -0.611   0.784  0.00  0.00    -0.320 N 
ATOM      9  C   UNL d   1       0.963  -0.028  -0.238  0.00  0.00     0.258 C 
ATOM     10  O   UNL d   1       0.453   0.647  -1.135  0.00  0.00    -0.267 OA
ATOM     11  H   UNL d   1       0.752  -0.948   1.599  0.00  0.00     0.169 HD
BRANCH   9  12
ATOM     12  C   UNL d   1       2.450  -0.170  -0.247  0.00  0.00     0.054 A 
ATOM     13  C   UNL d   1       3.182  -1.211   0.341  0.00  0.00     0.049 A 
ATOM     14 CL   UNL d   1       2.482  -2.471   1.294  0.00  0.00    -0.083 Cl
ATOM     15  C   UNL d   1       4.571  -1.288   0.144  0.00  0.00     0.025 A 
ATOM     16  C   UNL d   1       5.239  -0.335  -0.625  0.00  0.00     0.002 A 
ATOM     17  C   UNL d   1       4.528   0.715  -1.192  0.00  0.00     0.001 A 
ATOM     18  C   UNL d   1       3.147   0.795  -1.004  0.00  0.00     0.019 A 
ENDBRANCH   9  12
ENDBRANCH   2   8
BRANCH   1  19
ATOM     19  S   UNL d   1      -0.880  -1.093   3.606  0.00  0.00    -0.070 SA
BRANCH  19  20
ATOM     20  C   UNL d   1      -0.835   0.612   4.138  0.00  0.00     0.007 A 
ATOM     21  C   UNL d   1      -2.000   1.372   4.286  0.00  0.00     0.019 A 
ATOM     22  C   UNL d   1      -1.936   2.685   4.764  0.00  0.00     0.008 A 
ATOM     23  C   UNL d   1      -0.707   3.254   5.116  0.00  0.00    -0.062 A 
ATOM     24  C   UNL d   1       0.460   2.499   4.954  0.00  0.00     0.008 A 
ATOM     25  C   UNL d   1      -0.654   4.654   5.652  0.00  0.00     0.048 C 
ATOM     26  C   UNL d   1       0.395   1.187   4.474  0.00  0.00     0.019 A 
ENDBRANCH  19  20
ENDBRANCH   1  19
TORSDOF 4
