REMARK  9 active torsions:
REMARK  status: ('A' for Active; 'I' for Inactive)
REMARK    1  A    between atoms: C_14  and  N_1 
REMARK    2  A    between atoms: S_11  and  C_2 
REMARK    3  A    between atoms: C_17  and  C_3 
REMARK    4  A    between atoms: C_8  and  C_12 
REMARK    5  A    between atoms: C_28  and  S_11 
REMARK    6  A    between atoms: C_13  and  C_28 
REMARK       I    between atoms: N_16  and  C_13 
REMARK    7  A    between atoms: C_15  and  O_18 
REMARK    8  A    between atoms: C_21  and  N_16 
REMARK    9  A    between atoms: O_18  and  C_17 
ROOT
ATOM      1  N   UNL d   1      -0.456  -1.443  -0.181  0.00  0.00    -0.277 N 
ATOM      2  C   UNL d   1       0.790  -0.864  -0.426  0.00  0.00     0.168 A 
ATOM      3  C   UNL d   1      -1.298  -0.330  -0.072  0.00  0.00     0.129 A 
ATOM      4  N   UNL d   1       0.717   0.442  -0.356  0.00  0.00    -0.278 N 
ATOM      5  HN  UNL d   1       1.497   1.093  -0.444  1.00  0.00     0.189 HD
ATOM      6  N   UNL d   1      -0.579   0.776  -0.145  0.00  0.00    -0.285 N 
ATOM      7  HN  UNL d   1      -0.940   1.725  -0.057  1.00  0.00     0.188 HD
ENDROOT
BRANCH   2   8
ATOM      8  S   UNL d   1       2.169  -1.625  -1.168  0.00  0.00    -0.083 SA
BRANCH   8   9
ATOM      9  C   UNL d   1       1.645  -1.676  -2.906  0.00  0.00     0.185 C 
BRANCH   9  10
ATOM     10  C   UNL d   1       1.857  -0.353  -3.626  0.00  0.00     0.231 C 
ATOM     11  N   UNL d   1       0.979   0.651  -3.251  0.00  0.00    -0.327 N 
ATOM     12  H   UNL d   1       0.513   0.541  -2.354  0.00  0.00     0.169 HD
ATOM     13  O   UNL d   1       2.725  -0.258  -4.493  0.00  0.00    -0.272 OA
BRANCH  11  14
ATOM     14  C   UNL d   1       0.978   1.974  -3.734  0.00  0.00     0.035 A 
ATOM     15  C   UNL d   1       1.585   2.352  -4.930  0.00  0.00     0.045 A 
ATOM     16  C   UNL d   1       1.680   3.705  -5.287  0.00  0.00     0.050 A 
ATOM     17  C   UNL d   1       1.123   4.675  -4.442  0.00  0.00     0.016 A 
ATOM     18  C   UNL d   1       0.454   4.298  -3.280  0.00  0.00     0.003 A 
ATOM     19  C   UNL d   1       0.374   2.950  -2.934  0.00  0.00     0.029 A 
BRANCH  16  20
ATOM     20  C   UNL d   1       2.418   4.118  -6.535  0.00  0.00     0.417 C 
ATOM     21  F   UNL d   1       2.821   3.072  -7.311  0.00  0.00    -0.166 F 
ATOM     22  F   UNL d   1       1.661   4.907  -7.348  0.00  0.00    -0.166 F 
ATOM     23  F   UNL d   1       3.541   4.835  -6.262  0.00  0.00    -0.166 F 
ENDBRANCH  16  20
ENDBRANCH  11  14
ENDBRANCH   9  10
ENDBRANCH   8   9
ENDBRANCH   2   8
BRANCH   1  24
ATOM     24  C   UNL d   1      -0.762  -2.840  -0.163  0.00  0.00     0.043 A 
ATOM     25  C   UNL d   1       0.217  -3.759   0.250  0.00  0.00     0.030 A 
ATOM     26  C   UNL d   1      -0.008  -5.135   0.151  0.00  0.00     0.002 A 
ATOM     27  C   UNL d   1      -1.220  -5.609  -0.329  0.00  0.00     0.000 A 
ATOM     28  C   UNL d   1      -2.221  -4.708  -0.682  0.00  0.00     0.002 A 
ATOM     29  C   UNL d   1      -1.996  -3.329  -0.596  0.00  0.00     0.030 A 
ENDBRANCH   1  24
BRANCH   3  30
ATOM     30  C   UNL d   1      -2.781  -0.281   0.053  0.00  0.00     0.254 C 
BRANCH  30  31
ATOM     31  O   UNL d   1      -3.192  -1.024   1.194  0.00  0.00    -0.343 OA
BRANCH  31  32
ATOM     32  C   UNL d   1      -4.544  -1.082   1.408  0.00  0.00     0.076 A 
ATOM     33  C   UNL d   1      -4.960  -1.714   2.574  0.00  0.00    -0.018 A 
ATOM     34  C   UNL d   1      -6.318  -1.856   2.883  0.00  0.00    -0.043 A 
ATOM     35  C   UNL d   1      -4.089  -2.307   3.635  0.00  0.00     0.042 A 
ATOM     36  C   UNL d   1      -6.514  -2.568   4.184  0.00  0.00     0.040 A 
ATOM     37  C   UNL d   1      -7.308  -1.369   2.035  0.00  0.00    -0.055 A 
ATOM     38  C   UNL d   1      -5.086  -2.847   4.669  0.00  0.00     0.009 A 
ATOM     39  C   UNL d   1      -6.897  -0.722   0.866  0.00  0.00     0.010 A 
ATOM     40  C   UNL d   1      -8.763  -1.537   2.352  0.00  0.00     0.049 C 
ATOM     41  C   UNL d   1      -5.534  -0.576   0.557  0.00  0.00     0.038 A 
ENDBRANCH  31  32
ENDBRANCH  30  31
ENDBRANCH   3  30
TORSDOF 9
