REMARK  6 active torsions:
REMARK  status: ('A' for Active; 'I' for Inactive)
REMARK    1  A    between atoms: C_2  and  S_1 
REMARK    2  A    between atoms: C_21  and  S_1 
REMARK    3  A    between atoms: N_3  and  C_4 
REMARK    4  A    between atoms: C_6  and  C_5 
REMARK    5  A    between atoms: C_10  and  C_7 
REMARK    6  A    between atoms: C_8  and  C_13 
ROOT
ATOM      1  C   UNL d   1      -1.346  -2.050  -2.413  0.00  0.00     0.146 C 
ATOM      2  C   UNL d   1      -0.396  -2.024  -1.460  0.00  0.00     0.072 C 
ATOM      3  C   UNL d   1      -2.678  -2.473  -2.201  0.00  0.00     0.112 C 
ATOM      4  N   UNL d   1      -3.764  -2.820  -1.984  0.00  0.00    -0.191 NA
ENDROOT
BRANCH   1   5
ATOM      5  S   UNL d   1      -0.957  -1.393  -3.969  0.00  0.00     0.216 S 
ATOM      6  O   UNL d   1       0.021  -0.329  -3.811  0.00  0.00    -0.216 OA
ATOM      7  O   UNL d   1      -2.170  -1.132  -4.722  0.00  0.00    -0.216 OA
BRANCH   5   8
ATOM      8  C   UNL d   1      -0.122  -2.729  -4.807  0.00  0.00     0.065 A 
ATOM      9  C   UNL d   1      -0.869  -3.650  -5.549  0.00  0.00     0.024 A 
ATOM     10  C   UNL d   1      -0.209  -4.627  -6.295  0.00  0.00     0.002 A 
ATOM     11  C   UNL d   1       1.186  -4.677  -6.307  0.00  0.00     0.000 A 
ATOM     12  C   UNL d   1       1.928  -3.752  -5.572  0.00  0.00     0.002 A 
ATOM     13  C   UNL d   1       1.277  -2.770  -4.824  0.00  0.00     0.024 A 
ENDBRANCH   5   8
ENDBRANCH   1   5
BRANCH   2  14
ATOM     14  C   UNL d   1      -0.675  -2.434  -0.131  0.00  0.00     0.078 A 
ATOM     15  O   UNL d   1      -0.620  -3.742   0.282  0.00  0.00    -0.310 OA
ATOM     16  C   UNL d   1      -0.957  -3.800   1.602  0.00  0.00     0.088 A 
ATOM     17  C   UNL d   1      -1.248  -2.533   2.055  0.00  0.00     0.041 A 
ATOM     18  C   UNL d   1      -1.058  -1.662   0.957  0.00  0.00     0.040 A 
BRANCH  16  19
ATOM     19  C   UNL d   1      -1.025  -5.133   2.191  0.00  0.00     0.031 A 
ATOM     20  C   UNL d   1      -0.207  -6.211   1.818  0.00  0.00     0.116 A 
ATOM     21  C   UNL d   1      -0.396  -7.509   2.330  0.00  0.00     0.053 A 
ATOM     22  C   UNL d   1      -1.420  -7.753   3.254  0.00  0.00     0.050 A 
ATOM     23  C   UNL d   1      -2.210  -6.675   3.678  0.00  0.00     0.017 A 
ATOM     24  C   UNL d   1      -2.015  -5.390   3.155  0.00  0.00     0.017 A 
BRANCH  20  25
ATOM     25  N   UNL d   1       0.908  -6.022   0.907  0.00  0.00    -0.115 N 
ATOM     26  O   UNL d   1       1.817  -5.265   1.273  0.00  0.00    -0.532 OA
ATOM     27  O   UNL d   1       0.902  -6.694  -0.134  0.00  0.00    -0.532 OA
ENDBRANCH  20  25
BRANCH  22  28
ATOM     28  C   UNL d   1      -1.695  -9.143   3.780  0.00  0.00     0.417 C 
ATOM     29  F   UNL d   1      -0.865 -10.090   3.263  0.00  0.00    -0.166 F 
ATOM     30  F   UNL d   1      -1.564  -9.223   5.131  0.00  0.00    -0.166 F 
ATOM     31  F   UNL d   1      -2.960  -9.558   3.497  0.00  0.00    -0.166 F 
ENDBRANCH  22  28
ENDBRANCH  16  19
ENDBRANCH   2  14
TORSDOF 6
