REMARK  2 active torsions:
REMARK  status: ('A' for Active; 'I' for Inactive)
REMARK    1  A    between atoms: C_14  and  N_7 
REMARK    2  A    between atoms: C_18  and  C_14 
ROOT
ATOM      1  C   UNL d   1       1.201   0.928  -0.011  0.00  0.00     0.102 A 
ATOM      2  C   UNL d   1       0.735  -0.358   0.022  0.00  0.00     0.069 A 
ATOM      3  S   UNL d   1      -0.052   2.063  -0.047  0.00  0.00    -0.064 SA
ATOM      4  C   UNL d   1      -0.693  -0.460   0.002  0.00  0.00     0.032 A 
ATOM      5  C   UNL d   1       2.597   1.260  -0.007  0.00  0.00     0.268 A 
ATOM      6  C   UNL d   1      -1.236   0.828  -0.021  0.00  0.00     0.088 A 
ATOM      7  N   UNL d   1       3.412   0.130   0.035  0.00  0.00    -0.305 N 
ATOM      8  N   UNL d   1       1.609  -1.458   0.074  0.00  0.00    -0.350 N 
ATOM      9  HN  UNL d   1       1.282  -2.424   0.108  1.00  0.00     0.166 HD
ATOM     10  C   UNL d   1       2.867  -1.140   0.074  0.00  0.00     0.187 A 
ATOM     11  N   UNL d   1      -2.543   1.159  -0.028  0.00  0.00    -0.354 N 
ATOM     12  HN  UNL d   1      -2.864   2.127  -0.044  1.00  0.00     0.166 HD
ATOM     13  C   UNL d   1      -1.614  -1.542   0.005  0.00  0.00    -0.045 A 
ATOM     14  O   UNL d   1       3.045   2.405  -0.030  0.00  0.00    -0.266 OA
ATOM     15  C   UNL d   1      -2.982  -1.215  -0.001  0.00  0.00     0.032 A 
ATOM     16  C   UNL d   1      -3.390   0.114  -0.013  0.00  0.00     0.006 A 
ATOM     17  C   UNL d   1      -1.242  -2.999   0.005  0.00  0.00     0.049 C 
ATOM     18  C   UNL d   1      -4.860   0.428  -0.013  0.00  0.00     0.068 C 
ENDROOT
BRANCH   7  19
ATOM     19  C   UNL d   1       4.858   0.299   0.013  0.00  0.00     0.171 C 
BRANCH  19  20
ATOM     20  C   UNL d   1       5.396   0.321  -1.403  0.00  0.00    -0.040 A 
ATOM     21  C   UNL d   1       5.505   1.537  -2.098  0.00  0.00     0.012 A 
ATOM     22  C   UNL d   1       5.917   1.558  -3.431  0.00  0.00     0.043 A 
ATOM     23  C   UNL d   1       6.218   0.364  -4.073  0.00  0.00     0.116 A 
ATOM     24  C   UNL d   1       6.139  -0.849  -3.399  0.00  0.00     0.043 A 
ATOM     25  F   UNL d   1       6.581   0.379  -5.362  0.00  0.00    -0.206 F 
ATOM     26  C   UNL d   1       5.733  -0.872  -2.063  0.00  0.00     0.012 A 
ENDBRANCH  19  20
ENDBRANCH   7  19
TORSDOF 2
