REMARK  5 active torsions:
REMARK  status: ('A' for Active; 'I' for Inactive)
REMARK    1  A    between atoms: N_2  and  C_1 
REMARK    2  A    between atoms: C_3  and  C_8 
REMARK    3  A    between atoms: S_6  and  C_4 
REMARK    4  A    between atoms: C_13  and  S_6 
REMARK    5  A    between atoms: C_11  and  C_7 
ROOT
ATOM      1  C   UNL d   1       1.365  -0.156  -0.177  0.00  0.00     0.120 A 
ATOM      2  C   UNL d   1       0.598  -1.325  -0.114  0.00  0.00     0.038 A 
ATOM      3  C   UNL d   1       0.789   1.123  -0.100  0.00  0.00     0.052 A 
ATOM      4  C   UNL d   1      -0.598   1.258   0.043  0.00  0.00     0.012 A 
ATOM      5  C   UNL d   1      -0.789  -1.171   0.021  0.00  0.00     0.022 A 
ATOM      6  C   UNL d   1      -1.383   0.101   0.094  0.00  0.00     0.016 A 
ENDROOT
BRANCH   2   7
ATOM      7  S   UNL d   1       1.270  -2.972   0.034  0.00  0.00    -0.088 SA
BRANCH   7   8
ATOM      8  C   UNL d   1       1.299  -3.595  -1.637  0.00  0.00     0.006 A 
ATOM      9  C   UNL d   1       0.145  -3.692  -2.423  0.00  0.00     0.035 A 
ATOM     10  C   UNL d   1       0.180  -4.319  -3.683  0.00  0.00     0.049 A 
ATOM     11  C   UNL d   1       1.392  -4.850  -4.148  0.00  0.00     0.016 A 
ATOM     12  C   UNL d   1       2.545  -4.754  -3.373  0.00  0.00     0.002 A 
ATOM     13  C   UNL d   1       2.496  -4.133  -2.124  0.00  0.00     0.019 A 
BRANCH  10  14
ATOM     14  C   UNL d   1      -1.067  -4.459  -4.521  0.00  0.00     0.417 C 
ATOM     15  F   UNL d   1      -2.165  -3.878  -3.961  0.00  0.00    -0.166 F 
ATOM     16  F   UNL d   1      -0.937  -3.898  -5.754  0.00  0.00    -0.166 F 
ATOM     17  F   UNL d   1      -1.406  -5.761  -4.735  0.00  0.00    -0.166 F 
ENDBRANCH  10  14
ENDBRANCH   7   8
ENDBRANCH   2   7
BRANCH   1  18
ATOM     18  N   UNL d   1       2.808  -0.225  -0.282  0.00  0.00    -0.114 N 
ATOM     19  O   UNL d   1       3.278  -0.651  -1.342  0.00  0.00    -0.532 OA
ATOM     20  O   UNL d   1       3.458   0.192   0.687  0.00  0.00    -0.532 OA
ENDBRANCH   1  18
BRANCH   4  21
ATOM     21  C   UNL d   1      -1.156   2.641   0.166  0.00  0.00     0.155 C 
ATOM     22  O   UNL d   1      -0.382   3.597   0.128  0.00  0.00    -0.293 OA
ATOM     23  C   UNL d   1      -2.632   2.872   0.378  0.00  0.00     0.096 C 
ENDBRANCH   4  21
TORSDOF 5
