REMARK  7 active torsions:
REMARK  status: ('A' for Active; 'I' for Inactive)
REMARK    1  A    between atoms: N_6  and  C_1 
REMARK    2  A    between atoms: C_10  and  C_2 
REMARK       I    between atoms: C_8  and  N_6 
REMARK       I    between atoms: C_9  and  N_7 
REMARK       I    between atoms: N_13  and  C_8 
REMARK    3  A    between atoms: O_19  and  C_9 
REMARK    4  A    between atoms: O_20  and  C_10 
REMARK    5  A    between atoms: C_18  and  N_13 
REMARK    6  A    between atoms: C_26  and  O_19 
REMARK    7  A    between atoms: C_27  and  O_20 
ROOT
ATOM      1  C   UNL d   1       1.988   1.033  -0.045  0.00  0.00     0.075 A 
ATOM      2  C   UNL d   1       0.818   1.734   0.224  0.00  0.00     0.075 A 
ATOM      3  C   UNL d   1       0.075  -0.478  -0.207  0.00  0.00     0.010 A 
ATOM      4  C   UNL d   1      -0.321   0.821   0.087  0.00  0.00    -0.023 A 
ATOM      5  S   UNL d   1       1.741  -0.603  -0.453  0.00  0.00    -0.079 SA
ATOM      6  N   UNL d   1      -2.200  -1.248  -0.422  0.00  0.00    -0.323 N 
ATOM      7  C   UNL d   1      -3.069  -1.692  -1.397  0.00  0.00     0.363 C 
ATOM      8  C   UNL d   1      -0.812  -1.692  -0.327  0.00  0.00     0.174 C 
ATOM      9  C   UNL d   1      -1.800   1.120   0.195  0.00  0.00     0.061 C 
ATOM     10  C   UNL d   1      -2.599  -0.166   0.480  0.00  0.00     0.133 C 
ATOM     11  O   UNL d   1      -4.167  -1.185  -1.607  0.00  0.00    -0.238 OA
ENDROOT
BRANCH   1  12
ATOM     12  N   UNL d   1       3.332   1.355  -0.174  0.00  0.00    -0.203 NA
ATOM     13  C   UNL d   1       4.137   1.504   0.935  0.00  0.00     0.303 C 
ATOM     14  N   UNL d   1       3.799   2.504   1.798  0.00  0.00    -0.313 N 
ATOM     15  O   UNL d   1       5.151   0.807   0.992  0.00  0.00    -0.253 OA
ATOM     16  H   UNL d   1       3.158   3.186   1.399  0.00  0.00     0.170 HD
ATOM     17  H   UNL d   1       3.803   0.633  -0.712  0.00  0.00     0.139 HD
BRANCH  14  18
ATOM     18  C   UNL d   1       4.623   2.972   2.846  0.00  0.00     0.035 A 
ATOM     19  C   UNL d   1       4.542   4.330   3.167  0.00  0.00     0.030 A 
ATOM     20  C   UNL d   1       5.420   4.891   4.098  0.00  0.00     0.009 A 
ATOM     21  C   UNL d   1       6.360   4.093   4.759  0.00  0.00    -0.062 A 
ATOM     22  C   UNL d   1       6.402   2.723   4.476  0.00  0.00     0.009 A 
ATOM     23  C   UNL d   1       7.357   4.718   5.689  0.00  0.00     0.048 C 
ATOM     24  C   UNL d   1       5.535   2.166   3.526  0.00  0.00     0.030 A 
ENDBRANCH  14  18
ENDBRANCH   1  12
BRANCH   2  25
ATOM     25  C   UNL d   1       0.787   3.166   0.570  0.00  0.00     0.296 C 
ATOM     26  O   UNL d   1       1.797   3.849   0.713  0.00  0.00    -0.259 OA
BRANCH  25  27
ATOM     27  O   UNL d   1      -0.463   3.643   0.840  0.00  0.00    -0.318 OA
BRANCH  27  28
ATOM     28  C   UNL d   1      -0.519   4.721   1.789  0.00  0.00     0.174 C 
ATOM     29  C   UNL d   1      -0.459   6.099   1.158  0.00  0.00     0.034 C 
ENDBRANCH  27  28
ENDBRANCH  25  27
ENDBRANCH   2  25
BRANCH   7  30
ATOM     30  O   UNL d   1      -2.581  -2.749  -2.102  0.00  0.00    -0.304 OA
BRANCH  30  31
ATOM     31  C   UNL d   1      -3.357  -3.168  -3.235  0.00  0.00     0.176 C 
ATOM     32  C   UNL d   1      -4.513  -4.068  -2.835  0.00  0.00     0.034 C 
ENDBRANCH  30  31
ENDBRANCH   7  30
TORSDOF 7
