REMARK  3 active torsions:
REMARK  status: ('A' for Active; 'I' for Inactive)
REMARK    1  A    between atoms: C_2  and  N_1 
REMARK    2  A    between atoms: C_12  and  C_3 
REMARK    3  A    between atoms: C_18  and  C_4 
ROOT
ATOM      1  C   UNL d   1      -3.666   0.051  -0.350  0.00  0.00     0.147 A 
ATOM      2  C   UNL d   1      -5.711   0.313  -1.206  0.00  0.00     0.147 A 
ATOM      3  C   UNL d   1      -4.316   0.544  -1.470  0.00  0.00     0.053 A 
ATOM      4  N   UNL d   1      -5.876  -0.357  -0.046  0.00  0.00    -0.292 N 
ATOM      5  HN  UNL d   1      -6.750  -0.680   0.368  1.00  0.00     0.187 HD
ATOM      6  N   UNL d   1      -4.639  -0.503   0.440  0.00  0.00    -0.279 N 
ATOM      7  C   UNL d   1      -4.441  -1.311   1.621  0.00  0.00     0.179 C 
ENDROOT
BRANCH   1   8
ATOM      8  N   UNL d   1      -2.323   0.136  -0.045  0.00  0.00    -0.234 N 
ATOM      9  C   UNL d   1      -1.293  -0.627  -0.645  0.00  0.00     0.238 A 
ATOM     10  C   UNL d   1       0.032  -0.206  -0.054  0.00  0.00     0.100 A 
ATOM     11  O   UNL d   1      -1.517  -1.524  -1.429  0.00  0.00    -0.272 OA
ATOM     12  C   UNL d   1       0.735  -1.317   0.752  0.00  0.00     0.022 C 
ATOM     13  C   UNL d   1      -0.340   0.825   1.059  0.00  0.00     0.100 A 
ATOM     14  C   UNL d   1       1.993  -0.724   1.360  0.00  0.00    -0.025 C 
ATOM     15  C   UNL d   1      -0.108  -1.362   2.034  0.00  0.00     0.018 C 
ATOM     16  C   UNL d   1       1.615   0.129   2.332  0.00  0.00    -0.025 C 
ATOM     17  C   UNL d   1       0.110   0.123   2.357  0.00  0.00     0.022 C 
ATOM     18  C   UNL d   1      -1.825   0.969   0.979  0.00  0.00     0.238 A 
ATOM     19  O   UNL d   1      -2.547   1.661   1.669  0.00  0.00    -0.272 OA
ENDBRANCH   1   8
BRANCH   3  20
ATOM     20  C   UNL d   1      -3.670   1.184  -2.609  0.00  0.00    -0.020 A 
ATOM     21  C   UNL d   1      -2.688   2.172  -2.441  0.00  0.00     0.012 A 
ATOM     22  C   UNL d   1      -2.066   2.752  -3.551  0.00  0.00     0.001 A 
ATOM     23  C   UNL d   1      -2.443   2.378  -4.838  0.00  0.00     0.000 A 
ATOM     24  C   UNL d   1      -3.437   1.421  -5.018  0.00  0.00     0.001 A 
ATOM     25  C   UNL d   1      -4.037   0.817  -3.911  0.00  0.00     0.012 A 
ENDBRANCH   3  20
BRANCH   2  26
ATOM     26  C   UNL d   1      -6.911   0.718  -2.034  0.00  0.00     0.434 C 
ATOM     27  F   UNL d   1      -6.618   1.652  -2.975  0.00  0.00    -0.165 F 
ATOM     28  F   UNL d   1      -7.442  -0.344  -2.696  0.00  0.00    -0.165 F 
ATOM     29  F   UNL d   1      -7.906   1.250  -1.274  0.00  0.00    -0.165 F 
ENDBRANCH   2  26
TORSDOF 3
