REMARK  6 active torsions:
REMARK  status: ('A' for Active; 'I' for Inactive)
REMARK    1  A    between atoms: C_2  and  C_1 
REMARK    2  A    between atoms: O_5  and  C_2 
REMARK    3  A    between atoms: C_4  and  C_8 
REMARK    4  A    between atoms: O_17  and  C_4 
REMARK    5  A    between atoms: C_14  and  O_5 
REMARK    6  A    between atoms: C_21  and  O_17 
ROOT
ATOM      1  C   UNL d   1       0.989  -5.948   0.309  0.00  0.00     0.039 A 
ATOM      2  C   UNL d   1       0.771  -4.926   1.247  0.00  0.00     0.020 A 
ATOM      3  C   UNL d   1       0.009  -6.231  -0.648  0.00  0.00     0.020 A 
ATOM      4  C   UNL d   1      -1.354  -4.431   0.227  0.00  0.00     0.079 A 
ATOM      5  C   UNL d   1      -1.156  -5.464  -0.696  0.00  0.00     0.038 A 
ATOM      6  C   UNL d   1      -0.404  -4.164   1.207  0.00  0.00     0.038 A 
ENDROOT
BRANCH   4   7
ATOM      7  O   UNL d   1      -2.513  -3.643   0.002  0.00  0.00    -0.275 OA
BRANCH   7   8
ATOM      8  C   UNL d   1      -3.095  -2.775   0.915  0.00  0.00     0.300 C 
ATOM      9  O   UNL d   1      -2.882  -2.721   2.118  0.00  0.00    -0.259 OA
BRANCH   8  10
ATOM     10  C   UNL d   1      -4.158  -1.983   0.242  0.00  0.00     0.061 A 
ATOM     11  C   UNL d   1      -4.035  -1.430  -1.042  0.00  0.00     0.051 A 
ATOM     12  C   UNL d   1      -5.103  -0.717  -1.609  0.00  0.00     0.048 A 
ATOM     13 CL   UNL d   1      -2.584  -1.504  -1.977  0.00  0.00    -0.083 Cl
ATOM     14  C   UNL d   1      -6.281  -0.533  -0.890  0.00  0.00     0.035 A 
ATOM     15  C   UNL d   1      -6.401  -1.035   0.402  0.00  0.00     0.025 A 
ATOM     16 CL   UNL d   1      -7.589   0.330  -1.599  0.00  0.00    -0.084 Cl
ATOM     17  C   UNL d   1      -5.341  -1.754   0.970  0.00  0.00     0.021 A 
ENDBRANCH   8  10
ENDBRANCH   7   8
ENDBRANCH   4   7
BRANCH   1  18
ATOM     18  C   UNL d   1       2.223  -6.772   0.335  0.00  0.00     0.293 C 
ATOM     19  O   UNL d   1       2.267  -7.940  -0.024  0.00  0.00    -0.259 OA
BRANCH  18  20
ATOM     20  O   UNL d   1       3.245  -6.035   0.829  0.00  0.00    -0.318 OA
BRANCH  20  21
ATOM     21  C   UNL d   1       4.410  -6.770   1.227  0.00  0.00     0.174 C 
ATOM     22  C   UNL d   1       4.231  -7.146   2.687  0.00  0.00     0.034 C 
ENDBRANCH  20  21
ENDBRANCH  18  20
ENDBRANCH   1  18
TORSDOF 6
