REMARK  4 active torsions:
REMARK  status: ('A' for Active; 'I' for Inactive)
REMARK    1  A    between atoms: C_7  and  C_2 
REMARK    2  A    between atoms: C_5  and  C_10 
REMARK       I    between atoms: N_9  and  C_7 
REMARK    3  A    between atoms: C_20  and  N_9 
REMARK    4  A    between atoms: C_21  and  C_20 
ROOT
ATOM      1  C   UNL d   1      -4.449   1.938   0.027  0.00  0.00     0.258 C 
ATOM      2  N   UNL d   1      -4.332   3.314   0.068  0.00  0.00    -0.352 N 
ATOM      3  O   UNL d   1      -5.547   1.386   0.004  0.00  0.00    -0.267 OA
ATOM      4  H   UNL d   1      -3.402   3.710   0.100  0.00  0.00     0.163 HD
ENDROOT
BRANCH   1   5
ATOM      5  C   UNL d   1      -3.194   1.194   0.010  0.00  0.00     0.074 A 
ATOM      6  S   UNL d   1      -1.681   1.974   0.070  0.00  0.00    -0.083 SA
ATOM      7  C   UNL d   1      -0.790   0.491   0.040  0.00  0.00     0.027 A 
ATOM      8  C   UNL d   1      -1.661  -0.600  -0.041  0.00  0.00    -0.017 A 
ATOM      9  C   UNL d   1       0.629   0.312   0.088  0.00  0.00    -0.008 A 
ATOM     10  C   UNL d   1      -1.104  -1.901  -0.087  0.00  0.00     0.014 A 
ATOM     11  C   UNL d   1      -3.035  -0.176  -0.055  0.00  0.00     0.037 A 
ATOM     12  C   UNL d   1       0.283  -2.090  -0.045  0.00  0.00     0.013 A 
ATOM     13  C   UNL d   1       1.152  -1.001   0.045  0.00  0.00    -0.025 A 
ATOM     14  C   UNL d   1       2.546  -1.177   0.101  0.00  0.00     0.012 A 
ATOM     15  C   UNL d   1       3.405  -0.079   0.199  0.00  0.00     0.001 A 
ATOM     16  C   UNL d   1       2.888   1.212   0.240  0.00  0.00     0.001 A 
ATOM     17  C   UNL d   1       1.508   1.412   0.184  0.00  0.00     0.013 A 
ENDBRANCH   1   5
BRANCH   2  18
ATOM     18  C   UNL d   1      -5.463   4.210   0.069  0.00  0.00     0.161 C 
BRANCH  18  19
ATOM     19  C   UNL d   1      -5.448   5.094   1.291  0.00  0.00    -0.041 A 
ATOM     20  C   UNL d   1      -4.875   6.373   1.253  0.00  0.00     0.009 A 
ATOM     21  C   UNL d   1      -4.830   7.167   2.404  0.00  0.00     0.017 A 
ATOM     22  C   UNL d   1      -5.351   6.694   3.618  0.00  0.00     0.047 A 
ATOM     23  C   UNL d   1      -5.939   5.421   3.649  0.00  0.00     0.017 A 
ATOM     24  C   UNL d   1      -5.982   4.628   2.500  0.00  0.00     0.009 A 
BRANCH  22  25
ATOM     25  C   UNL d   1      -5.269   7.517   4.881  0.00  0.00     0.417 C 
ATOM     26  F   UNL d   1      -4.643   8.716   4.713  0.00  0.00    -0.166 F 
ATOM     27  F   UNL d   1      -6.495   7.806   5.400  0.00  0.00    -0.166 F 
ATOM     28  F   UNL d   1      -4.586   6.878   5.872  0.00  0.00    -0.166 F 
ENDBRANCH  22  25
ENDBRANCH  18  19
ENDBRANCH   2  18
TORSDOF 4
