REMARK  3 active torsions:
REMARK  status: ('A' for Active; 'I' for Inactive)
REMARK    1  A    between atoms: N_3  and  C_1 
REMARK       I    between atoms: C_2  and  N_3 
REMARK    2  A    between atoms: C_6  and  C_2 
REMARK    3  A    between atoms: N_4  and  C_5 
ROOT
ATOM      1  C   UNL d   1      -1.031   1.079   0.317  0.00  0.00     0.062 A 
ATOM      2  C   UNL d   1      -1.674  -0.130  -0.017  0.00  0.00     0.065 A 
ATOM      3  C   UNL d   1      -3.063  -0.158  -0.209  0.00  0.00     0.033 A 
ATOM      4  C   UNL d   1      -1.808   2.222   0.564  0.00  0.00     0.038 A 
ATOM      5  C   UNL d   1      -3.194   2.202   0.329  0.00  0.00    -0.060 A 
ATOM      6  C   UNL d   1      -3.815   1.005  -0.046  0.00  0.00     0.009 A 
ATOM      7  C   UNL d   1      -4.023   3.453   0.418  0.00  0.00     0.048 C 
ENDROOT
BRANCH   1   8
ATOM      8  N   UNL d   1       0.366   1.219   0.125  0.00  0.00    -0.321 N 
ATOM      9  C   UNL d   1       1.244   1.821   0.995  0.00  0.00     0.251 C 
ATOM     10  O   UNL d   1       0.956   2.228   2.121  0.00  0.00    -0.268 OA
ATOM     11  H   UNL d   1       0.779   0.608  -0.572  0.00  0.00     0.169 HD
BRANCH   9  12
ATOM     12  C   UNL d   1       2.678   1.791   0.517  0.00  0.00     0.002 C 
ATOM     13  C   UNL d   1       2.981   2.033  -0.776  0.00  0.00    -0.019 C 
ATOM     14  C   UNL d   1       4.364   2.052  -1.347  0.00  0.00     0.036 C 
ATOM     15  C   UNL d   1       3.740   1.578   1.565  0.00  0.00     0.054 C 
ENDBRANCH   9  12
ENDBRANCH   1   8
BRANCH   2  16
ATOM     16  N   UNL d   1      -0.960  -1.365  -0.055  0.00  0.00    -0.331 N 
ATOM     17  C   UNL d   1       0.164  -1.684   0.691  0.00  0.00     0.097 A 
ATOM     18  C   UNL d   1       0.534  -2.977   0.415  0.00  0.00     0.019 A 
ATOM     19  C   UNL d   1      -0.390  -3.492  -0.514  0.00  0.00     0.019 A 
ATOM     20  C   UNL d   1      -1.304  -2.489  -0.776  0.00  0.00     0.097 A 
ENDBRANCH   2  16
TORSDOF 3
