REMARK  4 active torsions:
REMARK  status: ('A' for Active; 'I' for Inactive)
REMARK    1  A    between atoms: C_7  and  C_1 
REMARK    2  A    between atoms: C_12  and  C_2 
REMARK    3  A    between atoms: N_8  and  C_5 
REMARK    4  A    between atoms: C_10  and  C_13 
ROOT
ATOM      1  C   UNL d   1       1.278   0.648  -0.059  0.00  0.00     0.147 A 
ATOM      2  C   UNL d   1       1.369  -0.778  -0.058  0.00  0.00     0.053 A 
ATOM      3  N   UNL d   1      -0.010   1.045  -0.004  0.00  0.00    -0.292 N 
ATOM      4  HN  UNL d   1      -0.374   1.996  -0.059  1.00  0.00     0.187 HD
ATOM      5  C   UNL d   1       0.068  -1.236   0.121  0.00  0.00     0.135 A 
ATOM      6  N   UNL d   1      -0.706  -0.096   0.142  0.00  0.00    -0.280 N 
ATOM      7  C   UNL d   1      -2.141  -0.011   0.301  0.00  0.00     0.179 C 
ENDROOT
BRANCH   5   8
ATOM      8  N   UNL d   1      -0.404  -2.488   0.357  0.00  0.00    -0.348 N 
ATOM      9  C   UNL d   1      -1.259  -2.990  -0.469  0.00  0.00     0.119 C 
ATOM     10  HN  UNL d   1      -0.089  -3.020   1.169  1.00  0.00     0.167 HD
BRANCH   9  11
ATOM     11  C   UNL d   1      -1.723  -4.331  -0.227  0.00  0.00     0.047 A 
ATOM     12  N   UNL d   1      -1.068  -5.213   0.604  0.00  0.00    -0.365 N 
ATOM     13  C   UNL d   1      -1.715  -6.418   0.617  0.00  0.00     0.088 A 
ATOM     14  H   UNL d   1      -0.218  -4.982   1.104  0.00  0.00     0.165 HD
ATOM     15  C   UNL d   1      -2.824  -6.308  -0.190  0.00  0.00     0.019 A 
ATOM     16  C   UNL d   1      -2.827  -4.997  -0.729  0.00  0.00     0.032 A 
ENDBRANCH   9  11
ENDBRANCH   5   8
BRANCH   2  17
ATOM     17  C   UNL d   1       2.536  -1.654  -0.162  0.00  0.00    -0.020 A 
ATOM     18  C   UNL d   1       2.681  -2.770   0.677  0.00  0.00     0.012 A 
ATOM     19  C   UNL d   1       3.783  -3.619   0.554  0.00  0.00     0.001 A 
ATOM     20  C   UNL d   1       4.763  -3.354  -0.399  0.00  0.00     0.000 A 
ATOM     21  C   UNL d   1       4.637  -2.246  -1.233  0.00  0.00     0.001 A 
ATOM     22  C   UNL d   1       3.525  -1.406  -1.122  0.00  0.00     0.012 A 
ENDBRANCH   2  17
BRANCH   1  23
ATOM     23  C   UNL d   1       2.398   1.654  -0.099  0.00  0.00     0.434 C 
ATOM     24  F   UNL d   1       3.590   1.145   0.319  0.00  0.00    -0.165 F 
ATOM     25  F   UNL d   1       2.607   2.131  -1.356  0.00  0.00    -0.165 F 
ATOM     26  F   UNL d   1       2.162   2.736   0.695  0.00  0.00    -0.165 F 
ENDBRANCH   1  23
TORSDOF 4
