REMARK  2 active torsions:
REMARK  status: ('A' for Active; 'I' for Inactive)
REMARK    1  A    between atoms: N_7  and  C_3 
REMARK    2  A    between atoms: C_13  and  C_6 
ROOT
ATOM      1  C   UNL d   1       0.133   1.065  -0.099  0.00  0.00     0.043 A 
ATOM      2  C   UNL d   1      -0.058  -0.299   0.061  0.00  0.00     0.089 A 
ATOM      3  C   UNL d   1       1.469   1.515  -0.225  0.00  0.00     0.117 A 
ATOM      4  C   UNL d   1      -1.135   1.732  -0.147  0.00  0.00     0.038 A 
ATOM      5  S   UNL d   1      -1.702  -0.728   0.210  0.00  0.00    -0.071 SA
ATOM      6  C   UNL d   1      -2.219   0.894   0.031  0.00  0.00     0.018 A 
ATOM      7  N   UNL d   1       2.443   0.570  -0.224  0.00  0.00    -0.338 N 
ATOM      8  HN  UNL d   1       3.419   0.840  -0.346  1.00  0.00     0.168 HD
ATOM      9  N   UNL d   1       0.895  -1.242   0.098  0.00  0.00    -0.346 N 
ATOM     10  HN  UNL d   1       0.710  -2.236   0.231  1.00  0.00     0.167 HD
ATOM     11  C   UNL d   1       2.114  -0.724  -0.061  0.00  0.00     0.182 A 
ENDROOT
BRANCH   6  12
ATOM     12  C   UNL d   1      -3.637   1.270   0.093  0.00  0.00    -0.019 A 
ATOM     13  C   UNL d   1      -4.638   0.512  -0.529  0.00  0.00     0.013 A 
ATOM     14  C   UNL d   1      -5.975   0.923  -0.480  0.00  0.00     0.001 A 
ATOM     15  C   UNL d   1      -6.324   2.096   0.186  0.00  0.00     0.000 A 
ATOM     16  C   UNL d   1      -5.342   2.861   0.806  0.00  0.00     0.001 A 
ATOM     17  C   UNL d   1      -4.008   2.451   0.759  0.00  0.00     0.013 A 
ENDBRANCH   6  12
BRANCH   3  18
ATOM     18  N   UNL d   1       1.801   2.852  -0.408  0.00  0.00    -0.366 N 
ATOM     19  C   UNL d   1       3.164   3.185  -0.833  0.00  0.00     0.124 C 
ATOM     20  C   UNL d   1       3.546   4.414  -0.007  0.00  0.00     0.021 C 
ATOM     21  C   UNL d   1       2.210   5.039   0.345  0.00  0.00     0.021 C 
ATOM     22  C   UNL d   1       1.325   3.821   0.580  0.00  0.00     0.124 C 
ENDBRANCH   3  18
TORSDOF 2
