REMARK  5 active torsions:
REMARK  status: ('A' for Active; 'I' for Inactive)
REMARK       I    between atoms: N_3  and  C_1 
REMARK       I    between atoms: N_7  and  C_1 
REMARK    1  A    between atoms: C_2  and  O_4 
REMARK    2  A    between atoms: C_5  and  N_3 
REMARK    3  A    between atoms: O_4  and  C_6 
REMARK    4  A    between atoms: C_15  and  N_7 
REMARK       I    between atoms: C_8  and  N_9 
REMARK    5  A    between atoms: N_9  and  C_16 
ROOT
ATOM      1  C   UNL d   1       0.807  -0.144  -0.328  0.00  0.00     0.325 C 
ATOM      2  N   UNL d   1       0.249  -1.019   0.567  0.00  0.00    -0.306 N 
ATOM      3  N   UNL d   1      -0.063   0.523  -1.142  0.00  0.00    -0.309 N 
ATOM      4  O   UNL d   1       2.013  -0.011  -0.533  0.00  0.00    -0.247 OA
ATOM      5  H   UNL d   1      -0.666  -1.345   0.293  0.00  0.00     0.171 HD
ATOM      6  H   UNL d   1       0.409   0.880  -1.965  0.00  0.00     0.170 HD
ENDROOT
BRANCH   2   7
ATOM      7  C   UNL d   1       1.000  -1.869   1.414  0.00  0.00     0.070 A 
ATOM      8  C   UNL d   1       0.528  -3.158   1.711  0.00  0.00     0.105 A 
ATOM      9  C   UNL d   1       1.239  -3.974   2.596  0.00  0.00     0.039 A 
ATOM     10  C   UNL d   1       2.427  -3.522   3.170  0.00  0.00     0.003 A 
ATOM     11  C   UNL d   1       2.901  -2.247   2.874  0.00  0.00     0.002 A 
ATOM     12  C   UNL d   1       2.190  -1.425   1.998  0.00  0.00     0.032 A 
BRANCH   8  13
ATOM     13  O   UNL d   1      -0.670  -3.641   1.267  0.00  0.00    -0.253 OA
BRANCH  13  14
ATOM     14  C   UNL d   1      -0.773  -3.866  -0.137  0.00  0.00     0.530 C 
ATOM     15  F   UNL d   1       0.182  -3.262  -0.868  0.00  0.00    -0.144 F 
ATOM     16  F   UNL d   1      -0.740  -5.192  -0.389  0.00  0.00    -0.144 F 
ATOM     17  F   UNL d   1      -1.971  -3.387  -0.541  0.00  0.00    -0.144 F 
ENDBRANCH  13  14
ENDBRANCH   8  13
ENDBRANCH   2   7
BRANCH   3  18
ATOM     18  C   UNL d   1      -1.441   0.759  -1.042  0.00  0.00     0.036 A 
ATOM     19  C   UNL d   1      -2.158   0.691   0.153  0.00  0.00     0.032 A 
ATOM     20  C   UNL d   1      -3.541   0.905   0.159  0.00  0.00     0.032 A 
ATOM     21  C   UNL d   1      -4.224   1.198  -1.028  0.00  0.00     0.034 A 
ATOM     22  C   UNL d   1      -3.493   1.327  -2.207  0.00  0.00     0.032 A 
ATOM     23  C   UNL d   1      -2.111   1.120  -2.212  0.00  0.00     0.032 A 
BRANCH  21  24
ATOM     24  N   UNL d   1      -5.626   1.333  -0.951  0.00  0.00    -0.328 N 
ATOM     25  C   UNL d   1      -6.501   1.559  -1.999  0.00  0.00     0.218 C 
ATOM     26  O   UNL d   1      -6.208   1.735  -3.179  0.00  0.00    -0.274 OA
ATOM     27  C   UNL d   1      -7.948   1.557  -1.573  0.00  0.00     0.117 C 
ATOM     28  H   UNL d   1      -6.031   1.210  -0.032  0.00  0.00     0.169 HD
ENDBRANCH  21  24
ENDBRANCH   3  18
TORSDOF 5
