REMARK  4 active torsions:
REMARK  status: ('A' for Active; 'I' for Inactive)
REMARK    1  A    between atoms: S_7  and  C_1 
REMARK    2  A    between atoms: C_10  and  C_5 
REMARK    3  A    between atoms: C_9  and  S_7 
REMARK    4  A    between atoms: O_15  and  C_10 
ROOT
ATOM      1  C   UNL d   1      -3.353   0.069  -1.164  0.00  0.00     0.118 A 
ATOM      2  N   UNL d   1      -3.442  -0.033  -2.471  0.00  0.00    -0.344 N 
ATOM      3  HN  UNL d   1      -4.313  -0.070  -3.000  1.00  0.00     0.167 HD
ATOM      4  S   UNL d   1      -1.772   0.034  -0.511  0.00  0.00    -0.063 SA
ATOM      5  C   UNL d   1      -1.119  -0.050  -2.103  0.00  0.00     0.035 A 
ATOM      6  C   UNL d   1      -2.172  -0.084  -3.021  0.00  0.00     0.050 A 
ATOM      7  C   UNL d   1       0.227  -0.070  -2.508  0.00  0.00     0.045 A 
ATOM      8  C   UNL d   1      -1.866  -0.141  -4.397  0.00  0.00     0.032 A 
ATOM      9  C   UNL d   1       0.496  -0.119  -3.878  0.00  0.00     0.035 A 
ATOM     10  C   UNL d   1      -0.530  -0.155  -4.816  0.00  0.00     0.026 A 
ATOM     11 CL   UNL d   1       2.134  -0.124  -4.414  0.00  0.00    -0.084 Cl
ENDROOT
BRANCH   1  12
ATOM     12  S   UNL d   1      -4.766   0.373  -0.180  0.00  0.00    -0.064 SA
BRANCH  12  13
ATOM     13  C   UNL d   1      -5.342  -1.307   0.038  0.00  0.00     0.023 A 
ATOM     14  C   UNL d   1      -5.032  -2.149   1.125  0.00  0.00     0.056 A 
ATOM     15  C   UNL d   1      -5.615  -3.432   1.194  0.00  0.00     0.019 A 
ATOM     16  C   UNL d   1      -6.501  -3.877   0.215  0.00  0.00     0.001 A 
ATOM     17  C   UNL d   1      -6.809  -3.050  -0.858  0.00  0.00     0.001 A 
ATOM     18  C   UNL d   1      -6.237  -1.780  -0.943  0.00  0.00     0.020 A 
BRANCH  14  19
ATOM     19  C   UNL d   1      -4.096  -1.832   2.238  0.00  0.00     0.294 C 
ATOM     20  O   UNL d   1      -3.486  -2.699   2.848  0.00  0.00    -0.259 OA
BRANCH  19  21
ATOM     21  O   UNL d   1      -4.066  -0.512   2.524  0.00  0.00    -0.322 OA
ATOM     22  C   UNL d   1      -3.168  -0.146   3.574  0.00  0.00     0.213 C 
ENDBRANCH  19  21
ENDBRANCH  14  19
ENDBRANCH  12  13
ENDBRANCH   1  12
TORSDOF 4
