REMARK  6 active torsions:
REMARK  status: ('A' for Active; 'I' for Inactive)
REMARK    1  A    between atoms: C_2  and  C_1 
REMARK    2  A    between atoms: C_3  and  C_1 
REMARK    3  A    between atoms: S_4  and  C_2 
REMARK    4  A    between atoms: C_5  and  C_2 
REMARK    5  A    between atoms: C_7  and  C_3 
REMARK    6  A    between atoms: C_10  and  S_4 
ROOT
ATOM      1  C   UNL d   1       0.398  -0.607   1.260  0.00  0.00     0.092 C 
ENDROOT
BRANCH   1   2
ATOM      2  C   UNL d   1       1.046   0.216   0.136  0.00  0.00     0.104 C 
BRANCH   2   3
ATOM      3  C   UNL d   1       2.561   0.238   0.079  0.00  0.00     0.161 C 
ATOM      4  O   UNL d   1       3.246  -0.644   0.589  0.00  0.00    -0.292 OA
BRANCH   3   5
ATOM      5  C   UNL d   1       3.213   1.324  -0.731  0.00  0.00     0.010 A 
ATOM      6  C   UNL d   1       2.486   2.369  -1.323  0.00  0.00     0.015 A 
ATOM      7  C   UNL d   1       3.135   3.345  -2.085  0.00  0.00     0.001 A 
ATOM      8  C   UNL d   1       4.512   3.282  -2.272  0.00  0.00     0.000 A 
ATOM      9  C   UNL d   1       5.244   2.247  -1.692  0.00  0.00     0.001 A 
ATOM     10  C   UNL d   1       4.599   1.274  -0.922  0.00  0.00     0.015 A 
ENDBRANCH   3   5
ENDBRANCH   2   3
ENDBRANCH   1   2
BRANCH   1  11
ATOM     11  S   UNL d   1       0.924  -0.004   2.943  0.00  0.00    -0.120 SA
BRANCH  11  12
ATOM     12  C   UNL d   1       0.229   1.634   3.022  0.00  0.00     0.001 A 
ATOM     13  C   UNL d   1      -1.092   1.827   3.441  0.00  0.00     0.020 A 
ATOM     14  C   UNL d   1      -1.612   3.117   3.577  0.00  0.00     0.025 A 
ATOM     15  C   UNL d   1      -0.803   4.218   3.312  0.00  0.00     0.034 A 
ATOM     16  C   UNL d   1       0.520   4.041   2.914  0.00  0.00     0.025 A 
ATOM     17 CL   UNL d   1      -1.436   5.807   3.498  0.00  0.00    -0.084 Cl
ATOM     18  C   UNL d   1       1.038   2.749   2.775  0.00  0.00     0.020 A 
ENDBRANCH  11  12
ENDBRANCH   1  11
BRANCH   1  19
ATOM     19  C   UNL d   1      -1.134  -0.700   1.127  0.00  0.00    -0.043 A 
ATOM     20  C   UNL d   1      -1.837  -0.102   0.062  0.00  0.00     0.010 A 
ATOM     21  C   UNL d   1      -3.227  -0.191  -0.040  0.00  0.00     0.024 A 
ATOM     22  C   UNL d   1      -3.946  -0.877   0.928  0.00  0.00     0.034 A 
ATOM     23  C   UNL d   1      -3.282  -1.497   1.984  0.00  0.00     0.024 A 
ATOM     24 CL   UNL d   1      -5.660  -0.961   0.819  0.00  0.00    -0.084 Cl
ATOM     25  C   UNL d   1      -1.885  -1.423   2.072  0.00  0.00     0.010 A 
ENDBRANCH   1  19
TORSDOF 6
