REMARK  3 active torsions:
REMARK  status: ('A' for Active; 'I' for Inactive)
REMARK    1  A    between atoms: C_12  and  C_5 
REMARK    2  A    between atoms: S_10  and  C_8 
REMARK    3  A    between atoms: N_11  and  C_9 
ROOT
ATOM      1  N   UNL d   1       1.782  -0.052  -0.030  0.00  0.00    -0.326 N 
ATOM      2  HN  UNL d   1       2.800  -0.045  -0.080  1.00  0.00     0.169 HD
ATOM      3  N   UNL d   1      -0.269   1.099   0.090  0.00  0.00    -0.322 N 
ATOM      4  HN  UNL d   1      -0.792   1.974   0.121  1.00  0.00     0.169 HD
ATOM      5  C   UNL d   1       1.063   1.067   0.032  0.00  0.00     0.088 A 
ATOM      6  N   UNL d   1      -0.252  -1.252   0.031  0.00  0.00    -0.313 N 
ATOM      7  HN  UNL d   1      -0.755  -2.138   0.018  1.00  0.00     0.170 HD
ATOM      8  C   UNL d   1       1.075  -1.179  -0.023  0.00  0.00     0.147 A 
ATOM      9  C   UNL d   1      -0.866  -0.083   0.104  0.00  0.00     0.158 A 
ENDROOT
BRANCH   5  10
ATOM     10  C   UNL d   1       1.798   2.388   0.063  0.00  0.00     0.045 C 
ATOM     11  C   UNL d   1       2.691   2.478   1.300  0.00  0.00     0.017 C 
ATOM     12  C   UNL d   1       2.609   2.600  -1.215  0.00  0.00     0.017 C 
ENDBRANCH   5  10
BRANCH   9  13
ATOM     13  N   UNL d   1      -2.245  -0.089   0.168  0.00  0.00    -0.274 NA
ATOM     14  H   UNL d   1      -2.621  -0.939  -0.227  0.00  0.00     0.127 HD
ATOM     15  H   UNL d   1      -2.617   0.787  -0.170  0.00  0.00     0.127 HD
ENDBRANCH   9  13
BRANCH   8  16
ATOM     16  S   UNL d   1       2.031  -2.680  -0.090  0.00  0.00    -0.098 SA
ATOM     17  C   UNL d   1       0.716  -3.921  -0.044  0.00  0.00     0.099 C 
ENDBRANCH   8  16
TORSDOF 3
