REMARK  3 active torsions:
REMARK  status: ('A' for Active; 'I' for Inactive)
REMARK       I    between atoms: N_2  and  C_1 
REMARK       I    between atoms: N_6  and  C_1 
REMARK    1  A    between atoms: C_3  and  C_7 
REMARK    2  A    between atoms: C_5  and  N_4 
REMARK    3  A    between atoms: C_19  and  N_6 
ROOT
ATOM      1  C   UNL d   1       0.916  -0.129  -0.228  0.00  0.00     0.323 C 
ATOM      2  N   UNL d   1       0.346   0.689  -1.188  0.00  0.00    -0.331 N 
ATOM      3  N   UNL d   1      -0.378   2.458  -3.267  0.00  0.00    -0.364 N 
ATOM      4  N   UNL d   1       0.541   0.103   1.072  0.00  0.00    -0.309 N 
ATOM      5  O   UNL d   1       1.742  -0.981  -0.561  0.00  0.00    -0.247 OA
ATOM      6  C   UNL d   1       0.735   0.419  -2.587  0.00  0.00     0.147 C 
ATOM      7  C   UNL d   1      -0.812   1.601  -1.036  0.00  0.00     0.147 C 
ATOM      8  C   UNL d   1      -0.681   2.879  -1.903  0.00  0.00     0.144 C 
ATOM      9  C   UNL d   1       0.866   1.705  -3.408  0.00  0.00     0.144 C 
ATOM     10  H   UNL d   1      -0.176   0.785   1.238  0.00  0.00     0.170 HD
ENDROOT
BRANCH   4  11
ATOM     11  C   UNL d   1       1.131  -0.453   2.230  0.00  0.00     0.036 A 
ATOM     12  C   UNL d   1       2.183  -1.373   2.202  0.00  0.00     0.031 A 
ATOM     13  C   UNL d   1       2.804  -1.789   3.381  0.00  0.00     0.026 A 
ATOM     14  C   UNL d   1       2.363  -1.299   4.604  0.00  0.00     0.034 A 
ATOM     15  C   UNL d   1       1.281  -0.424   4.657  0.00  0.00     0.026 A 
ATOM     16 CL   UNL d   1       3.171  -1.760   6.049  0.00  0.00    -0.084 Cl
ATOM     17  C   UNL d   1       0.663  -0.005   3.473  0.00  0.00     0.031 A 
ENDBRANCH   4  11
BRANCH   3  18
ATOM     18  C   UNL d   1      -0.949   3.084  -4.345  0.00  0.00     0.103 A 
ATOM     19  C   UNL d   1      -1.158   2.360  -5.516  0.00  0.00     0.064 A 
ATOM     20  C   UNL d   1      -1.804   2.942  -6.608  0.00  0.00     0.052 A 
ATOM     21  C   UNL d   1      -2.202   4.271  -6.502  0.00  0.00     0.033 A 
ATOM     22  C   UNL d   1      -1.964   4.929  -5.308  0.00  0.00     0.090 A 
ATOM     23  N   UNL d   1      -1.373   4.357  -4.235  0.00  0.00    -0.352 N 
ATOM     24  HN  UNL d   1      -1.252   4.876  -3.365  1.00  0.00     0.166 HD
BRANCH  20  25
ATOM     25  C   UNL d   1      -2.082   2.137  -7.845  0.00  0.00     0.417 C 
ATOM     26  F   UNL d   1      -1.644   0.849  -7.767  0.00  0.00    -0.166 F 
ATOM     27  F   UNL d   1      -3.412   2.061  -8.126  0.00  0.00    -0.166 F 
ATOM     28  F   UNL d   1      -1.492   2.664  -8.953  0.00  0.00    -0.166 F 
ENDBRANCH  20  25
ENDBRANCH   3  18
TORSDOF 3
