REMARK  4 active torsions:
REMARK  status: ('A' for Active; 'I' for Inactive)
REMARK    1  A    between atoms: N_2  and  C_1 
REMARK       I    between atoms: C_3  and  N_2 
REMARK    2  A    between atoms: C_4  and  C_3 
REMARK    3  A    between atoms: C_5  and  C_6 
REMARK    4  A    between atoms: O_11  and  C_5 
ROOT
ATOM      1  C   UNL d   1       1.093  -1.374  -0.222  0.00  0.00     0.046 C 
ATOM      2  C   UNL d   1      -0.182  -0.750  -0.074  0.00  0.00     0.001 A 
ATOM      3  C   UNL d   1      -0.237   0.669  -0.056  0.00  0.00    -0.024 A 
ATOM      4  C   UNL d   1       2.220  -0.589  -0.518  0.00  0.00     0.030 C 
ATOM      5  C   UNL d   1       2.141   0.799  -0.523  0.00  0.00     0.003 C 
ATOM      6  C   UNL d   1      -1.424  -1.430  -0.013  0.00  0.00     0.014 A 
ATOM      7  C   UNL d   1       0.928   1.422  -0.254  0.00  0.00     0.012 C 
ATOM      8  C   UNL d   1      -1.462   1.334   0.130  0.00  0.00     0.012 A 
ATOM      9  C   UNL d   1      -2.639  -0.757   0.146  0.00  0.00     0.001 A 
ATOM     10  C   UNL d   1      -2.656   0.626   0.236  0.00  0.00     0.001 A 
ENDROOT
BRANCH   1  11
ATOM     11  N   UNL d   1       1.359  -2.764  -0.087  0.00  0.00    -0.323 N 
ATOM     12  C   UNL d   1       0.770  -3.613   0.828  0.00  0.00     0.245 C 
ATOM     13  O   UNL d   1      -0.109  -3.348   1.638  0.00  0.00    -0.268 OA
ATOM     14  H   UNL d   1       2.245  -3.071  -0.468  0.00  0.00     0.169 HD
BRANCH  12  15
ATOM     15  C   UNL d   1       1.381  -4.967   0.820  0.00  0.00     0.081 C 
ATOM     16  C   UNL d   1       0.830  -5.919   1.589  0.00  0.00     0.086 C 
BRANCH  16  17
ATOM     17  C   UNL d   1       1.449  -7.251   1.635  0.00  0.00     0.165 C 
ATOM     18  O   UNL d   1       2.480  -7.548   1.057  0.00  0.00    -0.647 OA
BRANCH  17  19
ATOM     19  O   UNL d   1       0.744  -8.111   2.393  0.00  0.00    -0.773 OA
ATOM     20  H   UNL d   1      -0.062  -7.752   2.806  0.00  0.00     0.167 HD
ENDBRANCH  17  19
ENDBRANCH  16  17
ENDBRANCH  12  15
ENDBRANCH   1  11
TORSDOF 4
