REMARK  15 active torsions:
REMARK  status: ('A' for Active; 'I' for Inactive)
REMARK    1  A    between atoms: C_2  and  C_1 
REMARK    2  A    between atoms: C_3  and  C_1 
REMARK    3  A    between atoms: C_30  and  C_1 
REMARK       I    between atoms: N_10  and  C_2 
REMARK       I    between atoms: N_11  and  C_3 
REMARK    4  A    between atoms: N_4  and  N_10 
REMARK    5  A    between atoms: N_6  and  N_11 
REMARK    6  A    between atoms: O_26  and  C_8 
REMARK    7  A    between atoms: O_27  and  C_9 
REMARK    8  A    between atoms: O_28  and  C_12 
REMARK    9  A    between atoms: O_29  and  C_13 
REMARK   10  A    between atoms: C_22  and  C_20 
REMARK   11  A    between atoms: C_23  and  C_21 
REMARK   12  A    between atoms: C_31  and  O_28 
REMARK   13  A    between atoms: C_32  and  O_29 
REMARK   14  A    between atoms: C_35  and  C_30 
REMARK   15  A    between atoms: C_36  and  C_35 
ROOT
ATOM      1  C   UNL d   1       0.851  -0.011  -0.066  0.00  0.00     0.173 C 
ENDROOT
BRANCH   1   2
ATOM      2  C   UNL d   1       0.139   0.112   1.281  0.00  0.00     0.249 C 
ATOM      3  N   UNL d   1      -0.089   1.388   1.769  0.00  0.00    -0.270 N 
ATOM      4  H   UNL d   1      -0.018   2.195   1.142  0.00  0.00     0.190 HD
ATOM      5  O   UNL d   1      -0.130  -0.919   1.910  0.00  0.00    -0.271 OA
BRANCH   3   6
ATOM      6  N   UNL d   1      -0.615   1.534   3.022  0.00  0.00    -0.308 N 
ATOM      7  C   UNL d   1      -1.010   2.713   3.379  0.00  0.00     0.118 C 
ATOM      8  HN  UNL d   1      -0.693   0.739   3.655  1.00  0.00     0.186 HD
BRANCH   7   9
ATOM      9  C   UNL d   1      -1.546   2.952   4.745  0.00  0.00    -0.017 A 
ATOM     10  C   UNL d   1      -1.951   4.237   5.128  0.00  0.00     0.052 A 
ATOM     11  C   UNL d   1      -2.409   4.488   6.437  0.00  0.00     0.102 A 
ATOM     12  C   UNL d   1      -2.478   3.423   7.360  0.00  0.00     0.102 A 
ATOM     13  C   UNL d   1      -2.081   2.141   6.954  0.00  0.00     0.040 A 
ATOM     14  C   UNL d   1      -1.617   1.902   5.660  0.00  0.00     0.016 A 
BRANCH  11  15
ATOM     15  O   UNL d   1      -2.788   5.730   6.870  0.00  0.00    -0.353 OA
ATOM     16  C   UNL d   1      -2.693   6.833   5.982  0.00  0.00     0.210 C 
ENDBRANCH  11  15
BRANCH  12  17
ATOM     17  O   UNL d   1      -2.892   3.446   8.670  0.00  0.00    -0.349 OA
BRANCH  17  18
ATOM     18  C   UNL d   1      -3.340   4.675   9.234  0.00  0.00     0.171 C 
ATOM     19  C   UNL d   1      -3.767   4.429  10.672  0.00  0.00     0.034 C 
ENDBRANCH  17  18
ENDBRANCH  12  17
ENDBRANCH   7   9
ENDBRANCH   3   6
ENDBRANCH   1   2
BRANCH   1  20
ATOM     20  C   UNL d   1       0.503   1.085  -1.067  0.00  0.00     0.249 C 
ATOM     21  N   UNL d   1       0.610   0.705  -2.406  0.00  0.00    -0.270 N 
ATOM     22  H   UNL d   1       0.904  -0.229  -2.677  0.00  0.00     0.190 HD
ATOM     23  O   UNL d   1       0.195   2.218  -0.694  0.00  0.00    -0.271 OA
BRANCH  21  24
ATOM     24  N   UNL d   1       0.301   1.622  -3.368  0.00  0.00    -0.308 N 
ATOM     25  C   UNL d   1       0.326   1.255  -4.614  0.00  0.00     0.118 C 
ATOM     26  HN  UNL d   1       0.056   2.579  -3.113  1.00  0.00     0.186 HD
BRANCH  25  27
ATOM     27  C   UNL d   1      -0.012   2.231  -5.687  0.00  0.00    -0.017 A 
ATOM     28  C   UNL d   1       0.003   1.854  -7.041  0.00  0.00     0.052 A 
ATOM     29  C   UNL d   1      -0.310   2.791  -8.049  0.00  0.00     0.102 A 
ATOM     30  C   UNL d   1      -0.644   4.113  -7.686  0.00  0.00     0.102 A 
ATOM     31  C   UNL d   1      -0.657   4.467  -6.332  0.00  0.00     0.040 A 
ATOM     32  C   UNL d   1      -0.348   3.541  -5.339  0.00  0.00     0.016 A 
BRANCH  29  33
ATOM     33  O   UNL d   1      -0.314   2.491  -9.384  0.00  0.00    -0.353 OA
ATOM     34  C   UNL d   1       0.060   1.196  -9.820  0.00  0.00     0.210 C 
ENDBRANCH  29  33
BRANCH  30  35
ATOM     35  O   UNL d   1      -0.975   5.171  -8.497  0.00  0.00    -0.349 OA
BRANCH  35  36
ATOM     36  C   UNL d   1      -1.011   4.986  -9.909  0.00  0.00     0.171 C 
ATOM     37  C   UNL d   1      -1.406   6.299 -10.566  0.00  0.00     0.034 C 
ENDBRANCH  35  36
ENDBRANCH  30  35
ENDBRANCH  25  27
ENDBRANCH  21  24
ENDBRANCH   1  20
BRANCH   1  38
ATOM     38  C   UNL d   1       2.380  -0.064   0.114  0.00  0.00     0.024 C 
BRANCH  38  39
ATOM     39  C   UNL d   1       2.885  -1.251   0.953  0.00  0.00     0.001 C 
BRANCH  39  40
ATOM     40  C   UNL d   1       4.416  -1.264   1.007  0.00  0.00    -0.005 C 
ATOM     41  C   UNL d   1       4.962  -2.411   1.845  0.00  0.00     0.005 C 
ENDBRANCH  39  40
ENDBRANCH  38  39
ENDBRANCH   1  38
TORSDOF 15
