REMARK  7 active torsions:
REMARK  status: ('A' for Active; 'I' for Inactive)
REMARK    1  A    between atoms: C_2  and  S_1 
REMARK    2  A    between atoms: C_8  and  S_1 
REMARK    3  A    between atoms: C_3  and  C_2 
REMARK    4  A    between atoms: C_6  and  C_2 
REMARK    5  A    between atoms: C_4  and  C_3 
REMARK    6  A    between atoms: C_16  and  C_4 
REMARK    7  A    between atoms: N_18  and  C_13 
ROOT
ATOM      1  C   UNL d   1       0.278   1.601  -0.198  0.00  0.00     0.092 C 
ENDROOT
BRANCH   1   2
ATOM      2  S   UNL d   1       1.095  -0.031   0.200  0.00  0.00    -0.118 SA
BRANCH   2   3
ATOM      3  C   UNL d   1       2.811   0.353   0.613  0.00  0.00     0.022 A 
ATOM      4  C   UNL d   1       3.794  -0.671   0.555  0.00  0.00     0.022 A 
ATOM      5  C   UNL d   1       5.137  -0.356   0.827  0.00  0.00     0.024 A 
ATOM      6  C   UNL d   1       5.506   0.926   1.223  0.00  0.00     0.002 A 
ATOM      7  C   UNL d   1       4.538   1.913   1.340  0.00  0.00     0.001 A 
ATOM      8  C   UNL d   1       3.204   1.627   1.051  0.00  0.00     0.020 A 
BRANCH   4   9
ATOM      9  N   UNL d   1       3.524  -1.948   0.017  0.00  0.00    -0.302 NA
ATOM     10  H   UNL d   1       2.538  -2.193   0.080  0.00  0.00     0.124 HD
ATOM     11  H   UNL d   1       4.130  -2.677   0.378  0.00  0.00     0.124 HD
ENDBRANCH   4   9
ENDBRANCH   2   3
ENDBRANCH   1   2
BRANCH   1  12
ATOM     12  C   UNL d   1       0.769   2.256  -1.502  0.00  0.00     0.104 C 
BRANCH  12  13
ATOM     13  C   UNL d   1       0.530   1.484  -2.791  0.00  0.00     0.161 C 
ATOM     14  O   UNL d   1      -0.589   1.454  -3.303  0.00  0.00    -0.292 OA
BRANCH  13  15
ATOM     15  C   UNL d   1       1.665   0.851  -3.539  0.00  0.00     0.010 A 
ATOM     16  C   UNL d   1       2.981   0.819  -3.069  0.00  0.00     0.015 A 
ATOM     17  C   UNL d   1       4.009   0.329  -3.881  0.00  0.00     0.001 A 
ATOM     18  C   UNL d   1       3.732  -0.139  -5.163  0.00  0.00     0.000 A 
ATOM     19  C   UNL d   1       2.419  -0.158  -5.624  0.00  0.00     0.001 A 
ATOM     20  C   UNL d   1       1.390   0.326  -4.813  0.00  0.00     0.015 A 
ENDBRANCH  13  15
ENDBRANCH  12  13
ENDBRANCH   1  12
BRANCH   1  21
ATOM     21  C   UNL d   1      -1.249   1.501  -0.127  0.00  0.00    -0.041 A 
ATOM     22  C   UNL d   1      -1.995   2.470   0.578  0.00  0.00     0.048 A 
ATOM     23  C   UNL d   1      -3.374   2.380   0.569  0.00  0.00     0.105 A 
ATOM     24  O   UNL d   1      -4.239   3.237   1.177  0.00  0.00    -0.323 OA
ATOM     25  C   UNL d   1      -4.034   1.374  -0.101  0.00  0.00     0.105 A 
ATOM     26  C   UNL d   1      -5.511   2.667   0.790  0.00  0.00     0.352 A 
ATOM     27  O   UNL d   1      -5.383   1.464   0.001  0.00  0.00    -0.323 OA
ATOM     28  C   UNL d   1      -3.345   0.408  -0.801  0.00  0.00     0.040 A 
ATOM     29  C   UNL d   1      -1.952   0.477  -0.812  0.00  0.00     0.011 A 
ENDBRANCH   1  21
TORSDOF 7
