REMARK  6 active torsions:
REMARK  status: ('A' for Active; 'I' for Inactive)
REMARK    1  A    between atoms: C_2  and  C_1 
REMARK       I    between atoms: N_4  and  C_2 
REMARK    2  A    between atoms: C_5  and  C_3 
REMARK    3  A    between atoms: C_6  and  N_4 
REMARK    4  A    between atoms: S_13  and  C_10 
REMARK    5  A    between atoms: C_19  and  S_13 
REMARK    6  A    between atoms: C_25  and  C_19 
ROOT
ATOM      1  C   UNL d   1       0.681   1.250  -0.469  0.00  0.00     0.062 A 
ATOM      2  C   UNL d   1       1.478   0.114  -0.311  0.00  0.00     0.067 A 
ATOM      3  C   UNL d   1      -0.692   1.063  -0.637  0.00  0.00     0.106 A 
ATOM      4  N   UNL d   1      -1.312  -0.144  -0.619  0.00  0.00    -0.360 N 
ATOM      5  HN  UNL d   1      -2.325  -0.222  -0.708  1.00  0.00     0.166 HD
ATOM      6  C   UNL d   1      -0.535  -1.235  -0.479  0.00  0.00     0.070 A 
ATOM      7  C   UNL d   1       0.846  -1.144  -0.336  0.00  0.00     0.054 A 
ENDROOT
BRANCH   1   8
ATOM      8  C   UNL d   1       1.233   2.621  -0.548  0.00  0.00     0.258 C 
ATOM      9  N   UNL d   1       0.585   3.549   0.252  0.00  0.00    -0.322 N 
ATOM     10  H   UNL d   1       0.035   3.167   1.004  0.00  0.00     0.169 HD
ATOM     11  O   UNL d   1       2.211   2.797  -1.263  0.00  0.00    -0.267 OA
BRANCH   9  12
ATOM     12  C   UNL d   1       0.844   4.944   0.334  0.00  0.00     0.046 A 
ATOM     13  C   UNL d   1       1.130   5.749  -0.794  0.00  0.00    -0.035 A 
ATOM     14  C   UNL d   1       1.336   7.137  -0.617  0.00  0.00     0.009 A 
ATOM     15  C   UNL d   1       1.175   5.277  -2.221  0.00  0.00     0.050 C 
ATOM     16  C   UNL d   1       1.213   7.737   0.627  0.00  0.00     0.001 A 
ATOM     17  C   UNL d   1       0.896   6.957   1.729  0.00  0.00     0.009 A 
ATOM     18  C   UNL d   1       0.719   5.563   1.606  0.00  0.00    -0.035 A 
ATOM     19  C   UNL d   1       0.453   4.833   2.898  0.00  0.00     0.050 C 
ENDBRANCH   9  12
ENDBRANCH   1   8
BRANCH   2  20
ATOM     20  C   UNL d   1       2.967   0.147  -0.101  0.00  0.00     0.418 C 
ATOM     21  F   UNL d   1       3.458   1.293   0.433  0.00  0.00    -0.166 F 
ATOM     22  F   UNL d   1       3.354  -0.829   0.779  0.00  0.00    -0.166 F 
ATOM     23  F   UNL d   1       3.664  -0.107  -1.240  0.00  0.00    -0.166 F 
ENDBRANCH   2  20
BRANCH   6  24
ATOM     24  S   UNL d   1      -1.256  -2.862  -0.372  0.00  0.00    -0.108 SA
BRANCH  24  25
ATOM     25  C   UNL d   1      -2.970  -2.609  -0.978  0.00  0.00     0.049 C 
ATOM     26  C   UNL d   1      -3.790  -3.820  -0.519  0.00  0.00     0.021 C 
BRANCH  25  27
ATOM     27  C   UNL d   1      -3.051  -2.413  -2.503  0.00  0.00     0.011 C 
ATOM     28  C   UNL d   1      -2.523  -3.561  -3.356  0.00  0.00     0.006 C 
ENDBRANCH  25  27
ENDBRANCH  24  25
ENDBRANCH   6  24
TORSDOF 6
