REMARK  1 active torsions:
REMARK  status: ('A' for Active; 'I' for Inactive)
REMARK    1  A    between atoms: C_6  and  N_1 
ROOT
ATOM      1  N   UNL d   1       1.938  -0.013  -0.059  0.00  0.00    -0.244 N 
ATOM      2  C   UNL d   1       1.162   1.122   0.063  0.00  0.00     0.266 A 
ATOM      3  C   UNL d   1       1.140  -1.137  -0.115  0.00  0.00     0.266 A 
ATOM      4  C   UNL d   1      -0.232   0.690   0.048  0.00  0.00     0.048 A 
ATOM      5  C   UNL d   1      -0.244  -0.685  -0.037  0.00  0.00     0.048 A 
ATOM      6  O   UNL d   1       1.458   2.302   0.140  0.00  0.00    -0.267 OA
ATOM      7  O   UNL d   1       1.413  -2.324  -0.185  0.00  0.00    -0.267 OA
ATOM      8  C   UNL d   1      -1.399   1.429   0.084  0.00  0.00     0.018 A 
ATOM      9  C   UNL d   1      -1.422  -1.408  -0.050  0.00  0.00     0.018 A 
ATOM     10  C   UNL d   1      -2.617  -0.685  -0.002  0.00  0.00     0.001 A 
ATOM     11  C   UNL d   1      -2.606   0.723   0.054  0.00  0.00     0.001 A 
ENDROOT
BRANCH   1  12
ATOM     12  C   UNL d   1       3.360  -0.024  -0.133  0.00  0.00     0.046 A 
ATOM     13  C   UNL d   1       4.124   1.065   0.319  0.00  0.00     0.032 A 
ATOM     14  C   UNL d   1       5.522   1.053   0.243  0.00  0.00     0.026 A 
ATOM     15  C   UNL d   1       6.178  -0.043  -0.305  0.00  0.00     0.034 A 
ATOM     16  C   UNL d   1       5.447  -1.130  -0.767  0.00  0.00     0.026 A 
ATOM     17 CL   UNL d   1       7.894  -0.054  -0.412  0.00  0.00    -0.084 Cl
ATOM     18  C   UNL d   1       4.050  -1.123  -0.672  0.00  0.00     0.032 A 
ENDBRANCH   1  12
TORSDOF 1
