REMARK  5 active torsions:
REMARK  status: ('A' for Active; 'I' for Inactive)
REMARK    1  A    between atoms: C_2  and  C_1 
REMARK    2  A    between atoms: C_3  and  C_1 
REMARK    3  A    between atoms: C_5  and  C_4 
REMARK    4  A    between atoms: C_7  and  C_6 
REMARK    5  A    between atoms: N_12  and  C_8 
ROOT
ATOM      1  C   UNL d   1       0.894  -0.104  -0.039  0.00  0.00     0.182 C 
ATOM      2  O   UNL d   1       0.403  -1.099  -0.559  0.00  0.00    -0.288 OA
ENDROOT
BRANCH   1   3
ATOM      3  C   UNL d   1       2.298   0.298  -0.332  0.00  0.00     0.014 A 
ATOM      4  C   UNL d   1       3.240  -0.690  -0.646  0.00  0.00     0.017 A 
ATOM      5  C   UNL d   1       4.564  -0.335  -0.923  0.00  0.00     0.020 A 
ATOM      6  C   UNL d   1       4.941   1.008  -0.900  0.00  0.00     0.011 A 
ATOM      7  C   UNL d   1       4.005   2.000  -0.614  0.00  0.00     0.020 A 
ATOM      8 BR   UNL d   1       6.730   1.493  -1.270  0.00  0.00    -0.051 Br
ATOM      9  C   UNL d   1       2.683   1.647  -0.334  0.00  0.00     0.017 A 
ENDBRANCH   1   3
BRANCH   1  10
ATOM     10  C   UNL d   1       0.147   0.737   0.938  0.00  0.00     0.055 C 
ATOM     11  C   UNL d   1      -1.193   0.740   0.970  0.00  0.00     0.004 C 
BRANCH  11  12
ATOM     12  C   UNL d   1      -1.930   1.566   1.904  0.00  0.00     0.000 C 
ATOM     13  C   UNL d   1      -3.270   1.623   1.963  0.00  0.00     0.001 C 
BRANCH  13  14
ATOM     14  C   UNL d   1      -3.957   2.462   2.927  0.00  0.00     0.017 C 
ATOM     15  C   UNL d   1      -5.288   2.552   3.036  0.00  0.00     0.084 C 
BRANCH  15  16
ATOM     16  N   UNL d   1      -6.053   3.307   3.917  0.00  0.00    -0.398 N 
ATOM     17  C   UNL d   1      -5.504   4.178   4.955  0.00  0.00     0.148 C 
ATOM     18  C   UNL d   1      -7.516   3.259   3.904  0.00  0.00     0.148 C 
ENDBRANCH  15  16
ENDBRANCH  13  14
ENDBRANCH  11  12
ENDBRANCH   1  10
TORSDOF 5
