REMARK  3 active torsions:
REMARK  status: ('A' for Active; 'I' for Inactive)
REMARK    1  A    between atoms: C_10  and  C_5 
REMARK    2  A    between atoms: S_13  and  C_8 
REMARK    3  A    between atoms: N_14  and  C_9 
ROOT
ATOM      1  N   UNL d   1       1.781  -0.014  -0.064  0.00  0.00    -0.322 N 
ATOM      2  HN  UNL d   1       2.799   0.001  -0.136  1.00  0.00     0.169 HD
ATOM      3  N   UNL d   1      -0.275   1.122   0.110  0.00  0.00    -0.318 N 
ATOM      4  HN  UNL d   1      -0.802   1.994   0.162  1.00  0.00     0.170 HD
ATOM      5  C   UNL d   1       1.055   1.097   0.021  0.00  0.00     0.119 A 
ATOM      6  N   UNL d   1      -0.241  -1.224   0.032  0.00  0.00    -0.313 N 
ATOM      7  HN  UNL d   1      -0.738  -2.114   0.022  1.00  0.00     0.170 HD
ATOM      8  C   UNL d   1       1.084  -1.143  -0.049  0.00  0.00     0.147 A 
ATOM      9  C   UNL d   1      -0.863  -0.062   0.126  0.00  0.00     0.158 A 
ENDROOT
BRANCH   5  10
ATOM     10  C   UNL d   1       1.772   2.385   0.019  0.00  0.00     0.011 A 
ATOM     11  C   UNL d   1       1.095   3.606   0.160  0.00  0.00     0.032 A 
ATOM     12  C   UNL d   1       1.815   4.790   0.160  0.00  0.00     0.088 A 
ATOM     13  N   UNL d   1       3.155   4.852   0.027  0.00  0.00    -0.375 N 
ATOM     14  C   UNL d   1       3.802   3.679  -0.110  0.00  0.00     0.088 A 
ATOM     15  HN  UNL d   1       3.653   5.742   0.029  1.00  0.00     0.164 HD
ATOM     16  C   UNL d   1       3.168   2.446  -0.120  0.00  0.00     0.032 A 
ENDBRANCH   5  10
BRANCH   9  17
ATOM     17  N   UNL d   1      -2.239  -0.082   0.218  0.00  0.00    -0.274 NA
ATOM     18  H   UNL d   1      -2.619  -0.932  -0.172  0.00  0.00     0.127 HD
ATOM     19  H   UNL d   1      -2.634   0.792  -0.102  0.00  0.00     0.127 HD
ENDBRANCH   9  17
BRANCH   8  20
ATOM     20  S   UNL d   1       2.045  -2.637  -0.156  0.00  0.00    -0.098 SA
ATOM     21  C   UNL d   1       0.743  -3.885  -0.026  0.00  0.00     0.099 C 
ENDBRANCH   8  20
TORSDOF 3
