REMARK  2 active torsions:
REMARK  status: ('A' for Active; 'I' for Inactive)
REMARK    1  A    between atoms: C_5  and  C_1 
REMARK    2  A    between atoms: C_3  and  C_5 
ROOT
ATOM      1  C   UNL d   1       0.117   1.237  -0.062  0.00  0.00     0.056 C 
ATOM      2  S   UNL d   1      -1.018  -0.021  -0.298  0.00  0.00    -0.085 SA
ATOM      3  C   UNL d   1       0.161  -1.252  -0.071  0.00  0.00     0.022 C 
ATOM      4  C   UNL d   1      -0.200  -2.652  -0.012  0.00  0.00     0.021 A 
ATOM      5  C   UNL d   1       1.399   0.728   0.017  0.00  0.00     0.024 C 
ATOM      6  C   UNL d   1       1.423  -0.696   0.035  0.00  0.00     0.021 C 
ATOM      7  S   UNL d   1       0.791  -3.798   0.807  0.00  0.00    -0.101 SA
ATOM      8  C   UNL d   1      -1.324  -3.270  -0.533  0.00  0.00     0.021 A 
ATOM      9  C   UNL d   1      -0.280  -5.084   0.473  0.00  0.00     0.050 A 
ATOM     10  C   UNL d   1      -1.370  -4.669  -0.256  0.00  0.00     0.008 A 
ENDROOT
BRANCH   1  11
ATOM     11  C   UNL d   1      -0.242   2.647  -0.058  0.00  0.00     0.202 C 
ATOM     12  O   UNL d   1       0.555   3.519  -0.417  0.00  0.00    -0.286 OA
BRANCH  11  13
ATOM     13  C   UNL d   1      -1.574   3.135   0.388  0.00  0.00     0.054 A 
ATOM     14  C   UNL d   1      -2.265   2.565   1.461  0.00  0.00     0.133 A 
ATOM     15  C   UNL d   1      -3.505   3.057   1.859  0.00  0.00     0.085 A 
ATOM     16  F   UNL d   1      -1.738   1.557   2.170  0.00  0.00    -0.205 F 
ATOM     17  C   UNL d   1      -4.037   4.161   1.207  0.00  0.00     0.119 A 
ATOM     18  C   UNL d   1      -3.348   4.782   0.170  0.00  0.00     0.043 A 
ATOM     19  F   UNL d   1      -5.222   4.648   1.594  0.00  0.00    -0.206 F 
ATOM     20  C   UNL d   1      -2.115   4.270  -0.241  0.00  0.00     0.022 A 
ENDBRANCH  11  13
ENDBRANCH   1  11
TORSDOF 2
