REMARK  5 active torsions:
REMARK  status: ('A' for Active; 'I' for Inactive)
REMARK    1  A    between atoms: C_2  and  S_1 
REMARK    2  A    between atoms: N_4  and  S_1 
REMARK    3  A    between atoms: N_3  and  C_13 
REMARK    4  A    between atoms: N_5  and  N_4 
REMARK       I    between atoms: C_9  and  N_5 
REMARK    5  A    between atoms: C_17  and  C_9 
ROOT
ATOM      1  N   UNL d   1       0.277   3.014   1.414  0.00  0.00    -0.256 N 
ATOM      2  C   UNL d   1       0.760   3.884   0.462  0.00  0.00     0.270 C 
ATOM      3  O   UNL d   1       1.925   4.271   0.436  0.00  0.00    -0.266 OA
ATOM      4  H   UNL d   1      -0.704   2.748   1.481  0.00  0.00     0.191 HD
ENDROOT
BRANCH   1   5
ATOM      5  N   UNL d   1       1.142   2.589   2.483  0.00  0.00    -0.220 N 
ATOM      6  H   UNL d   1       2.140   2.822   2.459  0.00  0.00     0.200 HD
BRANCH   5   7
ATOM      7  S   UNL d   1       0.564   1.573   3.692  0.00  0.00     0.279 S 
ATOM      8  O   UNL d   1      -0.323   0.600   3.083  0.00  0.00    -0.199 OA
ATOM      9  O   UNL d   1       1.701   1.173   4.482  0.00  0.00    -0.199 OA
BRANCH   7  10
ATOM     10  C   UNL d   1      -0.436   2.649   4.670  0.00  0.00     0.119 A 
ATOM     11  C   UNL d   1      -1.574   3.227   4.109  0.00  0.00     0.142 A 
ATOM     12  C   UNL d   1      -2.372   4.085   4.857  0.00  0.00     0.086 A 
ATOM     13  F   UNL d   1      -1.930   2.985   2.839  0.00  0.00    -0.204 F 
ATOM     14  C   UNL d   1      -2.036   4.335   6.181  0.00  0.00     0.119 A 
ATOM     15  C   UNL d   1      -0.920   3.739   6.766  0.00  0.00     0.044 A 
ATOM     16  F   UNL d   1      -2.800   5.158   6.908  0.00  0.00    -0.206 F 
ATOM     17  C   UNL d   1      -0.111   2.890   6.009  0.00  0.00     0.031 A 
ENDBRANCH   7  10
ENDBRANCH   5   7
ENDBRANCH   1   5
BRANCH   2  18
ATOM     18  C   UNL d   1      -0.243   4.394  -0.512  0.00  0.00     0.033 A 
ATOM     19  C   UNL d   1      -0.029   5.655  -1.074  0.00  0.00     0.019 A 
ATOM     20  C   UNL d   1      -0.953   6.193  -1.976  0.00  0.00     0.031 A 
ATOM     21  C   UNL d   1      -2.073   5.454  -2.381  0.00  0.00     0.039 A 
ATOM     22  C   UNL d   1      -2.276   4.184  -1.824  0.00  0.00     0.031 A 
ATOM     23  C   UNL d   1      -1.381   3.665  -0.878  0.00  0.00     0.019 A 
BRANCH  21  24
ATOM     24  N   UNL d   1      -2.973   5.980  -3.368  0.00  0.00    -0.320 N 
ATOM     25  C   UNL d   1      -4.362   5.790  -3.428  0.00  0.00     0.013 A 
ATOM     26  C   UNL d   1      -4.848   6.467  -4.532  0.00  0.00     0.027 A 
ATOM     27  C   UNL d   1      -5.220   5.074  -2.438  0.00  0.00     0.068 C 
ATOM     28  C   UNL d   1      -3.772   7.100  -5.162  0.00  0.00     0.027 A 
ATOM     29  C   UNL d   1      -2.621   6.777  -4.468  0.00  0.00     0.013 A 
ATOM     30  C   UNL d   1      -1.242   7.149  -4.903  0.00  0.00     0.068 C 
ENDBRANCH  21  24
ENDBRANCH   2  18
TORSDOF 5
