REMARK  2 active torsions:
REMARK  status: ('A' for Active; 'I' for Inactive)
REMARK    1  A    between atoms: C_2  and  C_1 
REMARK       I    between atoms: N_4  and  C_2 
REMARK    2  A    between atoms: C_9  and  C_3 
ROOT
ATOM      1  C   UNL d   1      -1.413  -0.369   0.100  0.00  0.00     0.082 A 
ATOM      2  C   UNL d   1      -0.927   0.926   0.013  0.00  0.00     0.101 A 
ATOM      3  N   UNL d   1       0.867  -0.445  -0.064  0.00  0.00    -0.271 N 
ATOM      4  HN  UNL d   1       1.828  -0.785  -0.104  1.00  0.00     0.194 HD
ATOM      5  O   UNL d   1       0.443   0.863  -0.054  0.00  0.00    -0.241 OA
ATOM      6  C   UNL d   1      -0.243  -1.172  -0.008  0.00  0.00     0.134 A 
ENDROOT
BRANCH   1   7
ATOM      7  C   UNL d   1      -2.783  -0.832   0.198  0.00  0.00     0.258 C 
ATOM      8  N   UNL d   1      -2.999  -2.002   0.940  0.00  0.00    -0.344 N 
ATOM      9  C   UNL d   1      -4.334  -2.597   0.874  0.00  0.00     0.152 C 
ATOM     10  C   UNL d   1      -2.363  -2.183   2.254  0.00  0.00     0.152 C 
ATOM     11  C   UNL d   1      -4.317  -4.051   1.357  0.00  0.00     0.187 C 
ATOM     12  O   UNL d   1      -3.755  -4.151   2.675  0.00  0.00    -0.388 OA
ATOM     13  C   UNL d   1      -2.413  -3.646   2.698  0.00  0.00     0.187 C 
ATOM     14  O   UNL d   1      -3.696  -0.265  -0.392  0.00  0.00    -0.267 OA
ENDBRANCH   1   7
BRANCH   2  15
ATOM     15  C   UNL d   1      -1.504   2.329   0.014  0.00  0.00     0.001 C 
ATOM     16  C   UNL d   1      -2.329   2.576   1.289  0.00  0.00     0.021 C 
ATOM     17  C   UNL d   1      -0.361   3.376  -0.035  0.00  0.00     0.021 C 
ATOM     18  C   UNL d   1      -2.393   2.581  -1.215  0.00  0.00     0.021 C 
ENDBRANCH   2  15
TORSDOF 2
