REMARK  6 active torsions:
REMARK  status: ('A' for Active; 'I' for Inactive)
REMARK    1  A    between atoms: C_18  and  N_1 
REMARK    2  A    between atoms: N_4  and  C_5 
REMARK    3  A    between atoms: C_8  and  C_10 
REMARK    4  A    between atoms: C_11  and  N_22 
REMARK    5  A    between atoms: C_23  and  C_18 
REMARK    6  A    between atoms: N_22  and  C_23 
ROOT
ATOM      1  N   UNL d   1       5.375   1.351  -0.131  0.00  0.00    -0.289 NA
ATOM      2  H   UNL d   1       5.871   0.627  -0.668  0.00  0.00     0.127 HD
ENDROOT
BRANCH   1   3
ATOM      3  C   UNL d   1       6.043   2.592  -0.207  0.00  0.00     0.041 A 
ATOM      4  C   UNL d   1       7.409   2.731  -0.567  0.00  0.00     0.124 A 
ATOM      5  C   UNL d   1       8.055   3.992  -0.534  0.00  0.00     0.054 A 
ATOM      6  C   UNL d   1       7.368   5.141  -0.122  0.00  0.00     0.050 A 
ATOM      7  C   UNL d   1       6.032   5.010   0.260  0.00  0.00     0.018 A 
ATOM      8  C   UNL d   1       5.397   3.764   0.231  0.00  0.00     0.027 A 
BRANCH   4   9
ATOM      9  N   UNL d   1       8.213   1.581  -1.026  0.00  0.00    -0.114 N 
ATOM     10  O   UNL d   1       9.419   1.772  -1.243  0.00  0.00    -0.532 OA
ATOM     11  O   UNL d   1       7.644   0.492  -1.199  0.00  0.00    -0.532 OA
ENDBRANCH   4   9
BRANCH   6  12
ATOM     12  C   UNL d   1       8.034   6.495  -0.068  0.00  0.00     0.417 C 
ATOM     13  F   UNL d   1       9.344   6.472  -0.434  0.00  0.00    -0.166 F 
ATOM     14  F   UNL d   1       7.431   7.399  -0.887  0.00  0.00    -0.166 F 
ATOM     15  F   UNL d   1       8.001   7.037   1.179  0.00  0.00    -0.166 F 
ENDBRANCH   6  12
ENDBRANCH   1   3
BRANCH   1  16
ATOM     16  C   UNL d   1       3.921   1.320  -0.364  0.00  0.00     0.113 C 
BRANCH  16  17
ATOM     17  C   UNL d   1       3.350  -0.100  -0.242  0.00  0.00     0.150 C 
BRANCH  17  18
ATOM     18  N   UNL d   1       1.916  -0.127  -0.493  0.00  0.00    -0.279 N 
ATOM     19  C   UNL d   1       0.962   0.111   0.458  0.00  0.00     0.261 A 
ATOM     20  C   UNL d   1      -0.333   0.040  -0.221  0.00  0.00     0.048 A 
ATOM     21  O   UNL d   1       1.104   0.373   1.637  0.00  0.00    -0.267 OA
ATOM     22  C   UNL d   1      -1.617   0.158   0.274  0.00  0.00     0.018 A 
ATOM     23  C   UNL d   1      -0.085  -0.174  -1.565  0.00  0.00     0.048 A 
ATOM     24  C   UNL d   1      -2.670   0.044  -0.642  0.00  0.00     0.001 A 
ATOM     25  C   UNL d   1      -2.416  -0.173  -2.013  0.00  0.00     0.001 A 
ATOM     26  C   UNL d   1      -1.105  -0.282  -2.490  0.00  0.00     0.018 A 
ATOM     27  C   UNL d   1       1.365  -0.243  -1.737  0.00  0.00     0.261 A 
ATOM     28  O   UNL d   1       1.923  -0.346  -2.813  0.00  0.00    -0.267 OA
ENDBRANCH  17  18
ENDBRANCH  16  17
ENDBRANCH   1  16
TORSDOF 6
