REMARK  3 active torsions:
REMARK  status: ('A' for Active; 'I' for Inactive)
REMARK    1  A    between atoms: C_8  and  C_1 
REMARK    2  A    between atoms: C_11  and  C_7 
REMARK    3  A    between atoms: C_9  and  C_10 
ROOT
ATOM      1  C   UNL d   1      -0.187  -1.040   0.073  0.00  0.00     0.177 A 
ATOM      2  O   UNL d   1      -1.071   0.010   0.024  0.00  0.00    -0.273 OA
ATOM      3  N   UNL d   1       1.060  -0.641   0.196  0.00  0.00    -0.277 N 
ATOM      4  HN  UNL d   1       1.883  -1.237   0.278  1.00  0.00     0.189 HD
ATOM      5  N   UNL d   1       1.039   0.732   0.193  0.00  0.00    -0.277 N 
ATOM      6  HN  UNL d   1       1.846   1.353   0.254  1.00  0.00     0.189 HD
ATOM      7  C   UNL d   1      -0.223   1.091   0.097  0.00  0.00     0.174 A 
ENDROOT
BRANCH   1   8
ATOM      8  C   UNL d   1      -0.739  -2.380   0.030  0.00  0.00     0.047 A 
ATOM      9  C   UNL d   1      -0.140  -3.463  -0.638  0.00  0.00     0.065 A 
ATOM     10  C   UNL d   1      -0.737  -4.737  -0.526  0.00  0.00     0.034 A 
ATOM     11  C   UNL d   1      -1.898  -4.884   0.209  0.00  0.00     0.088 A 
ATOM     12  N   UNL d   1      -2.505  -3.861   0.835  0.00  0.00    -0.374 N 
ATOM     13  C   UNL d   1      -1.915  -2.645   0.735  0.00  0.00     0.104 A 
ATOM     14  HN  UNL d   1      -3.369  -3.994   1.361  1.00  0.00     0.164 HD
BRANCH   9  15
ATOM     15  C   UNL d   1       1.104  -3.374  -1.489  0.00  0.00     0.418 C 
ATOM     16  F   UNL d   1       1.524  -2.126  -1.808  0.00  0.00    -0.166 F 
ATOM     17  F   UNL d   1       2.163  -4.008  -0.914  0.00  0.00    -0.166 F 
ATOM     18  F   UNL d   1       0.921  -3.996  -2.692  0.00  0.00    -0.166 F 
ENDBRANCH   9  15
ENDBRANCH   1   8
BRANCH   7  19
ATOM     19  C   UNL d   1      -0.807   2.426   0.080  0.00  0.00     0.018 A 
ATOM     20  C   UNL d   1      -2.191   2.643   0.101  0.00  0.00     0.039 A 
ATOM     21  C   UNL d   1      -2.697   3.945   0.128  0.00  0.00     0.035 A 
ATOM     22 CL   UNL d   1      -4.399   4.197   0.176  0.00  0.00    -0.084 Cl
ATOM     23  C   UNL d   1      -1.839   5.044   0.127  0.00  0.00     0.024 A 
ATOM     24  C   UNL d   1      -0.462   4.843   0.091  0.00  0.00     0.003 A 
ATOM     25  C   UNL d   1       0.049   3.543   0.068  0.00  0.00     0.016 A 
ENDBRANCH   7  19
TORSDOF 3
