REMARK  5 active torsions:
REMARK  status: ('A' for Active; 'I' for Inactive)
REMARK    1  A    between atoms: C_3  and  C_1 
REMARK       I    between atoms: N_4  and  C_1 
REMARK    2  A    between atoms: C_2  and  C_3 
REMARK       I    between atoms: N_5  and  C_2 
REMARK    3  A    between atoms: C_10  and  C_3 
REMARK    4  A    between atoms: C_6  and  N_4 
REMARK    5  A    between atoms: C_7  and  N_5 
ROOT
ATOM      1  C   UNL d   1       0.128   0.137   0.644  0.00  0.00     0.203 C 
ENDROOT
BRANCH   1   2
ATOM      2  C   UNL d   1      -1.073  -0.776   0.850  0.00  0.00     0.239 C 
ATOM      3  N   UNL d   1      -0.838  -1.789   1.763  0.00  0.00    -0.326 N 
ATOM      4  H   UNL d   1      -0.148  -1.608   2.481  0.00  0.00     0.169 HD
ATOM      5  O   UNL d   1      -2.143  -0.598   0.273  0.00  0.00    -0.272 OA
BRANCH   3   6
ATOM      6  C   UNL d   1      -1.677  -2.903   1.946  0.00  0.00     0.040 A 
ATOM      7  C   UNL d   1      -1.926  -3.382   3.243  0.00  0.00    -0.035 A 
ATOM      8  C   UNL d   1      -1.553  -2.626   4.488  0.00  0.00     0.050 C 
ATOM      9  C   UNL d   1      -2.654  -4.574   3.396  0.00  0.00     0.009 A 
ATOM     10  C   UNL d   1      -3.120  -5.280   2.286  0.00  0.00     0.001 A 
ATOM     11  C   UNL d   1      -2.885  -4.790   1.006  0.00  0.00     0.002 A 
ATOM     12  C   UNL d   1      -2.177  -3.597   0.835  0.00  0.00     0.030 A 
ENDBRANCH   3   6
ENDBRANCH   1   2
BRANCH   1  13
ATOM     13  C   UNL d   1       0.378   0.260  -0.852  0.00  0.00     0.239 C 
ATOM     14  N   UNL d   1      -0.470   1.117  -1.524  0.00  0.00    -0.326 N 
ATOM     15  H   UNL d   1      -1.053   1.724  -0.962  0.00  0.00     0.169 HD
ATOM     16  O   UNL d   1       1.293  -0.385  -1.375  0.00  0.00    -0.272 OA
BRANCH  14  17
ATOM     17  C   UNL d   1      -0.500   1.304  -2.919  0.00  0.00     0.040 A 
ATOM     18  C   UNL d   1      -0.849   2.559  -3.446  0.00  0.00    -0.035 A 
ATOM     19  C   UNL d   1      -1.094   3.778  -2.599  0.00  0.00     0.050 C 
ATOM     20  C   UNL d   1      -0.910   2.716  -4.843  0.00  0.00     0.009 A 
ATOM     21  C   UNL d   1      -0.645   1.648  -5.700  0.00  0.00     0.001 A 
ATOM     22  C   UNL d   1      -0.310   0.406  -5.173  0.00  0.00     0.002 A 
ATOM     23  C   UNL d   1      -0.228   0.237  -3.790  0.00  0.00     0.030 A 
ENDBRANCH  14  17
ENDBRANCH   1  13
BRANCH   1  24
ATOM     24  C   UNL d   1       0.119   1.471   1.393  0.00  0.00    -0.036 A 
ATOM     25  C   UNL d   1      -0.930   1.879   2.231  0.00  0.00     0.008 A 
ATOM     26  C   UNL d   1      -0.849   3.082   2.944  0.00  0.00     0.001 A 
ATOM     27  C   UNL d   1       0.277   3.893   2.830  0.00  0.00     0.000 A 
ATOM     28  C   UNL d   1       1.324   3.510   1.999  0.00  0.00     0.001 A 
ATOM     29  C   UNL d   1       1.247   2.310   1.290  0.00  0.00     0.008 A 
ENDBRANCH   1  24
TORSDOF 5
