REMARK  4 active torsions:
REMARK  status: ('A' for Active; 'I' for Inactive)
REMARK    1  A    between atoms: C_4  and  C_3 
REMARK       I    between atoms: N_6  and  C_4 
REMARK    2  A    between atoms: C_10  and  N_6 
REMARK    3  A    between atoms: C_7  and  C_9 
REMARK    4  A    between atoms: O_17  and  C_7 
ROOT
ATOM      1  C   UNL d   1       3.338  -0.051   0.848  0.00  0.00     0.270 C 
ATOM      2  N   UNL d   1       3.777   1.154   0.335  0.00  0.00    -0.322 N 
ATOM      3  O   UNL d   1       2.339  -0.277   1.515  0.00  0.00    -0.266 OA
ATOM      4  H   UNL d   1       4.636   1.109  -0.208  0.00  0.00     0.169 HD
ENDROOT
BRANCH   2   5
ATOM      5  C   UNL d   1       3.123   2.398   0.444  0.00  0.00     0.036 A 
ATOM      6  C   UNL d   1       1.959   2.577   1.196  0.00  0.00     0.047 A 
ATOM      7  C   UNL d   1       1.296   3.812   1.227  0.00  0.00     0.041 A 
ATOM      8  C   UNL d   1       1.827   4.893   0.516  0.00  0.00     0.018 A 
ATOM      9  C   UNL d   1       3.005   4.734  -0.215  0.00  0.00     0.003 A 
ATOM     10  C   UNL d   1       3.650   3.492  -0.250  0.00  0.00     0.029 A 
BRANCH   7  11
ATOM     11  C   UNL d   1       0.020   3.991   1.976  0.00  0.00     0.293 C 
ATOM     12  O   UNL d   1      -0.583   5.048   2.046  0.00  0.00    -0.259 OA
BRANCH  11  13
ATOM     13  O   UNL d   1      -0.365   2.812   2.523  0.00  0.00    -0.323 OA
ATOM     14  C   UNL d   1      -1.619   2.837   3.204  0.00  0.00     0.213 C 
ENDBRANCH  11  13
ENDBRANCH   7  11
ENDBRANCH   2   5
BRANCH   1  15
ATOM     15  C   UNL d   1       4.231  -1.232   0.503  0.00  0.00     0.094 C 
ATOM     16  N   UNL d   1       5.373  -1.012  -0.082  0.00  0.00    -0.297 N 
ATOM     17  N   UNL d   1       6.161  -2.100  -0.327  0.00  0.00    -0.270 N 
ATOM     18  HN  UNL d   1       5.665  -0.071  -0.345  1.00  0.00     0.187 HD
ATOM     19  C   UNL d   1       5.792  -3.419  -0.216  0.00  0.00     0.236 C 
ATOM     20  H   UNL d   1       7.117  -1.919  -0.624  0.00  0.00     0.190 HD
ATOM     21  O   UNL d   1       6.586  -4.330  -0.436  0.00  0.00    -0.272 OA
ATOM     22  C   UNL d   1       4.341  -3.671   0.083  0.00  0.00     0.111 C 
ATOM     23  C   UNL d   1       3.759  -2.586   0.955  0.00  0.00     0.073 C 
ENDBRANCH   1  15
TORSDOF 4
