REMARK  4 active torsions:
REMARK  status: ('A' for Active; 'I' for Inactive)
REMARK    1  A    between atoms: C_2  and  S_1 
REMARK    2  A    between atoms: N_6  and  S_1 
REMARK    3  A    between atoms: C_13  and  N_6 
REMARK    4  A    between atoms: N_9  and  C_12 
ROOT
ATOM      1  C   UNL d   1       1.497   0.982  -5.314  0.00  0.00     0.030 A 
ATOM      2  C   UNL d   1       0.736   0.054  -2.745  0.00  0.00     0.042 A 
ATOM      3  C   UNL d   1       2.421   0.894  -4.261  0.00  0.00     0.031 A 
ATOM      4  C   UNL d   1       0.179   0.591  -5.031  0.00  0.00     0.031 A 
ATOM      5  C   UNL d   1      -0.197   0.118  -3.770  0.00  0.00     0.032 A 
ATOM      6  C   UNL d   1       2.050   0.441  -2.984  0.00  0.00     0.032 A 
ENDROOT
BRANCH   2   7
ATOM      7  N   UNL d   1       0.320  -0.428  -1.473  0.00  0.00    -0.279 N 
ATOM      8  H   UNL d   1       0.572   0.137  -0.662  0.00  0.00     0.179 HD
BRANCH   7   9
ATOM      9  S   UNL d   1       0.526  -2.078  -1.147  0.00  0.00     0.280 S 
ATOM     10  O   UNL d   1       0.184  -2.272   0.243  0.00  0.00    -0.199 OA
ATOM     11  O   UNL d   1      -0.111  -2.846  -2.198  0.00  0.00    -0.199 OA
BRANCH   9  12
ATOM     12  C   UNL d   1       2.220  -2.511  -1.239  0.00  0.00     0.166 A 
ATOM     13  N   UNL d   1       3.216  -1.907  -0.480  0.00  0.00    -0.340 N 
ATOM     14  C   UNL d   1       4.326  -2.538  -0.809  0.00  0.00     0.183 A 
ATOM     15  HN  UNL d   1       3.111  -1.143   0.187  1.00  0.00     0.167 HD
ATOM     16  N   UNL d   1       4.103  -3.476  -1.778  0.00  0.00    -0.354 N 
ATOM     17  C   UNL d   1       2.769  -3.478  -2.061  0.00  0.00     0.135 A 
ATOM     18  C   UNL d   1       5.109  -4.303  -2.395  0.00  0.00     0.156 C 
ENDBRANCH   9  12
ENDBRANCH   7   9
ENDBRANCH   2   7
BRANCH   1  19
ATOM     19  N   UNL d   1       1.854   1.404  -6.580  0.00  0.00    -0.381 N 
ATOM     20  C   UNL d   1       3.170   1.130  -7.153  0.00  0.00     0.123 C 
ATOM     21  C   UNL d   1       2.985   0.508  -8.541  0.00  0.00     0.020 C 
ATOM     22  C   UNL d   1       2.088   1.365  -9.435  0.00  0.00     0.003 C 
ATOM     23  C   UNL d   1       0.764   1.695  -8.746  0.00  0.00     0.020 C 
ATOM     24  C   UNL d   1       0.992   2.294  -7.360  0.00  0.00     0.123 C 
ENDBRANCH   1  19
TORSDOF 4
