REMARK  1 active torsions:
REMARK  status: ('A' for Active; 'I' for Inactive)
REMARK       I    between atoms: N_3  and  C_1 
REMARK       I    between atoms: N_5  and  C_1 
REMARK    1  A    between atoms: C_4  and  N_5 
ROOT
ATOM      1  C   UNL d   1       0.981  -0.117  -1.689  0.00  0.00     0.164 C 
ATOM      2  C   UNL d   1       3.172  -0.284  -2.687  0.00  0.00     0.158 C 
ATOM      3  N   UNL d   1       2.284   0.294  -1.708  0.00  0.00    -0.167 NA
ATOM      4  N   UNL d   1       0.214   0.750  -0.945  0.00  0.00    -0.331 N 
ATOM      5  N   UNL d   1       3.890  -0.738  -3.472  0.00  0.00    -0.178 NA
ATOM      6  N   UNL d   1       0.497  -1.179  -2.241  0.00  0.00    -0.375 N 
ATOM      7  HN  UNL d   1      -0.487  -1.441  -2.203  1.00  0.00     0.158 HD
ATOM      8  H   UNL d   1       2.373   1.299  -1.633  0.00  0.00     0.148 HD
ATOM      9  H   UNL d   1       0.566   0.881   0.001  0.00  0.00     0.168 HD
ATOM     10  H   UNL d   1       1.216  -1.726  -2.720  0.00  0.00     0.158 HD
ENDROOT
BRANCH   4  11
ATOM     11  C   UNL d   1      -1.207   0.749  -0.950  0.00  0.00     0.058 A 
ATOM     12  C   UNL d   1      -1.921   0.643  -2.155  0.00  0.00     0.055 A 
ATOM     13  C   UNL d   1      -3.316   0.667  -2.159  0.00  0.00     0.036 A 
ATOM     14 CL   UNL d   1      -4.167   0.553  -3.650  0.00  0.00    -0.084 Cl
ATOM     15  C   UNL d   1      -4.026   0.794  -0.967  0.00  0.00     0.026 A 
ATOM     16  C   UNL d   1      -3.335   0.909   0.240  0.00  0.00     0.028 A 
ATOM     17  C   UNL d   1      -1.938   0.898   0.245  0.00  0.00     0.060 A 
ATOM     18 CL   UNL d   1      -1.119   1.056   1.760  0.00  0.00    -0.082 Cl
ENDBRANCH   4  11
TORSDOF 1
