REMARK  8 active torsions:
REMARK  status: ('A' for Active; 'I' for Inactive)
REMARK    1  A    between atoms: N_7  and  C_1 
REMARK    2  A    between atoms: N_9  and  C_2 
REMARK    3  A    between atoms: C_15  and  C_3 
REMARK    4  A    between atoms: C_16  and  C_6 
REMARK    5  A    between atoms: C_11  and  C_14 
REMARK    6  A    between atoms: C_12  and  C_13 
REMARK    7  A    between atoms: O_33  and  C_17 
REMARK    8  A    between atoms: O_32  and  C_18 
ROOT
ATOM      1  C   UNL d   1      -0.047   1.014   0.056  0.00  0.00     0.048 C 
ATOM      2  C   UNL d   1       1.199  -1.098  -0.010  0.00  0.00     0.048 C 
ATOM      3  C   UNL d   1       1.213   0.337  -0.088  0.00  0.00     0.004 C 
ATOM      4  C   UNL d   1      -1.263   0.272   0.215  0.00  0.00    -0.020 C 
ATOM      5  C   UNL d   1      -0.011  -1.819   0.211  0.00  0.00    -0.020 C 
ATOM      6  C   UNL d   1      -1.234  -1.138   0.221  0.00  0.00     0.026 C 
ATOM      7  C   UNL d   1       0.040  -3.313   0.469  0.00  0.00     0.052 C 
ATOM      8  C   UNL d   1      -2.600   0.967   0.388  0.00  0.00     0.052 C 
ENDROOT
BRANCH   1   9
ATOM      9  N   UNL d   1      -0.128   2.430   0.151  0.00  0.00    -0.364 N 
ATOM     10  C   UNL d   1      -0.765   3.047  -0.800  0.00  0.00     0.102 C 
ATOM     11  HN  UNL d   1       0.293   2.938   0.929  1.00  0.00     0.165 HD
BRANCH  10  12
ATOM     12  C   UNL d   1      -1.097   4.488  -0.732  0.00  0.00     0.014 A 
ATOM     13  C   UNL d   1      -0.495   5.370   0.171  0.00  0.00     0.077 A 
ATOM     14  C   UNL d   1      -0.851   6.721   0.181  0.00  0.00     0.039 A 
ATOM     15  C   UNL d   1      -1.853   7.184  -0.674  0.00  0.00     0.022 A 
ATOM     16  C   UNL d   1      -2.488   6.293  -1.536  0.00  0.00     0.011 A 
ATOM     17  C   UNL d   1      -2.108   4.950  -1.582  0.00  0.00     0.034 A 
ATOM     18 BR   UNL d   1      -3.897   6.902  -2.641  0.00  0.00    -0.051 Br
BRANCH  13  19
ATOM     19  O   UNL d   1       0.434   4.977   1.089  0.00  0.00    -0.360 OA
ATOM     20  H   UNL d   1       0.444   3.990   1.086  0.00  0.00     0.217 HD
ENDBRANCH  13  19
ENDBRANCH  10  12
ENDBRANCH   1   9
BRANCH   3  21
ATOM     21  C   UNL d   1       2.581   1.104  -0.214  0.00  0.00    -0.020 C 
ATOM     22  C   UNL d   1       3.585   0.433  -1.192  0.00  0.00     0.019 C 
ATOM     23  C   UNL d   1       2.498   2.561  -0.736  0.00  0.00     0.019 C 
ATOM     24  C   UNL d   1       3.226   1.161   1.189  0.00  0.00     0.019 C 
ENDBRANCH   3  21
BRANCH   2  25
ATOM     25  N   UNL d   1       2.386  -1.870  -0.055  0.00  0.00    -0.364 N 
ATOM     26  C   UNL d   1       2.529  -2.639  -1.096  0.00  0.00     0.102 C 
ATOM     27  HN  UNL d   1       3.088  -1.827   0.684  1.00  0.00     0.165 HD
BRANCH  26  28
ATOM     28  C   UNL d   1       3.608  -3.643  -1.188  0.00  0.00     0.014 A 
ATOM     29  C   UNL d   1       4.604  -3.765  -0.212  0.00  0.00     0.077 A 
ATOM     30  C   UNL d   1       5.565  -4.769  -0.307  0.00  0.00     0.039 A 
ATOM     31  C   UNL d   1       5.526  -5.673  -1.372  0.00  0.00     0.022 A 
ATOM     32  C   UNL d   1       4.527  -5.558  -2.338  0.00  0.00     0.011 A 
ATOM     33  C   UNL d   1       3.569  -4.546  -2.257  0.00  0.00     0.034 A 
ATOM     34 BR   UNL d   1       4.451  -6.803  -3.760  0.00  0.00    -0.051 Br
BRANCH  29  35
ATOM     35  O   UNL d   1       4.681  -2.939   0.875  0.00  0.00    -0.360 OA
ATOM     36  H   UNL d   1       3.904  -2.338   0.848  0.00  0.00     0.217 HD
ENDBRANCH  29  35
ENDBRANCH  26  28
ENDBRANCH   2  25
BRANCH   6  37
ATOM     37  C   UNL d   1      -2.510  -1.922   0.274  0.00  0.00     0.156 C 
ATOM     38  O   UNL d   1      -3.326  -1.731   1.170  0.00  0.00    -0.293 OA
ATOM     39  C   UNL d   1      -2.763  -2.953  -0.800  0.00  0.00     0.097 C 
ENDBRANCH   6  37
TORSDOF 8
