REMARK  2 active torsions:
REMARK  status: ('A' for Active; 'I' for Inactive)
REMARK    1  A    between atoms: C_19  and  N_3 
REMARK    2  A    between atoms: C_20  and  C_19 
ROOT
ATOM      1  C   UNL d   1       2.506   0.188   0.183  0.00  0.00     0.079 A 
ATOM      2  C   UNL d   1       3.950   0.139   0.151  0.00  0.00     0.144 A 
ATOM      3  N   UNL d   1       4.747   0.911  -0.656  0.00  0.00    -0.303 N 
ATOM      4  C   UNL d   1       1.611   1.240   0.245  0.00  0.00     0.060 A 
ATOM      5  S   UNL d   1       1.679  -1.316   0.210  0.00  0.00    -0.065 SA
ATOM      6  C   UNL d   1       0.221   0.823   0.155  0.00  0.00     0.031 A 
ATOM      7  C   UNL d   1       0.158  -0.569   0.175  0.00  0.00     0.088 A 
ATOM      8  N   UNL d   1       4.620  -0.715   0.883  0.00  0.00    -0.282 N 
ATOM      9  HN  UNL d   1       4.245  -1.379   1.561  1.00  0.00     0.188 HD
ATOM     10  C   UNL d   1       6.023   0.434  -0.446  0.00  0.00     0.194 A 
ATOM     11  N   UNL d   1       5.922  -0.524   0.543  0.00  0.00    -0.274 N 
ATOM     12  N   UNL d   1      -0.946  -1.344   0.154  0.00  0.00    -0.354 N 
ATOM     13  HN  UNL d   1      -0.900  -2.362   0.181  1.00  0.00     0.166 HD
ATOM     14  C   UNL d   1      -1.031   1.502   0.064  0.00  0.00    -0.045 A 
ATOM     15  S   UNL d   1       7.461   0.819  -1.180  0.00  0.00    -0.039 SA
ATOM     16  C   UNL d   1      -2.195   0.707   0.049  0.00  0.00     0.032 A 
ATOM     17  C   UNL d   1      -2.108  -0.677   0.096  0.00  0.00     0.006 A 
ATOM     18  N   UNL d   1       2.003   2.529   0.391  0.00  0.00    -0.397 N 
ATOM     19  C   UNL d   1      -1.239   2.989  -0.045  0.00  0.00     0.049 C 
ATOM     20  C   UNL d   1      -3.363  -1.500   0.060  0.00  0.00     0.068 C 
ATOM     21  H   UNL d   1       6.665  -1.117   0.895  0.00  0.00     0.189 HD
ATOM     22  H   UNL d   1       2.958   2.752   0.667  0.00  0.00     0.156 HD
ATOM     23  H   UNL d   1       1.359   3.228   0.747  0.00  0.00     0.156 HD
ENDROOT
BRANCH   3  24
ATOM     24  C   UNL d   1       4.358   1.850  -1.706  0.00  0.00     0.160 C 
BRANCH  24  25
ATOM     25  C   UNL d   1       4.753   3.252  -1.314  0.00  0.00    -0.017 C 
ATOM     26  C   UNL d   1       4.022   4.348  -1.547  0.00  0.00     0.008 C 
ENDBRANCH  24  25
ENDBRANCH   3  24
TORSDOF 2
