REMARK  3 active torsions:
REMARK  status: ('A' for Active; 'I' for Inactive)
REMARK    1  A    between atoms: C_4  and  C_1 
REMARK    2  A    between atoms: N_2  and  C_3 
REMARK       I    between atoms: N_5  and  C_4 
REMARK    3  A    between atoms: C_6  and  N_5 
ROOT
ATOM      1  C   UNL d   1       3.664  -0.068   0.270  0.00  0.00     0.258 C 
ATOM      2  N   UNL d   1       4.515  -1.146   0.146  0.00  0.00    -0.322 N 
ATOM      3  O   UNL d   1       2.438  -0.100   0.184  0.00  0.00    -0.267 OA
ATOM      4  H   UNL d   1       5.404  -1.094   0.632  0.00  0.00     0.169 HD
ENDROOT
BRANCH   1   5
ATOM      5  C   UNL d   1       4.286   1.219   0.672  0.00  0.00     0.065 A 
ATOM      6  C   UNL d   1       5.480   1.720   0.137  0.00  0.00     0.120 A 
ATOM      7  C   UNL d   1       6.064   2.910   0.595  0.00  0.00     0.060 A 
ATOM      8  C   UNL d   1       5.402   3.640   1.578  0.00  0.00     0.036 A 
ATOM      9  C   UNL d   1       4.177   3.201   2.082  0.00  0.00     0.025 A 
ATOM     10 CL   UNL d   1       6.085   5.108   2.156  0.00  0.00    -0.084 Cl
ATOM     11  C   UNL d   1       3.625   1.994   1.634  0.00  0.00     0.021 A 
BRANCH   6  12
ATOM     12  N   UNL d   1       6.098   1.074  -0.993  0.00  0.00    -0.115 N 
ATOM     13  O   UNL d   1       5.547   1.216  -2.090  0.00  0.00    -0.532 OA
ATOM     14  O   UNL d   1       7.146   0.457  -0.769  0.00  0.00    -0.532 OA
ENDBRANCH   6  12
ENDBRANCH   1   5
BRANCH   2  15
ATOM     15  C   UNL d   1       4.129  -2.451  -0.261  0.00  0.00     0.046 A 
ATOM     16  C   UNL d   1       3.330  -2.690  -1.403  0.00  0.00    -0.035 A 
ATOM     17  C   UNL d   1       3.078  -4.021  -1.798  0.00  0.00     0.009 A 
ATOM     18  C   UNL d   1       2.772  -1.638  -2.326  0.00  0.00     0.050 C 
ATOM     19  C   UNL d   1       3.615  -5.098  -1.105  0.00  0.00     0.001 A 
ATOM     20  C   UNL d   1       4.396  -4.865   0.018  0.00  0.00     0.009 A 
ATOM     21  C   UNL d   1       4.652  -3.553   0.461  0.00  0.00    -0.035 A 
ATOM     22  C   UNL d   1       5.428  -3.433   1.748  0.00  0.00     0.050 C 
ENDBRANCH   2  15
TORSDOF 3
