REMARK  3 active torsions:
REMARK  status: ('A' for Active; 'I' for Inactive)
REMARK    1  A    between atoms: C_9  and  N_1 
REMARK    2  A    between atoms: N_8  and  N_2 
REMARK       I    between atoms: C_7  and  N_8 
REMARK       I    between atoms: N_10  and  C_7 
REMARK    3  A    between atoms: C_15  and  N_10 
ROOT
ATOM      1  N   UNL d   1      -1.027  -0.931   0.536  0.00  0.00    -0.305 N 
ATOM      2  N   UNL d   1       0.464   1.320   0.380  0.00  0.00    -0.247 N 
ATOM      3  C   UNL d   1      -1.716   0.266   0.278  0.00  0.00     0.244 C 
ATOM      4  C   UNL d   1       1.175   0.132   0.469  0.00  0.00     0.257 C 
ATOM      5  C   UNL d   1      -0.830   1.374  -0.293  0.00  0.00     0.255 C 
ATOM      6  C   UNL d   1       0.354  -1.085   0.057  0.00  0.00     0.237 C 
ATOM      7  O   UNL d   1       2.368   0.087   0.764  0.00  0.00    -0.270 OA
ATOM      8  O   UNL d   1      -2.935   0.405   0.360  0.00  0.00    -0.271 OA
ENDROOT
BRANCH   2   9
ATOM      9  N   UNL d   1       1.220   2.526   0.415  0.00  0.00    -0.246 N 
ATOM     10  C   UNL d   1       1.515   3.179  -0.782  0.00  0.00     0.339 C 
ATOM     11  N   UNL d   1       2.394   4.226  -0.574  0.00  0.00    -0.308 N 
ATOM     12  O   UNL d   1       0.990   2.885  -1.850  0.00  0.00    -0.245 OA
ATOM     13  H   UNL d   1       2.884   4.227   0.310  0.00  0.00     0.170 HD
ATOM     14  H   UNL d   1       1.988   2.466   1.079  0.00  0.00     0.192 HD
BRANCH  11  15
ATOM     15  C   UNL d   1       2.700   5.278  -1.459  0.00  0.00     0.036 A 
ATOM     16  C   UNL d   1       2.031   5.495  -2.667  0.00  0.00     0.031 A 
ATOM     17  C   UNL d   1       2.329   6.612  -3.455  0.00  0.00     0.026 A 
ATOM     18  C   UNL d   1       3.310   7.512  -3.044  0.00  0.00     0.034 A 
ATOM     19  C   UNL d   1       4.000   7.295  -1.853  0.00  0.00     0.026 A 
ATOM     20 CL   UNL d   1       3.654   8.900  -3.997  0.00  0.00    -0.084 Cl
ATOM     21  C   UNL d   1       3.695   6.183  -1.065  0.00  0.00     0.031 A 
ENDBRANCH  11  15
ENDBRANCH   2   9
BRANCH   1  22
ATOM     22  C   UNL d   1      -1.699  -2.076   1.055  0.00  0.00     0.076 A 
ATOM     23  C   UNL d   1      -1.451  -3.366   0.560  0.00  0.00     0.143 A 
ATOM     24  F   UNL d   1      -0.670  -3.542  -0.517  0.00  0.00    -0.204 F 
ATOM     25  C   UNL d   1      -2.035  -4.491   1.136  0.00  0.00     0.044 A 
ATOM     26  C   UNL d   1      -2.865  -4.345   2.244  0.00  0.00     0.003 A 
ATOM     27  C   UNL d   1      -3.137  -3.071   2.742  0.00  0.00     0.002 A 
ATOM     28  C   UNL d   1      -2.575  -1.941   2.138  0.00  0.00     0.033 A 
ENDBRANCH   1  22
TORSDOF 3
