REMARK  4 active torsions:
REMARK  status: ('A' for Active; 'I' for Inactive)
REMARK    1  A    between atoms: N_3  and  C_1 
REMARK    2  A    between atoms: C_2  and  N_3 
REMARK    3  A    between atoms: C_12  and  C_5 
REMARK    4  A    between atoms: C_11  and  C_6 
ROOT
ATOM      1  C   UNL d   1       1.187   1.093   2.119  0.00  0.00     0.046 A 
ATOM      2  C   UNL d   1       2.181   2.094   1.942  0.00  0.00    -0.031 A 
ATOM      3  C   UNL d   1       0.686   0.818   3.421  0.00  0.00    -0.031 A 
ATOM      4  C   UNL d   1       2.170   2.489   4.357  0.00  0.00     0.001 A 
ATOM      5  C   UNL d   1       1.177   1.536   4.524  0.00  0.00     0.009 A 
ATOM      6  C   UNL d   1       2.677   2.749   3.088  0.00  0.00     0.009 A 
ENDROOT
BRANCH   1   7
ATOM      7  N   UNL d   1       0.565   0.406   1.051  0.00  0.00    -0.333 N 
ATOM      8  H   UNL d   1      -0.420   0.202   1.177  0.00  0.00     0.168 HD
BRANCH   7   9
ATOM      9  C   UNL d   1       1.048  -0.093  -0.113  0.00  0.00     0.170 C 
ATOM     10  S   UNL d   1       0.015  -0.550  -1.333  0.00  0.00    -0.041 SA
ATOM     11  N   UNL d   1       2.371  -0.289  -0.238  0.00  0.00    -0.376 N 
ATOM     12  H   UNL d   1       2.949  -0.317   0.592  0.00  0.00     0.158 HD
ATOM     13  H   UNL d   1       2.715  -0.758  -1.065  0.00  0.00     0.158 HD
ENDBRANCH   7   9
ENDBRANCH   1   7
BRANCH   2  14
ATOM     14  C   UNL d   1       2.717   2.511   0.582  0.00  0.00     0.036 C 
ATOM     15  C   UNL d   1       3.167   3.960   0.412  0.00  0.00     0.010 C 
ENDBRANCH   2  14
BRANCH   3  16
ATOM     16  C   UNL d   1      -0.318  -0.282   3.713  0.00  0.00     0.036 C 
ATOM     17  C   UNL d   1      -1.752   0.221   3.761  0.00  0.00     0.010 C 
ENDBRANCH   3  16
TORSDOF 4
