REMARK  4 active torsions:
REMARK  status: ('A' for Active; 'I' for Inactive)
REMARK    1  A    between atoms: C_8  and  N_1 
REMARK    2  A    between atoms: C_11  and  C_2 
REMARK    3  A    between atoms: C_9  and  C_7 
REMARK    4  A    between atoms: C_10  and  C_8 
REMARK       I    between atoms: N_18  and  C_10 
ROOT
ATOM      1  N   UNL d   1       0.075  -1.451  -0.040  0.00  0.00    -0.289 N 
ATOM      2  C   UNL d   1       1.354  -0.978   0.040  0.00  0.00     0.121 C 
ATOM      3  N   UNL d   1       1.458   0.322  -0.037  0.00  0.00    -0.337 N 
ATOM      4  HN  UNL d   1       2.314   0.876  -0.044  1.00  0.00     0.167 HD
ATOM      5  C   UNL d   1       0.158   0.782  -0.108  0.00  0.00     0.105 C 
ATOM      6  C   UNL d   1      -0.757  -0.387  -0.257  0.00  0.00     0.276 C 
ATOM      7  C   UNL d   1      -0.176   2.077  -0.005  0.00  0.00     0.072 C 
ATOM      8  O   UNL d   1      -1.917  -0.418  -0.617  0.00  0.00    -0.265 OA
ENDROOT
BRANCH   1   9
ATOM      9  C   UNL d   1      -0.472  -2.800   0.024  0.00  0.00     0.236 C 
BRANCH   9  10
ATOM     10  C   UNL d   1      -0.079  -3.695  -1.144  0.00  0.00     0.233 C 
ATOM     11  O   UNL d   1      -0.132  -4.920  -1.074  0.00  0.00    -0.272 OA
ATOM     12  N   UNL d   1       0.236  -3.085  -2.321  0.00  0.00    -0.369 N 
ATOM     13  H   UNL d   1       0.291  -2.081  -2.424  0.00  0.00     0.159 HD
ATOM     14  H   UNL d   1       0.475  -3.672  -3.109  0.00  0.00     0.159 HD
ENDBRANCH   9  10
ENDBRANCH   1   9
BRANCH   2  15
ATOM     15  C   UNL d   1       2.553  -1.851   0.099  0.00  0.00     0.008 A 
ATOM     16  C   UNL d   1       3.695  -1.436  -0.602  0.00  0.00     0.015 A 
ATOM     17  C   UNL d   1       4.845  -2.230  -0.621  0.00  0.00     0.001 A 
ATOM     18  C   UNL d   1       4.861  -3.446   0.059  0.00  0.00     0.000 A 
ATOM     19  C   UNL d   1       3.740  -3.854   0.777  0.00  0.00     0.001 A 
ATOM     20  C   UNL d   1       2.598  -3.050   0.816  0.00  0.00     0.015 A 
ENDBRANCH   2  15
BRANCH   7  21
ATOM     21  C   UNL d   1      -1.515   2.533   0.114  0.00  0.00     0.077 A 
ATOM     22  O   UNL d   1      -2.500   1.838   0.780  0.00  0.00    -0.323 OA
ATOM     23  C   UNL d   1      -3.655   2.537   0.702  0.00  0.00     0.142 A 
ATOM     24  C   UNL d   1      -3.450   3.719   0.041  0.00  0.00     0.027 A 
ATOM     25  C   UNL d   1      -2.079   3.729  -0.319  0.00  0.00     0.039 A 
ENDBRANCH   7  21
TORSDOF 4
