REMARK  5 active torsions:
REMARK  status: ('A' for Active; 'I' for Inactive)
REMARK    1  A    between atoms: C_2  and  N_1 
REMARK       I    between atoms: C_4  and  N_1 
REMARK    2  A    between atoms: N_6  and  C_2 
REMARK    3  A    between atoms: C_3  and  C_5 
REMARK    4  A    between atoms: C_10  and  C_4 
REMARK    5  A    between atoms: C_11  and  N_6 
ROOT
ATOM      1  C   UNL d   1       0.201   0.087  -1.557  0.00  0.00     0.157 C 
ATOM      2  S   UNL d   1      -1.471   0.144  -1.623  0.00  0.00    -0.046 SA
ENDROOT
BRANCH   1   3
ATOM      3  N   UNL d   1       0.778  -0.560  -0.504  0.00  0.00    -0.304 N 
ATOM      4  C   UNL d   1       2.049  -0.454   0.054  0.00  0.00     0.257 C 
ATOM      5  O   UNL d   1       2.937   0.278  -0.370  0.00  0.00    -0.267 OA
ATOM      6  H   UNL d   1       0.082  -1.063   0.021  0.00  0.00     0.171 HD
BRANCH   4   7
ATOM      7  C   UNL d   1       2.321  -1.328   1.250  0.00  0.00     0.032 A 
ATOM      8  C   UNL d   1       3.658  -1.498   1.647  0.00  0.00     0.017 A 
ATOM      9  C   UNL d   1       3.990  -2.361   2.695  0.00  0.00     0.001 A 
ATOM     10  C   UNL d   1       2.990  -3.059   3.368  0.00  0.00     0.000 A 
ATOM     11  C   UNL d   1       1.657  -2.872   3.015  0.00  0.00     0.001 A 
ATOM     12  C   UNL d   1       1.321  -2.005   1.968  0.00  0.00     0.017 A 
ENDBRANCH   4   7
ENDBRANCH   1   3
BRANCH   1  13
ATOM     13  N   UNL d   1       0.935   0.726  -2.504  0.00  0.00    -0.236 NA
ATOM     14  H   UNL d   1       0.413   1.518  -2.868  0.00  0.00     0.136 HD
BRANCH  13  15
ATOM     15  C   UNL d   1       1.544   0.008  -3.580  0.00  0.00     0.015 A 
ATOM     16  C   UNL d   1       1.422   0.548  -4.870  0.00  0.00     0.040 A 
ATOM     17  C   UNL d   1       1.890  -0.150  -5.997  0.00  0.00     0.049 A 
ATOM     18  C   UNL d   1       2.538  -1.378  -5.809  0.00  0.00     0.016 A 
ATOM     19  C   UNL d   1       2.696  -1.901  -4.526  0.00  0.00     0.003 A 
ATOM     20  C   UNL d   1       2.190  -1.217  -3.416  0.00  0.00     0.024 A 
BRANCH  17  21
ATOM     21  C   UNL d   1       1.679   0.384  -7.393  0.00  0.00     0.417 C 
ATOM     22  F   UNL d   1       0.990   1.560  -7.430  0.00  0.00    -0.166 F 
ATOM     23  F   UNL d   1       2.852   0.619  -8.046  0.00  0.00    -0.166 F 
ATOM     24  F   UNL d   1       0.980  -0.477  -8.181  0.00  0.00    -0.166 F 
ENDBRANCH  17  21
ENDBRANCH  13  15
ENDBRANCH   1  13
TORSDOF 5
