REMARK  6 active torsions:
REMARK  status: ('A' for Active; 'I' for Inactive)
REMARK    1  A    between atoms: C_10  and  C_2 
REMARK    2  A    between atoms: C_16  and  N_5 
REMARK    3  A    between atoms: C_8  and  C_7 
REMARK    4  A    between atoms: C_20  and  C_10 
REMARK    5  A    between atoms: O_25  and  C_15 
REMARK    6  A    between atoms: O_26  and  C_18 
ROOT
ATOM      1  C   UNL d   1      -1.342   0.050  -0.069  0.00  0.00     0.102 A 
ATOM      2  C   UNL d   1       0.684   0.487   1.159  0.00  0.00     0.142 A 
ATOM      3  N   UNL d   1       0.621  -0.789   0.966  0.00  0.00    -0.282 N 
ATOM      4  HN  UNL d   1       1.291  -1.477   1.308  1.00  0.00     0.188 HD
ATOM      5  N   UNL d   1      -0.525  -1.067   0.206  0.00  0.00    -0.249 N 
ATOM      6  S   UNL d   1      -0.532   1.526   0.503  0.00  0.00    -0.047 SA
ATOM      7  C   UNL d   1      -2.582   0.076  -0.606  0.00  0.00     0.069 C 
ENDROOT
BRANCH   5   8
ATOM      8  C   UNL d   1      -0.585  -2.377  -0.351  0.00  0.00     0.057 A 
ATOM      9  C   UNL d   1       0.005  -3.462   0.331  0.00  0.00     0.033 A 
ATOM     10  C   UNL d   1      -0.036  -4.763  -0.182  0.00  0.00     0.026 A 
ATOM     11  C   UNL d   1      -0.666  -5.004  -1.398  0.00  0.00     0.034 A 
ATOM     12  C   UNL d   1      -1.228  -3.952  -2.112  0.00  0.00     0.026 A 
ATOM     13 CL   UNL d   1      -0.739  -6.602  -2.028  0.00  0.00    -0.084 Cl
ATOM     14  C   UNL d   1      -1.173  -2.650  -1.596  0.00  0.00     0.033 A 
ENDBRANCH   5   8
BRANCH   7  15
ATOM     15  C   UNL d   1      -3.390   1.310  -0.864  0.00  0.00     0.041 C 
ATOM     16  C   UNL d   1      -4.186   1.384  -2.142  0.00  0.00    -0.001 A 
ATOM     17  C   UNL d   1      -4.075   0.472  -3.197  0.00  0.00     0.054 A 
ATOM     18  C   UNL d   1      -5.092   2.447  -2.261  0.00  0.00    -0.041 A 
ATOM     19  C   UNL d   1      -4.809   0.644  -4.389  0.00  0.00     0.102 A 
ATOM     20  C   UNL d   1      -5.655   1.750  -4.531  0.00  0.00     0.102 A 
ATOM     21  C   UNL d   1      -5.800   2.636  -3.456  0.00  0.00     0.047 A 
ATOM     22  C   UNL d   1      -5.331   3.340  -1.077  0.00  0.00     0.059 C 
ATOM     23  C   UNL d   1      -4.033   3.522  -0.313  0.00  0.00     0.124 C 
ATOM     24  N   UNL d   1      -3.414   2.245   0.031  0.00  0.00    -0.389 N 
ATOM     25  HN  UNL d   1      -3.009   2.094   0.955  1.00  0.00     0.159 HD
BRANCH  19  26
ATOM     26  O   UNL d   1      -4.666  -0.389  -5.276  0.00  0.00    -0.353 OA
ATOM     27  C   UNL d   1      -4.356  -0.036  -6.618  0.00  0.00     0.210 C 
ENDBRANCH  19  26
BRANCH  20  28
ATOM     28  O   UNL d   1      -6.293   2.148  -5.672  0.00  0.00    -0.353 OA
ATOM     29  C   UNL d   1      -7.204   1.222  -6.247  0.00  0.00     0.210 C 
ENDBRANCH  20  28
ENDBRANCH   7  15
BRANCH   2  30
ATOM     30  C   UNL d   1       1.707   1.281   1.910  0.00  0.00     0.217 C 
ATOM     31  O   UNL d   1       2.153   2.316   1.426  0.00  0.00    -0.284 OA
BRANCH  30  32
ATOM     32  C   UNL d   1       2.256   0.766   3.194  0.00  0.00     0.017 A 
ATOM     33  C   UNL d   1       3.485   1.285   3.631  0.00  0.00     0.015 A 
ATOM     34  C   UNL d   1       4.078   0.813   4.803  0.00  0.00     0.001 A 
ATOM     35  C   UNL d   1       3.440  -0.172   5.554  0.00  0.00     0.000 A 
ATOM     36  C   UNL d   1       2.206  -0.675   5.140  0.00  0.00     0.001 A 
ATOM     37  C   UNL d   1       1.610  -0.208   3.963  0.00  0.00     0.015 A 
ENDBRANCH  30  32
ENDBRANCH   2  30
TORSDOF 6
