REMARK  7 active torsions:
REMARK  status: ('A' for Active; 'I' for Inactive)
REMARK    1  A    between atoms: C_4  and  C_1 
REMARK    2  A    between atoms: C_14  and  N_3 
REMARK    3  A    between atoms: S_15  and  C_10 
REMARK    4  A    between atoms: C_19  and  S_15 
REMARK    5  A    between atoms: C_16  and  C_19 
REMARK    6  A    between atoms: O_20  and  C_16 
REMARK    7  A    between atoms: C_23  and  O_20 
ROOT
ATOM      1  C   UNL d   1      -0.323   1.287   0.132  0.00  0.00     0.079 C 
ATOM      2  C   UNL d   1       1.002   0.903   0.078  0.00  0.00     0.137 C 
ATOM      3  N   UNL d   1       0.982  -0.493  -0.066  0.00  0.00    -0.240 N 
ATOM      4  N   UNL d   1      -0.287  -0.943  -0.303  0.00  0.00    -0.302 N 
ATOM      5  HN  UNL d   1      -0.576  -1.883  -0.573  1.00  0.00     0.186 HD
ATOM      6  C   UNL d   1      -1.063   0.122  -0.102  0.00  0.00     0.127 C 
ATOM      7  N   UNL d   1       2.129   1.670   0.116  0.00  0.00    -0.383 N 
ATOM      8  H   UNL d   1       2.018   2.685   0.058  0.00  0.00     0.157 HD
ATOM      9  H   UNL d   1       2.966   1.357  -0.378  0.00  0.00     0.157 HD
ENDROOT
BRANCH   1  10
ATOM     10  C   UNL d   1      -0.842   2.658   0.339  0.00  0.00     0.180 A 
ATOM     11  O   UNL d   1      -2.177   2.968   0.442  0.00  0.00    -0.267 OA
ATOM     12  C   UNL d   1      -2.147   4.324   0.623  0.00  0.00     0.204 A 
ATOM     13  N   UNL d   1      -0.921   4.804   0.627  0.00  0.00    -0.272 N 
ATOM     14  N   UNL d   1      -0.079   3.732   0.446  0.00  0.00    -0.276 N 
ATOM     15  HN  UNL d   1      -0.650   5.781   0.743  1.00  0.00     0.189 HD
ATOM     16  HN  UNL d   1       0.940   3.760   0.402  1.00  0.00     0.189 HD
BRANCH  12  17
ATOM     17  S   UNL d   1      -3.578   5.291   0.820  0.00  0.00    -0.075 SA
BRANCH  17  18
ATOM     18  C   UNL d   1      -2.977   6.869   0.137  0.00  0.00     0.194 C 
BRANCH  18  19
ATOM     19  C   UNL d   1      -2.511   6.699  -1.294  0.00  0.00     0.268 C 
ATOM     20  O   UNL d   1      -2.969   5.901  -2.102  0.00  0.00    -0.264 OA
BRANCH  19  21
ATOM     21  O   UNL d   1      -1.489   7.565  -1.550  0.00  0.00    -0.321 OA
BRANCH  21  22
ATOM     22  C   UNL d   1      -0.768   7.322  -2.766  0.00  0.00     0.174 C 
ATOM     23  C   UNL d   1       0.327   6.305  -2.494  0.00  0.00     0.034 C 
ENDBRANCH  21  22
ENDBRANCH  19  21
ENDBRANCH  18  19
ENDBRANCH  17  18
ENDBRANCH  12  17
ENDBRANCH   1  10
BRANCH   3  24
ATOM     24  C   UNL d   1       2.059  -1.424   0.020  0.00  0.00     0.058 A 
ATOM     25  C   UNL d   1       3.241  -1.109   0.706  0.00  0.00     0.031 A 
ATOM     26  C   UNL d   1       4.279  -2.042   0.783  0.00  0.00     0.002 A 
ATOM     27  C   UNL d   1       4.146  -3.290   0.179  0.00  0.00     0.000 A 
ATOM     28  C   UNL d   1       2.966  -3.619  -0.486  0.00  0.00     0.002 A 
ATOM     29  C   UNL d   1       1.919  -2.697  -0.555  0.00  0.00     0.031 A 
ENDBRANCH   3  24
TORSDOF 7
