REMARK  2 active torsions:
REMARK  status: ('A' for Active; 'I' for Inactive)
REMARK    1  A    between atoms: C_7  and  C_1 
REMARK       I    between atoms: N_9  and  C_7 
REMARK       I    between atoms: C_8  and  N_11 
REMARK       I    between atoms: N_17  and  C_8 
REMARK    2  A    between atoms: N_11  and  N_9 
ROOT
ATOM      1  C   UNL d   1       1.495  -1.085   0.020  0.00  0.00     0.132 A 
ATOM      2  N   UNL d   1       0.211  -0.560   0.030  0.00  0.00    -0.302 N 
ATOM      3  N   UNL d   1       1.597   1.189  -0.166  0.00  0.00    -0.344 N 
ATOM      4  HN  UNL d   1       1.957   2.138  -0.270  1.00  0.00     0.167 HD
ATOM      5  C   UNL d   1       2.326   0.030  -0.073  0.00  0.00     0.040 A 
ATOM      6  C   UNL d   1       0.339   0.823  -0.092  0.00  0.00     0.112 A 
ATOM      7  C   UNL d   1      -1.036  -1.190   0.121  0.00  0.00     0.099 A 
ATOM      8  C   UNL d   1      -0.854   1.599  -0.109  0.00  0.00     0.049 A 
ATOM      9  C   UNL d   1      -2.159  -0.452   0.103  0.00  0.00     0.018 A 
ATOM     10  C   UNL d   1      -2.052   0.993  -0.014  0.00  0.00     0.005 A 
ATOM     11  C   UNL d   1       3.807   0.122  -0.035  0.00  0.00     0.071 C 
ENDROOT
BRANCH   1  12
ATOM     12  C   UNL d   1       1.821  -2.484   0.149  0.00  0.00     0.289 C 
ATOM     13  N   UNL d   1       3.020  -2.860  -0.424  0.00  0.00    -0.261 N 
ATOM     14  H   UNL d   1       3.493  -2.290  -1.123  0.00  0.00     0.190 HD
ATOM     15  O   UNL d   1       1.103  -3.312   0.710  0.00  0.00    -0.264 OA
BRANCH  13  16
ATOM     16  N   UNL d   1       3.431  -4.199  -0.344  0.00  0.00    -0.254 N 
ATOM     17  C   UNL d   1       4.301  -4.637  -1.308  0.00  0.00     0.310 C 
ATOM     18  O   UNL d   1       4.792  -3.926  -2.176  0.00  0.00    -0.253 OA
ATOM     19  N   UNL d   1       4.606  -5.955  -1.194  0.00  0.00    -0.252 NA
ATOM     20  H   UNL d   1       4.675  -6.322  -0.255  0.00  0.00     0.128 HD
ATOM     21  H   UNL d   1       5.350  -6.249  -1.816  0.00  0.00     0.128 HD
ATOM     22  H   UNL d   1       2.727  -4.847   0.004  0.00  0.00     0.191 HD
ENDBRANCH  13  16
ENDBRANCH   1  12
TORSDOF 2
