REMARK  3 active torsions:
REMARK  status: ('A' for Active; 'I' for Inactive)
REMARK    1  A    between atoms: C_4  and  C_1 
REMARK       I    between atoms: N_7  and  C_4 
REMARK    2  A    between atoms: C_15  and  C_18 
REMARK    3  A    between atoms: C_19  and  C_15 
ROOT
ATOM      1  C   UNL d   1      -3.996  -0.017  -0.465  0.00  0.00     0.270 C 
ATOM      2  N   UNL d   1      -4.638  -1.169  -0.916  0.00  0.00    -0.347 N 
ATOM      3  O   UNL d   1      -4.086   1.044  -1.085  0.00  0.00    -0.266 OA
ATOM      4  C   UNL d   1      -5.065  -1.232  -2.309  0.00  0.00     0.126 C 
ATOM      5  C   UNL d   1      -4.981  -2.319  -0.078  0.00  0.00     0.126 C 
ATOM      6  C   UNL d   1      -6.551  -1.555  -2.431  0.00  0.00     0.025 C 
ATOM      7  C   UNL d   1      -6.465  -2.668  -0.194  0.00  0.00     0.025 C 
ATOM      8  C   UNL d   1      -6.937  -2.824  -1.650  0.00  0.00    -0.007 C 
ENDROOT
BRANCH   1   9
ATOM      9  C   UNL d   1      -3.186  -0.083   0.731  0.00  0.00     0.102 A 
ATOM     10  N   UNL d   1      -2.985   1.028   1.522  0.00  0.00    -0.351 N 
ATOM     11  C   UNL d   1      -2.043   0.783   2.492  0.00  0.00     0.044 A 
ATOM     12  H   UNL d   1      -3.418   1.924   1.346  0.00  0.00     0.166 HD
ATOM     13  C   UNL d   1      -1.496   1.649   3.445  0.00  0.00     0.037 A 
ATOM     14  C   UNL d   1      -1.643  -0.545   2.352  0.00  0.00    -0.001 A 
ATOM     15  C   UNL d   1      -0.479   1.155   4.269  0.00  0.00    -0.059 A 
ATOM     16  C   UNL d   1       0.209   2.059   5.252  0.00  0.00     0.048 C 
ATOM     17  C   UNL d   1      -0.066  -0.177   4.148  0.00  0.00     0.014 A 
ATOM     18  C   UNL d   1      -0.637  -1.057   3.204  0.00  0.00    -0.049 A 
ATOM     19  C   UNL d   1      -0.103  -2.460   3.115  0.00  0.00     0.049 C 
ATOM     20  C   UNL d   1      -2.383  -1.079   1.257  0.00  0.00     0.049 A 
ENDBRANCH   1   9
BRANCH   8  21
ATOM     21  C   UNL d   1      -6.388  -4.093  -2.342  0.00  0.00     0.043 C 
BRANCH  21  22
ATOM     22  C   UNL d   1      -6.807  -5.390  -1.691  0.00  0.00    -0.058 A 
ATOM     23  C   UNL d   1      -8.161  -5.734  -1.577  0.00  0.00     0.007 A 
ATOM     24  C   UNL d   1      -8.540  -6.933  -0.970  0.00  0.00     0.001 A 
ATOM     25  C   UNL d   1      -7.569  -7.805  -0.480  0.00  0.00     0.000 A 
ATOM     26  C   UNL d   1      -6.220  -7.481  -0.601  0.00  0.00     0.001 A 
ATOM     27  C   UNL d   1      -5.840  -6.281  -1.205  0.00  0.00     0.007 A 
ENDBRANCH  21  22
ENDBRANCH   8  21
TORSDOF 3
