REMARK  4 active torsions:
REMARK  status: ('A' for Active; 'I' for Inactive)
REMARK    1  A    between atoms: C_2  and  C_1 
REMARK       I    between atoms: N_4  and  C_1 
REMARK    2  A    between atoms: O_6  and  C_3 
REMARK    3  A    between atoms: C_11  and  N_4 
REMARK    4  A    between atoms: C_16  and  O_6 
ROOT
ATOM      1  C   UNL d   1       0.083  -0.058  -1.185  0.00  0.00     0.083 A 
ATOM      2  C   UNL d   1      -0.714   1.040  -1.513  0.00  0.00     0.163 A 
ATOM      3  N   UNL d   1      -1.293   1.190  -2.736  0.00  0.00    -0.346 N 
ATOM      4  HN  UNL d   1      -1.890   1.991  -2.943  1.00  0.00     0.167 HD
ATOM      5  C   UNL d   1       0.332  -1.012  -2.180  0.00  0.00     0.023 A 
ATOM      6  C   UNL d   1      -1.050   0.243  -3.664  0.00  0.00     0.090 A 
ATOM      7  C   UNL d   1      -0.237  -0.855  -3.442  0.00  0.00     0.018 A 
ENDROOT
BRANCH   1   8
ATOM      8  C   UNL d   1       0.575  -0.280   0.194  0.00  0.00     0.260 C 
ATOM      9  N   UNL d   1       1.873  -0.763   0.290  0.00  0.00    -0.323 N 
ATOM     10  H   UNL d   1       2.454  -0.707  -0.538  0.00  0.00     0.169 HD
ATOM     11  O   UNL d   1      -0.177  -0.045   1.132  0.00  0.00    -0.267 OA
BRANCH   9  12
ATOM     12  C   UNL d   1       2.519  -1.187   1.477  0.00  0.00     0.037 A 
ATOM     13  C   UNL d   1       1.840  -1.467   2.665  0.00  0.00     0.069 A 
ATOM     14  C   UNL d   1       2.543  -1.843   3.812  0.00  0.00     0.104 A 
ATOM     15  O   UNL d   1       1.798  -2.092   4.936  0.00  0.00    -0.346 OA
ATOM     16  C   UNL d   1       3.933  -1.958   3.778  0.00  0.00     0.102 A 
ATOM     17  C   UNL d   1       2.604  -2.058   6.116  0.00  0.00     0.202 C 
ATOM     18  C   UNL d   1       3.891  -2.845   5.923  0.00  0.00     0.202 C 
ATOM     19  O   UNL d   1       4.691  -2.296   4.869  0.00  0.00    -0.346 OA
ATOM     20  C   UNL d   1       4.617  -1.712   2.591  0.00  0.00     0.042 A 
ATOM     21  C   UNL d   1       3.912  -1.345   1.439  0.00  0.00     0.032 A 
ENDBRANCH   9  12
ENDBRANCH   1   8
BRANCH   2  22
ATOM     22  O   UNL d   1      -0.940   2.016  -0.555  0.00  0.00    -0.293 OA
BRANCH  22  23
ATOM     23  C   UNL d   1      -1.123   3.321  -0.955  0.00  0.00     0.077 A 
ATOM     24  C   UNL d   1      -1.954   4.102  -0.147  0.00  0.00     0.039 A 
ATOM     25  C   UNL d   1      -2.153   5.454  -0.433  0.00  0.00     0.026 A 
ATOM     26  C   UNL d   1      -1.510   6.030  -1.530  0.00  0.00     0.034 A 
ATOM     27  C   UNL d   1      -0.667   5.264  -2.332  0.00  0.00     0.026 A 
ATOM     28 CL   UNL d   1      -1.748   7.696  -1.884  0.00  0.00    -0.084 Cl
ATOM     29  C   UNL d   1      -0.462   3.914  -2.035  0.00  0.00     0.039 A 
ENDBRANCH  22  23
ENDBRANCH   2  22
TORSDOF 4
