REMARK  4 active torsions:
REMARK  status: ('A' for Active; 'I' for Inactive)
REMARK       I    between atoms: N_2  and  C_1 
REMARK    1  A    between atoms: C_6  and  C_1 
REMARK    2  A    between atoms: C_10  and  N_2 
REMARK    3  A    between atoms: O_3  and  C_6 
REMARK    4  A    between atoms: C_4  and  O_3 
ROOT
ATOM      1  C   UNL d   1       0.926   0.303   0.067  0.00  0.00     0.251 C 
ATOM      2  N   UNL d   1       2.297   0.244   0.063  0.00  0.00    -0.325 N 
ATOM      3  O   UNL d   1       0.359   0.228   1.162  0.00  0.00    -0.270 OA
ATOM      4  H   UNL d   1       2.652  -0.134   0.934  0.00  0.00     0.169 HD
ENDROOT
BRANCH   1   5
ATOM      5  C   UNL d   1       0.135   0.414  -1.254  0.00  0.00     0.217 C 
ATOM      6  C   UNL d   1      -1.359   0.226  -0.994  0.00  0.00     0.050 C 
BRANCH   5   7
ATOM      7  O   UNL d   1       0.574  -0.628  -2.127  0.00  0.00    -0.335 OA
BRANCH   7   8
ATOM      8  C   UNL d   1       0.518  -0.477  -3.485  0.00  0.00     0.091 A 
ATOM      9  C   UNL d   1       1.028  -1.540  -4.254  0.00  0.00     0.069 A 
ATOM     10  C   UNL d   1       1.019  -1.490  -5.650  0.00  0.00     0.050 A 
ATOM     11 CL   UNL d   1       1.691  -2.952  -3.503  0.00  0.00    -0.081 Cl
ATOM     12  C   UNL d   1       0.504  -0.369  -6.289  0.00  0.00     0.035 A 
ATOM     13  C   UNL d   1      -0.002   0.695  -5.546  0.00  0.00     0.026 A 
ATOM     14 CL   UNL d   1       0.487  -0.293  -8.007  0.00  0.00    -0.084 Cl
ATOM     15  C   UNL d   1       0.000   0.639  -4.148  0.00  0.00     0.040 A 
ENDBRANCH   7   8
ENDBRANCH   5   7
ENDBRANCH   1   5
BRANCH   2  16
ATOM     16  C   UNL d   1       3.215   0.405  -0.985  0.00  0.00     0.034 A 
ATOM     17  C   UNL d   1       3.065   1.353  -1.999  0.00  0.00     0.031 A 
ATOM     18  C   UNL d   1       4.000   1.434  -3.036  0.00  0.00     0.021 A 
ATOM     19  C   UNL d   1       5.096   0.577  -3.048  0.00  0.00     0.011 A 
ATOM     20  C   UNL d   1       5.288  -0.332  -2.012  0.00  0.00     0.021 A 
ATOM     21 BR   UNL d   1       6.335   0.657  -4.472  0.00  0.00    -0.051 Br
ATOM     22  C   UNL d   1       4.358  -0.403  -0.970  0.00  0.00     0.031 A 
ENDBRANCH   2  16
TORSDOF 4
