REMARK  2 active torsions:
REMARK  status: ('A' for Active; 'I' for Inactive)
REMARK    1  A    between atoms: O_13  and  C_3 
REMARK    2  A    between atoms: O_14  and  C_8 
ROOT
ATOM      1  C   UNL d   1       0.007  -0.797   0.000  0.00  0.00     0.046 A 
ATOM      2  C   UNL d   1       0.038   0.617  -0.001  0.00  0.00     0.050 A 
ATOM      3  C   UNL d   1       1.281  -1.425   0.000  0.00  0.00     0.084 A 
ATOM      4  C   UNL d   1      -1.273  -1.428   0.002  0.00  0.00     0.051 A 
ATOM      5  N   UNL d   1       1.173   1.331  -0.003  0.00  0.00    -0.336 N 
ATOM      6  HN  UNL d   1       1.146   2.350  -0.004  1.00  0.00     0.168 HD
ATOM      7  C   UNL d   1       2.458  -0.690  -0.002  0.00  0.00     0.093 A 
ATOM      8  C   UNL d   1       2.344   0.678  -0.004  0.00  0.00     0.142 A 
ATOM      9  C   UNL d   1      -2.455  -0.686   0.001  0.00  0.00     0.048 A 
ATOM     10  C   UNL d   1      -1.149   1.334  -0.001  0.00  0.00     0.054 A 
ATOM     11  C   UNL d   1      -2.384   0.696   0.000  0.00  0.00     0.037 A 
ATOM     12 CL   UNL d   1      -1.456  -3.151   0.003  0.00  0.00    -0.083 Cl
ATOM     13 CL   UNL d   1      -3.831   1.625  -0.000  0.00  0.00    -0.084 Cl
ENDROOT
BRANCH   3  14
ATOM     14  O   UNL d   1       1.464  -2.783   0.001  0.00  0.00    -0.360 OA
ATOM     15  H   UNL d   1       0.596  -3.225   0.002  0.00  0.00     0.217 HD
ENDBRANCH   3  14
BRANCH   8  16
ATOM     16  O   UNL d   1       3.446   1.480  -0.006  0.00  0.00    -0.346 OA
ATOM     17  H   UNL d   1       4.231   0.915  -0.009  0.00  0.00     0.219 HD
ENDBRANCH   8  16
TORSDOF 2
