REMARK  2 active torsions:
REMARK  status: ('A' for Active; 'I' for Inactive)
REMARK    1  A    between atoms: C_3  and  C_10 
REMARK    2  A    between atoms: C_5  and  C_11 
ROOT
ATOM      1  N   UNL d   1       1.262  -1.331   0.010  0.00  0.00    -0.352 N 
ATOM      2  HN  UNL d   1       1.272  -2.351   0.001  1.00  0.00     0.166 HD
ATOM      3  C   UNL d   1       0.102  -0.643  -0.014  0.00  0.00     0.062 A 
ATOM      4  C   UNL d   1       0.072   0.774  -0.027  0.00  0.00     0.081 A 
ATOM      5  N   UNL d   1       1.230   1.475  -0.023  0.00  0.00    -0.360 N 
ATOM      6  HN  UNL d   1       1.233   2.495  -0.048  1.00  0.00     0.165 HD
ATOM      7  C   UNL d   1       2.413  -0.615   0.046  0.00  0.00     0.065 A 
ATOM      8  C   UNL d   1      -2.341  -0.725  -0.021  0.00  0.00     0.051 A 
ATOM      9  C   UNL d   1      -1.181   1.399  -0.035  0.00  0.00     0.063 A 
ATOM     10  C   UNL d   1      -1.090  -1.359  -0.017  0.00  0.00     0.048 A 
ATOM     11  C   UNL d   1      -2.374   0.670  -0.030  0.00  0.00     0.042 A 
ATOM     12  C   UNL d   1       2.385   0.768   0.016  0.00  0.00     0.119 A 
ATOM     13 CL   UNL d   1      -1.308   3.128  -0.041  0.00  0.00    -0.082 Cl
ENDROOT
BRANCH   7  14
ATOM     14  C   UNL d   1       3.641  -1.414   0.125  0.00  0.00     0.034 A 
ATOM     15  S   UNL d   1       5.064  -0.782   0.863  0.00  0.00    -0.081 SA
ATOM     16  C   UNL d   1       5.918  -2.218   0.604  0.00  0.00     0.052 A 
ATOM     17 BR   UNL d   1       7.697  -2.459   1.139  0.00  0.00    -0.043 Br
ATOM     18  C   UNL d   1       5.179  -3.182  -0.030  0.00  0.00     0.028 A 
ATOM     19  C   UNL d   1       3.855  -2.718  -0.298  0.00  0.00     0.023 A 
ENDBRANCH   7  14
BRANCH   8  20
ATOM     20  C   UNL d   1      -3.627  -1.512  -0.007  0.00  0.00     0.417 C 
ATOM     21  F   UNL d   1      -3.441  -2.860  -0.009  0.00  0.00    -0.166 F 
ATOM     22  F   UNL d   1      -4.386  -1.238   1.088  0.00  0.00    -0.166 F 
ATOM     23  F   UNL d   1      -4.410  -1.238  -1.086  0.00  0.00    -0.166 F 
ENDBRANCH   8  20
TORSDOF 2
