REMARK  1 active torsions:
REMARK  status: ('A' for Active; 'I' for Inactive)
REMARK    1  A    between atoms: O_12  and  C_5 
ROOT
ATOM      1  C   UNL d   1       0.033  -0.652  -0.036  0.00  0.00    -0.011 A 
ATOM      2  C   UNL d   1       0.091   0.750   0.030  0.00  0.00     0.009 A 
ATOM      3  S   UNL d   1      -1.345   1.808   0.091  0.00  0.00    -0.129 SA
ATOM      4  C   UNL d   1       1.239  -1.381  -0.097  0.00  0.00     0.035 A 
ATOM      5  C   UNL d   1      -1.261  -1.431  -0.071  0.00  0.00     0.153 C 
ATOM      6  C   UNL d   1       1.341   1.389   0.065  0.00  0.00     0.021 A 
ATOM      7  C   UNL d   1       2.469  -0.732  -0.067  0.00  0.00     0.034 A 
ATOM      8  C   UNL d   1      -2.658   0.643  -0.370  0.00  0.00     0.082 C 
ATOM      9  C   UNL d   1      -2.500  -0.665   0.383  0.00  0.00     0.047 C 
ATOM     10  C   UNL d   1       2.527   0.654   0.019  0.00  0.00     0.025 A 
ATOM     11 CL   UNL d   1       3.925  -1.646  -0.135  0.00  0.00    -0.084 Cl
ENDROOT
BRANCH   5  12
ATOM     12  O   UNL d   1      -1.490  -1.920  -1.395  0.00  0.00    -0.391 OA
ATOM     13  H   UNL d   1      -1.055  -1.314  -2.020  0.00  0.00     0.210 HD
ENDBRANCH   5  12
TORSDOF 1
