REMARK  4 active torsions:
REMARK  status: ('A' for Active; 'I' for Inactive)
REMARK    1  A    between atoms: S_2  and  N_1 
REMARK    2  A    between atoms: C_10  and  S_2 
REMARK    3  A    between atoms: C_8  and  C_3 
REMARK    4  A    between atoms: C_9  and  C_11 
ROOT
ATOM      1  N   UNL d   1       1.585   1.130   0.052  0.00  0.00    -0.176 N 
ATOM      2  C   UNL d   1       0.398  -0.581   0.579  0.00  0.00     0.147 A 
ATOM      3  N   UNL d   1       0.470   0.752   0.749  0.00  0.00    -0.279 N 
ATOM      4  HN  UNL d   1      -0.165   1.348   1.280  1.00  0.00     0.188 HD
ATOM      5  C   UNL d   1       1.531  -1.071  -0.126  0.00  0.00     0.042 A 
ATOM      6  C   UNL d   1       2.307   0.051  -0.433  0.00  0.00     0.084 A 
ATOM      7  N   UNL d   1       3.136  -2.477  -1.191  0.00  0.00    -0.374 N 
ATOM      8  HN  UNL d   1       3.461  -3.401  -1.478  1.00  0.00     0.164 HD
ATOM      9  C   UNL d   1       1.968  -2.339  -0.524  0.00  0.00     0.103 A 
ATOM     10  C   UNL d   1       3.518  -0.084  -1.123  0.00  0.00     0.050 A 
ATOM     11  C   UNL d   1       3.868  -1.380  -1.474  0.00  0.00     0.090 A 
ENDROOT
BRANCH   1  12
ATOM     12  S   UNL d   1       2.128   2.778  -0.052  0.00  0.00     0.282 S 
ATOM     13  O   UNL d   1       3.016   2.853  -1.196  0.00  0.00    -0.198 OA
ATOM     14  O   UNL d   1       0.937   3.602   0.040  0.00  0.00    -0.198 OA
BRANCH  12  15
ATOM     15  C   UNL d   1       3.075   3.034   1.428  0.00  0.00     0.082 A 
ATOM     16  C   UNL d   1       4.417   3.423   1.332  0.00  0.00     0.041 A 
ATOM     17  C   UNL d   1       5.138   3.753   2.492  0.00  0.00     0.049 A 
ATOM     18  C   UNL d   1       4.495   3.667   3.738  0.00  0.00     0.016 A 
ATOM     19  C   UNL d   1       3.157   3.273   3.826  0.00  0.00     0.002 A 
ATOM     20  C   UNL d   1       2.440   2.963   2.671  0.00  0.00     0.025 A 
BRANCH  17  21
ATOM     21  C   UNL d   1       6.568   4.237   2.416  0.00  0.00     0.417 C 
ATOM     22  F   UNL d   1       7.060   4.274   1.147  0.00  0.00    -0.166 F 
ATOM     23  F   UNL d   1       6.716   5.495   2.913  0.00  0.00    -0.166 F 
ATOM     24  F   UNL d   1       7.422   3.449   3.125  0.00  0.00    -0.166 F 
ENDBRANCH  17  21
ENDBRANCH  12  15
ENDBRANCH   1  12
BRANCH   2  25
ATOM     25  C   UNL d   1      -0.729  -1.425   1.108  0.00  0.00     0.434 C 
ATOM     26  F   UNL d   1      -1.708  -0.709   1.717  0.00  0.00    -0.165 F 
ATOM     27  F   UNL d   1      -1.322  -2.139   0.114  0.00  0.00    -0.165 F 
ATOM     28  F   UNL d   1      -0.281  -2.333   2.016  0.00  0.00    -0.165 F 
ENDBRANCH   2  25
TORSDOF 4
