REMARK  8 active torsions:
REMARK  status: ('A' for Active; 'I' for Inactive)
REMARK    1  A    between atoms: C_6  and  N_1 
REMARK    2  A    between atoms: S_2  and  C_4 
REMARK    3  A    between atoms: C_7  and  S_2 
REMARK    4  A    between atoms: C_3  and  C_4 
REMARK    5  A    between atoms: C_5  and  C_3 
REMARK    6  A    between atoms: C_4  and  C_10 
REMARK    7  A    between atoms: C_13  and  C_5 
REMARK    8  A    between atoms: N_18  and  C_11 
ROOT
ATOM      1  C   UNL d   1      -1.494  -2.792  -4.254  0.00  0.00     0.092 C 
ENDROOT
BRANCH   1   2
ATOM      2  S   UNL d   1      -1.342  -1.776  -5.803  0.00  0.00    -0.118 SA
BRANCH   2   3
ATOM      3  C   UNL d   1      -2.031  -0.206  -5.272  0.00  0.00     0.022 A 
ATOM      4  C   UNL d   1      -3.375  -0.036  -4.879  0.00  0.00     0.022 A 
ATOM      5  C   UNL d   1      -3.773   1.204  -4.374  0.00  0.00     0.024 A 
ATOM      6  C   UNL d   1      -2.900   2.296  -4.372  0.00  0.00     0.002 A 
ATOM      7  C   UNL d   1      -1.604   2.150  -4.852  0.00  0.00     0.001 A 
ATOM      8  C   UNL d   1      -1.171   0.903  -5.300  0.00  0.00     0.020 A 
BRANCH   4   9
ATOM      9  N   UNL d   1      -4.264  -1.125  -4.788  0.00  0.00    -0.302 NA
ATOM     10  H   UNL d   1      -4.022  -1.857  -5.459  0.00  0.00     0.124 HD
ATOM     11  H   UNL d   1      -5.240  -0.853  -4.872  0.00  0.00     0.124 HD
ENDBRANCH   4   9
ENDBRANCH   2   3
ENDBRANCH   1   2
BRANCH   1  12
ATOM     12  C   UNL d   1      -0.876  -4.184  -4.469  0.00  0.00     0.104 C 
BRANCH  12  13
ATOM     13  C   UNL d   1      -1.657  -5.046  -5.453  0.00  0.00     0.161 C 
ATOM     14  O   UNL d   1      -2.727  -4.689  -5.940  0.00  0.00    -0.292 OA
BRANCH  13  15
ATOM     15  C   UNL d   1      -1.128  -6.404  -5.794  0.00  0.00     0.010 A 
ATOM     16  C   UNL d   1      -0.045  -6.978  -5.116  0.00  0.00     0.015 A 
ATOM     17  C   UNL d   1       0.362  -8.281  -5.418  0.00  0.00     0.001 A 
ATOM     18  C   UNL d   1      -0.301  -9.014  -6.402  0.00  0.00     0.000 A 
ATOM     19  C   UNL d   1      -1.365  -8.443  -7.096  0.00  0.00     0.001 A 
ATOM     20  C   UNL d   1      -1.777  -7.142  -6.795  0.00  0.00     0.015 A 
ENDBRANCH  13  15
ENDBRANCH  12  13
ENDBRANCH   1  12
BRANCH   1  21
ATOM     21  C   UNL d   1      -0.875  -2.133  -3.018  0.00  0.00    -0.043 A 
ATOM     22  C   UNL d   1      -1.509  -2.301  -1.772  0.00  0.00     0.011 A 
ATOM     23  C   UNL d   1      -1.024  -1.666  -0.625  0.00  0.00     0.037 A 
ATOM     24  C   UNL d   1       0.103  -0.843  -0.718  0.00  0.00     0.102 A 
ATOM     25  C   UNL d   1       0.776  -0.700  -1.935  0.00  0.00     0.037 A 
ATOM     26  C   UNL d   1       0.302  -1.366  -3.069  0.00  0.00     0.011 A 
BRANCH  24  27
ATOM     27  N   UNL d   1       0.575  -0.113   0.464  0.00  0.00    -0.116 N 
ATOM     28  O   UNL d   1       1.545   0.646   0.326  0.00  0.00    -0.532 OA
ATOM     29  O   UNL d   1      -0.024  -0.297   1.534  0.00  0.00    -0.532 OA
ENDBRANCH  24  27
ENDBRANCH   1  21
TORSDOF 8
