REMARK  3 active torsions:
REMARK  status: ('A' for Active; 'I' for Inactive)
REMARK    1  A    between atoms: C_2  and  C_1 
REMARK    2  A    between atoms: O_12  and  C_1 
REMARK    3  A    between atoms: O_14  and  C_11 
ROOT
ATOM      1  C   UNL d   1       0.298   1.046   0.872  0.00  0.00     0.038 A 
ATOM      2  C   UNL d   1      -0.756   0.626   1.693  0.00  0.00     0.030 A 
ATOM      3  C   UNL d   1      -1.383   1.526   2.569  0.00  0.00    -0.025 A 
ATOM      4  C   UNL d   1      -0.945   2.869   2.615  0.00  0.00    -0.023 A 
ATOM      5  C   UNL d   1      -1.577   3.766   3.491  0.00  0.00     0.049 A 
ATOM      6  C   UNL d   1       0.717   2.380   0.901  0.00  0.00     0.019 A 
ATOM      7  C   UNL d   1       0.104   3.280   1.776  0.00  0.00     0.013 A 
ATOM      8  C   UNL d   1      -2.442   1.125   3.398  0.00  0.00     0.015 A 
ATOM      9  C   UNL d   1      -2.632   3.357   4.314  0.00  0.00     0.069 A 
ATOM     10  C   UNL d   1      -3.062   2.033   4.263  0.00  0.00     0.037 A 
ENDROOT
BRANCH   1  11
ATOM     11  C   UNL d   1       0.908   0.053  -0.046  0.00  0.00     0.176 C 
ATOM     12  O   UNL d   1       0.278  -0.867  -0.542  0.00  0.00    -0.646 OA
BRANCH  11  13
ATOM     13  O   UNL d   1       2.230   0.236  -0.244  0.00  0.00    -0.773 OA
ATOM     14  H   UNL d   1       2.650   0.885   0.350  0.00  0.00     0.167 HD
ENDBRANCH  11  13
ENDBRANCH   1  11
BRANCH   9  15
ATOM     15  O   UNL d   1      -3.149   4.340   5.111  0.00  0.00    -0.356 OA
ATOM     16  C   UNL d   1      -4.230   3.977   5.962  0.00  0.00     0.210 C 
ENDBRANCH   9  15
TORSDOF 3
