REMARK  4 active torsions:
REMARK  status: ('A' for Active; 'I' for Inactive)
REMARK    1  A    between atoms: C_2  and  C_1 
REMARK    2  A    between atoms: C_8  and  C_1 
REMARK    3  A    between atoms: C_9  and  C_1 
REMARK       I    between atoms: N_6  and  C_2 
REMARK    4  A    between atoms: C_3  and  N_6 
ROOT
ATOM      1  C   UNL d   1       0.935   0.016   0.202  0.00  0.00     0.044 C 
ENDROOT
BRANCH   1   2
ATOM      2  C   UNL d   1       2.436  -0.098   0.436  0.00  0.00     0.258 C 
ATOM      3  N   UNL d   1       3.005  -1.298   0.063  0.00  0.00    -0.307 N 
ATOM      4  H   UNL d   1       2.464  -1.992  -0.424  0.00  0.00     0.170 HD
ATOM      5  O   UNL d   1       3.042   0.864   0.905  0.00  0.00    -0.267 OA
BRANCH   3   6
ATOM      6  C   UNL d   1       4.302  -1.663   0.390  0.00  0.00     0.130 A 
ATOM      7  N   UNL d   1       5.187  -0.905   1.042  0.00  0.00    -0.245 N 
ATOM      8  O   UNL d   1       6.307  -1.682   1.237  0.00  0.00    -0.241 OA
ATOM      9  HN  UNL d   1       5.058   0.062   1.340  1.00  0.00     0.196 HD
ATOM     10  C   UNL d   1       6.098  -2.912   0.704  0.00  0.00     0.076 A 
ATOM     11  C   UNL d   1       4.856  -2.941   0.119  0.00  0.00     0.084 A 
ATOM     12  C   UNL d   1       7.181  -3.891   0.898  0.00  0.00     0.079 C 
ENDBRANCH   3   6
ENDBRANCH   1   2
BRANCH   1  13
ATOM     13  C   UNL d   1       0.174  -1.096   0.306  0.00  0.00     0.036 C 
ATOM     14  C   UNL d   1      -1.244  -1.141   0.135  0.00  0.00     0.005 A 
ATOM     15  S   UNL d   1      -2.188  -2.106   1.210  0.00  0.00    -0.102 SA
ATOM     16  C   UNL d   1      -2.058  -0.572  -0.831  0.00  0.00     0.019 A 
ATOM     17  C   UNL d   1      -3.644  -1.727   0.403  0.00  0.00     0.050 A 
ATOM     18  C   UNL d   1      -3.435  -0.900  -0.674  0.00  0.00     0.008 A 
ENDBRANCH   1  13
BRANCH   1  19
ATOM     19  C   UNL d   1       0.416   1.356   0.088  0.00  0.00    -0.013 A 
ATOM     20  C   UNL d   1       0.128   2.123   1.199  0.00  0.00     0.062 A 
ATOM     21  S   UNL d   1      -0.462   3.674   0.780  0.00  0.00    -0.113 SA
ATOM     22  C   UNL d   1      -0.311   3.335  -0.890  0.00  0.00     0.050 A 
ATOM     23  C   UNL d   1       0.182   2.070  -1.125  0.00  0.00     0.020 A 
ENDBRANCH   1  19
TORSDOF 4
