REMARK  8 active torsions:
REMARK  status: ('A' for Active; 'I' for Inactive)
REMARK    1  A    between atoms: C_2  and  S_1 
REMARK    2  A    between atoms: N_4  and  S_1 
REMARK    3  A    between atoms: C_10  and  C_3 
REMARK    4  A    between atoms: C_15  and  N_4 
REMARK    5  A    between atoms: C_16  and  N_4 
REMARK    6  A    between atoms: C_6  and  C_11 
REMARK    7  A    between atoms: C_27  and  C_15 
REMARK    8  A    between atoms: C_26  and  C_16 
ROOT
ATOM      1  S   UNL d   1       1.085  -0.139   0.188  0.00  0.00     0.268 S 
ATOM      2  O   UNL d   1       2.260  -0.268   1.022  0.00  0.00    -0.200 OA
ATOM      3  O   UNL d   1       0.053  -1.156   0.223  0.00  0.00    -0.200 OA
ENDROOT
BRANCH   1   4
ATOM      4  C   UNL d   1       1.733  -0.250  -1.476  0.00  0.00     0.121 A 
ATOM      5  S   UNL d   1       0.581  -0.318  -2.737  0.00  0.00    -0.074 SA
ATOM      6  C   UNL d   1       1.768  -0.685  -3.907  0.00  0.00     0.035 A 
ATOM      7  C   UNL d   1       3.040  -0.631  -3.374  0.00  0.00     0.023 A 
ATOM      8  C   UNL d   1       3.020  -0.363  -1.970  0.00  0.00     0.034 A 
BRANCH   6   9
ATOM      9  C   UNL d   1       1.446  -1.054  -5.324  0.00  0.00     0.074 A 
ATOM     10  C   UNL d   1       0.157  -1.109  -5.903  0.00  0.00     0.077 A 
ATOM     11  C   UNL d   1       0.373  -1.552  -7.187  0.00  0.00     0.184 A 
ATOM     12  O   UNL d   1       1.707  -1.737  -7.373  0.00  0.00    -0.233 OA
ATOM     13  N   UNL d   1       2.385  -1.418  -6.208  0.00  0.00    -0.260 N 
ATOM     14  HN  UNL d   1       3.392  -1.454  -6.055  1.00  0.00     0.195 HD
BRANCH  11  15
ATOM     15  C   UNL d   1      -0.505  -1.854  -8.329  0.00  0.00     0.441 C 
ATOM     16  F   UNL d   1      -1.804  -1.569  -8.049  0.00  0.00    -0.164 F 
ATOM     17  F   UNL d   1      -0.181  -1.135  -9.434  0.00  0.00    -0.164 F 
ATOM     18  F   UNL d   1      -0.464  -3.164  -8.678  0.00  0.00    -0.164 F 
ENDBRANCH  11  15
ENDBRANCH   6   9
ENDBRANCH   1   4
BRANCH   1  19
ATOM     19  N   UNL d   1       0.388   1.382   0.388  0.00  0.00    -0.295 N 
BRANCH  19  20
ATOM     20  C   UNL d   1      -1.042   1.552   0.047  0.00  0.00     0.192 C 
BRANCH  20  21
ATOM     21  C   UNL d   1      -2.044   0.791   0.901  0.00  0.00     0.027 A 
ATOM     22  N   UNL d   1      -2.042   1.019   2.242  0.00  0.00    -0.368 N 
ATOM     23  C   UNL d   1      -2.935   0.325   2.986  0.00  0.00     0.088 A 
ATOM     24  HN  UNL d   1      -1.395   1.683   2.668  1.00  0.00     0.165 HD
ATOM     25  C   UNL d   1      -3.855  -0.569   2.462  0.00  0.00     0.017 A 
ATOM     26  C   UNL d   1      -3.860  -0.775   1.090  0.00  0.00     0.003 A 
ATOM     27  C   UNL d   1      -2.945  -0.088   0.297  0.00  0.00     0.027 A 
ENDBRANCH  20  21
ENDBRANCH  19  20
BRANCH  19  28
ATOM     28  C   UNL d   1       0.828   2.157   1.574  0.00  0.00     0.192 C 
BRANCH  28  29
ATOM     29  C   UNL d   1       2.279   2.618   1.536  0.00  0.00     0.027 A 
ATOM     30  N   UNL d   1       2.836   2.906   0.327  0.00  0.00    -0.368 N 
ATOM     31  C   UNL d   1       4.134   3.284   0.320  0.00  0.00     0.088 A 
ATOM     32  HN  UNL d   1       2.297   2.841  -0.536  1.00  0.00     0.165 HD
ATOM     33  C   UNL d   1       4.909   3.416   1.460  0.00  0.00     0.017 A 
ATOM     34  C   UNL d   1       4.318   3.152   2.689  0.00  0.00     0.003 A 
ATOM     35  C   UNL d   1       2.985   2.752   2.731  0.00  0.00     0.027 A 
ENDBRANCH  28  29
ENDBRANCH  19  28
ENDBRANCH   1  19
TORSDOF 8
