REMARK  9 active torsions:
REMARK  status: ('A' for Active; 'I' for Inactive)
REMARK    1  A    between atoms: C_2  and  C_1 
REMARK    2  A    between atoms: C_4  and  C_1 
REMARK    3  A    between atoms: C_8  and  C_2 
REMARK    4  A    between atoms: C_3  and  C_6 
REMARK    5  A    between atoms: O_15  and  C_3 
REMARK    6  A    between atoms: C_5  and  C_4 
REMARK    7  A    between atoms: S_12  and  C_4 
REMARK    8  A    between atoms: C_6  and  C_13 
REMARK    9  A    between atoms: C_13  and  S_12 
ROOT
ATOM      1  C   UNL d   1       2.474  -0.124   0.010  0.00  0.00     0.087 C 
ENDROOT
BRANCH   1   2
ATOM      2  C   UNL d   1       0.949  -0.074  -0.152  0.00  0.00     0.104 C 
BRANCH   2   3
ATOM      3  C   UNL d   1       0.402   1.317  -0.413  0.00  0.00     0.161 C 
ATOM      4  O   UNL d   1       1.121   2.267  -0.711  0.00  0.00    -0.292 OA
BRANCH   3   5
ATOM      5  C   UNL d   1      -1.083   1.497  -0.373  0.00  0.00     0.010 A 
ATOM      6  C   UNL d   1      -1.960   0.407  -0.270  0.00  0.00     0.015 A 
ATOM      7  C   UNL d   1      -3.341   0.613  -0.253  0.00  0.00     0.001 A 
ATOM      8  C   UNL d   1      -3.855   1.904  -0.342  0.00  0.00     0.000 A 
ATOM      9  C   UNL d   1      -2.991   2.993  -0.449  0.00  0.00     0.001 A 
ATOM     10  C   UNL d   1      -1.609   2.791  -0.465  0.00  0.00     0.015 A 
ENDBRANCH   3   5
ENDBRANCH   2   3
ENDBRANCH   1   2
BRANCH   1  11
ATOM     11  C   UNL d   1       2.948   0.633   1.250  0.00  0.00    -0.044 A 
ATOM     12  C   UNL d   1       2.486   0.310   2.539  0.00  0.00     0.010 A 
ATOM     13  C   UNL d   1       2.901   1.043   3.654  0.00  0.00     0.024 A 
ATOM     14  C   UNL d   1       3.787   2.105   3.493  0.00  0.00     0.034 A 
ATOM     15  C   UNL d   1       4.264   2.437   2.228  0.00  0.00     0.024 A 
ATOM     16 CL   UNL d   1       4.288   3.014   4.865  0.00  0.00    -0.084 Cl
ATOM     17  C   UNL d   1       3.848   1.704   1.112  0.00  0.00     0.010 A 
ENDBRANCH   1  11
BRANCH   1  18
ATOM     18  S   UNL d   1       3.063  -1.890   0.130  0.00  0.00    -0.159 SA
BRANCH  18  19
ATOM     19  C   UNL d   1       2.504  -2.553  -1.476  0.00  0.00     0.085 C 
BRANCH  19  20
ATOM     20  C   UNL d   1       2.887  -4.025  -1.584  0.00  0.00     0.120 C 
BRANCH  20  21
ATOM     21  C   UNL d   1       2.369  -4.606  -2.875  0.00  0.00     0.140 C 
ATOM     22  O   UNL d   1       1.743  -3.989  -3.723  0.00  0.00    -0.650 OA
BRANCH  21  23
ATOM     23  O   UNL d   1       2.661  -5.920  -3.004  0.00  0.00    -0.776 OA
ATOM     24  H   UNL d   1       3.162  -6.292  -2.253  0.00  0.00     0.167 HD
ENDBRANCH  21  23
ENDBRANCH  20  21
ENDBRANCH  19  20
ENDBRANCH  18  19
ENDBRANCH   1  18
TORSDOF 9
