REMARK  4 active torsions:
REMARK  status: ('A' for Active; 'I' for Inactive)
REMARK    1  A    between atoms: C_6  and  C_1 
REMARK    2  A    between atoms: O_12  and  C_2 
REMARK    3  A    between atoms: C_10  and  N_4 
REMARK    4  A    between atoms: C_14  and  C_10 
ROOT
ATOM      1  N   UNL d   1      -1.465   3.987  -0.099  0.00  0.00    -0.388 N 
ATOM      2  HN  UNL d   1      -1.570   4.999  -0.174  1.00  0.00     0.159 HD
ATOM      3  C   UNL d   1      -0.287   3.456  -0.018  0.00  0.00     0.014 C 
ATOM      4  C   UNL d   1      -0.003   1.967   0.034  0.00  0.00     0.068 C 
ENDROOT
BRANCH   3   5
ATOM      5  C   UNL d   1       0.892   4.387  -0.008  0.00  0.00     0.022 A 
ATOM      6  C   UNL d   1       0.802   5.658  -0.605  0.00  0.00     0.099 A 
ATOM      7  C   UNL d   1       1.910   6.516  -0.598  0.00  0.00     0.069 A 
ATOM      8 CL   UNL d   1       1.847   8.077  -1.335  0.00  0.00    -0.081 Cl
ATOM      9  C   UNL d   1       3.100   6.128   0.019  0.00  0.00     0.050 A 
ATOM     10  C   UNL d   1       3.179   4.878   0.622  0.00  0.00     0.036 A 
ATOM     11  C   UNL d   1       2.090   4.005   0.610  0.00  0.00     0.040 A 
ATOM     12 CL   UNL d   1       4.638   4.402   1.403  0.00  0.00    -0.084 Cl
BRANCH   6  13
ATOM     13  O   UNL d   1      -0.354   6.085  -1.210  0.00  0.00    -0.358 OA
ATOM     14  H   UNL d   1      -1.075   5.464  -0.954  0.00  0.00     0.217 HD
ENDBRANCH   6  13
ENDBRANCH   3   5
BRANCH   1  15
ATOM     15  C   UNL d   1      -2.648   3.119  -0.083  0.00  0.00     0.158 C 
BRANCH  15  16
ATOM     16  C   UNL d   1      -3.950   3.891  -0.116  0.00  0.00    -0.041 A 
ATOM     17  C   UNL d   1      -5.078   3.317  -0.720  0.00  0.00     0.009 A 
ATOM     18  C   UNL d   1      -6.308   3.978  -0.711  0.00  0.00     0.001 A 
ATOM     19  C   UNL d   1      -6.428   5.218  -0.089  0.00  0.00     0.000 A 
ATOM     20  C   UNL d   1      -5.319   5.796   0.526  0.00  0.00     0.001 A 
ATOM     21  C   UNL d   1      -4.089   5.135   0.520  0.00  0.00     0.009 A 
ENDBRANCH  15  16
ENDBRANCH   1  15
TORSDOF 4
