REMARK  2 active torsions:
REMARK  status: ('A' for Active; 'I' for Inactive)
REMARK    1  A    between atoms: N_7  and  N_9 
REMARK    2  A    between atoms: C_13  and  C_12 
ROOT
ATOM      1  C   UNL d   1      -2.094  -0.763  -0.093  0.00  0.00     0.164 A 
ATOM      2  N   UNL d   1      -1.057  -1.563   0.026  0.00  0.00    -0.334 N 
ATOM      3  HN  UNL d   1      -1.111  -2.579   0.104  1.00  0.00     0.168 HD
ATOM      4  S   UNL d   1      -1.704   0.915  -0.205  0.00  0.00    -0.051 SA
ATOM      5  C   UNL d   1       0.120  -0.831   0.031  0.00  0.00     0.051 A 
ATOM      6  C   UNL d   1      -0.034   0.550  -0.090  0.00  0.00     0.035 A 
ATOM      7  N   UNL d   1      -3.373  -1.221  -0.127  0.00  0.00    -0.280 N 
ATOM      8  C   UNL d   1       1.425  -1.355   0.143  0.00  0.00     0.031 A 
ATOM      9  C   UNL d   1       1.064   1.427  -0.105  0.00  0.00     0.021 A 
ATOM     10  C   UNL d   1       2.527  -0.492   0.129  0.00  0.00     0.002 A 
ATOM     11  C   UNL d   1       2.346   0.882   0.006  0.00  0.00     0.002 A 
ATOM     12  H   UNL d   1      -3.475  -2.229  -0.044  0.00  0.00     0.189 HD
ENDROOT
BRANCH   7  13
ATOM     13  N   UNL d   1      -4.460  -0.411  -0.208  0.00  0.00    -0.309 N 
ATOM     14  C   UNL d   1      -5.616  -0.989  -0.236  0.00  0.00     0.120 C 
ATOM     15  HN  UNL d   1      -4.369   0.605  -0.245  1.00  0.00     0.186 HD
BRANCH  14  16
ATOM     16  C   UNL d   1      -6.844  -0.182  -0.314  0.00  0.00    -0.004 A 
ATOM     17  C   UNL d   1      -8.084  -0.800  -0.342  0.00  0.00     0.100 A 
ATOM     18  N   UNL d   1      -9.256  -0.123  -0.407  0.00  0.00    -0.374 N 
ATOM     19  C   UNL d   1      -9.178   1.227  -0.444  0.00  0.00     0.087 A 
ATOM     20  HN  UNL d   1     -10.154  -0.608  -0.426  1.00  0.00     0.164 HD
ATOM     21  C   UNL d   1      -7.985   1.932  -0.422  0.00  0.00     0.018 A 
ATOM     22  C   UNL d   1      -6.796   1.212  -0.357  0.00  0.00     0.015 A 
ENDBRANCH  14  16
ENDBRANCH   7  13
TORSDOF 2
