REMARK  1 active torsions:
REMARK  status: ('A' for Active; 'I' for Inactive)
REMARK    1  A    between atoms: C_12  and  N_2 
ROOT
ATOM      1  C   UNL d   1       2.824   0.499  -0.598  0.00  0.00     0.036 C 
ATOM      2  N   UNL d   1       3.868  -0.336  -1.170  0.00  0.00    -0.248 NA
ATOM      3  C   UNL d   1       1.609   0.077  -0.051  0.00  0.00     0.013 A 
ATOM      4  C   UNL d   1       3.132   1.859  -0.672  0.00  0.00    -0.012 C 
ATOM      5  N   UNL d   1       1.174   2.392   0.551  0.00  0.00    -0.359 N 
ATOM      6  HN  UNL d   1       0.589   3.078   1.030  1.00  0.00     0.166 HD
ATOM      7  C   UNL d   1       0.803   1.093   0.506  0.00  0.00     0.044 A 
ATOM      8  C   UNL d   1       2.328   2.776  -0.043  0.00  0.00     0.013 C 
ATOM      9  C   UNL d   1       4.434   0.667  -2.136  0.00  0.00     0.106 C 
ATOM     10  C   UNL d   1       4.379   2.046  -1.457  0.00  0.00     0.057 C 
ATOM     11  C   UNL d   1       1.131  -1.252  -0.107  0.00  0.00     0.022 A 
ATOM     12  C   UNL d   1      -0.443   0.745   1.000  0.00  0.00     0.031 A 
ATOM     13  C   UNL d   1      -0.151  -1.573   0.356  0.00  0.00    -0.061 A 
ATOM     14  C   UNL d   1      -0.934  -0.562   0.915  0.00  0.00     0.009 A 
ATOM     15  C   UNL d   1       2.696   4.223   0.025  0.00  0.00     0.068 C 
ATOM     16  C   UNL d   1      -0.719  -2.946   0.157  0.00  0.00     0.048 C 
ENDROOT
BRANCH   2  17
ATOM     17  C   UNL d   1       4.979  -0.801  -0.371  0.00  0.00     0.015 A 
ATOM     18  C   UNL d   1       5.186  -0.383   0.954  0.00  0.00     0.024 A 
ATOM     19  C   UNL d   1       6.377  -0.683   1.623  0.00  0.00     0.002 A 
ATOM     20  C   UNL d   1       7.364  -1.435   0.991  0.00  0.00     0.000 A 
ATOM     21  C   UNL d   1       7.146  -1.921  -0.296  0.00  0.00     0.002 A 
ATOM     22  C   UNL d   1       5.957  -1.618  -0.965  0.00  0.00     0.024 A 
ENDBRANCH   2  17
TORSDOF 1
