REMARK  4 active torsions:
REMARK  status: ('A' for Active; 'I' for Inactive)
REMARK    1  A    between atoms: N_7  and  N_1 
REMARK    2  A    between atoms: C_11  and  C_4 
REMARK    3  A    between atoms: C_13  and  C_9 
REMARK    4  A    between atoms: C_14  and  C_12 
ROOT
ATOM      1  N   UNL d   1       1.514  -1.001  -0.178  0.00  0.00    -0.201 N 
ATOM      2  N   UNL d   1      -0.643  -0.345   0.014  0.00  0.00    -0.336 N 
ATOM      3  HN  UNL d   1      -1.658  -0.378   0.112  1.00  0.00     0.168 HD
ATOM      4  C   UNL d   1       0.185  -1.350  -0.070  0.00  0.00     0.141 A 
ATOM      5  C   UNL d   1       1.597   0.373  -0.174  0.00  0.00     0.295 A 
ATOM      6  C   UNL d   1       0.161   0.770  -0.058  0.00  0.00     0.105 A 
ATOM      7  C   UNL d   1      -0.211   2.054  -0.043  0.00  0.00     0.046 C 
ATOM      8  O   UNL d   1       2.543   1.136  -0.250  0.00  0.00    -0.264 OA
ENDROOT
BRANCH   1   9
ATOM      9  N   UNL d   1       2.527  -1.916  -0.282  0.00  0.00    -0.300 N 
ATOM     10  C   UNL d   1       3.759  -1.526  -0.282  0.00  0.00     0.119 C 
ATOM     11  HN  UNL d   1       2.309  -2.909  -0.359  1.00  0.00     0.186 HD
BRANCH  10  12
ATOM     12  C   UNL d   1       4.865  -2.487  -0.490  0.00  0.00    -0.019 A 
ATOM     13  C   UNL d   1       4.620  -3.851  -0.688  0.00  0.00     0.013 A 
ATOM     14  C   UNL d   1       5.685  -4.718  -0.932  0.00  0.00     0.001 A 
ATOM     15  C   UNL d   1       6.990  -4.227  -0.973  0.00  0.00     0.000 A 
ATOM     16  C   UNL d   1       7.235  -2.869  -0.765  0.00  0.00     0.001 A 
ATOM     17  C   UNL d   1       6.173  -1.997  -0.524  0.00  0.00     0.013 A 
ENDBRANCH  10  12
ENDBRANCH   1   9
BRANCH   4  18
ATOM     18  C   UNL d   1      -0.272  -2.761   0.006  0.00  0.00     0.010 A 
ATOM     19  C   UNL d   1       0.378  -3.808  -0.656  0.00  0.00     0.015 A 
ATOM     20  C   UNL d   1      -0.042  -5.128  -0.475  0.00  0.00     0.001 A 
ATOM     21  C   UNL d   1      -1.139  -5.406   0.338  0.00  0.00     0.000 A 
ATOM     22  C   UNL d   1      -1.831  -4.363   0.953  0.00  0.00     0.001 A 
ATOM     23  C   UNL d   1      -1.402  -3.044   0.785  0.00  0.00     0.015 A 
ENDBRANCH   4  18
BRANCH   7  24
ATOM     24  C   UNL d   1      -1.602   2.496   0.043  0.00  0.00    -0.034 A 
ATOM     25  C   UNL d   1      -2.206   2.689   1.289  0.00  0.00     0.011 A 
ATOM     26  C   UNL d   1      -3.531   3.126   1.365  0.00  0.00     0.001 A 
ATOM     27  C   UNL d   1      -4.254   3.370   0.199  0.00  0.00     0.000 A 
ATOM     28  C   UNL d   1      -3.657   3.175  -1.046  0.00  0.00     0.001 A 
ATOM     29  C   UNL d   1      -2.333   2.739  -1.125  0.00  0.00     0.011 A 
ENDBRANCH   7  24
TORSDOF 4
