REMARK  5 active torsions:
REMARK  status: ('A' for Active; 'I' for Inactive)
REMARK    1  A    between atoms: C_3  and  C_1 
REMARK    2  A    between atoms: N_9  and  C_4 
REMARK    3  A    between atoms: C_5  and  C_6 
REMARK       I    between atoms: C_6  and  N_13 
REMARK    4  A    between atoms: C_23  and  C_11 
REMARK    5  A    between atoms: N_13  and  C_23 
ROOT
ATOM      1  C   UNL d   1       1.002  -4.905  -0.037  0.00  0.00     0.253 C 
ATOM      2  N   UNL d   1       1.448  -4.337  -1.211  0.00  0.00    -0.352 N 
ATOM      3  O   UNL d   1       1.592  -4.807   1.032  0.00  0.00    -0.268 OA
ATOM      4  H   UNL d   1       1.086  -4.669  -2.095  0.00  0.00     0.163 HD
ENDROOT
BRANCH   1   5
ATOM      5  C   UNL d   1      -0.263  -5.673  -0.120  0.00  0.00     0.047 A 
ATOM      6  C   UNL d   1      -0.503  -6.721   0.752  0.00  0.00     0.106 A 
ATOM      7  N   UNL d   1      -1.645  -7.463   0.755  0.00  0.00    -0.351 N 
ATOM      8  C   UNL d   1      -2.635  -7.143  -0.109  0.00  0.00     0.103 A 
ATOM      9  HN  UNL d   1      -1.752  -8.248   1.398  1.00  0.00     0.166 HD
ATOM     10  C   UNL d   1      -2.457  -6.089  -1.010  0.00  0.00     0.049 A 
ATOM     11  C   UNL d   1      -1.270  -5.353  -1.024  0.00  0.00     0.022 A 
BRANCH   8  12
ATOM     12  N   UNL d   1      -3.799  -7.872  -0.092  0.00  0.00    -0.363 N 
ATOM     13  C   UNL d   1      -5.114  -7.301  -0.393  0.00  0.00     0.150 C 
ATOM     14  C   UNL d   1      -6.091  -7.571   0.764  0.00  0.00     0.187 C 
ATOM     15  O   UNL d   1      -6.149  -8.966   1.100  0.00  0.00    -0.388 OA
ATOM     16  C   UNL d   1      -4.849  -9.424   1.517  0.00  0.00     0.187 C 
ATOM     17  C   UNL d   1      -3.810  -9.254   0.400  0.00  0.00     0.150 C 
ENDBRANCH   8  12
ENDBRANCH   1   5
BRANCH   2  18
ATOM     18  C   UNL d   1       2.667  -3.560  -1.229  0.00  0.00     0.169 C 
BRANCH  18  19
ATOM     19  C   UNL d   1       2.931  -3.084  -2.623  0.00  0.00     0.001 A 
ATOM     20  S   UNL d   1       3.863  -4.040  -3.695  0.00  0.00    -0.092 SA
ATOM     21  C   UNL d   1       3.806  -2.861  -4.944  0.00  0.00     0.022 A 
ATOM     22  C   UNL d   1       3.036  -1.780  -4.554  0.00  0.00     0.021 A 
ATOM     23  C   UNL d   1       2.530  -1.909  -3.224  0.00  0.00     0.018 A 
BRANCH  21  24
ATOM     24  C   UNL d   1       4.518  -3.048  -6.191  0.00  0.00     0.021 A 
ATOM     25  S   UNL d   1       5.072  -1.708  -7.118  0.00  0.00    -0.101 SA
ATOM     26  C   UNL d   1       5.803  -2.717  -8.286  0.00  0.00     0.050 A 
ATOM     27  C   UNL d   1       5.617  -4.050  -8.003  0.00  0.00     0.008 A 
ATOM     28  C   UNL d   1       4.875  -4.240  -6.799  0.00  0.00     0.021 A 
ENDBRANCH  21  24
ENDBRANCH  18  19
ENDBRANCH   2  18
TORSDOF 5
