REMARK  2 active torsions:
REMARK  status: ('A' for Active; 'I' for Inactive)
REMARK    1  A    between atoms: C_11  and  C_3 
REMARK    2  A    between atoms: N_14  and  C_4 
ROOT
ATOM      1  N   UNL d   1       1.472   1.029   0.055  0.00  0.00    -0.331 N 
ATOM      2  HN  UNL d   1       1.907   1.951   0.089  1.00  0.00     0.168 HD
ATOM      3  C   UNL d   1       2.218  -0.093  -0.023  0.00  0.00     0.116 A 
ATOM      4  C   UNL d   1       0.136   0.888   0.085  0.00  0.00     0.101 A 
ATOM      5  C   UNL d   1      -0.476  -0.350   0.054  0.00  0.00     0.098 A 
ATOM      6  N   UNL d   1       1.706  -1.337  -0.077  0.00  0.00    -0.350 N 
ATOM      7  HN  UNL d   1       2.304  -2.161  -0.147  1.00  0.00     0.166 HD
ATOM      8  C   UNL d   1      -1.886  -0.526   0.090  0.00  0.00     0.104 C 
ATOM      9  N   UNL d   1      -3.036  -0.685   0.087  0.00  0.00    -0.191 NA
ATOM     10  C   UNL d   1       0.364  -1.436  -0.035  0.00  0.00     0.115 A 
ENDROOT
BRANCH   4  11
ATOM     11  N   UNL d   1      -0.580   2.075   0.236  0.00  0.00    -0.287 NA
ATOM     12  H   UNL d   1       0.061   2.861   0.164  0.00  0.00     0.125 HD
ATOM     13  H   UNL d   1      -1.380   2.171  -0.380  0.00  0.00     0.125 HD
ENDBRANCH   4  11
BRANCH   3  14
ATOM     14  C   UNL d   1       3.684   0.047  -0.042  0.00  0.00     0.011 A 
ATOM     15  C   UNL d   1       4.305   1.300   0.060  0.00  0.00     0.032 A 
ATOM     16  C   UNL d   1       5.689   1.377   0.042  0.00  0.00     0.088 A 
ATOM     17  N   UNL d   1       6.498   0.305  -0.073  0.00  0.00    -0.375 N 
ATOM     18  C   UNL d   1       5.897  -0.897  -0.169  0.00  0.00     0.088 A 
ATOM     19  HN  UNL d   1       7.514   0.399  -0.085  1.00  0.00     0.164 HD
ATOM     20  C   UNL d   1       4.523  -1.072  -0.157  0.00  0.00     0.032 A 
ENDBRANCH   3  14
TORSDOF 2
