REMARK  9 active torsions:
REMARK  status: ('A' for Active; 'I' for Inactive)
REMARK    1  A    between atoms: N_14  and  C_1 
REMARK    2  A    between atoms: C_20  and  N_2 
REMARK    3  A    between atoms: C_16  and  C_4 
REMARK    4  A    between atoms: C_21  and  N_5 
REMARK    5  A    between atoms: C_8  and  S_17 
REMARK       I    between atoms: C_18  and  N_14 
REMARK    6  A    between atoms: O_28  and  C_16 
REMARK    7  A    between atoms: S_17  and  C_27 
REMARK    8  A    between atoms: C_27  and  C_18 
REMARK    9  A    between atoms: C_33  and  O_28 
ROOT
ATOM      1  N   UNL d   1       2.175  -1.637  -0.080  0.00  0.00    -0.310 N 
ATOM      2  C   UNL d   1       2.062  -2.995  -0.554  0.00  0.00     0.233 C 
ATOM      3  O   UNL d   1       1.232  -3.256  -1.411  0.00  0.00    -0.272 OA
ATOM      4  H   UNL d   1       3.024  -1.338   0.389  0.00  0.00     0.170 HD
ENDROOT
BRANCH   2   5
ATOM      5  C   UNL d   1       3.170  -3.901  -0.066  0.00  0.00     0.185 C 
BRANCH   5   6
ATOM      6  S   UNL d   1       2.665  -5.636  -0.029  0.00  0.00    -0.083 SA
BRANCH   6   7
ATOM      7  C   UNL d   1       4.179  -6.387   0.385  0.00  0.00     0.168 A 
ATOM      8  N   UNL d   1       4.380  -7.741   0.625  0.00  0.00    -0.274 N 
ATOM      9  C   UNL d   1       5.690  -7.794   1.106  0.00  0.00     0.146 A 
ATOM     10  C   UNL d   1       6.471  -8.955   1.440  0.00  0.00     0.050 A 
ATOM     11  N   UNL d   1       6.197  -6.574   1.135  0.00  0.00    -0.282 N 
ATOM     12  S   UNL d   1       7.499  -8.938   2.815  0.00  0.00    -0.098 SA
ATOM     13  C   UNL d   1       6.559 -10.164   0.771  0.00  0.00     0.023 A 
ATOM     14  C   UNL d   1       8.011 -10.546   2.545  0.00  0.00     0.050 A 
ATOM     15  C   UNL d   1       7.432 -11.087   1.421  0.00  0.00     0.009 A 
ATOM     16  N   UNL d   1       5.258  -5.699   0.673  0.00  0.00    -0.278 N 
ATOM     17  HN  UNL d   1       7.136  -6.328   1.450  1.00  0.00     0.188 HD
ATOM     18  HN  UNL d   1       5.375  -4.690   0.571  1.00  0.00     0.189 HD
BRANCH   8  19
ATOM     19  C   UNL d   1       3.453  -8.812   0.467  0.00  0.00     0.043 A 
ATOM     20  C   UNL d   1       2.583  -8.834  -0.636  0.00  0.00     0.030 A 
ATOM     21  C   UNL d   1       1.662  -9.873  -0.784  0.00  0.00     0.002 A 
ATOM     22  C   UNL d   1       1.611 -10.899   0.154  0.00  0.00     0.000 A 
ATOM     23  C   UNL d   1       2.481 -10.891   1.243  0.00  0.00     0.002 A 
ATOM     24  C   UNL d   1       3.398  -9.849   1.403  0.00  0.00     0.030 A 
ENDBRANCH   8  19
ENDBRANCH   6   7
ENDBRANCH   5   6
ENDBRANCH   2   5
BRANCH   1  25
ATOM     25  C   UNL d   1       1.239  -0.657  -0.420  0.00  0.00     0.147 A 
ATOM     26  C   UNL d   1      -0.138  -0.724  -0.283  0.00  0.00     0.102 A 
ATOM     27  C   UNL d   1      -0.581   0.570  -0.635  0.00  0.00     0.129 A 
ATOM     28  N   UNL d   1       0.418   1.411  -0.894  0.00  0.00    -0.302 N 
ATOM     29  N   UNL d   1       1.533   0.643  -0.832  0.00  0.00    -0.239 N 
ATOM     30  HN  UNL d   1       0.358   2.409  -1.095  1.00  0.00     0.186 HD
BRANCH  26  31
ATOM     31  C   UNL d   1      -0.951  -1.812   0.215  0.00  0.00     0.298 C 
ATOM     32  O   UNL d   1      -0.486  -2.796   0.773  0.00  0.00    -0.259 OA
BRANCH  31  33
ATOM     33  O   UNL d   1      -2.277  -1.581   0.011  0.00  0.00    -0.318 OA
BRANCH  33  34
ATOM     34  C   UNL d   1      -3.177  -2.651   0.337  0.00  0.00     0.174 C 
ATOM     35  C   UNL d   1      -3.470  -3.432  -0.929  0.00  0.00     0.034 C 
ENDBRANCH  33  34
ENDBRANCH  31  33
ENDBRANCH  26  31
BRANCH  29  36
ATOM     36  C   UNL d   1       2.800   1.188  -1.177  0.00  0.00     0.058 A 
ATOM     37  C   UNL d   1       3.861   0.367  -1.587  0.00  0.00     0.031 A 
ATOM     38  C   UNL d   1       5.104   0.928  -1.888  0.00  0.00     0.002 A 
ATOM     39  C   UNL d   1       5.290   2.305  -1.792  0.00  0.00     0.000 A 
ATOM     40  C   UNL d   1       4.231   3.129  -1.419  0.00  0.00     0.002 A 
ATOM     41  C   UNL d   1       2.983   2.577  -1.125  0.00  0.00     0.031 A 
ENDBRANCH  29  36
ENDBRANCH   1  25
TORSDOF 9
