REMARK  6 active torsions:
REMARK  status: ('A' for Active; 'I' for Inactive)
REMARK    1  A    between atoms: N_12  and  C_3 
REMARK    2  A    between atoms: S_15  and  C_11 
REMARK    3  A    between atoms: C_20  and  N_12 
REMARK    4  A    between atoms: C_18  and  S_15 
REMARK    5  A    between atoms: C_16  and  C_18 
REMARK       I    between atoms: N_19  and  C_16 
REMARK    6  A    between atoms: C_23  and  C_20 
ROOT
ATOM      1  C   UNL d   1       1.301  -0.816  -0.091  0.00  0.00     0.090 A 
ATOM      2  C   UNL d   1       0.746   0.452  -0.125  0.00  0.00     0.043 A 
ATOM      3  C   UNL d   1       1.657   1.521  -0.222  0.00  0.00     0.096 A 
ATOM      4  C   UNL d   1      -1.142  -0.923   0.006  0.00  0.00    -0.008 A 
ATOM      5  N   UNL d   1       2.607  -1.119  -0.133  0.00  0.00    -0.330 N 
ATOM      6  HN  UNL d   1       2.968  -2.072  -0.093  1.00  0.00     0.168 HD
ATOM      7  N   UNL d   1       2.974   1.244  -0.284  0.00  0.00    -0.327 N 
ATOM      8  HN  UNL d   1       3.654   1.999  -0.370  1.00  0.00     0.169 HD
ATOM      9  C   UNL d   1      -0.696   0.382  -0.083  0.00  0.00    -0.029 A 
ATOM     10  S   UNL d   1       0.130  -2.050   0.012  0.00  0.00    -0.075 SA
ATOM     11  C   UNL d   1       3.385  -0.035  -0.233  0.00  0.00     0.146 A 
ATOM     12  C   UNL d   1      -1.646   1.547  -0.105  0.00  0.00     0.041 C 
ATOM     13  C   UNL d   1      -2.580  -1.345   0.057  0.00  0.00     0.051 C 
ATOM     14  C   UNL d   1      -3.102   1.110  -0.326  0.00  0.00     0.009 C 
ATOM     15  C   UNL d   1      -3.486  -0.161   0.462  0.00  0.00    -0.014 C 
ATOM     16  C   UNL d   1      -3.455   0.079   1.975  0.00  0.00     0.010 C 
ENDROOT
BRANCH   3  17
ATOM     17  N   UNL d   1       1.201   2.833  -0.247  0.00  0.00    -0.274 NA
ATOM     18  H   UNL d   1       0.665   3.040   0.590  0.00  0.00     0.129 HD
BRANCH  17  19
ATOM     19  C   UNL d   1       2.151   3.879  -0.579  0.00  0.00     0.132 C 
BRANCH  19  20
ATOM     20  C   UNL d   1       1.426   5.200  -0.456  0.00  0.00    -0.045 A 
ATOM     21  C   UNL d   1       1.619   6.018   0.667  0.00  0.00     0.008 A 
ATOM     22  C   UNL d   1       0.898   7.203   0.810  0.00  0.00     0.001 A 
ATOM     23  C   UNL d   1      -0.025   7.584  -0.162  0.00  0.00     0.000 A 
ATOM     24  C   UNL d   1      -0.233   6.777  -1.279  0.00  0.00     0.001 A 
ATOM     25  C   UNL d   1       0.488   5.591  -1.427  0.00  0.00     0.008 A 
ENDBRANCH  19  20
ENDBRANCH  17  19
ENDBRANCH   3  17
BRANCH  11  26
ATOM     26  S   UNL d   1       5.148  -0.275  -0.221  0.00  0.00    -0.085 SA
BRANCH  26  27
ATOM     27  C   UNL d   1       5.247  -1.949  -0.918  0.00  0.00     0.184 C 
BRANCH  27  28
ATOM     28  C   UNL d   1       4.715  -1.978  -2.339  0.00  0.00     0.225 C 
ATOM     29  O   UNL d   1       5.224  -1.374  -3.277  0.00  0.00    -0.273 OA
ATOM     30  N   UNL d   1       3.606  -2.754  -2.538  0.00  0.00    -0.369 N 
ATOM     31  H   UNL d   1       2.972  -2.920  -1.764  0.00  0.00     0.159 HD
ATOM     32  H   UNL d   1       3.187  -2.680  -3.457  0.00  0.00     0.159 HD
ENDBRANCH  27  28
ENDBRANCH  26  27
ENDBRANCH  11  26
TORSDOF 6
