REMARK  4 active torsions:
REMARK  status: ('A' for Active; 'I' for Inactive)
REMARK    1  A    between atoms: C_3  and  C_1 
REMARK    2  A    between atoms: C_15  and  N_2 
REMARK    3  A    between atoms: C_16  and  C_10 
REMARK    4  A    between atoms: C_17  and  C_11 
ROOT
ATOM      1  C   UNL d   1      -0.382  -2.751  -0.110  0.00  0.00     0.054 A 
ATOM      2  N   UNL d   1      -0.206  -4.850   1.052  0.00  0.00    -0.340 N 
ATOM      3  HN  UNL d   1       0.069  -5.390   1.873  1.00  0.00     0.167 HD
ATOM      4  C   UNL d   1       0.015  -3.507   0.999  0.00  0.00     0.059 A 
ATOM      5  C   UNL d   1      -0.793  -5.454   0.000  0.00  0.00     0.116 A 
ATOM      6  N   UNL d   1      -1.204  -4.803  -1.097  0.00  0.00    -0.351 N 
ATOM      7  HN  UNL d   1      -1.669  -5.286  -1.865  1.00  0.00     0.166 HD
ATOM      8  C   UNL d   1      -0.972  -3.481  -1.130  0.00  0.00     0.107 A 
ENDROOT
BRANCH   1   9
ATOM      9  C   UNL d   1      -0.121  -1.330  -0.303  0.00  0.00     0.152 A 
ATOM     10  N   UNL d   1      -0.980  -0.382  -0.859  0.00  0.00    -0.224 N 
ATOM     11  N   UNL d   1      -0.265   0.743  -1.097  0.00  0.00     0.001 NA
ATOM     12  N   UNL d   1       0.930   0.538  -0.574  0.00  0.00    -0.007 NA
ATOM     13  N   UNL d   1       1.043  -0.735  -0.099  0.00  0.00    -0.269 N 
ATOM     14  HN  UNL d   1       1.869  -1.150   0.332  1.00  0.00     0.185 HD
BRANCH  10  15
ATOM     15  C   UNL d   1      -2.362  -0.436  -1.165  0.00  0.00     0.056 A 
ATOM     16  C   UNL d   1      -3.238  -1.266  -0.456  0.00  0.00     0.032 A 
ATOM     17  C   UNL d   1      -4.598  -1.281  -0.781  0.00  0.00     0.009 A 
ATOM     18  C   UNL d   1      -5.095  -0.479  -1.815  0.00  0.00    -0.062 A 
ATOM     19  C   UNL d   1      -4.214   0.346  -2.522  0.00  0.00     0.009 A 
ATOM     20  C   UNL d   1      -6.567  -0.458  -2.105  0.00  0.00     0.048 C 
ATOM     21  C   UNL d   1      -2.858   0.379  -2.193  0.00  0.00     0.032 A 
ENDBRANCH  10  15
ENDBRANCH   1   9
BRANCH   4  22
ATOM     22  C   UNL d   1       0.757  -2.984   2.180  0.00  0.00    -0.008 A 
ATOM     23  C   UNL d   1       1.755  -3.775   2.790  0.00  0.00     0.015 A 
ATOM     24  C   UNL d   1       2.562  -3.279   3.821  0.00  0.00     0.024 A 
ATOM     25  C   UNL d   1       2.388  -1.974   4.265  0.00  0.00     0.034 A 
ATOM     26  C   UNL d   1       1.375  -1.188   3.731  0.00  0.00     0.024 A 
ATOM     27 CL   UNL d   1       3.432  -1.329   5.469  0.00  0.00    -0.084 Cl
ATOM     28  C   UNL d   1       0.550  -1.701   2.722  0.00  0.00     0.015 A 
ENDBRANCH   4  22
BRANCH   5  29
ATOM     29  C   UNL d   1      -0.933  -6.924   0.013  0.00  0.00     0.008 A 
ATOM     30  C   UNL d   1      -1.531  -7.610  -1.066  0.00  0.00     0.015 A 
ATOM     31  C   UNL d   1      -1.634  -9.006  -1.080  0.00  0.00     0.001 A 
ATOM     32  C   UNL d   1      -1.139  -9.748  -0.015  0.00  0.00     0.000 A 
ATOM     33  C   UNL d   1      -0.549  -9.100   1.066  0.00  0.00     0.001 A 
ATOM     34  C   UNL d   1      -0.449  -7.703   1.078  0.00  0.00     0.015 A 
ENDBRANCH   5  29
TORSDOF 4
