REMARK  5 active torsions:
REMARK  status: ('A' for Active; 'I' for Inactive)
REMARK    1  A    between atoms: C_8  and  C_1 
REMARK    2  A    between atoms: C_10  and  C_2 
REMARK    3  A    between atoms: C_9  and  C_3 
REMARK    4  A    between atoms: O_17  and  C_9 
REMARK    5  A    between atoms: O_18  and  C_10 
ROOT
ATOM      1  C   UNL d   1      -0.060  -1.815   0.064  0.00  0.00     0.019 A 
ATOM      2  C   UNL d   1      -1.215  -1.008   0.138  0.00  0.00     0.072 A 
ATOM      3  C   UNL d   1       1.186  -1.163  -0.042  0.00  0.00     0.072 A 
ATOM      4  N   UNL d   1       0.106   0.988  -0.112  0.00  0.00    -0.362 N 
ATOM      5  HN  UNL d   1       0.165   2.001  -0.214  1.00  0.00     0.165 HD
ATOM      6  C   UNL d   1       1.232   0.232  -0.099  0.00  0.00     0.023 A 
ATOM      7  C   UNL d   1      -1.100   0.379   0.011  0.00  0.00     0.023 A 
ATOM      8  C   UNL d   1      -2.276   1.312   0.061  0.00  0.00     0.069 C 
ATOM      9  C   UNL d   1       2.522   1.001  -0.133  0.00  0.00     0.069 C 
ENDROOT
BRANCH   1  10
ATOM     10  C   UNL d   1      -0.140  -3.290   0.069  0.00  0.00     0.017 A 
ATOM     11  S   UNL d   1      -1.062  -4.093  -1.144  0.00  0.00    -0.101 SA
ATOM     12  C   UNL d   1      -0.649  -5.635  -0.541  0.00  0.00     0.050 A 
ATOM     13  C   UNL d   1       0.223  -5.556   0.520  0.00  0.00     0.008 A 
ATOM     14  C   UNL d   1       0.511  -4.205   0.877  0.00  0.00     0.020 A 
ENDBRANCH   1  10
BRANCH   2  15
ATOM     15  C   UNL d   1      -2.518  -1.596   0.490  0.00  0.00     0.179 C 
ATOM     16  O   UNL d   1      -2.772  -2.195   1.514  0.00  0.00    -0.646 OA
BRANCH  15  17
ATOM     17  O   UNL d   1      -3.426  -1.417  -0.484  0.00  0.00    -0.773 OA
ATOM     18  H   UNL d   1      -4.231  -1.866  -0.145  0.00  0.00     0.167 HD
ENDBRANCH  15  17
ENDBRANCH   2  15
BRANCH   3  19
ATOM     19  C   UNL d   1       2.463  -1.901  -0.051  0.00  0.00     0.179 C 
ATOM     20  O   UNL d   1       3.316  -1.758   0.808  0.00  0.00    -0.646 OA
BRANCH  19  21
ATOM     21  O   UNL d   1       2.621  -2.685  -1.138  0.00  0.00    -0.773 OA
ATOM     22  H   UNL d   1       1.842  -2.761  -1.724  0.00  0.00     0.167 HD
ENDBRANCH  19  21
ENDBRANCH   3  19
TORSDOF 5
