REMARK  4 active torsions:
REMARK  status: ('A' for Active; 'I' for Inactive)
REMARK    1  A    between atoms: C_2  and  C_1 
REMARK    2  A    between atoms: C_7  and  C_1 
REMARK    3  A    between atoms: C_15  and  C_10 
REMARK    4  A    between atoms: C_16  and  C_15 
ROOT
ATOM      1  C   UNL d   1      -0.156   1.994   1.078  0.00  0.00     0.117 A 
ATOM      2  N   UNL d   1       1.036   2.627   1.340  0.00  0.00    -0.326 N 
ATOM      3  HN  UNL d   1       1.979   2.352   1.067  1.00  0.00     0.169 HD
ATOM      4  N   UNL d   1      -1.234   2.601   1.600  0.00  0.00    -0.246 N 
ATOM      5  HN  UNL d   1      -2.212   2.317   1.538  1.00  0.00     0.196 HD
ATOM      6  C   UNL d   1       0.651   3.674   2.031  0.00  0.00     0.148 A 
ATOM      7  O   UNL d   1      -0.696   3.713   2.248  0.00  0.00    -0.223 OA
ENDROOT
BRANCH   1   8
ATOM      8  C   UNL d   1      -0.271   0.936  -0.033  0.00  0.00     0.049 A 
ATOM      9  C   UNL d   1      -1.285   1.181  -1.144  0.00  0.00     0.024 A 
ATOM     10  C   UNL d   1       0.185   1.369  -1.416  0.00  0.00     0.024 A 
BRANCH   8  11
ATOM     11  C   UNL d   1      -0.076  -0.506   0.429  0.00  0.00    -0.020 A 
ATOM     12  C   UNL d   1       1.177  -1.148   0.534  0.00  0.00     0.043 A 
ATOM     13  C   UNL d   1       1.289  -2.487   0.930  0.00  0.00     0.048 A 
ATOM     14 CL   UNL d   1       2.647  -0.314   0.170  0.00  0.00    -0.084 Cl
ATOM     15  C   UNL d   1       0.146  -3.219   1.235  0.00  0.00     0.035 A 
ATOM     16  C   UNL d   1      -1.105  -2.622   1.157  0.00  0.00     0.024 A 
ATOM     17 CL   UNL d   1       0.280  -4.867   1.707  0.00  0.00    -0.084 Cl
ATOM     18  C   UNL d   1      -1.208  -1.283   0.766  0.00  0.00     0.012 A 
ENDBRANCH   8  11
ENDBRANCH   1   8
BRANCH   6  19
ATOM     19  C   UNL d   1       1.434   4.869   2.438  0.00  0.00     0.095 C 
BRANCH  19  20
ATOM     20  C   UNL d   1       1.974   4.856   3.885  0.00  0.00    -0.044 C 
ATOM     21  C   UNL d   1       2.956   3.693   4.103  0.00  0.00     0.015 C 
ATOM     22  C   UNL d   1       2.731   6.181   4.119  0.00  0.00     0.015 C 
ATOM     23  C   UNL d   1       0.831   4.766   4.911  0.00  0.00     0.015 C 
ENDBRANCH  19  20
ENDBRANCH   6  19
TORSDOF 4
