REMARK  4 active torsions:
REMARK  status: ('A' for Active; 'I' for Inactive)
REMARK    1  A    between atoms: C_12  and  N_3 
REMARK    2  A    between atoms: O_11  and  C_9 
REMARK    3  A    between atoms: C_16  and  O_11 
REMARK    4  A    between atoms: C_17  and  C_12 
ROOT
ATOM      1  C   UNL d   1      -0.158  -0.848  -0.122  0.00  0.00     0.147 A 
ATOM      2  C   UNL d   1      -0.405   0.493  -0.132  0.00  0.00     0.151 A 
ATOM      3  N   UNL d   1       1.922   0.877  -0.011  0.00  0.00    -0.260 N 
ATOM      4  N   UNL d   1      -1.294  -1.582  -0.145  0.00  0.00    -0.305 N 
ATOM      5  HN  UNL d   1      -1.380  -2.597  -0.206  1.00  0.00     0.171 HD
ATOM      6  N   UNL d   1       1.103  -1.367  -0.028  0.00  0.00    -0.287 N 
ATOM      7  C   UNL d   1       2.187  -0.500   0.091  0.00  0.00     0.333 A 
ATOM      8  C   UNL d   1       0.648   1.456  -0.110  0.00  0.00     0.282 A 
ATOM      9  C   UNL d   1      -2.263  -0.696  -0.070  0.00  0.00     0.233 A 
ATOM     10  N   UNL d   1      -1.775   0.592  -0.124  0.00  0.00    -0.309 N 
ATOM     11  O   UNL d   1       3.324  -0.938   0.291  0.00  0.00    -0.246 OA
ATOM     12  O   UNL d   1       0.450   2.667  -0.154  0.00  0.00    -0.265 OA
ATOM     13  C   UNL d   1       1.336  -2.796   0.028  0.00  0.00     0.163 C 
ATOM     14  C   UNL d   1      -2.589   1.779  -0.059  0.00  0.00     0.160 C 
ENDROOT
BRANCH   3  15
ATOM     15  C   UNL d   1       3.073   1.769   0.010  0.00  0.00     0.175 C 
BRANCH  15  16
ATOM     16  C   UNL d   1       3.690   1.923  -1.367  0.00  0.00    -0.040 A 
ATOM     17  C   UNL d   1       3.279   2.956  -2.221  0.00  0.00     0.010 A 
ATOM     18  C   UNL d   1       3.812   3.065  -3.508  0.00  0.00     0.019 A 
ATOM     19  C   UNL d   1       4.751   2.135  -3.951  0.00  0.00     0.011 A 
ATOM     20  C   UNL d   1       5.174   1.106  -3.116  0.00  0.00     0.019 A 
ATOM     21 BR   UNL d   1       5.447   2.264  -5.704  0.00  0.00    -0.051 Br
ATOM     22  C   UNL d   1       4.648   1.005  -1.826  0.00  0.00     0.010 A 
ENDBRANCH  15  16
ENDBRANCH   3  15
BRANCH   9  23
ATOM     23  O   UNL d   1      -3.554  -0.993   0.106  0.00  0.00    -0.279 OA
BRANCH  23  24
ATOM     24  C   UNL d   1      -3.879  -2.233   0.620  0.00  0.00     0.079 A 
ATOM     25  C   UNL d   1      -3.179  -2.798   1.696  0.00  0.00     0.039 A 
ATOM     26  C   UNL d   1      -3.502  -4.074   2.156  0.00  0.00     0.022 A 
ATOM     27  C   UNL d   1      -4.552  -4.769   1.562  0.00  0.00     0.011 A 
ATOM     28  C   UNL d   1      -5.284  -4.196   0.521  0.00  0.00     0.022 A 
ATOM     29 BR   UNL d   1      -4.978  -6.507   2.172  0.00  0.00    -0.051 Br
ATOM     30  C   UNL d   1      -4.950  -2.921   0.051  0.00  0.00     0.039 A 
ENDBRANCH  23  24
ENDBRANCH   9  23
TORSDOF 4
