REMARK  4 active torsions:
REMARK  status: ('A' for Active; 'I' for Inactive)
REMARK    1  A    between atoms: C_5  and  N_1 
REMARK    2  A    between atoms: C_7  and  C_5 
REMARK       I    between atoms: N_11  and  C_7 
REMARK    3  A    between atoms: N_9  and  N_11 
REMARK    4  A    between atoms: C_14  and  C_13 
ROOT
ATOM      1  C   UNL d   1       3.746  -2.122  -0.125  0.00  0.00     0.255 C 
ATOM      2  N   UNL d   1       4.411  -0.963   0.217  0.00  0.00    -0.269 N 
ATOM      3  O   UNL d   1       4.322  -3.170  -0.445  0.00  0.00    -0.270 OA
ATOM      4  H   UNL d   1       3.880  -0.182   0.617  0.00  0.00     0.190 HD
ENDROOT
BRANCH   1   5
ATOM      5  C   UNL d   1       2.231  -2.104  -0.145  0.00  0.00     0.251 C 
BRANCH   5   6
ATOM      6  N   UNL d   1       1.518  -0.959   0.395  0.00  0.00    -0.265 N 
ATOM      7  N   UNL d   1       2.117  -0.043   1.184  0.00  0.00    -0.019 NA
ATOM      8  N   UNL d   1       1.180   0.772   1.645  0.00  0.00    -0.282 N 
ATOM      9  C   UNL d   1      -0.028   0.358   1.150  0.00  0.00     0.074 A 
ATOM     10  HN  UNL d   1       1.332   1.569   2.263  1.00  0.00     0.184 HD
ATOM     11  C   UNL d   1       0.163  -0.738   0.316  0.00  0.00     0.077 A 
ATOM     12  C   UNL d   1      -1.322   0.848   1.368  0.00  0.00     0.033 A 
ATOM     13  C   UNL d   1      -0.889  -1.378  -0.350  0.00  0.00     0.033 A 
ATOM     14  C   UNL d   1      -2.177  -0.868  -0.130  0.00  0.00     0.002 A 
ATOM     15  C   UNL d   1      -2.393   0.219   0.721  0.00  0.00     0.002 A 
ENDBRANCH   5   6
ENDBRANCH   1   5
BRANCH   2  16
ATOM     16  N   UNL d   1       5.757  -1.012   0.445  0.00  0.00    -0.308 N 
ATOM     17  C   UNL d   1       6.290   0.081   0.889  0.00  0.00     0.118 C 
ATOM     18  HN  UNL d   1       6.306  -1.854   0.276  1.00  0.00     0.186 HD
BRANCH  17  19
ATOM     19  C   UNL d   1       7.702   0.127   1.321  0.00  0.00    -0.019 A 
ATOM     20  C   UNL d   1       8.504  -1.019   1.259  0.00  0.00     0.014 A 
ATOM     21  C   UNL d   1       9.797  -0.995   1.788  0.00  0.00     0.024 A 
ATOM     22  C   UNL d   1      10.284   0.175   2.371  0.00  0.00     0.034 A 
ATOM     23  C   UNL d   1       9.499   1.329   2.406  0.00  0.00     0.024 A 
ATOM     24 CL   UNL d   1      11.854   0.189   3.075  0.00  0.00    -0.084 Cl
ATOM     25  C   UNL d   1       8.204   1.308   1.878  0.00  0.00     0.014 A 
ENDBRANCH  17  19
ENDBRANCH   2  16
TORSDOF 4
