REMARK  5 active torsions:
REMARK  status: ('A' for Active; 'I' for Inactive)
REMARK    1  A    between atoms: C_3  and  S_1 
REMARK    2  A    between atoms: N_11  and  S_1 
REMARK    3  A    between atoms: C_12  and  C_2 
REMARK    4  A    between atoms: C_8  and  C_15 
REMARK    5  A    between atoms: C_10  and  N_18 
ROOT
ATOM      1  N   UNL d   1       0.756   0.925  -0.161  0.00  0.00    -0.203 NA
ATOM      2  N   UNL d   1      -0.902   2.161   1.980  0.00  0.00    -0.398 N 
ATOM      3  C   UNL d   1       0.965   2.337   0.256  0.00  0.00     0.127 C 
ATOM      4  C   UNL d   1      -0.695   0.597  -0.060  0.00  0.00     0.127 C 
ATOM      5  C   UNL d   1      -1.262   0.878   1.356  0.00  0.00     0.133 C 
ATOM      6  C   UNL d   1       0.475   2.590   1.685  0.00  0.00     0.133 C 
ENDROOT
BRANCH   1   7
ATOM      7  S   UNL d   1       1.784  -0.267   0.497  0.00  0.00     0.250 S 
ATOM      8  O   UNL d   1       1.562  -0.344   1.924  0.00  0.00    -0.205 OA
ATOM      9  O   UNL d   1       1.682  -1.451  -0.329  0.00  0.00    -0.205 OA
BRANCH   7  10
ATOM     10  C   UNL d   1       3.465   0.283   0.360  0.00  0.00     0.116 A 
ATOM     11  S   UNL d   1       4.014   0.684  -1.205  0.00  0.00    -0.075 SA
ATOM     12  C   UNL d   1       5.484   1.309  -0.596  0.00  0.00     0.034 A 
ATOM     13  C   UNL d   1       5.603   1.108   0.763  0.00  0.00     0.023 A 
ATOM     14  C   UNL d   1       4.443   0.495   1.315  0.00  0.00     0.034 A 
BRANCH  12  15
ATOM     15  C   UNL d   1       6.502   2.013  -1.436  0.00  0.00     0.067 A 
ATOM     16  C   UNL d   1       6.496   2.121  -2.841  0.00  0.00     0.068 A 
ATOM     17  C   UNL d   1       7.599   2.885  -3.160  0.00  0.00     0.136 A 
ATOM     18  N   UNL d   1       8.163   3.227  -1.962  0.00  0.00    -0.292 N 
ATOM     19  N   UNL d   1       7.543   2.664  -0.907  0.00  0.00    -0.297 N 
ATOM     20  C   UNL d   1       9.281   4.110  -1.716  0.00  0.00     0.178 C 
ATOM     21  HN  UNL d   1       7.809   2.722   0.077  1.00  0.00     0.187 HD
BRANCH  17  22
ATOM     22  C   UNL d   1       8.116   3.296  -4.479  0.00  0.00     0.434 C 
ATOM     23  F   UNL d   1       9.241   4.049  -4.408  0.00  0.00    -0.165 F 
ATOM     24  F   UNL d   1       8.415   2.220  -5.246  0.00  0.00    -0.165 F 
ATOM     25  F   UNL d   1       7.199   4.025  -5.163  0.00  0.00    -0.165 F 
ENDBRANCH  17  22
ENDBRANCH  12  15
ENDBRANCH   7  10
ENDBRANCH   1   7
BRANCH   2  26
ATOM     26  C   UNL d   1      -1.950   3.189   2.003  0.00  0.00     0.147 C 
ATOM     27  C   UNL d   1      -1.500   4.448   2.753  0.00  0.00    -0.020 A 
ATOM     28  C   UNL d   1      -1.480   5.554   1.875  0.00  0.00    -0.017 A 
ATOM     29  C   UNL d   1      -1.052   4.553   4.064  0.00  0.00     0.010 A 
ATOM     30  C   UNL d   1      -1.009   6.782   2.309  0.00  0.00     0.013 A 
ATOM     31  C   UNL d   1      -1.985   5.136   0.584  0.00  0.00    -0.017 A 
ATOM     32  C   UNL d   1      -0.543   6.891   3.624  0.00  0.00     0.001 A 
ATOM     33  C   UNL d   1      -0.564   5.787   4.493  0.00  0.00     0.001 A 
ATOM     34  C   UNL d   1      -2.338   3.770   0.648  0.00  0.00    -0.020 A 
ATOM     35  C   UNL d   1      -2.169   5.852  -0.588  0.00  0.00     0.013 A 
ATOM     36  C   UNL d   1      -2.990   3.151  -0.408  0.00  0.00     0.010 A 
ATOM     37  C   UNL d   1      -3.173   3.870  -1.588  0.00  0.00     0.001 A 
ATOM     38  C   UNL d   1      -2.746   5.203  -1.684  0.00  0.00     0.001 A 
ENDBRANCH   2  26
TORSDOF 5
