REMARK  8 active torsions:
REMARK  status: ('A' for Active; 'I' for Inactive)
REMARK    1  A    between atoms: N_2  and  S_1 
REMARK    2  A    between atoms: C_4  and  S_1 
REMARK    3  A    between atoms: C_3  and  N_2 
REMARK    4  A    between atoms: O_10  and  C_9 
REMARK    5  A    between atoms: C_19  and  O_10 
REMARK    6  A    between atoms: C_14  and  C_19 
REMARK    7  A    between atoms: C_27  and  C_24 
REMARK    8  A    between atoms: C_28  and  C_27 
ROOT
ATOM      1  C   UNL d   1       0.899  -2.128  -1.710  0.00  0.00     0.128 A 
ATOM      2  N   UNL d   1      -0.107  -1.984  -2.594  0.00  0.00    -0.354 N 
ATOM      3  HN  UNL d   1      -1.016  -1.608  -2.321  1.00  0.00     0.166 HD
ATOM      4  C   UNL d   1       2.167  -2.639  -2.009  0.00  0.00     0.108 A 
ATOM      5  C   UNL d   1       0.157  -2.366  -3.858  0.00  0.00     0.089 A 
ATOM      6  C   UNL d   1       2.392  -3.042  -3.320  0.00  0.00     0.041 A 
ATOM      7  C   UNL d   1       1.373  -2.894  -4.265  0.00  0.00     0.020 A 
ENDROOT
BRANCH   1   8
ATOM      8  N   UNL d   1       0.562  -1.573  -0.454  0.00  0.00    -0.164 NA
ATOM      9  H   UNL d   1      -0.455  -1.586  -0.378  0.00  0.00     0.147 HD
BRANCH   8  10
ATOM     10  S   UNL d   1       1.043   0.026  -0.187  0.00  0.00     0.247 S 
ATOM     11  O   UNL d   1       2.074   0.017   0.831  0.00  0.00    -0.205 OA
ATOM     12  O   UNL d   1      -0.182   0.770   0.029  0.00  0.00    -0.205 OA
BRANCH  10  13
ATOM     13  C   UNL d   1       1.774   0.641  -1.689  0.00  0.00     0.074 A 
ATOM     14  C   UNL d   1       0.964   1.145  -2.710  0.00  0.00     0.025 A 
ATOM     15  C   UNL d   1       1.553   1.608  -3.891  0.00  0.00     0.009 A 
ATOM     16  C   UNL d   1       2.946   1.587  -4.050  0.00  0.00    -0.058 A 
ATOM     17  C   UNL d   1       3.745   1.123  -2.995  0.00  0.00     0.009 A 
ATOM     18  C   UNL d   1       3.165   0.658  -1.816  0.00  0.00     0.025 A 
BRANCH  16  19
ATOM     19  C   UNL d   1       3.577   2.091  -5.327  0.00  0.00     0.038 C 
BRANCH  19  20
ATOM     20  C   UNL d   1       4.450   1.060  -6.053  0.00  0.00     0.000 C 
ATOM     21  C   UNL d   1       3.666  -0.146  -6.549  0.00  0.00     0.005 C 
ENDBRANCH  19  20
ENDBRANCH  16  19
ENDBRANCH  10  13
ENDBRANCH   8  10
ENDBRANCH   1   8
BRANCH   4  22
ATOM     22  O   UNL d   1       3.062  -2.720  -0.989  0.00  0.00    -0.343 OA
BRANCH  22  23
ATOM     23  C   UNL d   1       4.448  -2.827  -1.307  0.00  0.00     0.214 C 
BRANCH  23  24
ATOM     24  C   UNL d   1       5.236  -2.425  -0.080  0.00  0.00    -0.028 A 
ATOM     25  C   UNL d   1       4.767  -2.722   1.210  0.00  0.00     0.051 A 
ATOM     26  C   UNL d   1       5.485  -2.318   2.333  0.00  0.00     0.119 A 
ATOM     27  F   UNL d   1       5.011  -2.597   3.554  0.00  0.00    -0.206 F 
ATOM     28  C   UNL d   1       6.680  -1.627   2.206  0.00  0.00     0.084 A 
ATOM     29  C   UNL d   1       7.160  -1.360   0.933  0.00  0.00     0.119 A 
ATOM     30  C   UNL d   1       6.459  -1.753  -0.207  0.00  0.00     0.051 A 
ATOM     31  F   UNL d   1       8.318  -0.700   0.791  0.00  0.00    -0.206 F 
ENDBRANCH  23  24
ENDBRANCH  22  23
ENDBRANCH   4  22
TORSDOF 8
