REMARK  4 active torsions:
REMARK  status: ('A' for Active; 'I' for Inactive)
REMARK       I    between atoms: C_4  and  N_1 
REMARK    1  A    between atoms: C_5  and  C_4 
REMARK    2  A    between atoms: C_10  and  C_6 
REMARK    3  A    between atoms: O_12  and  C_7 
REMARK    4  A    between atoms: C_19  and  O_12 
ROOT
ATOM      1  C   UNL d   1       3.510  -0.846   0.185  0.00  0.00     0.085 A 
ATOM      2  C   UNL d   1       4.291  -1.103  -0.933  0.00  0.00     0.164 A 
ATOM      3  N   UNL d   1       5.566  -0.631  -1.056  0.00  0.00    -0.346 N 
ATOM      4  HN  UNL d   1       6.137  -0.872  -1.867  1.00  0.00     0.167 HD
ATOM      5  C   UNL d   1       4.053  -0.028   1.187  0.00  0.00     0.023 A 
ATOM      6  C   UNL d   1       6.050   0.160  -0.081  0.00  0.00     0.090 A 
ATOM      7  C   UNL d   1       5.333   0.501   1.046  0.00  0.00     0.018 A 
ENDROOT
BRANCH   1   8
ATOM      8  C   UNL d   1       2.179  -1.467   0.404  0.00  0.00     0.280 C 
ATOM      9  N   UNL d   1       1.118  -0.789   1.040  0.00  0.00    -0.231 N 
ATOM     10  N   UNL d   1       1.125   0.569   1.138  0.00  0.00    -0.290 N 
ATOM     11  C   UNL d   1       0.022  -1.332   1.678  0.00  0.00     0.122 A 
ATOM     12  C   UNL d   1       0.075   0.867   1.911  0.00  0.00     0.067 A 
ATOM     13  HN  UNL d   1       1.787   1.218   0.714  1.00  0.00     0.187 HD
ATOM     14  C   UNL d   1      -0.631  -0.293   2.298  0.00  0.00     0.051 A 
ATOM     15  O   UNL d   1       2.007  -2.654   0.134  0.00  0.00    -0.265 OA
BRANCH  12  16
ATOM     16  C   UNL d   1      -0.238   2.286   2.290  0.00  0.00     0.033 A 
ATOM     17  S   UNL d   1      -1.446   2.750   3.405  0.00  0.00    -0.100 SA
ATOM     18  C   UNL d   1      -1.077   4.410   3.215  0.00  0.00     0.050 A 
ATOM     19  C   UNL d   1      -0.065   4.612   2.303  0.00  0.00     0.008 A 
ATOM     20  C   UNL d   1       0.427   3.381   1.775  0.00  0.00     0.021 A 
ENDBRANCH  12  16
ENDBRANCH   1   8
BRANCH   2  21
ATOM     21  O   UNL d   1       3.767  -1.835  -1.992  0.00  0.00    -0.293 OA
BRANCH  21  22
ATOM     22  C   UNL d   1       4.325  -1.610  -3.235  0.00  0.00     0.077 A 
ATOM     23  C   UNL d   1       4.690  -2.718  -4.000  0.00  0.00     0.037 A 
ATOM     24  C   UNL d   1       5.288  -2.533  -5.251  0.00  0.00     0.003 A 
ATOM     25  C   UNL d   1       5.510  -1.245  -5.739  0.00  0.00     0.000 A 
ATOM     26  C   UNL d   1       5.111  -0.138  -4.992  0.00  0.00     0.003 A 
ATOM     27  C   UNL d   1       4.500  -0.320  -3.752  0.00  0.00     0.037 A 
ENDBRANCH  21  22
ENDBRANCH   2  21
TORSDOF 4
