REMARK  6 active torsions:
REMARK  status: ('A' for Active; 'I' for Inactive)
REMARK    1  A    between atoms: C_4  and  C_1 
REMARK    2  A    between atoms: O_7  and  C_1 
REMARK    3  A    between atoms: C_2  and  C_4 
REMARK    4  A    between atoms: C_3  and  C_8 
REMARK    5  A    between atoms: C_5  and  C_3 
REMARK    6  A    between atoms: C_8  and  O_7 
ROOT
ATOM      1  O   UNL d   1       0.428  -0.944   0.671  0.00  0.00    -0.313 OA
ENDROOT
BRANCH   1   2
ATOM      2  C   UNL d   1       1.041   0.176   0.200  0.00  0.00     0.263 C 
ATOM      3  O   UNL d   1       0.474   1.231  -0.056  0.00  0.00    -0.265 OA
BRANCH   2   4
ATOM      4  C   UNL d   1       2.533  -0.044   0.086  0.00  0.00     0.151 C 
BRANCH   4   5
ATOM      5  C   UNL d   1       3.289   0.434   1.305  0.00  0.00    -0.032 A 
ATOM      6  C   UNL d   1       3.597  -0.370   2.416  0.00  0.00     0.013 A 
ATOM      7  I   UNL d   1       3.121  -2.413   2.541  0.00  0.00    -0.044 I 
ATOM      8  C   UNL d   1       4.269   0.172   3.521  0.00  0.00     0.019 A 
ATOM      9  C   UNL d   1       4.642   1.515   3.534  0.00  0.00     0.001 A 
ATOM     10  C   UNL d   1       4.346   2.323   2.443  0.00  0.00     0.001 A 
ATOM     11  C   UNL d   1       3.672   1.790   1.343  0.00  0.00     0.009 A 
ENDBRANCH   4   5
ENDBRANCH   2   4
ENDBRANCH   1   2
BRANCH   1  12
ATOM     12  C   UNL d   1      -0.993  -0.862   0.797  0.00  0.00     0.262 C 
BRANCH  12  13
ATOM     13  C   UNL d   1      -1.703  -1.131  -0.526  0.00  0.00     0.183 C 
ATOM     14  O   UNL d   1      -1.098  -1.353  -1.574  0.00  0.00    -0.290 OA
BRANCH  13  15
ATOM     15  C   UNL d   1      -3.195  -1.112  -0.543  0.00  0.00     0.012 A 
ATOM     16  C   UNL d   1      -3.841  -0.802  -1.748  0.00  0.00     0.016 A 
ATOM     17  C   UNL d   1      -5.236  -0.791  -1.821  0.00  0.00     0.020 A 
ATOM     18  C   UNL d   1      -5.988  -1.102  -0.692  0.00  0.00     0.011 A 
ATOM     19  C   UNL d   1      -5.357  -1.421   0.511  0.00  0.00     0.020 A 
ATOM     20 BR   UNL d   1      -7.875  -1.106  -0.790  0.00  0.00    -0.051 Br
ATOM     21  C   UNL d   1      -3.960  -1.422   0.589  0.00  0.00     0.016 A 
ENDBRANCH  13  15
ENDBRANCH  12  13
ENDBRANCH   1  12
TORSDOF 6
