REMARK  3 active torsions:
REMARK  status: ('A' for Active; 'I' for Inactive)
REMARK    1  A    between atoms: S_14  and  C_1 
REMARK    2  A    between atoms: C_4  and  C_13 
REMARK    3  A    between atoms: C_13  and  S_14 
ROOT
ATOM      1  C   UNL d   1      -4.503  -1.386   0.297  0.00  0.00     0.122 C 
ENDROOT
BRANCH   1   2
ATOM      2  C   UNL d   1      -3.570  -2.497  -0.185  0.00  0.00    -0.035 C 
ATOM      3  C   UNL d   1      -2.312  -2.169  -0.754  0.00  0.00    -0.048 C 
ATOM      4  C   UNL d   1      -1.301  -3.159  -0.848  0.00  0.00    -0.049 C 
ATOM      5  C   UNL d   1      -2.038  -0.761  -1.237  0.00  0.00     0.049 C 
ATOM      6  C   UNL d   1       0.108  -2.784  -1.265  0.00  0.00     0.049 C 
ATOM      7  C   UNL d   1      -1.598  -4.517  -0.556  0.00  0.00    -0.049 C 
ATOM      8  C   UNL d   1      -2.905  -4.873  -0.138  0.00  0.00    -0.049 C 
ATOM      9  C   UNL d   1      -0.483  -5.539  -0.644  0.00  0.00     0.049 C 
ATOM     10  C   UNL d   1      -3.897  -3.863   0.026  0.00  0.00    -0.048 C 
ATOM     11  C   UNL d   1      -3.291  -6.318   0.108  0.00  0.00     0.049 C 
ATOM     12  C   UNL d   1      -5.302  -4.282   0.409  0.00  0.00     0.049 C 
ENDBRANCH   1   2
BRANCH   1  13
ATOM     13  S   UNL d   1      -5.755  -0.881  -0.908  0.00  0.00    -0.082 SA
BRANCH  13  14
ATOM     14  C   UNL d   1      -6.681   0.257   0.044  0.00  0.00     0.188 A 
ATOM     15  N   UNL d   1      -6.357   0.660   1.259  0.00  0.00    -0.329 N 
ATOM     16  C   UNL d   1      -7.370   1.526   1.601  0.00  0.00     0.068 A 
ATOM     17  HN  UNL d   1      -5.544   0.392   1.815  1.00  0.00     0.168 HD
ATOM     18  C   UNL d   1      -7.603   2.277   2.767  0.00  0.00     0.032 A 
ATOM     19  C   UNL d   1      -8.280   1.613   0.562  0.00  0.00     0.105 A 
ATOM     20  C   UNL d   1      -8.755   3.079   2.818  0.00  0.00     0.002 A 
ATOM     21  C   UNL d   1      -9.649   3.136   1.744  0.00  0.00     0.003 A 
ATOM     22  C   UNL d   1      -9.428   2.394   0.574  0.00  0.00     0.040 A 
ATOM     23  O   UNL d   1      -7.840   0.805  -0.440  0.00  0.00    -0.285 OA
ENDBRANCH  13  14
ENDBRANCH   1  13
TORSDOF 3
