REMARK  3 active torsions:
REMARK  status: ('A' for Active; 'I' for Inactive)
REMARK    1  A    between atoms: C_10  and  C_1 
REMARK    2  A    between atoms: C_7  and  S_12 
REMARK    3  A    between atoms: S_12  and  C_10 
ROOT
ATOM      1  C   UNL d   1      -1.245   1.087   0.022  0.00  0.00    -0.036 C 
ATOM      2  C   UNL d   1       0.023   1.739   0.128  0.00  0.00    -0.048 C 
ATOM      3  C   UNL d   1      -1.282  -0.339  -0.034  0.00  0.00    -0.048 C 
ATOM      4  C   UNL d   1       1.227   0.989   0.014  0.00  0.00    -0.049 C 
ATOM      5  C   UNL d   1      -0.068  -1.089  -0.036  0.00  0.00    -0.049 C 
ATOM      6  C   UNL d   1       1.182  -0.424  -0.030  0.00  0.00    -0.049 C 
ATOM      7  C   UNL d   1      -0.081  -2.607  -0.030  0.00  0.00     0.049 C 
ATOM      8  C   UNL d   1       0.123   3.233   0.351  0.00  0.00     0.049 C 
ATOM      9  C   UNL d   1       2.488  -1.196  -0.056  0.00  0.00     0.049 C 
ATOM     10  C   UNL d   1      -2.581  -1.124  -0.064  0.00  0.00     0.049 C 
ATOM     11  C   UNL d   1       2.576   1.678  -0.028  0.00  0.00     0.049 C 
ENDROOT
BRANCH   1  12
ATOM     12  C   UNL d   1      -2.528   1.923   0.021  0.00  0.00     0.121 C 
BRANCH  12  13
ATOM     13  S   UNL d   1      -2.699   3.018  -1.425  0.00  0.00    -0.101 SA
BRANCH  13  14
ATOM     14  C   UNL d   1      -4.326   3.575  -1.211  0.00  0.00     0.103 C 
ATOM     15  N   UNL d   1      -5.082   3.246  -0.218  0.00  0.00    -0.378 N 
ATOM     16  C   UNL d   1      -6.439   3.790  -0.435  0.00  0.00     0.131 C 
ATOM     17  HN  UNL d   1      -4.788   2.696   0.590  1.00  0.00     0.160 HD
ATOM     18  C   UNL d   1      -6.388   5.000  -1.352  0.00  0.00     0.101 C 
ATOM     19  S   UNL d   1      -4.979   4.651  -2.416  0.00  0.00    -0.104 SA
ENDBRANCH  13  14
ENDBRANCH  12  13
ENDBRANCH   1  12
TORSDOF 3
