REMARK  1 active torsions:
REMARK  status: ('A' for Active; 'I' for Inactive)
REMARK    1  A    between atoms: C_5  and  N_4 
ROOT
ATOM      1  C   UNL d   1       1.306  -3.192   0.260  0.00  0.00     0.056 A 
ATOM      2  C   UNL d   1       2.147  -2.840   1.335  0.00  0.00     0.062 A 
ATOM      3  C   UNL d   1       3.413  -3.412   1.489  0.00  0.00     0.045 A 
ATOM      4  C   UNL d   1       1.775  -4.160  -0.641  0.00  0.00     0.032 A 
ATOM      5  C   UNL d   1       3.853  -4.356   0.566  0.00  0.00     0.012 A 
ATOM      6 CL   UNL d   1       1.639  -1.661   2.497  0.00  0.00    -0.082 Cl
ATOM      7  C   UNL d   1       3.037  -4.740  -0.492  0.00  0.00     0.021 A 
ATOM      8 BR   UNL d   1       5.574  -5.117   0.744  0.00  0.00    -0.051 Br
ENDROOT
BRANCH   1   9
ATOM      9  N   UNL d   1       0.065  -2.548   0.083  0.00  0.00    -0.336 N 
ATOM     10  C   UNL d   1      -0.578  -2.313  -1.094  0.00  0.00     0.140 C 
ATOM     11  N   UNL d   1      -0.239  -2.658  -2.292  0.00  0.00    -0.370 N 
ATOM     12  S   UNL d   1      -2.079  -1.415  -0.944  0.00  0.00    -0.093 SA
ATOM     13  C   UNL d   1      -1.190  -2.108  -3.272  0.00  0.00     0.132 C 
ATOM     14  HN  UNL d   1       0.571  -3.231  -2.526  1.00  0.00     0.161 HD
ATOM     15  C   UNL d   1      -2.541  -1.913  -2.612  0.00  0.00     0.102 C 
ATOM     16  H   UNL d   1      -0.248  -1.996   0.873  0.00  0.00     0.168 HD
ENDBRANCH   1   9
TORSDOF 1
