REMARK  2 active torsions:
REMARK  status: ('A' for Active; 'I' for Inactive)
REMARK    1  A    between atoms: C_3  and  C_4 
REMARK    2  A    between atoms: C_12  and  C_7 
ROOT
ATOM      1  N   UNL d   1       1.382  -0.586  -0.178  0.00  0.00    -0.348 N 
ATOM      2  HN  UNL d   1       2.271  -1.061  -0.334  1.00  0.00     0.166 HD
ATOM      3  C   UNL d   1       1.229   0.786  -0.034  0.00  0.00     0.057 A 
ATOM      4  C   UNL d   1       0.210  -1.189  -0.084  0.00  0.00     0.084 A 
ATOM      5  S   UNL d   1      -1.139  -0.118   0.045  0.00  0.00    -0.081 SA
ATOM      6  C   UNL d   1      -0.074   1.215   0.095  0.00  0.00     0.082 A 
ENDROOT
BRANCH   3   7
ATOM      7  C   UNL d   1       2.412   1.709   0.000  0.00  0.00     0.035 A 
ATOM      8  S   UNL d   1       2.320   3.396   0.284  0.00  0.00    -0.074 SA
ATOM      9  C   UNL d   1       4.004   3.556   0.199  0.00  0.00     0.097 A 
ATOM     10 CL   UNL d   1       4.699   5.111   0.442  0.00  0.00    -0.074 Cl
ATOM     11  C   UNL d   1       4.645   2.372  -0.065  0.00  0.00     0.064 A 
ATOM     12  C   UNL d   1       3.716   1.294  -0.177  0.00  0.00     0.047 A 
ATOM     13 CL   UNL d   1       6.331   2.147  -0.239  0.00  0.00    -0.082 Cl
ENDBRANCH   3   7
BRANCH   4  14
ATOM     14  C   UNL d   1       0.004  -2.650  -0.101  0.00  0.00    -0.002 A 
ATOM     15  C   UNL d   1      -1.049  -3.264   0.600  0.00  0.00     0.016 A 
ATOM     16  C   UNL d   1      -1.217  -4.652   0.583  0.00  0.00     0.024 A 
ATOM     17  C   UNL d   1      -0.328  -5.446  -0.133  0.00  0.00     0.034 A 
ATOM     18  C   UNL d   1       0.730  -4.864  -0.827  0.00  0.00     0.024 A 
ATOM     19 CL   UNL d   1      -0.535  -7.153  -0.152  0.00  0.00    -0.084 Cl
ATOM     20  C   UNL d   1       0.899  -3.473  -0.806  0.00  0.00     0.016 A 
ENDBRANCH   4  14
TORSDOF 2
