REMARK  2 active torsions:
REMARK  status: ('A' for Active; 'I' for Inactive)
REMARK    1  A    between atoms: S_12  and  C_3 
REMARK    2  A    between atoms: N_13  and  C_4 
ROOT
ATOM      1  C   UNL d   1      -0.702   1.239   0.009  0.00  0.00     0.101 A 
ATOM      2  C   UNL d   1      -0.812  -1.220   0.011  0.00  0.00     0.101 A 
ATOM      3  C   UNL d   1      -1.458  -0.029   0.056  0.00  0.00     0.048 A 
ATOM      4  C   UNL d   1       0.650   1.229  -0.077  0.00  0.00     0.101 A 
ATOM      5  N   UNL d   1       1.285   0.019  -0.110  0.00  0.00    -0.336 N 
ATOM      6  C   UNL d   1       0.685  -1.215  -0.072  0.00  0.00     0.124 A 
ATOM      7  C   UNL d   1      -1.382   2.495   0.047  0.00  0.00     0.104 C 
ATOM      8  C   UNL d   1      -1.492  -2.478   0.046  0.00  0.00     0.104 C 
ATOM      9  N   UNL d   1      -1.900   3.534   0.068  0.00  0.00    -0.191 NA
ATOM     10  N   UNL d   1      -2.048  -3.496   0.055  0.00  0.00    -0.191 NA
ATOM     11  S   UNL d   1       1.706  -2.547  -0.110  0.00  0.00    -0.059 SA
ATOM     12  H   UNL d   1       2.296   0.017  -0.197  0.00  0.00     0.168 HD
ENDROOT
BRANCH   3  13
ATOM     13  S   UNL d   1      -3.205   0.027   0.288  0.00  0.00    -0.131 SA
ATOM     14  C   UNL d   1      -3.785   0.552  -1.344  0.00  0.00     0.095 C 
ENDBRANCH   3  13
BRANCH   4  15
ATOM     15  N   UNL d   1       1.460   2.337  -0.143  0.00  0.00    -0.287 NA
ATOM     16  H   UNL d   1       1.036   3.221   0.138  0.00  0.00     0.125 HD
ATOM     17  H   UNL d   1       2.377   2.211   0.276  0.00  0.00     0.125 HD
ENDBRANCH   4  15
TORSDOF 2
