REMARK  2 active torsions:
REMARK  status: ('A' for Active; 'I' for Inactive)
REMARK       I    between atoms: N_2  and  C_1 
REMARK    1  A    between atoms: C_3  and  C_1 
REMARK       I    between atoms: C_4  and  N_2 
REMARK       I    between atoms: N_5  and  C_4 
REMARK    2  A    between atoms: C_10  and  N_5 
ROOT
ATOM      1  C   UNL d   1       0.964   0.288   0.158  0.00  0.00     0.265 C 
ATOM      2  N   UNL d   1       0.347  -0.878   0.583  0.00  0.00    -0.275 N 
ATOM      3  C   UNL d   1       0.898  -2.031   1.097  0.00  0.00     0.327 C 
ATOM      4  N   UNL d   1       2.261  -2.036   1.221  0.00  0.00    -0.309 N 
ATOM      5  O   UNL d   1       2.173   0.472   0.255  0.00  0.00    -0.267 OA
ATOM      6  O   UNL d   1       0.128  -2.946   1.377  0.00  0.00    -0.247 OA
ATOM      7  H   UNL d   1      -0.652  -0.982   0.459  0.00  0.00     0.173 HD
ATOM      8  H   UNL d   1       2.715  -1.139   1.050  0.00  0.00     0.170 HD
ENDROOT
BRANCH   1   9
ATOM      9  C   UNL d   1       0.067   1.335  -0.394  0.00  0.00     0.109 A 
ATOM     10  C   UNL d   1       0.454   2.675  -0.355  0.00  0.00     0.135 A 
ATOM     11  F   UNL d   1       1.623   3.047   0.182  0.00  0.00    -0.205 F 
ATOM     12  C   UNL d   1      -0.387   3.680  -0.842  0.00  0.00     0.043 A 
ATOM     13  C   UNL d   1      -1.629   3.354  -1.382  0.00  0.00     0.006 A 
ATOM     14  C   UNL d   1      -2.024   2.019  -1.440  0.00  0.00     0.043 A 
ATOM     15  C   UNL d   1      -1.177   1.025  -0.949  0.00  0.00     0.135 A 
ATOM     16  F   UNL d   1      -1.601  -0.247  -1.011  0.00  0.00    -0.205 F 
ENDBRANCH   1   9
BRANCH   4  17
ATOM     17  C   UNL d   1       3.089  -3.142   1.494  0.00  0.00     0.036 A 
ATOM     18  C   UNL d   1       2.613  -4.452   1.593  0.00  0.00     0.031 A 
ATOM     19  C   UNL d   1       3.497  -5.523   1.758  0.00  0.00     0.021 A 
ATOM     20  C   UNL d   1       4.864  -5.284   1.839  0.00  0.00     0.011 A 
ATOM     21  C   UNL d   1       5.353  -3.981   1.781  0.00  0.00     0.021 A 
ATOM     22 BR   UNL d   1       6.061  -6.738   2.001  0.00  0.00    -0.051 Br
ATOM     23  C   UNL d   1       4.466  -2.913   1.608  0.00  0.00     0.031 A 
ENDBRANCH   4  17
TORSDOF 2
