REMARK  4 active torsions:
REMARK  status: ('A' for Active; 'I' for Inactive)
REMARK    1  A    between atoms: C_6  and  C_1 
REMARK    2  A    between atoms: N_2  and  C_5 
REMARK    3  A    between atoms: N_7  and  C_3 
REMARK    4  A    between atoms: O_15  and  C_6 
REMARK       I    between atoms: C_8  and  N_7 
ROOT
ATOM      1  C   UNL d   1       1.468  -0.194   0.244  0.00  0.00     0.068 A 
ATOM      2  C   UNL d   1       0.621  -1.327   0.257  0.00  0.00     0.051 A 
ATOM      3  C   UNL d   1       0.919   1.101   0.213  0.00  0.00     0.056 A 
ATOM      4  C   UNL d   1      -0.470   1.268   0.198  0.00  0.00     0.104 A 
ATOM      5  C   UNL d   1      -0.768  -1.129   0.232  0.00  0.00     0.033 A 
ATOM      6  C   UNL d   1      -1.316   0.157   0.206  0.00  0.00     0.038 A 
ENDROOT
BRANCH   2   7
ATOM      7  N   UNL d   1       1.177  -2.631   0.272  0.00  0.00    -0.327 N 
ATOM      8  C   UNL d   1       0.534  -3.803   0.618  0.00  0.00     0.218 C 
ATOM      9  O   UNL d   1      -0.605  -3.895   1.070  0.00  0.00    -0.274 OA
ATOM     10  C   UNL d   1       1.365  -5.038   0.385  0.00  0.00     0.117 C 
ATOM     11  H   UNL d   1       2.187  -2.682   0.118  0.00  0.00     0.169 HD
ENDBRANCH   2   7
BRANCH   1  12
ATOM     12  C   UNL d   1       2.949  -0.366   0.298  0.00  0.00     0.295 C 
ATOM     13  O   UNL d   1       3.513  -1.401  -0.027  0.00  0.00    -0.259 OA
BRANCH  12  14
ATOM     14  O   UNL d   1       3.530   0.740   0.816  0.00  0.00    -0.322 OA
ATOM     15  C   UNL d   1       4.942   0.667   1.024  0.00  0.00     0.213 C 
ENDBRANCH  12  14
ENDBRANCH   1  12
BRANCH   4  16
ATOM     16  N   UNL d   1      -1.044   2.619   0.182  0.00  0.00    -0.116 N 
ATOM     17  O   UNL d   1      -0.259   3.576   0.226  0.00  0.00    -0.532 OA
ATOM     18  O   UNL d   1      -2.277   2.721   0.123  0.00  0.00    -0.532 OA
ENDBRANCH   4  16
TORSDOF 4
