REMARK  1 active torsions:
REMARK  status: ('A' for Active; 'I' for Inactive)
REMARK    1  A    between atoms: C_17  and  C_12 
ROOT
ATOM      1  C   UNL d   1      -1.028  -0.851  -0.028  0.00  0.00     0.173 A 
ATOM      2  C   UNL d   1      -0.702   0.475  -0.018  0.00  0.00     0.088 A 
ATOM      3  C   UNL d   1       0.702   0.571  -0.022  0.00  0.00     0.051 A 
ATOM      4  C   UNL d   1       1.147  -0.759  -0.034  0.00  0.00     0.162 A 
ATOM      5  O   UNL d   1       0.082  -1.625  -0.041  0.00  0.00    -0.285 OA
ATOM      6  N   UNL d   1       2.420  -1.188  -0.033  0.00  0.00    -0.335 N 
ATOM      7  HN  UNL d   1       2.671  -2.176  -0.051  1.00  0.00     0.168 HD
ATOM      8  C   UNL d   1      -2.371  -1.328  -0.022  0.00  0.00     0.282 A 
ATOM      9  N   UNL d   1      -1.661   1.498  -0.002  0.00  0.00    -0.349 N 
ATOM     10  HN  UNL d   1      -1.427   2.490   0.007  1.00  0.00     0.166 HD
ATOM     11  C   UNL d   1       1.670   1.592  -0.017  0.00  0.00    -0.043 A 
ATOM     12  C   UNL d   1       3.343  -0.197  -0.005  0.00  0.00     0.044 A 
ATOM     13  N   UNL d   1      -3.268  -0.276  -0.007  0.00  0.00    -0.317 N 
ATOM     14  C   UNL d   1      -2.880   1.050   0.001  0.00  0.00     0.184 A 
ATOM     15  C   UNL d   1       3.009   1.164  -0.015  0.00  0.00     0.038 A 
ATOM     16  O   UNL d   1      -2.748  -2.494  -0.029  0.00  0.00    -0.265 OA
ATOM     17  C   UNL d   1       1.368   3.061  -0.004  0.00  0.00     0.049 C 
ATOM     18  H   UNL d   1      -4.245  -0.530  -0.003  0.00  0.00     0.170 HD
ENDROOT
BRANCH  12  19
ATOM     19  C   UNL d   1       4.753  -0.646   0.060  0.00  0.00    -0.009 A 
ATOM     20  C   UNL d   1       5.172  -1.821  -0.589  0.00  0.00     0.013 A 
ATOM     21  C   UNL d   1       6.497  -2.263  -0.515  0.00  0.00     0.001 A 
ATOM     22  C   UNL d   1       7.435  -1.538   0.216  0.00  0.00     0.000 A 
ATOM     23  C   UNL d   1       7.050  -0.372   0.867  0.00  0.00     0.001 A 
ATOM     24  C   UNL d   1       5.724   0.067   0.791  0.00  0.00     0.013 A 
ENDBRANCH  12  19
TORSDOF 1
