REMARK  4 active torsions:
REMARK  status: ('A' for Active; 'I' for Inactive)
REMARK    1  A    between atoms: N_3  and  C_1 
REMARK    2  A    between atoms: C_7  and  C_1 
REMARK    3  A    between atoms: C_2  and  N_4 
REMARK    4  A    between atoms: N_4  and  N_3 
ROOT
ATOM      1  C   UNL d   1       0.935  -0.122  -0.056  0.00  0.00     0.140 C 
ATOM      2  N   UNL d   1       0.245   0.986  -0.033  0.00  0.00    -0.383 N 
ATOM      3  HN  UNL d   1       0.606   1.935   0.063  1.00  0.00     0.157 HD
ATOM      4  H   UNL d   1      -0.737   0.703  -0.133  0.00  0.00     0.157 HD
ENDROOT
BRANCH   1   5
ATOM      5  N   UNL d   1       0.306  -1.352  -0.092  0.00  0.00    -0.282 N 
ATOM      6  H   UNL d   1       0.931  -2.152   0.044  0.00  0.00     0.188 HD
BRANCH   5   7
ATOM      7  N   UNL d   1      -0.911  -1.429   0.610  0.00  0.00    -0.275 N 
ATOM      8  H   UNL d   1      -1.018  -0.764   1.367  0.00  0.00     0.189 HD
BRANCH   7   9
ATOM      9  C   UNL d   1      -1.879  -2.328   0.255  0.00  0.00     0.186 C 
ATOM     10  S   UNL d   1      -1.753  -3.465  -0.968  0.00  0.00    -0.040 SA
ATOM     11  N   UNL d   1      -3.043  -2.301   0.962  0.00  0.00    -0.370 N 
ATOM     12  C   UNL d   1      -3.446  -1.485   2.088  0.00  0.00     0.148 C 
ATOM     13  H   UNL d   1      -3.720  -2.986   0.641  0.00  0.00     0.161 HD
ENDBRANCH   7   9
ENDBRANCH   5   7
ENDBRANCH   1   5
BRANCH   1  14
ATOM     14  C   UNL d   1       2.436  -0.083  -0.047  0.00  0.00     0.077 A 
ATOM     15  N   UNL d   1       3.056  -1.292   0.027  0.00  0.00    -0.363 N 
ATOM     16  C   UNL d   1       4.408  -1.264   0.023  0.00  0.00     0.088 A 
ATOM     17  HN  UNL d   1       2.534  -2.166   0.083  1.00  0.00     0.165 HD
ATOM     18  C   UNL d   1       5.163  -0.100  -0.041  0.00  0.00     0.017 A 
ATOM     19  C   UNL d   1       4.496   1.119  -0.106  0.00  0.00     0.004 A 
ATOM     20  C   UNL d   1       3.106   1.133  -0.106  0.00  0.00     0.033 A 
ENDBRANCH   1  14
TORSDOF 4
