REMARK  7 active torsions:
REMARK  status: ('A' for Active; 'I' for Inactive)
REMARK    1  A    between atoms: C_10  and  N_1 
REMARK    2  A    between atoms: C_2  and  C_10 
REMARK    3  A    between atoms: C_22  and  N_3 
REMARK    4  A    between atoms: S_16  and  C_4 
REMARK    5  A    between atoms: N_9  and  C_17 
REMARK    6  A    between atoms: C_23  and  S_16 
REMARK    7  A    between atoms: C_24  and  C_23 
ROOT
ATOM      1  C   UNL d   1       1.506  -2.500   2.378  0.00  0.00     0.118 C 
ATOM      2  N   UNL d   1       2.275  -1.514   2.972  0.00  0.00    -0.314 N 
ATOM      3  C   UNL d   1       3.487  -2.110   3.223  0.00  0.00     0.163 C 
ATOM      4  N   UNL d   1       2.164  -3.643   2.449  0.00  0.00    -0.285 N 
ATOM      5  HN  UNL d   1       1.806  -4.556   2.166  1.00  0.00     0.188 HD
ATOM      6  N   UNL d   1       3.408  -3.395   2.967  0.00  0.00    -0.278 N 
ATOM      7  HN  UNL d   1       4.142  -4.086   3.125  1.00  0.00     0.189 HD
ENDROOT
BRANCH   1   8
ATOM      8  C   UNL d   1       0.178  -2.305   1.678  0.00  0.00     0.207 C 
BRANCH   8   9
ATOM      9  N   UNL d   1       0.128  -1.374   0.519  0.00  0.00    -0.338 N 
ATOM     10  C   UNL d   1       1.284  -1.264  -0.287  0.00  0.00     0.052 A 
ATOM     11  C   UNL d   1       1.762  -0.004  -0.700  0.00  0.00     0.032 A 
ATOM     12  C   UNL d   1       1.969  -2.409  -0.730  0.00  0.00     0.031 A 
ATOM     13  C   UNL d   1       2.939   0.092  -1.454  0.00  0.00     0.021 A 
ATOM     14  S   UNL d   1       0.939   1.513  -0.239  0.00  0.00    -0.086 SA
ATOM     15  C   UNL d   1       3.621  -1.056  -1.851  0.00  0.00     0.002 A 
ATOM     16  C   UNL d   1       3.126  -2.308  -1.504  0.00  0.00     0.002 A 
ATOM     17  C   UNL d   1      -0.705   0.902   0.112  0.00  0.00     0.032 A 
ATOM     18  C   UNL d   1      -0.933  -0.440   0.481  0.00  0.00     0.052 A 
ATOM     19  C   UNL d   1      -1.769   1.813   0.038  0.00  0.00     0.021 A 
ATOM     20  C   UNL d   1      -2.260  -0.841   0.721  0.00  0.00     0.031 A 
ATOM     21  C   UNL d   1      -3.321   0.065   0.616  0.00  0.00     0.002 A 
ATOM     22  C   UNL d   1      -3.074   1.393   0.285  0.00  0.00     0.002 A 
ENDBRANCH   8   9
ENDBRANCH   1   8
BRANCH   2  23
ATOM     23  C   UNL d   1       1.923  -0.119   3.138  0.00  0.00     0.128 C 
ATOM     24  C   UNL d   1       1.796   0.342   4.584  0.00  0.00     0.027 C 
ENDBRANCH   2  23
BRANCH   3  25
ATOM     25  S   UNL d   1       4.912  -1.276   3.759  0.00  0.00    -0.088 SA
BRANCH  25  26
ATOM     26  C   UNL d   1       6.210  -2.388   3.125  0.00  0.00     0.121 C 
BRANCH  26  27
ATOM     27  C   UNL d   1       7.618  -1.968   3.512  0.00  0.00    -0.048 A 
ATOM     28  C   UNL d   1       8.024  -1.954   4.857  0.00  0.00     0.010 A 
ATOM     29  C   UNL d   1       9.348  -1.637   5.205  0.00  0.00     0.036 A 
ATOM     30  C   UNL d   1      10.275  -1.341   4.204  0.00  0.00     0.102 A 
ATOM     31  C   UNL d   1       9.893  -1.351   2.859  0.00  0.00     0.036 A 
ATOM     32  C   UNL d   1       8.568  -1.664   2.519  0.00  0.00     0.010 A 
BRANCH  30  33
ATOM     33  N   UNL d   1      11.661  -1.028   4.571  0.00  0.00    -0.116 N 
ATOM     34  O   UNL d   1      12.457  -0.779   3.654  0.00  0.00    -0.532 OA
ATOM     35  O   UNL d   1      11.965  -1.026   5.773  0.00  0.00    -0.532 OA
ENDBRANCH  30  33
ENDBRANCH  26  27
ENDBRANCH  25  26
ENDBRANCH   3  25
TORSDOF 7
