REMARK  5 active torsions:
REMARK  status: ('A' for Active; 'I' for Inactive)
REMARK    1  A    between atoms: C_6  and  C_1 
REMARK    2  A    between atoms: N_12  and  C_2 
REMARK    3  A    between atoms: C_11  and  C_5 
REMARK       I    between atoms: N_10  and  C_6 
REMARK    4  A    between atoms: N_7  and  N_10 
REMARK    5  A    between atoms: C_9  and  C_15 
ROOT
ATOM      1  C   UNL d   1      -0.018   1.562  -0.014  0.00  0.00     0.068 A 
ATOM      2  C   UNL d   1       0.747   0.405   0.080  0.00  0.00     0.084 A 
ATOM      3  C   UNL d   1      -1.416   1.222  -0.065  0.00  0.00     0.039 A 
ATOM      4  S   UNL d   1      -0.204  -1.013   0.070  0.00  0.00    -0.071 SA
ATOM      5  C   UNL d   1      -1.667  -0.138  -0.023  0.00  0.00     0.018 A 
ENDROOT
BRANCH   1   6
ATOM      6  C   UNL d   1       0.582   2.906  -0.056  0.00  0.00     0.272 C 
ATOM      7  N   UNL d   1      -0.323   3.967  -0.115  0.00  0.00    -0.266 N 
ATOM      8  H   UNL d   1      -1.320   3.821  -0.130  0.00  0.00     0.190 HD
ATOM      9  O   UNL d   1       1.804   3.068  -0.053  0.00  0.00    -0.266 OA
BRANCH   7  10
ATOM     10  N   UNL d   1       0.168   5.238  -0.154  0.00  0.00    -0.308 N 
ATOM     11  C   UNL d   1      -0.682   6.214  -0.212  0.00  0.00     0.120 C 
ATOM     12  HN  UNL d   1       1.172   5.415  -0.139  1.00  0.00     0.186 HD
BRANCH  11  13
ATOM     13  C   UNL d   1      -0.191   7.613  -0.257  0.00  0.00     0.002 A 
ATOM     14  C   UNL d   1      -1.052   8.713  -0.326  0.00  0.00     0.045 A 
ATOM     15 CL   UNL d   1      -2.773   8.558  -0.341  0.00  0.00    -0.083 Cl
ATOM     16  C   UNL d   1      -0.522  10.009  -0.384  0.00  0.00     0.024 A 
ATOM     17  C   UNL d   1       0.860  10.211  -0.370  0.00  0.00     0.002 A 
ATOM     18  C   UNL d   1       1.720   9.120  -0.292  0.00  0.00     0.001 A 
ATOM     19  C   UNL d   1       1.198   7.828  -0.237  0.00  0.00     0.014 A 
ENDBRANCH  11  13
ENDBRANCH   7  10
ENDBRANCH   1   6
BRANCH   2  20
ATOM     20  N   UNL d   1       2.090   0.311   0.171  0.00  0.00    -0.393 N 
ATOM     21  H   UNL d   1       2.656   1.150   0.014  0.00  0.00     0.156 HD
ATOM     22  H   UNL d   1       2.563  -0.567  -0.009  0.00  0.00     0.156 HD
ENDBRANCH   2  20
BRANCH   5  23
ATOM     23  C   UNL d   1      -2.972  -0.818  -0.075  0.00  0.00    -0.019 A 
ATOM     24  C   UNL d   1      -4.006  -0.271  -0.852  0.00  0.00     0.013 A 
ATOM     25  C   UNL d   1      -5.273  -0.858  -0.881  0.00  0.00     0.001 A 
ATOM     26  C   UNL d   1      -5.523  -2.007  -0.138  0.00  0.00     0.000 A 
ATOM     27  C   UNL d   1      -4.507  -2.572   0.629  0.00  0.00     0.001 A 
ATOM     28  C   UNL d   1      -3.240  -1.981   0.662  0.00  0.00     0.013 A 
ENDBRANCH   5  23
TORSDOF 5
