REMARK  3 active torsions:
REMARK  status: ('A' for Active; 'I' for Inactive)
REMARK    1  A    between atoms: C_2  and  N_1 
REMARK    2  A    between atoms: N_7  and  C_3 
REMARK       I    between atoms: C_4  and  N_5 
REMARK       I    between atoms: N_6  and  C_4 
REMARK    3  A    between atoms: C_8  and  N_6 
ROOT
ATOM      1  C   UNL d   1      -2.971  -4.931  -0.607  0.00  0.00     0.323 C 
ATOM      2  N   UNL d   1      -2.779  -4.132   0.509  0.00  0.00    -0.332 N 
ATOM      3  N   UNL d   1      -2.456  -6.209  -0.530  0.00  0.00    -0.308 N 
ATOM      4  N   UNL d   1      -1.308  -1.596   0.812  0.00  0.00    -0.364 N 
ATOM      5  O   UNL d   1      -3.617  -4.507  -1.570  0.00  0.00    -0.247 OA
ATOM      6  C   UNL d   1      -3.444  -2.817   0.500  0.00  0.00     0.147 C 
ATOM      7  C   UNL d   1      -2.544  -1.671   0.006  0.00  0.00     0.144 C 
ATOM      8  C   UNL d   1      -0.394  -3.834   1.301  0.00  0.00     0.040 C 
ATOM      9  C   UNL d   1      -1.810  -4.340   1.590  0.00  0.00     0.129 C 
ATOM     10  C   UNL d   1      -0.295  -2.588   0.423  0.00  0.00     0.126 C 
ATOM     11  H   UNL d   1      -2.406  -6.559   0.409  0.00  0.00     0.170 HD
ENDROOT
BRANCH   3  12
ATOM     12  C   UNL d   1      -2.757  -7.178  -1.535  0.00  0.00     0.047 A 
ATOM     13  C   UNL d   1      -3.188  -8.491  -1.178  0.00  0.00     0.001 A 
ATOM     14  C   UNL d   1      -3.690  -9.329  -2.209  0.00  0.00    -0.024 A 
ATOM     15  C   UNL d   1      -3.202  -9.011   0.142  0.00  0.00     0.014 A 
ATOM     16  C   UNL d   1      -4.214 -10.595  -1.901  0.00  0.00     0.012 A 
ATOM     17  C   UNL d   1      -3.682  -8.894  -3.542  0.00  0.00     0.012 A 
ATOM     18  C   UNL d   1      -4.221 -11.071  -0.592  0.00  0.00     0.001 A 
ATOM     19  C   UNL d   1      -3.703 -10.285   0.427  0.00  0.00     0.001 A 
ATOM     20  C   UNL d   1      -3.163  -7.651  -3.884  0.00  0.00     0.003 A 
ATOM     21  C   UNL d   1      -2.702  -6.802  -2.886  0.00  0.00     0.030 A 
ENDBRANCH   3  12
BRANCH   4  22
ATOM     22  C   UNL d   1      -0.906  -0.426   1.436  0.00  0.00     0.137 A 
ATOM     23  C   UNL d   1      -1.733   0.450   2.147  0.00  0.00     0.146 A 
ATOM     24  C   UNL d   1      -1.248   1.635   2.725  0.00  0.00     0.041 A 
ATOM     25  C   UNL d   1       0.097   1.931   2.608  0.00  0.00     0.020 A 
ATOM     26  C   UNL d   1       0.886   1.022   1.933  0.00  0.00     0.090 A 
ATOM     27  N   UNL d   1       0.415  -0.117   1.366  0.00  0.00    -0.350 N 
ATOM     28  HN  UNL d   1       1.058  -0.746   0.884  1.00  0.00     0.166 HD
BRANCH  23  29
ATOM     29  N   UNL d   1      -3.105   0.131   2.432  0.00  0.00    -0.112 N 
ATOM     30  O   UNL d   1      -3.327  -0.804   3.216  0.00  0.00    -0.532 OA
ATOM     31  O   UNL d   1      -3.970   0.857   1.918  0.00  0.00    -0.532 OA
ENDBRANCH  23  29
ENDBRANCH   4  22
TORSDOF 3
