REMARK  3 active torsions:
REMARK  status: ('A' for Active; 'I' for Inactive)
REMARK    1  A    between atoms: C_4  and  C_1 
REMARK    2  A    between atoms: C_9  and  C_2 
REMARK       I    between atoms: N_3  and  C_4 
REMARK    3  A    between atoms: C_15  and  C_10 
ROOT
ATOM      1  C   UNL d   1      -0.052  -1.229  -0.007  0.00  0.00     0.095 A 
ATOM      2  C   UNL d   1      -1.381  -0.714  -0.142  0.00  0.00     0.086 A 
ATOM      3  N   UNL d   1      -1.328   0.592  -0.457  0.00  0.00    -0.259 N 
ATOM      4  HN  UNL d   1      -2.120   1.192  -0.689  1.00  0.00     0.195 HD
ATOM      5  O   UNL d   1      -0.008   0.963  -0.409  0.00  0.00    -0.241 OA
ATOM      6  C   UNL d   1       0.758  -0.116  -0.123  0.00  0.00     0.090 A 
ATOM      7  C   UNL d   1       2.206   0.143   0.017  0.00  0.00     0.080 C 
ENDROOT
BRANCH   1   8
ATOM      8  C   UNL d   1       0.407  -2.579   0.274  0.00  0.00     0.281 C 
ATOM      9  N   UNL d   1       1.435  -3.183  -0.508  0.00  0.00    -0.231 N 
ATOM     10  N   UNL d   1       2.085  -4.300  -0.072  0.00  0.00    -0.290 N 
ATOM     11  C   UNL d   1       1.929  -2.776  -1.736  0.00  0.00     0.122 A 
ATOM     12  C   UNL d   1       3.022  -4.545  -0.996  0.00  0.00     0.067 A 
ATOM     13  HN  UNL d   1       1.897  -4.834   0.776  1.00  0.00     0.187 HD
ATOM     14  C   UNL d   1       2.960  -3.622  -2.057  0.00  0.00     0.051 A 
ATOM     15  O   UNL d   1      -0.090  -3.227   1.190  0.00  0.00    -0.265 OA
BRANCH  12  16
ATOM     16  C   UNL d   1       3.995  -5.678  -0.853  0.00  0.00     0.033 A 
ATOM     17  S   UNL d   1       5.230  -6.048  -1.977  0.00  0.00    -0.100 SA
ATOM     18  C   UNL d   1       5.774  -7.375  -1.043  0.00  0.00     0.050 A 
ATOM     19  C   UNL d   1       5.034  -7.532   0.108  0.00  0.00     0.008 A 
ATOM     20  C   UNL d   1       4.007  -6.548   0.218  0.00  0.00     0.021 A 
ENDBRANCH  12  16
ENDBRANCH   1   8
BRANCH   2  21
ATOM     21  C   UNL d   1      -2.687  -1.381  -0.045  0.00  0.00     0.037 A 
ATOM     22  C   UNL d   1      -3.709  -0.849   0.774  0.00  0.00     0.048 A 
ATOM     23 CL   UNL d   1      -3.476   0.518   1.819  0.00  0.00    -0.083 Cl
ATOM     24  C   UNL d   1      -4.990  -1.421   0.801  0.00  0.00     0.025 A 
ATOM     25  C   UNL d   1      -5.271  -2.553   0.045  0.00  0.00     0.003 A 
ATOM     26  C   UNL d   1      -4.273  -3.107  -0.749  0.00  0.00     0.025 A 
ATOM     27  C   UNL d   1      -3.000  -2.519  -0.812  0.00  0.00     0.048 A 
ATOM     28 CL   UNL d   1      -1.894  -3.233  -1.941  0.00  0.00    -0.083 Cl
ENDBRANCH   2  21
TORSDOF 3
