REMARK  4 active torsions:
REMARK  status: ('A' for Active; 'I' for Inactive)
REMARK    1  A    between atoms: C_8  and  C_1 
REMARK    2  A    between atoms: C_13  and  C_7 
REMARK    3  A    between atoms: C_9  and  C_8 
REMARK    4  A    between atoms: O_14  and  C_9 
ROOT
ATOM      1  C   UNL d   1      -1.303  -1.128   0.016  0.00  0.00    -0.014 A 
ATOM      2  C   UNL d   1       0.080  -0.735  -0.013  0.00  0.00    -0.000 A 
ATOM      3  C   UNL d   1      -2.056   0.038  -0.023  0.00  0.00     0.013 A 
ATOM      4  N   UNL d   1      -1.181   1.098  -0.040  0.00  0.00    -0.359 N 
ATOM      5  C   UNL d   1       0.117   0.655  -0.040  0.00  0.00     0.043 A 
ATOM      6  C   UNL d   1       1.305  -1.438  -0.018  0.00  0.00     0.022 A 
ATOM      7  C   UNL d   1       2.527  -0.737  -0.050  0.00  0.00    -0.054 A 
ATOM      8  C   UNL d   1       1.310   1.383  -0.053  0.00  0.00     0.031 A 
ATOM      9  C   UNL d   1       2.509   0.664  -0.059  0.00  0.00     0.010 A 
ATOM     10  C   UNL d   1      -3.522   0.287  -0.011  0.00  0.00     0.068 C 
ATOM     11  H   UNL d   1      -1.448   2.073  -0.043  0.00  0.00     0.166 HD
ENDROOT
BRANCH   1  12
ATOM     12  C   UNL d   1      -1.813  -2.538   0.105  0.00  0.00     0.151 C 
BRANCH  12  13
ATOM     13  C   UNL d   1      -1.369  -3.456  -1.014  0.00  0.00     0.143 C 
ATOM     14  O   UNL d   1      -1.241  -4.666  -0.867  0.00  0.00    -0.650 OA
BRANCH  13  15
ATOM     15  O   UNL d   1      -1.203  -2.876  -2.224  0.00  0.00    -0.776 OA
ATOM     16  H   UNL d   1      -1.301  -1.902  -2.203  0.00  0.00     0.167 HD
ENDBRANCH  13  15
ENDBRANCH  12  13
ENDBRANCH   1  12
BRANCH   7  17
ATOM     17  C   UNL d   1       3.860  -1.466  -0.087  0.00  0.00     0.010 C 
ATOM     18  C   UNL d   1       4.061  -2.350   1.146  0.00  0.00     0.015 C 
ATOM     19  C   UNL d   1       4.017  -2.277  -1.376  0.00  0.00     0.015 C 
ENDBRANCH   7  17
TORSDOF 4
