REMARK  3 active torsions:
REMARK  status: ('A' for Active; 'I' for Inactive)
REMARK       I    between atoms: N_3  and  C_1 
REMARK    1  A    between atoms: C_5  and  C_1 
REMARK    2  A    between atoms: N_2  and  C_4 
REMARK    3  A    between atoms: C_11  and  N_3 
ROOT
ATOM      1  C   UNL d   1       2.326   3.857   3.396  0.00  0.00     0.030 A 
ATOM      2  C   UNL d   1       1.226   3.119   3.850  0.00  0.00     0.031 A 
ATOM      3  C   UNL d   1       2.764   3.580   2.092  0.00  0.00     0.031 A 
ATOM      4  C   UNL d   1       0.986   1.965   1.731  0.00  0.00     0.035 A 
ATOM      5  C   UNL d   1       0.564   2.190   3.037  0.00  0.00     0.032 A 
ATOM      6  C   UNL d   1       2.114   2.646   1.270  0.00  0.00     0.032 A 
ENDROOT
BRANCH   4   7
ATOM      7  N   UNL d   1       0.333   1.084   0.843  0.00  0.00    -0.323 N 
ATOM      8  C   UNL d   1      -0.908   0.502   1.036  0.00  0.00     0.256 C 
ATOM      9  O   UNL d   1      -1.681   0.700   1.966  0.00  0.00    -0.267 OA
ATOM     10  H   UNL d   1       0.764   0.972  -0.066  0.00  0.00     0.169 HD
BRANCH   8  11
ATOM     11  C   UNL d   1      -1.352  -0.416  -0.046  0.00  0.00     0.032 A 
ATOM     12  C   UNL d   1      -0.459  -1.280  -0.691  0.00  0.00     0.018 A 
ATOM     13  C   UNL d   1      -0.927  -2.149  -1.681  0.00  0.00     0.025 A 
ATOM     14  C   UNL d   1      -2.281  -2.155  -2.019  0.00  0.00     0.034 A 
ATOM     15  C   UNL d   1      -3.177  -1.306  -1.372  0.00  0.00     0.025 A 
ATOM     16 CL   UNL d   1      -2.851  -3.229  -3.236  0.00  0.00    -0.084 Cl
ATOM     17  C   UNL d   1      -2.714  -0.440  -0.380  0.00  0.00     0.018 A 
ENDBRANCH   8  11
ENDBRANCH   4   7
BRANCH   1  18
ATOM     18  N   UNL d   1       2.913   4.851   4.157  0.00  0.00    -0.381 N 
ATOM     19  C   UNL d   1       2.181   5.527   5.230  0.00  0.00     0.123 C 
ATOM     20  C   UNL d   1       2.463   7.027   5.146  0.00  0.00     0.020 C 
ATOM     21  C   UNL d   1       3.962   7.323   5.148  0.00  0.00     0.003 C 
ATOM     22  C   UNL d   1       4.692   6.509   4.079  0.00  0.00     0.020 C 
ATOM     23  C   UNL d   1       4.367   5.020   4.192  0.00  0.00     0.123 C 
ENDBRANCH   1  18
TORSDOF 3
