REMARK  4 active torsions:
REMARK  status: ('A' for Active; 'I' for Inactive)
REMARK    1  A    between atoms: C_6  and  S_1 
REMARK    2  A    between atoms: N_9  and  S_1 
REMARK       I    between atoms: C_2  and  N_5 
REMARK    3  A    between atoms: C_3  and  C_2 
REMARK    4  A    between atoms: N_5  and  C_14 
ROOT
ATOM      1  C   UNL d   1      -2.077   4.666   5.011  0.00  0.00     0.074 A 
ATOM      2  C   UNL d   1      -1.233   4.059   4.078  0.00  0.00     0.027 A 
ATOM      3  C   UNL d   1      -2.489   3.970   6.144  0.00  0.00     0.027 A 
ATOM      4  C   UNL d   1      -1.200   2.029   5.429  0.00  0.00     0.035 A 
ATOM      5  C   UNL d   1      -0.801   2.742   4.288  0.00  0.00     0.031 A 
ATOM      6  C   UNL d   1      -2.050   2.658   6.346  0.00  0.00     0.031 A 
ENDROOT
BRANCH   4   7
ATOM      7  N   UNL d   1      -0.713   0.708   5.595  0.00  0.00    -0.323 N 
ATOM      8  C   UNL d   1      -0.942  -0.128   6.685  0.00  0.00     0.256 C 
ATOM      9  O   UNL d   1      -1.625   0.149   7.664  0.00  0.00    -0.267 OA
ATOM     10  H   UNL d   1      -0.135   0.353   4.844  0.00  0.00     0.169 HD
BRANCH   8  11
ATOM     11  C   UNL d   1      -0.247  -1.459   6.664  0.00  0.00     0.038 A 
ATOM     12  C   UNL d   1      -0.836  -2.631   7.213  0.00  0.00    -0.040 A 
ATOM     13  C   UNL d   1      -0.059  -3.817   7.293  0.00  0.00    -0.055 A 
ATOM     14  C   UNL d   1      -2.251  -2.656   7.739  0.00  0.00     0.050 C 
ATOM     15  C   UNL d   1      -0.543  -5.090   7.943  0.00  0.00     0.049 C 
ATOM     16  C   UNL d   1       1.248  -3.828   6.780  0.00  0.00     0.007 A 
ATOM     17  C   UNL d   1       1.809  -2.684   6.225  0.00  0.00     0.002 A 
ATOM     18  C   UNL d   1       1.075  -1.502   6.184  0.00  0.00     0.017 A 
ENDBRANCH   8  11
ENDBRANCH   4   7
BRANCH   1  19
ATOM     19  S   UNL d   1      -2.659   6.314   4.749  0.00  0.00     0.239 S 
ATOM     20  O   UNL d   1      -2.266   6.750   3.428  0.00  0.00    -0.206 OA
ATOM     21  O   UNL d   1      -2.408   7.095   5.933  0.00  0.00    -0.206 OA
BRANCH  19  22
ATOM     22  N   UNL d   1      -4.323   6.089   4.657  0.00  0.00    -0.225 NA
ATOM     23  H   UNL d   1      -4.631   6.091   3.689  0.00  0.00     0.136 HD
ATOM     24  H   UNL d   1      -4.794   6.781   5.245  0.00  0.00     0.136 HD
ENDBRANCH  19  22
ENDBRANCH   1  19
TORSDOF 4
