REMARK  1 active torsions:
REMARK  status: ('A' for Active; 'I' for Inactive)
REMARK    1  A    between atoms: C_11  and  C_9 
ROOT
ATOM      1  N   UNL d   1      -0.215  -0.261   0.026  0.00  0.00    -0.255 N 
ATOM      2  C   UNL d   1      -0.484   1.070   0.010  0.00  0.00     0.160 A 
ATOM      3  C   UNL d   1      -1.287  -1.127   0.041  0.00  0.00     0.271 A 
ATOM      4  C   UNL d   1      -2.524  -0.288   0.019  0.00  0.00     0.078 A 
ATOM      5  N   UNL d   1       0.576   1.825   0.002  0.00  0.00    -0.334 N 
ATOM      6  HN  UNL d   1       0.626   2.844  -0.004  1.00  0.00     0.168 HD
ATOM      7  S   UNL d   1      -2.166   1.424   0.002  0.00  0.00    -0.048 SA
ATOM      8  C   UNL d   1       1.149  -0.405   0.022  0.00  0.00     0.071 A 
ATOM      9  C   UNL d   1      -3.733  -0.865  -0.000  0.00  0.00     0.043 C 
ATOM     10  C   UNL d   1       1.614   0.917   0.006  0.00  0.00     0.061 A 
ATOM     11  O   UNL d   1      -1.165  -2.339   0.057  0.00  0.00    -0.266 OA
ATOM     12  C   UNL d   1       2.005  -1.512   0.026  0.00  0.00     0.032 A 
ATOM     13  C   UNL d   1       2.995   1.156  -0.005  0.00  0.00     0.032 A 
ATOM     14  C   UNL d   1       3.380  -1.246   0.015  0.00  0.00     0.002 A 
ATOM     15  C   UNL d   1       3.869   0.063  -0.001  0.00  0.00     0.002 A 
ENDROOT
BRANCH   9  16
ATOM     16  C   UNL d   1      -4.941  -0.120  -0.071  0.00  0.00     0.006 A 
ATOM     17  S   UNL d   1      -5.647   0.227  -1.601  0.00  0.00    -0.102 SA
ATOM     18  C   UNL d   1      -6.973   1.034  -0.887  0.00  0.00     0.050 A 
ATOM     19  C   UNL d   1      -6.889   1.049   0.486  0.00  0.00     0.008 A 
ATOM     20  C   UNL d   1      -5.715   0.389   0.956  0.00  0.00     0.019 A 
ENDBRANCH   9  16
TORSDOF 1
