REMARK  2 active torsions:
REMARK  status: ('A' for Active; 'I' for Inactive)
REMARK    1  A    between atoms: N_2  and  N_1 
REMARK       I    between atoms: C_3  and  N_2 
REMARK       I    between atoms: N_4  and  C_3 
REMARK    2  A    between atoms: C_11  and  N_4 
ROOT
ATOM      1  N   UNL d   1       1.620   4.352   1.523  0.00  0.00    -0.072 N 
ATOM      2  C   UNL d   1       2.643   3.531   1.136  0.00  0.00     0.695 C 
ATOM      3  N   UNL d   1       2.364   2.421   0.385  0.00  0.00    -0.191 N 
ATOM      4  N   UNL d   1       3.864   3.882   1.413  0.00  0.00    -0.233 N 
ATOM      5  HN  UNL d   1       4.684   3.340   1.138  1.00  0.00     0.174 HD
ATOM      6  H   UNL d   1       1.889   5.169   2.043  0.00  0.00     0.212 HD
ATOM      7  H   UNL d   1       1.389   2.261   0.138  0.00  0.00     0.184 HD
ATOM      8  H   UNL d   1       3.914   4.756   1.935  0.00  0.00     0.174 HD
ENDROOT
BRANCH   3   9
ATOM      9  C   UNL d   1       3.179   1.299   0.138  0.00  0.00     0.052 A 
ATOM     10  C   UNL d   1       2.922   0.517  -0.999  0.00  0.00     0.075 A 
ATOM     11  C   UNL d   1       3.715  -0.592  -1.291  0.00  0.00     0.157 A 
ATOM     12  F   UNL d   1       3.447  -1.320  -2.384  0.00  0.00    -0.203 F 
ATOM     13  C   UNL d   1       4.772  -0.940  -0.462  0.00  0.00     0.154 A 
ATOM     14  C   UNL d   1       5.063  -0.170   0.654  0.00  0.00     0.048 A 
ATOM     15  F   UNL d   1       5.518  -2.019  -0.733  0.00  0.00    -0.203 F 
ATOM     16  C   UNL d   1       4.279   0.954   0.940  0.00  0.00     0.033 A 
ENDBRANCH   3   9
BRANCH   1  17
ATOM     17  N   UNL d   1       0.370   3.918   1.746  0.00  0.00    -0.024 N 
ATOM     18  O   UNL d   1      -0.269   4.646   2.508  0.00  0.00    -0.516 OA
ATOM     19  O   UNL d   1      -0.037   2.907   1.168  0.00  0.00    -0.516 OA
ENDBRANCH   1  17
TORSDOF 2
