REMARK  3 active torsions:
REMARK  status: ('A' for Active; 'I' for Inactive)
REMARK       I    between atoms: C_9  and  N_12 
REMARK       I    between atoms: N_14  and  C_9 
REMARK    1  A    between atoms: N_12  and  C_10 
REMARK    2  A    between atoms: C_16  and  N_14 
REMARK    3  A    between atoms: S_19  and  C_18 
ROOT
ATOM      1  C   UNL d   1      -4.795  -0.616  -0.385  0.00  0.00     0.325 C 
ATOM      2  N   UNL d   1      -5.898  -1.316   0.085  0.00  0.00    -0.309 N 
ATOM      3  N   UNL d   1      -4.987   0.755  -0.287  0.00  0.00    -0.309 N 
ATOM      4  O   UNL d   1      -3.768  -1.137  -0.801  0.00  0.00    -0.247 OA
ATOM      5  H   UNL d   1      -6.678  -0.765   0.403  0.00  0.00     0.170 HD
ATOM      6  H   UNL d   1      -5.938   1.083  -0.242  0.00  0.00     0.170 HD
ENDROOT
BRANCH   2   7
ATOM      7  C   UNL d   1      -5.975  -2.717   0.308  0.00  0.00     0.038 A 
ATOM      8  C   UNL d   1      -4.915  -3.593   0.004  0.00  0.00     0.062 A 
ATOM      9  C   UNL d   1      -5.075  -4.952   0.368  0.00  0.00     0.069 A 
ATOM     10  C   UNL d   1      -6.338  -5.430   1.023  0.00  0.00     0.067 A 
ATOM     11  N   UNL d   1      -4.168  -5.927   0.196  0.00  0.00    -0.310 N 
ATOM     12  N   UNL d   1      -6.321  -6.739   1.319  0.00  0.00    -0.310 N 
ATOM     13  C   UNL d   1      -7.400  -4.534   1.278  0.00  0.00     0.035 A 
ATOM     14  S   UNL d   1      -4.841  -7.310   0.820  0.00  0.00     0.068 SA
ATOM     15  HN  UNL d   1      -7.066  -7.276   1.761  1.00  0.00     0.176 HD
ATOM     16  C   UNL d   1      -7.176  -3.189   0.909  0.00  0.00     0.032 A 
ATOM     17  HN  UNL d   1      -3.248  -5.836  -0.234  1.00  0.00     0.176 HD
ENDBRANCH   2   7
BRANCH   3  18
ATOM     18  C   UNL d   1      -3.982   1.745  -0.419  0.00  0.00     0.037 A 
ATOM     19  C   UNL d   1      -2.612   1.452  -0.439  0.00  0.00     0.048 A 
ATOM     20  C   UNL d   1      -1.650   2.463  -0.537  0.00  0.00     0.002 A 
ATOM     21  C   UNL d   1      -2.077   3.790  -0.639  0.00  0.00     0.018 A 
ATOM     22  C   UNL d   1      -3.438   4.099  -0.610  0.00  0.00     0.004 A 
ATOM     23  C   UNL d   1      -4.386   3.081  -0.491  0.00  0.00     0.029 A 
BRANCH  20  24
ATOM     24  S   UNL d   1       0.112   2.149  -0.567  0.00  0.00    -0.134 SA
ATOM     25  C   UNL d   1       0.247   0.613   0.392  0.00  0.00     0.095 C 
ENDBRANCH  20  24
ENDBRANCH   3  18
TORSDOF 3
