REMARK  4 active torsions:
REMARK  status: ('A' for Active; 'I' for Inactive)
REMARK    1  A    between atoms: N_11  and  C_1 
REMARK    2  A    between atoms: C_13  and  C_2 
REMARK       I    between atoms: C_14  and  N_11 
REMARK    3  A    between atoms: C_12  and  C_22 
REMARK       I    between atoms: N_17  and  C_14 
REMARK    4  A    between atoms: C_22  and  N_17 
ROOT
ATOM      1  N   UNL d   1       0.559   4.414   0.079  0.00  0.00    -0.305 N 
ATOM      2  C   UNL d   1       1.113   3.196  -0.105  0.00  0.00     0.321 C 
ATOM      3  N   UNL d   1       2.408   3.074  -0.467  0.00  0.00    -0.337 N 
ATOM      4  O   UNL d   1       0.378   2.224   0.064  0.00  0.00    -0.247 OA
ATOM      5  H   UNL d   1      -0.418   4.279   0.312  0.00  0.00     0.171 HD
ATOM      6  H   UNL d   1       2.997   3.817  -0.148  0.00  0.00     0.164 HD
ENDROOT
BRANCH   3   7
ATOM      7  C   UNL d   1       3.043   1.761  -0.465  0.00  0.00     0.181 C 
BRANCH   7   8
ATOM      8  C   UNL d   1       2.824   0.986  -1.734  0.00  0.00     0.034 A 
ATOM      9  N   UNL d   1       3.938   0.474  -2.404  0.00  0.00    -0.351 N 
ATOM     10  C   UNL d   1       3.567  -0.233  -3.457  0.00  0.00     0.091 A 
ATOM     11  HN  UNL d   1       4.905   0.626  -2.120  1.00  0.00     0.166 HD
ATOM     12  S   UNL d   1       1.866  -0.342  -3.689  0.00  0.00    -0.081 SA
ATOM     13  C   UNL d   1       1.617   0.611  -2.292  0.00  0.00     0.078 A 
BRANCH  10  14
ATOM     14  C   UNL d   1       4.526  -0.909  -4.302  0.00  0.00     0.038 A 
ATOM     15  S   UNL d   1       4.221  -1.291  -5.951  0.00  0.00    -0.099 SA
ATOM     16  C   UNL d   1       5.759  -2.010  -6.148  0.00  0.00     0.050 A 
ATOM     17  C   UNL d   1       6.502  -1.964  -4.993  0.00  0.00     0.008 A 
ATOM     18  C   UNL d   1       5.794  -1.324  -3.933  0.00  0.00     0.022 A 
ENDBRANCH  10  14
ENDBRANCH   7   8
ENDBRANCH   3   7
BRANCH   1  19
ATOM     19  C   UNL d   1       0.960   5.741   0.076  0.00  0.00     0.092 A 
ATOM     20  C   UNL d   1       2.147   6.408  -0.154  0.00  0.00     0.101 A 
ATOM     21  O   UNL d   1       1.950   7.746   0.036  0.00  0.00    -0.240 OA
ATOM     22  C   UNL d   1       3.537   6.096  -0.534  0.00  0.00     0.081 C 
ATOM     23  N   UNL d   1       0.641   7.998   0.362  0.00  0.00    -0.263 N 
ATOM     24  C   UNL d   1       0.043   6.807   0.371  0.00  0.00     0.058 A 
ATOM     25  HN  UNL d   1       0.216   8.905   0.556  1.00  0.00     0.194 HD
ATOM     26  C   UNL d   1      -1.409   6.721   0.668  0.00  0.00     0.072 C 
ENDBRANCH   1  19
TORSDOF 4
