REMARK  6 active torsions:
REMARK  status: ('A' for Active; 'I' for Inactive)
REMARK    1  A    between atoms: C_5  and  C_1 
REMARK    2  A    between atoms: C_4  and  S_13 
REMARK    3  A    between atoms: C_15  and  C_5 
REMARK    4  A    between atoms: O_24  and  C_5 
REMARK    5  A    between atoms: C_8  and  C_6 
REMARK    6  A    between atoms: S_13  and  C_15 
ROOT
ATOM      1  N   UNL d   1      -4.122  -1.396   1.518  0.00  0.00    -0.336 N 
ATOM      2  HN  UNL d   1      -3.619  -2.282   1.543  1.00  0.00     0.168 HD
ATOM      3  C   UNL d   1      -3.472  -0.219   1.533  0.00  0.00     0.144 A 
ATOM      4  C   UNL d   1      -5.473  -1.352   1.469  0.00  0.00     0.045 A 
ATOM      5  N   UNL d   1      -4.054   0.988   1.469  0.00  0.00    -0.347 N 
ATOM      6  HN  UNL d   1      -3.508   1.850   1.450  1.00  0.00     0.167 HD
ATOM      7  C   UNL d   1      -6.157  -0.146   1.445  0.00  0.00     0.047 A 
ATOM      8  C   UNL d   1      -5.394   0.996   1.434  0.00  0.00     0.092 A 
ENDROOT
BRANCH   4   9
ATOM      9  C   UNL d   1      -6.186  -2.650   1.488  0.00  0.00    -0.006 A 
ATOM     10  C   UNL d   1      -7.450  -2.811   0.883  0.00  0.00     0.053 A 
ATOM     11  C   UNL d   1      -8.147  -4.016   0.960  0.00  0.00     0.103 A 
ATOM     12  O   UNL d   1      -9.386  -4.044   0.370  0.00  0.00    -0.346 OA
ATOM     13  C   UNL d   1      -7.582  -5.114   1.604  0.00  0.00     0.102 A 
ATOM     14  C   UNL d   1     -10.148  -5.182   0.797  0.00  0.00     0.202 C 
ATOM     15  C   UNL d   1      -9.288  -6.437   0.767  0.00  0.00     0.202 C 
ATOM     16  O   UNL d   1      -8.201  -6.334   1.694  0.00  0.00    -0.346 OA
ATOM     17  C   UNL d   1      -6.332  -4.992   2.202  0.00  0.00     0.040 A 
ATOM     18  C   UNL d   1      -5.640  -3.775   2.138  0.00  0.00     0.016 A 
ENDBRANCH   4   9
BRANCH   3  19
ATOM     19  S   UNL d   1      -1.723  -0.237   1.819  0.00  0.00    -0.091 SA
BRANCH  19  20
ATOM     20  C   UNL d   1      -1.153  -0.475   0.104  0.00  0.00     0.123 C 
BRANCH  20  21
ATOM     21  C   UNL d   1       0.378  -0.491  -0.005  0.00  0.00     0.235 C 
BRANCH  21  22
ATOM     22  C   UNL d   1       1.044  -1.661   0.744  0.00  0.00     0.413 C 
ATOM     23  F   UNL d   1       0.165  -2.607   1.132  0.00  0.00    -0.168 F 
ATOM     24  F   UNL d   1       1.694  -1.226   1.850  0.00  0.00    -0.168 F 
ATOM     25  F   UNL d   1       1.960  -2.272  -0.045  0.00  0.00    -0.168 F 
ENDBRANCH  21  22
BRANCH  21  26
ATOM     26  O   UNL d   1       0.896   0.801   0.386  0.00  0.00    -0.386 OA
ATOM     27  H   UNL d   1       0.784   0.868   1.358  0.00  0.00     0.210 HD
ENDBRANCH  21  26
ENDBRANCH  20  21
ENDBRANCH  19  20
ENDBRANCH   3  19
TORSDOF 6
