REMARK  1 active torsions:
REMARK  status: ('A' for Active; 'I' for Inactive)
REMARK    1  A    between atoms: C_8  and  C_1 
ROOT
ATOM      1  C   UNL d   1      -1.675   1.610  -0.179  0.00  0.00     0.140 A 
ATOM      2  N   UNL d   1      -0.845   0.506   0.055  0.00  0.00    -0.282 N 
ATOM      3  N   UNL d   1      -2.929   1.183  -0.178  0.00  0.00    -0.283 N 
ATOM      4  HN  UNL d   1      -3.751   1.773  -0.312  1.00  0.00     0.188 HD
ATOM      5  C   UNL d   1      -1.714  -0.568   0.142  0.00  0.00     0.114 A 
ATOM      6  N   UNL d   1      -2.957  -0.161   0.028  0.00  0.00    -0.286 N 
ATOM      7  HN  UNL d   1      -3.790  -0.746   0.083  1.00  0.00     0.188 HD
ATOM      8  C   UNL d   1       0.572   0.376   0.161  0.00  0.00     0.059 A 
ATOM      9  S   UNL d   1       0.232  -2.348  -0.498  0.00  0.00    -0.120 SA
ATOM     10  C   UNL d   1       1.164  -0.872  -0.111  0.00  0.00     0.028 A 
ATOM     11  C   UNL d   1      -1.273  -1.948   0.423  0.00  0.00     0.158 C 
ATOM     12  C   UNL d   1       1.388   1.463   0.499  0.00  0.00     0.031 A 
ATOM     13  C   UNL d   1       2.561  -0.985  -0.139  0.00  0.00     0.021 A 
ATOM     14  C   UNL d   1       2.779   1.336   0.464  0.00  0.00     0.002 A 
ATOM     15  C   UNL d   1       3.366   0.119   0.132  0.00  0.00     0.002 A 
ENDROOT
BRANCH   1  16
ATOM     16  C   UNL d   1      -1.315   3.005  -0.489  0.00  0.00     0.032 A 
ATOM     17  C   UNL d   1      -2.036   4.098   0.033  0.00  0.00     0.048 A 
ATOM     18 CL   UNL d   1      -3.385   3.919   1.106  0.00  0.00    -0.083 Cl
ATOM     19  C   UNL d   1      -1.674   5.416  -0.280  0.00  0.00     0.025 A 
ATOM     20  C   UNL d   1      -0.577   5.670  -1.102  0.00  0.00     0.002 A 
ATOM     21  C   UNL d   1       0.126   4.606  -1.652  0.00  0.00     0.001 A 
ATOM     22  C   UNL d   1      -0.262   3.290  -1.381  0.00  0.00     0.017 A 
ENDBRANCH   1  16
TORSDOF 1
