REMARK  3 active torsions:
REMARK  status: ('A' for Active; 'I' for Inactive)
REMARK    1  A    between atoms: C_2  and  C_1 
REMARK       I    between atoms: N_3  and  C_1 
REMARK       I    between atoms: C_4  and  N_3 
REMARK       I    between atoms: N_7  and  C_4 
REMARK    2  A    between atoms: C_5  and  C_6 
REMARK    3  A    between atoms: C_8  and  N_7 
ROOT
ATOM      1  C   UNL d   1       0.819   0.228   0.262  0.00  0.00     0.261 C 
ATOM      2  N   UNL d   1       0.168  -0.611   1.137  0.00  0.00    -0.275 N 
ATOM      3  C   UNL d   1      -1.181  -0.883   1.232  0.00  0.00     0.327 C 
ATOM      4  N   UNL d   1      -2.005  -0.092   0.465  0.00  0.00    -0.308 N 
ATOM      5  O   UNL d   1       0.345   0.701  -0.764  0.00  0.00    -0.267 OA
ATOM      6  O   UNL d   1      -1.527  -1.730   2.048  0.00  0.00    -0.247 OA
ATOM      7  H   UNL d   1       0.692  -1.096   1.854  0.00  0.00     0.173 HD
ATOM      8  H   UNL d   1      -1.541   0.648  -0.050  0.00  0.00     0.170 HD
ENDROOT
BRANCH   1   9
ATOM      9  C   UNL d   1       2.192   0.594   0.639  0.00  0.00     0.062 A 
ATOM     10  C   UNL d   1       3.325   0.194  -0.078  0.00  0.00     0.066 A 
ATOM     11  C   UNL d   1       4.559   0.760   0.280  0.00  0.00     0.034 A 
ATOM     12  C   UNL d   1       4.611   1.656   1.337  0.00  0.00     0.088 A 
ATOM     13  N   UNL d   1       3.529   2.015   2.059  0.00  0.00    -0.374 N 
ATOM     14  C   UNL d   1       2.341   1.492   1.687  0.00  0.00     0.105 A 
ATOM     15  HN  UNL d   1       3.606   2.654   2.850  1.00  0.00     0.164 HD
BRANCH  10  16
ATOM     16  C   UNL d   1       3.259  -0.794  -1.206  0.00  0.00     0.418 C 
ATOM     17  F   UNL d   1       2.222  -1.667  -1.108  0.00  0.00    -0.166 F 
ATOM     18  F   UNL d   1       3.170  -0.204  -2.424  0.00  0.00    -0.166 F 
ATOM     19  F   UNL d   1       4.378  -1.576  -1.254  0.00  0.00    -0.166 F 
ENDBRANCH  10  16
ENDBRANCH   1   9
BRANCH   4  20
ATOM     20  C   UNL d   1      -3.418  -0.076   0.509  0.00  0.00     0.042 A 
ATOM     21  C   UNL d   1      -4.118   1.100   0.174  0.00  0.00    -0.035 A 
ATOM     22  C   UNL d   1      -5.520   1.131   0.326  0.00  0.00     0.015 A 
ATOM     23  C   UNL d   1      -3.428   2.382  -0.209  0.00  0.00     0.050 C 
ATOM     24  C   UNL d   1      -6.235   0.003   0.748  0.00  0.00    -0.061 A 
ATOM     25  C   UNL d   1      -5.535  -1.172   1.017  0.00  0.00     0.009 A 
ATOM     26  C   UNL d   1      -7.714   0.086   0.985  0.00  0.00     0.048 C 
ATOM     27  C   UNL d   1      -4.143  -1.209   0.900  0.00  0.00     0.030 A 
ENDBRANCH   4  20
TORSDOF 3
