REMARK  1 active torsions:
REMARK  status: ('A' for Active; 'I' for Inactive)
REMARK    1  A    between atoms: C_10  and  C_8 
ROOT
ATOM      1  C   UNL d   1       0.768  -0.446  -0.141  0.00  0.00     0.072 A 
ATOM      2  C   UNL d   1       1.308   0.823  -0.124  0.00  0.00     0.088 A 
ATOM      3  C   UNL d   1       1.671  -1.582  -0.239  0.00  0.00     0.256 C 
ATOM      4  N   UNL d   1       2.643   1.050  -0.146  0.00  0.00    -0.358 N 
ATOM      5  N   UNL d   1       3.006  -1.264  -0.244  0.00  0.00    -0.332 N 
ATOM      6  S   UNL d   1       0.121   2.033  -0.058  0.00  0.00    -0.076 SA
ATOM      7  C   UNL d   1      -0.665  -0.419  -0.058  0.00  0.00    -0.026 A 
ATOM      8  C   UNL d   1       3.468  -0.038   0.343  0.00  0.00     0.219 C 
ATOM      9  C   UNL d   1      -1.135   0.874  -0.021  0.00  0.00    -0.008 A 
ATOM     10  O   UNL d   1       1.300  -2.754  -0.325  0.00  0.00    -0.267 OA
ATOM     11  C   UNL d   1      -1.552  -1.613  -0.019  0.00  0.00     0.041 C 
ATOM     12  C   UNL d   1      -2.561   1.291   0.062  0.00  0.00     0.047 C 
ATOM     13  C   UNL d   1      -3.052  -1.315   0.057  0.00  0.00     0.005 C 
ATOM     14  C   UNL d   1      -3.549   0.130  -0.079  0.00  0.00     0.005 C 
ATOM     15  H   UNL d   1       2.970   1.977   0.109  0.00  0.00     0.162 HD
ATOM     16  H   UNL d   1       3.616  -2.068  -0.218  0.00  0.00     0.165 HD
ENDROOT
BRANCH   8  17
ATOM     17  C   UNL d   1       4.926   0.211   0.027  0.00  0.00    -0.016 A 
ATOM     18  C   UNL d   1       5.379   0.300  -1.302  0.00  0.00     0.012 A 
ATOM     19  C   UNL d   1       6.728   0.533  -1.582  0.00  0.00     0.024 A 
ATOM     20  C   UNL d   1       7.636   0.683  -0.536  0.00  0.00     0.034 A 
ATOM     21  C   UNL d   1       7.208   0.594   0.786  0.00  0.00     0.024 A 
ATOM     22 CL   UNL d   1       9.295   0.984  -0.878  0.00  0.00    -0.084 Cl
ATOM     23  C   UNL d   1       5.859   0.358   1.067  0.00  0.00     0.012 A 
ENDBRANCH   8  17
TORSDOF 1
