REMARK  2 active torsions:
REMARK  status: ('A' for Active; 'I' for Inactive)
REMARK    1  A    between atoms: C_8  and  C_3 
REMARK    2  A    between atoms: N_9  and  C_5 
ROOT
ATOM      1  C   UNL d   1       1.001  -0.916  -0.343  0.00  0.00     0.112 A 
ATOM      2  S   UNL d   1       1.184   0.741  -0.709  0.00  0.00    -0.076 SA
ATOM      3  C   UNL d   1      -0.341   1.154  -0.028  0.00  0.00     0.018 A 
ATOM      4  C   UNL d   1      -0.953   0.027   0.499  0.00  0.00     0.051 A 
ATOM      5  C   UNL d   1      -0.185  -1.160   0.315  0.00  0.00     0.055 A 
ATOM      6  C   UNL d   1       1.987  -1.884  -0.695  0.00  0.00     0.109 C 
ATOM      7  N   UNL d   1       2.781  -2.683  -0.978  0.00  0.00    -0.191 NA
ENDROOT
BRANCH   5   8
ATOM      8  N   UNL d   1      -0.604  -2.367   0.746  0.00  0.00    -0.397 N 
ATOM      9  H   UNL d   1      -1.488  -2.506   1.228  0.00  0.00     0.156 HD
ATOM     10  H   UNL d   1      -0.072  -3.226   0.620  0.00  0.00     0.156 HD
ENDBRANCH   5   8
BRANCH   3  11
ATOM     11  C   UNL d   1      -0.801   2.557  -0.030  0.00  0.00    -0.019 A 
ATOM     12  C   UNL d   1      -0.458   3.443  -1.069  0.00  0.00     0.016 A 
ATOM     13  C   UNL d   1      -0.860   4.781  -1.038  0.00  0.00     0.043 A 
ATOM     14  C   UNL d   1      -1.623   5.241   0.024  0.00  0.00     0.116 A 
ATOM     15  C   UNL d   1      -2.000   4.385   1.051  0.00  0.00     0.043 A 
ATOM     16  F   UNL d   1      -1.999   6.525   0.060  0.00  0.00    -0.206 F 
ATOM     17  C   UNL d   1      -1.592   3.047   1.023  0.00  0.00     0.016 A 
ENDBRANCH   3  11
TORSDOF 2
