REMARK  6 active torsions:
REMARK  status: ('A' for Active; 'I' for Inactive)
REMARK    1  A    between atoms: N_16  and  C_8 
REMARK    2  A    between atoms: S_15  and  C_11 
REMARK    3  A    between atoms: C_20  and  S_15 
REMARK    4  A    between atoms: C_29  and  N_16 
REMARK    5  A    between atoms: C_18  and  C_29 
REMARK    6  A    between atoms: C_22  and  C_20 
ROOT
ATOM      1  C   UNL d   1       1.302  -0.779  -0.003  0.00  0.00     0.091 A 
ATOM      2  C   UNL d   1       0.782   0.506  -0.037  0.00  0.00     0.049 A 
ATOM      3  C   UNL d   1      -1.138  -0.849  -0.028  0.00  0.00     0.020 A 
ATOM      4  N   UNL d   1       2.595  -1.120   0.019  0.00  0.00    -0.330 N 
ATOM      5  HN  UNL d   1       2.919  -2.087   0.038  1.00  0.00     0.168 HD
ATOM      6  N   UNL d   1       3.055   1.223   0.024  0.00  0.00    -0.322 N 
ATOM      7  HN  UNL d   1       3.765   1.954   0.060  1.00  0.00     0.169 HD
ATOM      8  C   UNL d   1       1.736   1.552  -0.013  0.00  0.00     0.117 A 
ATOM      9  C   UNL d   1      -0.666   0.452  -0.085  0.00  0.00    -0.025 A 
ATOM     10  S   UNL d   1       0.109  -1.996  -0.001  0.00  0.00    -0.074 SA
ATOM     11  C   UNL d   1       3.419  -0.072   0.013  0.00  0.00     0.146 A 
ATOM     12  N   UNL d   1      -3.458  -0.124   0.425  0.00  0.00     0.089 N 
ATOM     13  C   UNL d   1      -2.588  -1.246  -0.002  0.00  0.00     0.318 C 
ATOM     14  C   UNL d   1      -1.645   1.594  -0.113  0.00  0.00     0.071 C 
ATOM     15  C   UNL d   1      -3.101   1.106  -0.311  0.00  0.00     0.277 C 
ATOM     16  C   UNL d   1      -3.413   0.067   1.875  0.00  0.00     0.310 C 
ENDROOT
BRANCH  11  17
ATOM     17  S   UNL d   1       5.138  -0.500  -0.160  0.00  0.00    -0.089 SA
BRANCH  17  18
ATOM     18  C   UNL d   1       5.938   0.833   0.776  0.00  0.00     0.121 C 
BRANCH  18  19
ATOM     19  C   UNL d   1       7.429   0.577   0.894  0.00  0.00    -0.048 A 
ATOM     20  C   UNL d   1       8.311   1.010  -0.111  0.00  0.00     0.009 A 
ATOM     21  C   UNL d   1       9.681   0.741  -0.023  0.00  0.00     0.024 A 
ATOM     22  C   UNL d   1      10.179   0.033   1.067  0.00  0.00     0.034 A 
ATOM     23  C   UNL d   1       9.320  -0.412   2.070  0.00  0.00     0.024 A 
ATOM     24 CL   UNL d   1      11.865  -0.300   1.174  0.00  0.00    -0.084 Cl
ATOM     25  C   UNL d   1       7.949  -0.145   1.980  0.00  0.00     0.009 A 
ENDBRANCH  18  19
ENDBRANCH  17  18
ENDBRANCH  11  17
BRANCH   8  26
ATOM     26  N   UNL d   1       1.360   2.889  -0.096  0.00  0.00    -0.372 N 
ATOM     27  H   UNL d   1       0.376   3.048   0.057  0.00  0.00     0.161 HD
BRANCH  26  28
ATOM     28  C   UNL d   1       2.190   3.886   0.542  0.00  0.00     0.147 C 
BRANCH  28  29
ATOM     29  C   UNL d   1       1.882   5.177  -0.156  0.00  0.00    -0.018 C 
ATOM     30  C   UNL d   1       1.323   6.261   0.397  0.00  0.00     0.008 C 
ENDBRANCH  28  29
ENDBRANCH  26  28
ENDBRANCH   8  26
TORSDOF 6
