REMARK  2 active torsions:
REMARK  status: ('A' for Active; 'I' for Inactive)
REMARK    1  A    between atoms: C_12  and  C_1 
REMARK    2  A    between atoms: C_13  and  C_1 
ROOT
ATOM      1  C   UNL d   1       1.017  -0.020  -0.324  0.00  0.00     0.090 C 
ATOM      2  C   UNL d   1      -0.841   0.706  -1.702  0.00  0.00     0.026 A 
ATOM      3  C   UNL d   1       0.306   1.164  -2.326  0.00  0.00     0.026 A 
ATOM      4  C   UNL d   1      -0.500   0.201  -0.368  0.00  0.00     0.176 C 
ATOM      5  C   UNL d   1       1.467   0.890  -1.480  0.00  0.00     0.176 C 
ATOM      6  C   UNL d   1      -2.035   0.583  -2.384  0.00  0.00     0.028 A 
ATOM      7  C   UNL d   1       0.314   1.584  -3.641  0.00  0.00     0.028 A 
ATOM      8  C   UNL d   1      -2.038   0.889  -3.756  0.00  0.00    -0.025 A 
ATOM      9  C   UNL d   1      -0.865   1.418  -4.380  0.00  0.00    -0.025 A 
ATOM     10  O   UNL d   1      -1.319  -0.057   0.491  0.00  0.00    -0.291 OA
ATOM     11  O   UNL d   1       2.597   1.248  -1.754  0.00  0.00    -0.291 OA
ATOM     12  C   UNL d   1      -3.162   0.617  -4.549  0.00  0.00     0.012 A 
ATOM     13  C   UNL d   1      -0.877   1.690  -5.754  0.00  0.00     0.012 A 
ATOM     14  C   UNL d   1      -3.135   0.850  -5.926  0.00  0.00     0.001 A 
ATOM     15  C   UNL d   1      -2.002   1.396  -6.523  0.00  0.00     0.001 A 
ENDROOT
BRANCH   1  16
ATOM     16  C   UNL d   1       1.328  -1.474  -0.777  0.00  0.00     0.021 C 
ATOM     17  C   UNL d   1       0.433  -2.566  -0.195  0.00  0.00     0.006 C 
ENDBRANCH   1  16
BRANCH   1  18
ATOM     18  C   UNL d   1       1.682   0.455   0.979  0.00  0.00     0.021 C 
ATOM     19  C   UNL d   1       1.867  -0.593   2.067  0.00  0.00     0.006 C 
ENDBRANCH   1  18
TORSDOF 2
