REMARK  6 active torsions:
REMARK  status: ('A' for Active; 'I' for Inactive)
REMARK    1  A    between atoms: C_5  and  C_1 
REMARK    2  A    between atoms: C_9  and  C_2 
REMARK    3  A    between atoms: N_7  and  O_15 
REMARK    4  A    between atoms: O_15  and  C_9 
REMARK    5  A    between atoms: C_12  and  C_11 
REMARK    6  A    between atoms: C_18  and  C_11 
ROOT
ATOM      1  C   UNL d   1       0.211  -2.867  -0.224  0.00  0.00     0.320 C 
ATOM      2  O   UNL d   1       1.333  -3.339  -0.071  0.00  0.00    -0.257 OA
ENDROOT
BRANCH   1   3
ATOM      3  C   UNL d   1      -0.051  -1.434  -0.103  0.00  0.00     0.102 A 
ATOM      4  C   UNL d   1      -1.071  -0.566  -0.639  0.00  0.00     0.087 A 
ATOM      5  N   UNL d   1      -0.769   0.713  -0.352  0.00  0.00    -0.259 N 
ATOM      6  O   UNL d   1       0.322   0.698   0.465  0.00  0.00    -0.241 OA
ATOM      7  HN  UNL d   1      -1.265   1.540  -0.684  1.00  0.00     0.195 HD
ATOM      8  C   UNL d   1       0.753  -0.572   0.631  0.00  0.00     0.091 A 
ATOM      9  C   UNL d   1       1.907  -0.708   1.541  0.00  0.00     0.080 C 
BRANCH   4  10
ATOM     10  C   UNL d   1      -2.300  -0.820  -1.416  0.00  0.00     0.037 A 
ATOM     11  C   UNL d   1      -3.517  -0.173  -1.074  0.00  0.00     0.048 A 
ATOM     12 CL   UNL d   1      -3.701   0.890   0.290  0.00  0.00    -0.083 Cl
ATOM     13  C   UNL d   1      -4.685  -0.364  -1.825  0.00  0.00     0.025 A 
ATOM     14  C   UNL d   1      -4.693  -1.245  -2.898  0.00  0.00     0.003 A 
ATOM     15  C   UNL d   1      -3.512  -1.888  -3.255  0.00  0.00     0.025 A 
ATOM     16  C   UNL d   1      -2.318  -1.639  -2.559  0.00  0.00     0.048 A 
ATOM     17 CL   UNL d   1      -0.886  -2.296  -3.280  0.00  0.00    -0.083 Cl
ENDBRANCH   4  10
ENDBRANCH   1   3
BRANCH   1  18
ATOM     18  O   UNL d   1      -0.928  -3.604  -0.475  0.00  0.00    -0.195 OA
BRANCH  18  19
ATOM     19  N   UNL d   1      -0.581  -4.895  -0.994  0.00  0.00    -0.260 N 
ATOM     20  C   UNL d   1      -1.296  -5.846  -0.463  0.00  0.00     0.047 C 
ATOM     21  HN  UNL d   1       0.142  -5.051  -1.696  1.00  0.00     0.194 HD
BRANCH  20  22
ATOM     22  C   UNL d   1      -2.192  -5.540   0.695  0.00  0.00     0.038 A 
ATOM     23  C   UNL d   1      -1.529  -5.097   1.986  0.00  0.00     0.011 A 
ATOM     24  C   UNL d   1      -2.258  -6.400   1.939  0.00  0.00     0.011 A 
ENDBRANCH  20  22
BRANCH  20  25
ATOM     25  C   UNL d   1      -1.224  -7.247  -0.982  0.00  0.00    -0.011 A 
ATOM     26  C   UNL d   1      -0.105  -7.675  -1.702  0.00  0.00     0.016 A 
ATOM     27  C   UNL d   1      -0.020  -9.002  -2.158  0.00  0.00     0.043 A 
ATOM     28  C   UNL d   1      -1.058  -9.889  -1.889  0.00  0.00     0.116 A 
ATOM     29  C   UNL d   1      -2.189  -9.474  -1.200  0.00  0.00     0.043 A 
ATOM     30  F   UNL d   1      -0.968 -11.160  -2.300  0.00  0.00    -0.206 F 
ATOM     31  C   UNL d   1      -2.278  -8.151  -0.754  0.00  0.00     0.016 A 
ENDBRANCH  20  25
ENDBRANCH  18  19
ENDBRANCH   1  18
TORSDOF 6
