REMARK  4 active torsions:
REMARK  status: ('A' for Active; 'I' for Inactive)
REMARK    1  A    between atoms: C_5  and  N_1 
REMARK    2  A    between atoms: S_7  and  C_4 
REMARK    3  A    between atoms: C_10  and  S_7 
REMARK    4  A    between atoms: N_18  and  C_15 
ROOT
ATOM      1  N   UNL d   1       0.044   0.869  -0.040  0.00  0.00    -0.251 N 
ATOM      2  C   UNL d   1      -1.086   0.114   0.181  0.00  0.00     0.232 C 
ATOM      3  C   UNL d   1       1.161   0.069  -0.149  0.00  0.00     0.245 C 
ATOM      4  C   UNL d   1       0.735  -1.381  -0.196  0.00  0.00     0.154 C 
ATOM      5  C   UNL d   1      -0.729  -1.342   0.187  0.00  0.00     0.129 C 
ATOM      6  O   UNL d   1      -2.235   0.492   0.362  0.00  0.00    -0.273 OA
ATOM      7  O   UNL d   1       2.337   0.416  -0.168  0.00  0.00    -0.271 OA
ENDROOT
BRANCH   4   8
ATOM      8  S   UNL d   1       1.048  -2.002  -1.892  0.00  0.00    -0.113 SA
BRANCH   8   9
ATOM      9  C   UNL d   1       0.572  -3.725  -1.716  0.00  0.00     0.022 A 
ATOM     10  C   UNL d   1      -0.433  -4.261  -2.550  0.00  0.00     0.022 A 
ATOM     11  C   UNL d   1      -0.821  -5.594  -2.373  0.00  0.00     0.024 A 
ATOM     12  C   UNL d   1      -0.153  -6.417  -1.465  0.00  0.00     0.002 A 
ATOM     13  C   UNL d   1       0.887  -5.903  -0.694  0.00  0.00     0.001 A 
ATOM     14  C   UNL d   1       1.246  -4.559  -0.815  0.00  0.00     0.020 A 
BRANCH  10  15
ATOM     15  N   UNL d   1      -1.204  -3.432  -3.392  0.00  0.00    -0.302 NA
ATOM     16  H   UNL d   1      -0.677  -2.606  -3.675  0.00  0.00     0.124 HD
ATOM     17  H   UNL d   1      -1.598  -3.924  -4.188  0.00  0.00     0.124 HD
ENDBRANCH  10  15
ENDBRANCH   8   9
ENDBRANCH   4   8
BRANCH   1  18
ATOM     18  C   UNL d   1       0.066   2.295  -0.122  0.00  0.00     0.047 A 
ATOM     19  C   UNL d   1      -0.953   3.087   0.433  0.00  0.00     0.055 A 
ATOM     20  C   UNL d   1      -0.941   4.487   0.315  0.00  0.00     0.058 A 
ATOM     21 CL   UNL d   1      -2.231   5.367   1.058  0.00  0.00    -0.082 Cl
ATOM     22  C   UNL d   1       0.090   5.123  -0.378  0.00  0.00     0.055 A 
ATOM     23  C   UNL d   1       1.112   4.356  -0.932  0.00  0.00     0.028 A 
ATOM     24 CL   UNL d   1       0.158   6.835  -0.588  0.00  0.00    -0.083 Cl
ATOM     25  C   UNL d   1       1.103   2.962  -0.798  0.00  0.00     0.032 A 
ENDBRANCH   1  18
TORSDOF 4
