REMARK  2 active torsions:
REMARK  status: ('A' for Active; 'I' for Inactive)
REMARK    1  A    between atoms: C_6  and  N_1 
REMARK    2  A    between atoms: C_11  and  C_6 
ROOT
ATOM      1  N   UNL d   1       1.886   0.032  -0.089  0.00  0.00    -0.276 N 
ATOM      2  C   UNL d   1       1.099   1.150  -0.110  0.00  0.00     0.262 A 
ATOM      3  C   UNL d   1       1.145  -1.115  -0.023  0.00  0.00     0.262 A 
ATOM      4  C   UNL d   1      -0.286   0.681  -0.047  0.00  0.00     0.048 A 
ATOM      5  C   UNL d   1      -0.257  -0.701   0.003  0.00  0.00     0.048 A 
ATOM      6  O   UNL d   1       1.425   2.319  -0.183  0.00  0.00    -0.267 OA
ATOM      7  O   UNL d   1       1.519  -2.272  -0.003  0.00  0.00    -0.267 OA
ATOM      8  C   UNL d   1      -1.413  -1.456   0.048  0.00  0.00     0.018 A 
ATOM      9  C   UNL d   1      -1.473   1.387  -0.052  0.00  0.00     0.018 A 
ATOM     10  C   UNL d   1      -2.658   0.646  -0.005  0.00  0.00     0.001 A 
ATOM     11  C   UNL d   1      -2.628  -0.764   0.043  0.00  0.00     0.001 A 
ENDROOT
BRANCH   1  12
ATOM     12  C   UNL d   1       3.330   0.057  -0.155  0.00  0.00     0.174 C 
BRANCH  12  13
ATOM     13  C   UNL d   1       3.955   0.138   1.214  0.00  0.00    -0.037 A 
ATOM     14  C   UNL d   1       4.245  -1.023   1.937  0.00  0.00     0.026 A 
ATOM     15  C   UNL d   1       4.802  -0.897   3.200  0.00  0.00     0.088 A 
ATOM     16  N   UNL d   1       5.081   0.288   3.784  0.00  0.00    -0.375 N 
ATOM     17  C   UNL d   1       4.784   1.397   3.074  0.00  0.00     0.088 A 
ATOM     18  HN  UNL d   1       5.496   0.343   4.714  1.00  0.00     0.164 HD
ATOM     19  C   UNL d   1       4.225   1.375   1.806  0.00  0.00     0.026 A 
ENDBRANCH  12  13
ENDBRANCH   1  12
TORSDOF 2
