REMARK  8 active torsions:
REMARK  status: ('A' for Active; 'I' for Inactive)
REMARK    1  A    between atoms: C_6  and  C_1 
REMARK    2  A    between atoms: C_2  and  C_7 
REMARK    3  A    between atoms: O_10  and  C_2 
REMARK    4  A    between atoms: C_18  and  C_3 
REMARK    5  A    between atoms: N_21  and  C_3 
REMARK    6  A    between atoms: N_4  and  O_10 
REMARK    7  A    between atoms: C_12  and  O_13 
REMARK    8  A    between atoms: O_13  and  C_18 
ROOT
ATOM      1  C   UNL d   1      -0.881   6.247   4.285  0.00  0.00     0.120 C 
ATOM      2  N   UNL d   1      -0.844   5.089   3.701  0.00  0.00    -0.243 N 
ATOM      3  HN  UNL d   1      -1.180   4.228   4.134  1.00  0.00     0.196 HD
ENDROOT
BRANCH   2   4
ATOM      4  O   UNL d   1      -0.288   5.144   2.398  0.00  0.00    -0.193 OA
BRANCH   4   5
ATOM      5  C   UNL d   1      -0.664   4.018   1.718  0.00  0.00     0.315 C 
ATOM      6  O   UNL d   1      -1.422   3.140   2.118  0.00  0.00    -0.257 OA
BRANCH   5   7
ATOM      7  C   UNL d   1      -0.086   3.962   0.345  0.00  0.00     0.042 A 
ATOM      8  C   UNL d   1       0.850   4.882  -0.151  0.00  0.00     0.034 A 
ATOM      9  C   UNL d   1       1.349   4.754  -1.465  0.00  0.00     0.048 A 
ATOM     10  C   UNL d   1       0.904   3.692  -2.270  0.00  0.00     0.016 A 
ATOM     11  C   UNL d   1      -0.024   2.776  -1.784  0.00  0.00     0.002 A 
ATOM     12  C   UNL d   1      -0.515   2.913  -0.486  0.00  0.00     0.018 A 
BRANCH   9  13
ATOM     13  C   UNL d   1       2.354   5.730  -2.030  0.00  0.00     0.417 C 
ATOM     14  F   UNL d   1       2.669   6.741  -1.174  0.00  0.00    -0.166 F 
ATOM     15  F   UNL d   1       1.909   6.331  -3.168  0.00  0.00    -0.166 F 
ATOM     16  F   UNL d   1       3.533   5.134  -2.358  0.00  0.00    -0.166 F 
ENDBRANCH   9  13
ENDBRANCH   5   7
ENDBRANCH   4   5
ENDBRANCH   2   4
BRANCH   1  17
ATOM     17  C   UNL d   1      -1.560   6.313   5.671  0.00  0.00     0.253 C 
BRANCH  17  18
ATOM     18  O   UNL d   1      -0.629   6.304   6.748  0.00  0.00    -0.342 OA
BRANCH  18  19
ATOM     19  C   UNL d   1      -1.183   6.394   8.006  0.00  0.00     0.091 A 
ATOM     20  C   UNL d   1      -0.576   5.696   9.063  0.00  0.00     0.069 A 
ATOM     21  C   UNL d   1      -1.069   5.799  10.370  0.00  0.00     0.050 A 
ATOM     22 CL   UNL d   1       0.793   4.675   8.800  0.00  0.00    -0.081 Cl
ATOM     23  C   UNL d   1      -2.166   6.616  10.631  0.00  0.00     0.035 A 
ATOM     24  C   UNL d   1      -2.771   7.327   9.599  0.00  0.00     0.026 A 
ATOM     25 CL   UNL d   1      -2.769   6.764  12.234  0.00  0.00    -0.084 Cl
ATOM     26  C   UNL d   1      -2.278   7.220   8.293  0.00  0.00     0.040 A 
ENDBRANCH  18  19
ENDBRANCH  17  18
ENDBRANCH   1  17
BRANCH   1  27
ATOM     27  N   UNL d   1      -0.421   7.419   3.731  0.00  0.00    -0.386 N 
ATOM     28  H   UNL d   1      -0.281   7.380   2.729  0.00  0.00     0.157 HD
ATOM     29  H   UNL d   1      -0.826   8.286   4.063  0.00  0.00     0.157 HD
ENDBRANCH   1  27
TORSDOF 8
