REMARK  1 active torsions:
REMARK  status: ('A' for Active; 'I' for Inactive)
REMARK    1  A    between atoms: N_8  and  N_6 
ROOT
ATOM      1  C   UNL d   1      -0.084   1.784   0.074  0.00  0.00     0.065 A 
ATOM      2  C   UNL d   1       1.116   0.911   0.032  0.00  0.00     0.004 A 
ATOM      3  C   UNL d   1      -1.263   0.871   0.066  0.00  0.00     0.004 A 
ATOM      4  C   UNL d   1       0.681  -0.419   0.002  0.00  0.00    -0.013 A 
ATOM      5  C   UNL d   1      -0.763  -0.448   0.016  0.00  0.00    -0.013 A 
ATOM      6  N   UNL d   1       0.031   3.075   0.110  0.00  0.00    -0.322 N 
ATOM      7  HN  UNL d   1       0.948   3.522   0.125  1.00  0.00     0.180 HD
ATOM      8  C   UNL d   1      -2.623   1.125   0.100  0.00  0.00     0.014 A 
ATOM      9  C   UNL d   1       2.452   1.268   0.020  0.00  0.00     0.014 A 
ATOM     10  C   UNL d   1       1.615  -1.445  -0.030  0.00  0.00     0.013 A 
ATOM     11  C   UNL d   1      -1.634  -1.529  -0.010  0.00  0.00     0.013 A 
ATOM     12  C   UNL d   1      -3.008  -1.279   0.012  0.00  0.00     0.001 A 
ATOM     13  C   UNL d   1      -3.499   0.036   0.067  0.00  0.00     0.001 A 
ATOM     14  C   UNL d   1       3.390   0.235  -0.015  0.00  0.00     0.001 A 
ATOM     15  C   UNL d   1       2.974  -1.109  -0.036  0.00  0.00     0.001 A 
ENDROOT
BRANCH   6  16
ATOM     16  N   UNL d   1      -1.099   3.807   0.125  0.00  0.00    -0.249 NA
ATOM     17  H   UNL d   1      -0.852   4.799   0.183  0.00  0.00     0.143 HD
ATOM     18  H   UNL d   1      -1.604   3.709  -0.759  0.00  0.00     0.143 HD
ENDBRANCH   6  16
TORSDOF 1
