REMARK  5 active torsions:
REMARK  status: ('A' for Active; 'I' for Inactive)
REMARK    1  A    between atoms: C_9  and  C_1 
REMARK    2  A    between atoms: N_14  and  C_3 
REMARK    3  A    between atoms: C_12  and  C_6 
REMARK    4  A    between atoms: C_17  and  C_9 
REMARK    5  A    between atoms: C_19  and  C_10 
ROOT
ATOM      1  C   UNL d   1       2.355   0.114  -0.017  0.00  0.00     0.155 A 
ATOM      2  C   UNL d   1       0.227   0.893   0.022  0.00  0.00     0.056 A 
ATOM      3  C   UNL d   1       1.600   1.268  -0.059  0.00  0.00     0.080 A 
ATOM      4  C   UNL d   1       0.244  -0.505   0.027  0.00  0.00     0.162 A 
ATOM      5  O   UNL d   1       1.525  -0.969   0.019  0.00  0.00    -0.286 OA
ATOM      6  C   UNL d   1      -1.045   1.502   0.069  0.00  0.00    -0.000 A 
ATOM      7  N   UNL d   1      -0.808  -1.339   0.020  0.00  0.00    -0.335 N 
ATOM      8  HN  UNL d   1      -0.705  -2.354   0.030  1.00  0.00     0.168 HD
ATOM      9  C   UNL d   1      -2.012  -0.730  -0.003  0.00  0.00     0.045 A 
ATOM     10  C   UNL d   1      -2.165   0.657   0.048  0.00  0.00     0.044 A 
ENDROOT
BRANCH   1  11
ATOM     11  C   UNL d   1       3.788  -0.072   0.021  0.00  0.00     0.218 C 
ATOM     12  O   UNL d   1       4.554   0.752   0.524  0.00  0.00    -0.284 OA
BRANCH  11  13
ATOM     13  C   UNL d   1       4.396  -1.277  -0.607  0.00  0.00     0.017 A 
ATOM     14  C   UNL d   1       5.590  -1.786  -0.076  0.00  0.00     0.015 A 
ATOM     15  C   UNL d   1       6.229  -2.861  -0.695  0.00  0.00     0.001 A 
ATOM     16  C   UNL d   1       5.688  -3.422  -1.851  0.00  0.00     0.000 A 
ATOM     17  C   UNL d   1       4.505  -2.916  -2.388  0.00  0.00     0.001 A 
ATOM     18  C   UNL d   1       3.857  -1.845  -1.768  0.00  0.00     0.015 A 
ENDBRANCH  11  13
ENDBRANCH   1  11
BRANCH   3  19
ATOM     19  N   UNL d   1       2.110   2.511  -0.187  0.00  0.00    -0.396 N 
ATOM     20  H   UNL d   1       1.536   3.336  -0.026  0.00  0.00     0.156 HD
ATOM     21  H   UNL d   1       3.102   2.675  -0.004  0.00  0.00     0.156 HD
ENDBRANCH   3  19
BRANCH   6  22
ATOM     22  C   UNL d   1      -1.222   2.956   0.091  0.00  0.00     0.016 A 
ATOM     23  S   UNL d   1      -0.409   3.938   1.241  0.00  0.00    -0.101 SA
ATOM     24  C   UNL d   1      -1.097   5.372   0.619  0.00  0.00     0.050 A 
ATOM     25  C   UNL d   1      -2.011   5.112  -0.376  0.00  0.00     0.008 A 
ATOM     26  C   UNL d   1      -2.090   3.720  -0.672  0.00  0.00     0.020 A 
ENDBRANCH   6  22
BRANCH   9  27
ATOM     27  C   UNL d   1      -3.179  -1.630  -0.116  0.00  0.00    -0.009 A 
ATOM     28  C   UNL d   1      -3.208  -2.870   0.547  0.00  0.00     0.013 A 
ATOM     29  C   UNL d   1      -4.307  -3.728   0.436  0.00  0.00     0.001 A 
ATOM     30  C   UNL d   1      -5.397  -3.368  -0.349  0.00  0.00     0.000 A 
ATOM     31  C   UNL d   1      -5.393  -2.152  -1.024  0.00  0.00     0.001 A 
ATOM     32  C   UNL d   1      -4.295  -1.296  -0.911  0.00  0.00     0.013 A 
ENDBRANCH   9  27
TORSDOF 5
