REMARK  5 active torsions:
REMARK  status: ('A' for Active; 'I' for Inactive)
REMARK    1  A    between atoms: C_2  and  N_1 
REMARK    2  A    between atoms: C_7  and  C_3 
REMARK    3  A    between atoms: C_5  and  C_7 
REMARK    4  A    between atoms: O_9  and  C_5 
REMARK    5  A    between atoms: C_12  and  O_9 
ROOT
ATOM      1  C   UNL d   1       0.120  -3.226  -0.861  0.00  0.00     0.109 A 
ATOM      2  C   UNL d   1       0.678  -2.228  -0.032  0.00  0.00    -0.016 A 
ATOM      3  C   UNL d   1       0.010  -0.991   0.003  0.00  0.00     0.010 A 
ATOM      4  C   UNL d   1      -1.034  -3.002  -1.630  0.00  0.00     0.037 A 
ATOM      5  C   UNL d   1      -1.145  -0.764  -0.754  0.00  0.00     0.001 A 
ATOM      6  C   UNL d   1      -1.663  -1.763  -1.574  0.00  0.00     0.002 A 
ENDROOT
BRANCH   2   7
ATOM      7  C   UNL d   1       1.925  -2.480   0.795  0.00  0.00     0.152 C 
BRANCH   7   8
ATOM      8  C   UNL d   1       2.417  -1.318   1.627  0.00  0.00     0.263 C 
ATOM      9  O   UNL d   1       3.204  -0.471   1.229  0.00  0.00    -0.265 OA
BRANCH   8  10
ATOM     10  O   UNL d   1       1.816  -1.315   2.851  0.00  0.00    -0.322 OA
BRANCH  10  11
ATOM     11  C   UNL d   1       2.183  -0.237   3.725  0.00  0.00     0.174 C 
ATOM     12  C   UNL d   1       1.357   1.000   3.425  0.00  0.00     0.034 C 
ENDBRANCH  10  11
ENDBRANCH   8  10
ENDBRANCH   7   8
ENDBRANCH   2   7
BRANCH   1  13
ATOM     13  N   UNL d   1       0.704  -4.560  -0.941  0.00  0.00    -0.115 N 
ATOM     14  O   UNL d   1       1.903  -4.646  -1.237  0.00  0.00    -0.532 OA
ATOM     15  O   UNL d   1      -0.049  -5.518  -0.720  0.00  0.00    -0.532 OA
ENDBRANCH   1  13
TORSDOF 5
