REMARK  3 active torsions:
REMARK  status: ('A' for Active; 'I' for Inactive)
REMARK    1  A    between atoms: C_12  and  N_2 
REMARK    2  A    between atoms: C_7  and  C_16 
REMARK    3  A    between atoms: C_19  and  C_12 
ROOT
ATOM      1  C   UNL d   1       2.429  -2.053   0.055  0.00  0.00     0.183 C 
ENDROOT
BRANCH   1   2
ATOM      2  N   UNL d   1       1.168  -1.332   0.000  0.00  0.00    -0.233 N 
ATOM      3  S   UNL d   1       0.969  -0.175  -1.197  0.00  0.00     0.268 S 
ATOM      4  C   UNL d   1      -0.580   0.327  -0.592  0.00  0.00     0.095 A 
ATOM      5  O   UNL d   1       1.917   0.893  -0.983  0.00  0.00    -0.200 OA
ATOM      6  O   UNL d   1       0.788  -0.835  -2.469  0.00  0.00    -0.200 OA
ATOM      7  C   UNL d   1      -0.893  -0.360   0.574  0.00  0.00     0.056 A 
ATOM      8  C   UNL d   1      -1.427   1.260  -1.162  0.00  0.00     0.026 A 
ATOM      9  C   UNL d   1      -2.100  -0.135   1.219  0.00  0.00     0.018 A 
ATOM     10  C   UNL d   1       0.161  -1.305   0.990  0.00  0.00     0.269 C 
ATOM     11  C   UNL d   1      -2.981   0.798   0.658  0.00  0.00     0.001 A 
ATOM     12  C   UNL d   1      -2.645   1.492  -0.519  0.00  0.00     0.002 A 
ATOM     13  O   UNL d   1       0.163  -1.933   2.032  0.00  0.00    -0.266 OA
ENDBRANCH   1   2
BRANCH   1  14
ATOM     14  C   UNL d   1       2.278  -3.553  -0.043  0.00  0.00    -0.039 A 
ATOM     15  C   UNL d   1       2.169  -4.178  -1.292  0.00  0.00     0.010 A 
ATOM     16  C   UNL d   1       2.109  -5.573  -1.386  0.00  0.00     0.014 A 
ATOM     17  C   UNL d   1       2.145  -6.372  -0.234  0.00  0.00    -0.008 A 
ATOM     18  C   UNL d   1       2.191  -5.742   1.016  0.00  0.00     0.014 A 
ATOM     19  C   UNL d   1       2.255  -4.347   1.111  0.00  0.00     0.010 A 
BRANCH  17  20
ATOM     20  C   UNL d   1       2.142  -7.828  -0.314  0.00  0.00     0.063 A 
ATOM     21  N   UNL d   1       1.623  -8.613   0.711  0.00  0.00    -0.292 N 
ATOM     22  N   UNL d   1       1.729  -9.905   0.448  0.00  0.00    -0.061 NA
ATOM     23  HN  UNL d   1       1.210  -8.237   1.564  1.00  0.00     0.183 HD
ATOM     24  S   UNL d   1       2.470 -10.212  -1.018  0.00  0.00    -0.010 SA
ATOM     25  C   UNL d   1       2.681  -8.546  -1.369  0.00  0.00     0.096 A 
ENDBRANCH  17  20
ENDBRANCH   1  14
TORSDOF 3
