REMARK  1 active torsions:
REMARK  status: ('A' for Active; 'I' for Inactive)
REMARK    1  A    between atoms: C_7  and  C_4 
REMARK       I    between atoms: N_14  and  C_7 
ROOT
ATOM      1  C   UNL d   1      -0.857  -0.457   0.012  0.00  0.00     0.024 A 
ATOM      2  S   UNL d   1      -1.695  -1.950   0.037  0.00  0.00    -0.083 SA
ATOM      3  C   UNL d   1      -1.736   0.612  -0.005  0.00  0.00    -0.029 A 
ATOM      4  C   UNL d   1      -3.227  -1.209   0.015  0.00  0.00     0.073 A 
ATOM      5  C   UNL d   1       0.613  -0.381   0.008  0.00  0.00    -0.000 A 
ATOM      6  C   UNL d   1      -3.103   0.165  -0.001  0.00  0.00     0.034 A 
ATOM      7  S   UNL d   1       0.406   2.454   0.105  0.00  0.00    -0.124 SA
ATOM      8  C   UNL d   1       1.246   0.876   0.028  0.00  0.00     0.012 A 
ATOM      9  C   UNL d   1      -1.356   2.053  -0.045  0.00  0.00     0.119 C 
ATOM     10  C   UNL d   1       1.419  -1.538  -0.012  0.00  0.00     0.038 A 
ATOM     11  C   UNL d   1       2.652   0.946   0.021  0.00  0.00     0.021 A 
ATOM     12  C   UNL d   1       2.811  -1.448  -0.013  0.00  0.00     0.035 A 
ATOM     13  C   UNL d   1       3.433  -0.209  -0.000  0.00  0.00     0.025 A 
ATOM     14 CL   UNL d   1       3.760  -2.883  -0.026  0.00  0.00    -0.084 Cl
ENDROOT
BRANCH   4  15
ATOM     15  C   UNL d   1      -4.460  -1.979   0.012  0.00  0.00     0.256 C 
ATOM     16  O   UNL d   1      -5.581  -1.480  -0.001  0.00  0.00    -0.267 OA
ATOM     17  N   UNL d   1      -4.335  -3.341   0.020  0.00  0.00    -0.366 N 
ATOM     18  H   UNL d   1      -3.432  -3.792   0.025  0.00  0.00     0.159 HD
ATOM     19  H   UNL d   1      -5.177  -3.897   0.013  0.00  0.00     0.159 HD
ENDBRANCH   4  15
TORSDOF 1
