REMARK  5 active torsions:
REMARK  status: ('A' for Active; 'I' for Inactive)
REMARK    1  A    between atoms: N_12  and  C_1 
REMARK    2  A    between atoms: C_2  and  C_4 
REMARK    3  A    between atoms: C_3  and  C_11 
REMARK    4  A    between atoms: N_9  and  N_12 
REMARK    5  A    between atoms: C_24  and  C_21 
ROOT
ATOM      1  N   UNL d   1       0.046   2.305   0.169  0.00  0.00    -0.203 NA
ATOM      2  H   UNL d   1       0.461   2.262  -0.766  0.00  0.00     0.153 HD
ENDROOT
BRANCH   1   3
ATOM      3  N   UNL d   1      -1.194   2.863   0.220  0.00  0.00    -0.327 N 
ATOM      4  C   UNL d   1      -1.219   4.125  -0.072  0.00  0.00     0.113 C 
ATOM      5  HN  UNL d   1      -2.030   2.335   0.467  1.00  0.00     0.180 HD
BRANCH   4   6
ATOM      6  C   UNL d   1      -2.466   4.909   0.024  0.00  0.00    -0.020 A 
ATOM      7  C   UNL d   1      -3.666   4.293   0.394  0.00  0.00     0.013 A 
ATOM      8  C   UNL d   1      -4.828   5.055   0.530  0.00  0.00     0.017 A 
ATOM      9  C   UNL d   1      -4.803   6.440   0.307  0.00  0.00     0.048 A 
ATOM     10  C   UNL d   1      -3.591   7.045  -0.067  0.00  0.00     0.017 A 
ATOM     11  C   UNL d   1      -2.425   6.286  -0.209  0.00  0.00     0.013 A 
BRANCH   9  12
ATOM     12  C   UNL d   1      -6.051   7.277   0.468  0.00  0.00     0.417 C 
ATOM     13  F   UNL d   1      -7.151   6.557   0.824  0.00  0.00    -0.166 F 
ATOM     14  F   UNL d   1      -5.911   8.241   1.420  0.00  0.00    -0.166 F 
ATOM     15  F   UNL d   1      -6.387   7.931  -0.679  0.00  0.00    -0.166 F 
ENDBRANCH   9  12
ENDBRANCH   4   6
ENDBRANCH   1   3
BRANCH   1  16
ATOM     16  C   UNL d   1       0.193   1.052   0.836  0.00  0.00     0.071 A 
ATOM     17  C   UNL d   1       0.963   0.035   0.231  0.00  0.00     0.059 A 
ATOM     18  C   UNL d   1       1.216  -1.185   0.871  0.00  0.00     0.042 A 
ATOM     19 CL   UNL d   1       1.623   0.259  -1.358  0.00  0.00    -0.082 Cl
ATOM     20  C   UNL d   1       0.717  -1.428   2.153  0.00  0.00     0.051 A 
ATOM     21  C   UNL d   1      -0.063  -0.438   2.765  0.00  0.00     0.042 A 
ATOM     22  C   UNL d   1      -0.317   0.786   2.126  0.00  0.00     0.059 A 
ATOM     23 CL   UNL d   1      -1.214   1.942   3.058  0.00  0.00    -0.082 Cl
BRANCH  20  24
ATOM     24  C   UNL d   1       1.021  -2.707   2.894  0.00  0.00     0.417 C 
ATOM     25  F   UNL d   1       1.770  -3.587   2.173  0.00  0.00    -0.166 F 
ATOM     26  F   UNL d   1       1.714  -2.479   4.046  0.00  0.00    -0.166 F 
ATOM     27  F   UNL d   1      -0.103  -3.378   3.257  0.00  0.00    -0.166 F 
ENDBRANCH  20  24
ENDBRANCH   1  16
TORSDOF 5
