REMARK  2 active torsions:
REMARK  status: ('A' for Active; 'I' for Inactive)
REMARK    1  A    between atoms: C_9  and  C_6 
REMARK    2  A    between atoms: C_14  and  C_7 
ROOT
ATOM      1  N   UNL d   1       1.397  -0.632  -0.025  0.00  0.00    -0.348 N 
ATOM      2  HN  UNL d   1       2.281  -1.140   0.005  1.00  0.00     0.166 HD
ATOM      3  C   UNL d   1       0.205  -1.199  -0.054  0.00  0.00     0.091 A 
ATOM      4  S   UNL d   1      -1.464  -3.431  -0.115  0.00  0.00    -0.086 SA
ATOM      5  C   UNL d   1       0.053  -2.638  -0.041  0.00  0.00     0.039 A 
ATOM      6  C   UNL d   1      -0.771  -4.994   0.017  0.00  0.00     0.022 A 
ATOM      7  C   UNL d   1       1.280   0.750  -0.041  0.00  0.00     0.050 A 
ATOM      8  S   UNL d   1      -1.116  -0.094  -0.081  0.00  0.00    -0.081 SA
ATOM      9  C   UNL d   1      -0.019   1.218  -0.048  0.00  0.00     0.082 A 
ATOM     10  C   UNL d   1       1.078  -3.563   0.036  0.00  0.00     0.023 A 
ATOM     11  C   UNL d   1       0.608  -4.910   0.074  0.00  0.00     0.021 A 
ENDROOT
BRANCH   7  12
ATOM     12  C   UNL d   1       2.458   1.612  -0.021  0.00  0.00    -0.009 A 
ATOM     13  C   UNL d   1       2.435   2.903  -0.571  0.00  0.00     0.015 A 
ATOM     14  C   UNL d   1       3.576   3.711  -0.540  0.00  0.00     0.024 A 
ATOM     15  C   UNL d   1       4.749   3.232   0.039  0.00  0.00     0.034 A 
ATOM     16  C   UNL d   1       4.792   1.951   0.583  0.00  0.00     0.024 A 
ATOM     17 CL   UNL d   1       6.150   4.228   0.077  0.00  0.00    -0.084 Cl
ATOM     18  C   UNL d   1       3.650   1.143   0.548  0.00  0.00     0.015 A 
ENDBRANCH   7  12
BRANCH   6  19
ATOM     19  C   UNL d   1      -1.599  -6.178   0.076  0.00  0.00     0.021 A 
ATOM     20  S   UNL d   1      -1.073  -7.604   0.882  0.00  0.00    -0.101 SA
ATOM     21  C   UNL d   1      -2.542  -8.417   0.568  0.00  0.00     0.050 A 
ATOM     22  C   UNL d   1      -3.416  -7.639  -0.156  0.00  0.00     0.008 A 
ATOM     23  C   UNL d   1      -2.871  -6.353  -0.442  0.00  0.00     0.021 A 
ENDBRANCH   6  19
TORSDOF 2
