REMARK  5 active torsions:
REMARK  status: ('A' for Active; 'I' for Inactive)
REMARK    1  A    between atoms: C_3  and  C_1 
REMARK    2  A    between atoms: C_2  and  C_4 
REMARK       I    between atoms: C_5  and  N_8 
REMARK    3  A    between atoms: C_12  and  C_5 
REMARK    4  A    between atoms: N_8  and  C_7 
REMARK    5  A    between atoms: N_9  and  C_12 
ROOT
ATOM      1  C   UNL d   1      -0.861  -0.051  -2.785  0.00  0.00     0.050 A 
ATOM      2  C   UNL d   1       0.248   0.687  -0.746  0.00  0.00     0.050 A 
ATOM      3  C   UNL d   1      -0.375  -0.318  -1.499  0.00  0.00     0.032 A 
ATOM      4  C   UNL d   1      -0.100   2.266  -2.583  0.00  0.00     0.036 A 
ATOM      5  C   UNL d   1      -0.730   1.250  -3.309  0.00  0.00     0.045 A 
ATOM      6  C   UNL d   1       0.400   1.968  -1.310  0.00  0.00     0.045 A 
ENDROOT
BRANCH   4   7
ATOM      7  N   UNL d   1       0.067   3.583  -3.064  0.00  0.00    -0.326 N 
ATOM      8  C   UNL d   1      -0.506   4.149  -4.185  0.00  0.00     0.250 C 
ATOM      9  O   UNL d   1      -1.279   3.578  -4.956  0.00  0.00    -0.271 OA
ATOM     10  H   UNL d   1       0.656   4.219  -2.536  0.00  0.00     0.169 HD
BRANCH   8  11
ATOM     11  C   UNL d   1      -0.135   5.618  -4.447  0.00  0.00     0.374 C 
BRANCH  11  12
ATOM     12  N   UNL d   1       0.854   6.192  -3.495  0.00  0.00     0.097 N 
ATOM     13  C   UNL d   1       0.228   6.732  -2.271  0.00  0.00     0.273 C 
ATOM     14  C   UNL d   1       0.564   8.215  -2.201  0.00  0.00     0.032 C 
ATOM     15  C   UNL d   1       1.792   8.352  -3.071  0.00  0.00     0.032 C 
ATOM     16  C   UNL d   1       1.548   7.322  -4.154  0.00  0.00     0.273 C 
ENDBRANCH  11  12
ENDBRANCH   8  11
ENDBRANCH   4   7
BRANCH   1  17
ATOM     17  C   UNL d   1      -1.511  -1.138  -3.612  0.00  0.00     0.417 C 
ATOM     18  F   UNL d   1      -1.555  -2.340  -2.974  0.00  0.00    -0.166 F 
ATOM     19  F   UNL d   1      -0.855  -1.365  -4.783  0.00  0.00    -0.166 F 
ATOM     20  F   UNL d   1      -2.798  -0.847  -3.946  0.00  0.00    -0.166 F 
ENDBRANCH   1  17
BRANCH   2  21
ATOM     21  C   UNL d   1       0.744   0.409   0.654  0.00  0.00     0.417 C 
ATOM     22  F   UNL d   1       0.457  -0.849   1.092  0.00  0.00    -0.166 F 
ATOM     23  F   UNL d   1       2.092   0.546   0.766  0.00  0.00    -0.166 F 
ATOM     24  F   UNL d   1       0.202   1.255   1.573  0.00  0.00    -0.166 F 
ENDBRANCH   2  21
TORSDOF 5
