REMARK  9 active torsions:
REMARK  status: ('A' for Active; 'I' for Inactive)
REMARK    1  A    between atoms: C_2  and  C_1 
REMARK    2  A    between atoms: C_3  and  C_1 
REMARK    3  A    between atoms: O_9  and  C_2 
REMARK    4  A    between atoms: O_10  and  C_3 
REMARK    5  A    between atoms: N_5  and  C_4 
REMARK    6  A    between atoms: N_8  and  N_5 
REMARK    7  A    between atoms: C_11  and  N_8 
REMARK    8  A    between atoms: C_13  and  O_9 
REMARK    9  A    between atoms: C_12  and  O_10 
ROOT
ATOM      1  C   UNL d   1       0.976   0.063  -0.047  0.00  0.00     0.126 C 
ATOM      2  C   UNL d   1       2.325   0.071  -0.060  0.00  0.00     0.103 C 
ENDROOT
BRANCH   1   3
ATOM      3  C   UNL d   1       0.172   1.016  -0.859  0.00  0.00     0.300 C 
ATOM      4  O   UNL d   1      -0.945   0.767  -1.282  0.00  0.00    -0.259 OA
BRANCH   3   5
ATOM      5  O   UNL d   1       0.885   2.132  -1.171  0.00  0.00    -0.318 OA
BRANCH   5   6
ATOM      6  C   UNL d   1       0.455   2.846  -2.341  0.00  0.00     0.174 C 
ATOM      7  C   UNL d   1       0.026   4.244  -1.958  0.00  0.00     0.034 C 
ENDBRANCH   5   6
ENDBRANCH   3   5
ENDBRANCH   1   3
BRANCH   1   8
ATOM      8  C   UNL d   1       0.337  -1.091   0.621  0.00  0.00     0.300 C 
ATOM      9  O   UNL d   1       0.899  -2.152   0.856  0.00  0.00    -0.259 OA
BRANCH   8  10
ATOM     10  O   UNL d   1      -0.956  -0.807   0.914  0.00  0.00    -0.318 OA
BRANCH  10  11
ATOM     11  C   UNL d   1      -1.796  -1.940   1.173  0.00  0.00     0.174 C 
ATOM     12  C   UNL d   1      -2.289  -2.488  -0.155  0.00  0.00     0.034 C 
ENDBRANCH  10  11
ENDBRANCH   8  10
ENDBRANCH   1   8
BRANCH   2  13
ATOM     13  N   UNL d   1       3.188   1.005  -0.603  0.00  0.00    -0.215 NA
ATOM     14  H   UNL d   1       2.715   1.921  -0.648  0.00  0.00     0.152 HD
BRANCH  13  15
ATOM     15  N   UNL d   1       3.846   0.803  -1.786  0.00  0.00    -0.318 N 
ATOM     16  H   UNL d   1       3.669  -0.054  -2.309  0.00  0.00     0.181 HD
BRANCH  15  17
ATOM     17  C   UNL d   1       5.058   1.443  -2.100  0.00  0.00     0.043 A 
ATOM     18  C   UNL d   1       5.766   2.175  -1.140  0.00  0.00     0.030 A 
ATOM     19  C   UNL d   1       6.951   2.834  -1.470  0.00  0.00     0.002 A 
ATOM     20  C   UNL d   1       7.418   2.804  -2.780  0.00  0.00     0.000 A 
ATOM     21  C   UNL d   1       6.697   2.125  -3.760  0.00  0.00     0.002 A 
ATOM     22  C   UNL d   1       5.520   1.452  -3.422  0.00  0.00     0.030 A 
ENDBRANCH  15  17
ENDBRANCH  13  15
ENDBRANCH   2  13
TORSDOF 9
