REMARK  7 active torsions:
REMARK  status: ('A' for Active; 'I' for Inactive)
REMARK    1  A    between atoms: C_2  and  N_1 
REMARK       I    between atoms: C_3  and  N_1 
REMARK    2  A    between atoms: N_10  and  C_2 
REMARK    3  A    between atoms: C_4  and  C_3 
REMARK    4  A    between atoms: O_19  and  C_5 
REMARK    5  A    between atoms: O_21  and  C_6 
REMARK    6  A    between atoms: O_22  and  C_7 
REMARK    7  A    between atoms: C_14  and  N_10 
ROOT
ATOM      1  N   UNL d   1       1.000  -0.455  -0.343  0.00  0.00    -0.299 N 
ATOM      2  C   UNL d   1       2.380  -0.646  -0.399  0.00  0.00     0.258 C 
ATOM      3  O   UNL d   1       3.021  -1.277   0.426  0.00  0.00    -0.267 OA
ATOM      4  H   UNL d   1       0.572   0.108  -1.059  0.00  0.00     0.171 HD
ENDROOT
BRANCH   1   5
ATOM      5  C   UNL d   1       0.072  -1.180   0.385  0.00  0.00     0.179 C 
ATOM      6  S   UNL d   1       0.221  -2.745   0.949  0.00  0.00    -0.040 SA
BRANCH   5   7
ATOM      7  N   UNL d   1      -1.136  -0.545   0.565  0.00  0.00    -0.333 N 
ATOM      8  H   UNL d   1      -1.885  -1.170   0.856  0.00  0.00     0.168 HD
BRANCH   7   9
ATOM      9  C   UNL d   1      -1.362   0.819   0.855  0.00  0.00     0.037 A 
ATOM     10  C   UNL d   1      -0.357   1.683   1.291  0.00  0.00     0.072 A 
ATOM     11  C   UNL d   1      -0.688   2.971   1.708  0.00  0.00     0.124 A 
ATOM     12  F   UNL d   1       0.284   3.764   2.179  0.00  0.00    -0.205 F 
ATOM     13  C   UNL d   1      -2.005   3.435   1.681  0.00  0.00    -0.023 A 
ATOM     14  C   UNL d   1      -3.003   2.578   1.211  0.00  0.00     0.012 A 
ATOM     15  C   UNL d   1      -2.331   4.798   2.209  0.00  0.00     0.051 C 
ATOM     16  C   UNL d   1      -2.684   1.274   0.816  0.00  0.00     0.030 A 
ENDBRANCH   7   9
ENDBRANCH   5   7
ENDBRANCH   1   5
BRANCH   2  17
ATOM     17  C   UNL d   1       3.118   0.056  -1.481  0.00  0.00     0.037 A 
ATOM     18  C   UNL d   1       2.704   1.270  -2.045  0.00  0.00     0.057 A 
ATOM     19  C   UNL d   1       3.459   1.880  -3.065  0.00  0.00     0.105 A 
ATOM     20  C   UNL d   1       4.644   1.262  -3.536  0.00  0.00     0.135 A 
ATOM     21  C   UNL d   1       5.091   0.080  -2.905  0.00  0.00     0.105 A 
ATOM     22  C   UNL d   1       4.322  -0.513  -1.900  0.00  0.00     0.057 A 
BRANCH  19  23
ATOM     23  O   UNL d   1       3.101   3.078  -3.626  0.00  0.00    -0.353 OA
ATOM     24  C   UNL d   1       1.917   3.733  -3.197  0.00  0.00     0.210 C 
ENDBRANCH  19  23
BRANCH  20  25
ATOM     25  O   UNL d   1       5.414   1.678  -4.590  0.00  0.00    -0.351 OA
ATOM     26  C   UNL d   1       5.044   2.799  -5.373  0.00  0.00     0.210 C 
ENDBRANCH  20  25
BRANCH  21  27
ATOM     27  O   UNL d   1       6.216  -0.650  -3.205  0.00  0.00    -0.353 OA
ATOM     28  C   UNL d   1       7.366   0.066  -3.638  0.00  0.00     0.210 C 
ENDBRANCH  21  27
ENDBRANCH   2  17
TORSDOF 7
