REMARK  5 active torsions:
REMARK  status: ('A' for Active; 'I' for Inactive)
REMARK    1  A    between atoms: C_3  and  S_1 
REMARK    2  A    between atoms: N_5  and  S_1 
REMARK    3  A    between atoms: C_2  and  N_5 
REMARK    4  A    between atoms: C_14  and  C_4 
REMARK    5  A    between atoms: O_18  and  C_14 
ROOT
ATOM      1  S   UNL d   1       1.112  -0.130   0.007  0.00  0.00     0.269 S 
ATOM      2  O   UNL d   1       0.457   0.901   0.787  0.00  0.00    -0.203 OA
ATOM      3  O   UNL d   1       2.553  -0.213  -0.078  0.00  0.00    -0.203 OA
ENDROOT
BRANCH   1   4
ATOM      4  C   UNL d   1       0.566   0.177  -1.683  0.00  0.00     0.186 A 
ATOM      5  C   UNL d   1       1.305   0.397  -2.841  0.00  0.00     0.071 A 
ATOM      6  C   UNL d   1       0.402   0.606  -3.920  0.00  0.00     0.072 A 
ATOM      7  C   UNL d   1      -0.860   0.497  -3.362  0.00  0.00     0.067 A 
ATOM      8  O   UNL d   1      -0.769   0.242  -2.027  0.00  0.00    -0.301 OA
ATOM      9  C   UNL d   1      -2.226   0.608  -3.919  0.00  0.00     0.078 C 
BRANCH   6  10
ATOM     10  C   UNL d   1       0.698   0.877  -5.319  0.00  0.00     0.295 C 
ATOM     11  O   UNL d   1      -0.158   1.029  -6.179  0.00  0.00    -0.259 OA
BRANCH  10  12
ATOM     12  O   UNL d   1       2.043   0.937  -5.544  0.00  0.00    -0.322 OA
ATOM     13  C   UNL d   1       2.405   1.202  -6.898  0.00  0.00     0.213 C 
ENDBRANCH  10  12
ENDBRANCH   6  10
ENDBRANCH   1   4
BRANCH   1  14
ATOM     14  N   UNL d   1       0.502  -1.605   0.562  0.00  0.00    -0.163 NA
ATOM     15  H   UNL d   1      -0.405  -1.395   0.977  0.00  0.00     0.147 HD
BRANCH  14  16
ATOM     16  C   UNL d   1       0.373  -2.627  -0.366  0.00  0.00     0.121 A 
ATOM     17  N   UNL d   1      -0.824  -2.857  -0.897  0.00  0.00    -0.286 N 
ATOM     18  N   UNL d   1      -0.599  -3.874  -1.750  0.00  0.00    -0.295 N 
ATOM     19  HN  UNL d   1      -1.703  -2.376  -0.705  1.00  0.00     0.188 HD
ATOM     20  C   UNL d   1      -1.661  -4.314  -2.623  0.00  0.00     0.178 C 
ATOM     21  C   UNL d   1       0.671  -4.391  -1.681  0.00  0.00     0.064 A 
ATOM     22  C   UNL d   1       1.347  -3.567  -0.780  0.00  0.00     0.033 A 
ATOM     23  C   UNL d   1       1.278  -5.486  -2.310  0.00  0.00     0.032 A 
ATOM     24  C   UNL d   1       2.694  -3.844  -0.481  0.00  0.00     0.017 A 
ATOM     25  C   UNL d   1       3.311  -4.947  -1.087  0.00  0.00     0.001 A 
ATOM     26  C   UNL d   1       2.612  -5.753  -1.986  0.00  0.00     0.002 A 
ENDBRANCH  14  16
ENDBRANCH   1  14
TORSDOF 5
