REMARK  4 active torsions:
REMARK  status: ('A' for Active; 'I' for Inactive)
REMARK    1  A    between atoms: C_2  and  S_1 
REMARK    2  A    between atoms: C_9  and  S_1 
REMARK    3  A    between atoms: C_7  and  C_3 
REMARK    4  A    between atoms: C_4  and  C_6 
ROOT
ATOM      1  C   UNL d   1       0.420   0.126   1.685  0.00  0.00     0.144 C 
ATOM      2  C   UNL d   1      -0.446   1.105   2.026  0.00  0.00     0.048 C 
ATOM      3  C   UNL d   1       0.904  -0.073   0.368  0.00  0.00     0.112 C 
ATOM      4  N   UNL d   1       1.290  -0.218  -0.717  0.00  0.00    -0.191 NA
ENDROOT
BRANCH   1   5
ATOM      5  S   UNL d   1       0.874  -1.018   2.914  0.00  0.00     0.216 S 
ATOM      6  O   UNL d   1       0.016  -2.185   2.811  0.00  0.00    -0.216 OA
ATOM      7  O   UNL d   1       1.010  -0.347   4.197  0.00  0.00    -0.216 OA
BRANCH   5   8
ATOM      8  C   UNL d   1       2.516  -1.549   2.457  0.00  0.00     0.065 A 
ATOM      9  C   UNL d   1       3.632  -0.901   2.998  0.00  0.00     0.025 A 
ATOM     10  C   UNL d   1       4.912  -1.336   2.647  0.00  0.00     0.025 A 
ATOM     11  C   UNL d   1       5.066  -2.412   1.771  0.00  0.00     0.034 A 
ATOM     12  C   UNL d   1       3.951  -3.067   1.248  0.00  0.00     0.025 A 
ATOM     13 CL   UNL d   1       6.645  -2.945   1.344  0.00  0.00    -0.084 Cl
ATOM     14  C   UNL d   1       2.669  -2.645   1.600  0.00  0.00     0.025 A 
ENDBRANCH   5   8
ENDBRANCH   1   5
BRANCH   2  15
ATOM     15  C   UNL d   1      -0.983   2.076   1.060  0.00  0.00    -0.012 A 
ATOM     16  C   UNL d   1      -0.329   3.273   0.728  0.00  0.00     0.045 A 
ATOM     17  C   UNL d   1      -0.874   4.138  -0.228  0.00  0.00     0.040 A 
ATOM     18 CL   UNL d   1       1.175   3.712   1.458  0.00  0.00    -0.083 Cl
ATOM     19  C   UNL d   1      -2.077   3.820  -0.877  0.00  0.00     0.049 A 
ATOM     20  C   UNL d   1      -2.718   2.615  -0.555  0.00  0.00     0.017 A 
ATOM     21  C   UNL d   1      -2.181   1.755   0.407  0.00  0.00     0.014 A 
BRANCH  19  22
ATOM     22  C   UNL d   1      -2.682   4.744  -1.909  0.00  0.00     0.417 C 
ATOM     23  F   UNL d   1      -1.976   5.894  -2.090  0.00  0.00    -0.166 F 
ATOM     24  F   UNL d   1      -2.778   4.165  -3.136  0.00  0.00    -0.166 F 
ATOM     25  F   UNL d   1      -3.945   5.130  -1.577  0.00  0.00    -0.166 F 
ENDBRANCH  19  22
ENDBRANCH   2  15
TORSDOF 4
