REMARK  6 active torsions:
REMARK  status: ('A' for Active; 'I' for Inactive)
REMARK    1  A    between atoms: N_2  and  C_1 
REMARK    2  A    between atoms: N_3  and  C_1 
REMARK    3  A    between atoms: C_12  and  N_3 
REMARK    4  A    between atoms: C_4  and  C_8 
REMARK    5  A    between atoms: O_14  and  C_4 
REMARK    6  A    between atoms: C_20  and  O_14 
ROOT
ATOM      1  N   UNL d   1       0.190   0.654  -1.183  0.00  0.00    -0.358 N 
ATOM      2  C   UNL d   1       0.522   0.367  -2.574  0.00  0.00     0.126 C 
ATOM      3  C   UNL d   1      -0.856   1.641  -0.950  0.00  0.00     0.126 C 
ATOM      4  C   UNL d   1      -1.894   0.934  -3.162  0.00  0.00     0.088 C 
ATOM      5  C   UNL d   1      -2.138   1.229  -1.676  0.00  0.00     0.034 C 
ATOM      6  C   UNL d   1      -0.711  -0.015  -3.383  0.00  0.00     0.034 C 
ENDROOT
BRANCH   1   7
ATOM      7  C   UNL d   1       0.755  -0.027  -0.110  0.00  0.00     0.174 C 
ATOM      8  S   UNL d   1       0.693  -1.693   0.038  0.00  0.00    -0.041 SA
BRANCH   7   9
ATOM      9  N   UNL d   1       1.409   0.854   0.734  0.00  0.00    -0.333 N 
ATOM     10  H   UNL d   1       1.888   1.587   0.226  0.00  0.00     0.168 HD
BRANCH   9  11
ATOM     11  C   UNL d   1       1.730   0.719   2.094  0.00  0.00     0.034 A 
ATOM     12  C   UNL d   1       2.883   1.356   2.564  0.00  0.00     0.031 A 
ATOM     13  C   UNL d   1       3.185   1.353   3.928  0.00  0.00     0.021 A 
ATOM     14  C   UNL d   1       2.310   0.745   4.825  0.00  0.00     0.011 A 
ATOM     15  C   UNL d   1       1.156   0.114   4.367  0.00  0.00     0.021 A 
ATOM     16 BR   UNL d   1       2.674   0.809   6.678  0.00  0.00    -0.051 Br
ATOM     17  C   UNL d   1       0.872   0.091   2.998  0.00  0.00     0.031 A 
ENDBRANCH   9  11
ENDBRANCH   7   9
ENDBRANCH   1   7
BRANCH   4  18
ATOM     18  C   UNL d   1      -1.733   2.249  -3.897  0.00  0.00     0.263 C 
ATOM     19  O   UNL d   1      -0.684   2.871  -4.010  0.00  0.00    -0.265 OA
BRANCH  18  20
ATOM     20  O   UNL d   1      -2.961   2.696  -4.287  0.00  0.00    -0.322 OA
BRANCH  20  21
ATOM     21  C   UNL d   1      -3.047   4.086  -4.621  0.00  0.00     0.174 C 
ATOM     22  C   UNL d   1      -3.382   4.853  -3.354  0.00  0.00     0.034 C 
ENDBRANCH  20  21
ENDBRANCH  18  20
ENDBRANCH   4  18
TORSDOF 6
