REMARK  2 active torsions:
REMARK  status: ('A' for Active; 'I' for Inactive)
REMARK    1  A    between atoms: C_8  and  N_3 
REMARK    2  A    between atoms: C_6  and  C_8 
ROOT
ATOM      1  N   UNL d   1       0.559   0.772  -0.671  0.00  0.00    -0.273 N 
ATOM      2  C   UNL d   1      -0.022  -0.434  -0.984  0.00  0.00     0.329 C 
ATOM      3  N   UNL d   1      -0.648  -1.101   0.071  0.00  0.00    -0.302 N 
ATOM      4  C   UNL d   1       0.070   0.527   1.655  0.00  0.00     0.199 C 
ATOM      5  C   UNL d   1       0.742   1.283   0.586  0.00  0.00     0.289 C 
ATOM      6  C   UNL d   1      -0.571  -0.603   1.363  0.00  0.00     0.144 C 
ATOM      7  O   UNL d   1       0.074  -0.863  -2.128  0.00  0.00    -0.246 OA
ATOM      8  O   UNL d   1       1.433   2.271   0.802  0.00  0.00    -0.265 OA
ATOM      9  F   UNL d   1       0.177   0.992   2.913  0.00  0.00    -0.199 F 
ATOM     10  H   UNL d   1       1.048   1.235  -1.423  0.00  0.00     0.173 HD
ENDROOT
BRANCH   3  11
ATOM     11  C   UNL d   1      -1.260  -2.423  -0.172  0.00  0.00     0.175 C 
BRANCH  11  12
ATOM     12  C   UNL d   1      -2.763  -2.409  -0.406  0.00  0.00     0.004 A 
ATOM     13  C   UNL d   1      -3.312  -2.354  -1.706  0.00  0.00     0.043 A 
ATOM     14 CL   UNL d   1      -2.351  -2.415  -3.141  0.00  0.00    -0.084 Cl
ATOM     15  C   UNL d   1      -4.699  -2.322  -1.917  0.00  0.00     0.024 A 
ATOM     16  C   UNL d   1      -5.579  -2.360  -0.845  0.00  0.00     0.003 A 
ATOM     17  C   UNL d   1      -5.069  -2.455   0.443  0.00  0.00     0.024 A 
ATOM     18  C   UNL d   1      -3.683  -2.491   0.661  0.00  0.00     0.043 A 
ATOM     19 CL   UNL d   1      -3.199  -2.730   2.305  0.00  0.00    -0.084 Cl
ENDBRANCH  11  12
ENDBRANCH   3  11
TORSDOF 2
