REMARK  4 active torsions:
REMARK  status: ('A' for Active; 'I' for Inactive)
REMARK    1  A    between atoms: C_8  and  N_1 
REMARK       I    between atoms: C_2  and  N_5 
REMARK    2  A    between atoms: C_3  and  C_2 
REMARK    3  A    between atoms: N_5  and  C_19 
REMARK    4  A    between atoms: C_19  and  C_20 
ROOT
ATOM      1  C   UNL d   1      -3.039   0.021   0.782  0.00  0.00     0.030 A 
ATOM      2  C   UNL d   1      -3.204  -0.615   2.020  0.00  0.00     0.030 A 
ATOM      3  C   UNL d   1      -4.162   0.690   0.274  0.00  0.00     0.030 A 
ATOM      4  C   UNL d   1      -5.533   0.070   2.183  0.00  0.00    -0.040 A 
ATOM      5  C   UNL d   1      -4.426  -0.602   2.712  0.00  0.00     0.011 A 
ATOM      6  C   UNL d   1      -5.387   0.711   0.953  0.00  0.00     0.011 A 
ENDROOT
BRANCH   4   7
ATOM      7  C   UNL d   1      -6.859   0.076   2.894  0.00  0.00     0.161 C 
BRANCH   7   8
ATOM      8  N   UNL d   1      -7.688  -1.037   2.486  0.00  0.00    -0.353 N 
ATOM      9  C   UNL d   1      -8.974  -1.158   2.971  0.00  0.00     0.251 C 
ATOM     10  O   UNL d   1      -9.470  -0.376   3.772  0.00  0.00    -0.268 OA
ATOM     11  H   UNL d   1      -7.248  -1.819   2.023  0.00  0.00     0.163 HD
BRANCH   9  12
ATOM     12  C   UNL d   1      -9.760  -2.324   2.477  0.00  0.00     0.032 A 
ATOM     13  C   UNL d   1      -9.619  -2.802   1.169  0.00  0.00     0.024 A 
ATOM     14  C   UNL d   1     -10.428  -3.851   0.696  0.00  0.00    -0.055 A 
ATOM     15  C   UNL d   1     -10.300  -4.292  -0.738  0.00  0.00     0.049 C 
ATOM     16  C   UNL d   1     -11.365  -4.452   1.564  0.00  0.00    -0.056 A 
ATOM     17  C   UNL d   1     -11.499  -3.962   2.873  0.00  0.00     0.008 A 
ATOM     18  C   UNL d   1     -12.239  -5.590   1.108  0.00  0.00     0.049 C 
ATOM     19  C   UNL d   1     -10.714  -2.899   3.322  0.00  0.00     0.017 A 
ENDBRANCH   9  12
ENDBRANCH   7   8
ENDBRANCH   4   7
BRANCH   1  20
ATOM     20  N   UNL d   1      -1.862  -0.042   0.067  0.00  0.00    -0.378 N 
ATOM     21  C   UNL d   1      -0.890  -1.134   0.236  0.00  0.00     0.153 C 
ATOM     22  C   UNL d   1      -0.395  -1.616  -1.150  0.00  0.00     0.291 C 
ATOM     23  N   UNL d   1       0.156  -0.518  -1.976  0.00  0.00     0.087 N 
ATOM     24  C   UNL d   1      -0.883   0.524  -2.136  0.00  0.00     0.291 C 
ATOM     25  C   UNL d   1       0.596  -1.017  -3.276  0.00  0.00     0.310 C 
ATOM     26  C   UNL d   1      -1.378   1.067  -0.775  0.00  0.00     0.153 C 
ENDBRANCH   1  20
TORSDOF 4
