REMARK  1 active torsions:
REMARK  status: ('A' for Active; 'I' for Inactive)
REMARK       I    between atoms: C_2  and  N_1 
REMARK       I    between atoms: C_4  and  N_1 
REMARK       I    between atoms: N_8  and  C_2 
REMARK    1  A    between atoms: C_3  and  C_4 
ROOT
ATOM      1  N   UNL d   1       0.939  -0.195  -0.493  0.00  0.00    -0.274 N 
ATOM      2  C   UNL d   1       0.465   1.089  -0.474  0.00  0.00     0.325 C 
ATOM      3  C   UNL d   1       0.515  -1.199   0.360  0.00  0.00     0.277 C 
ATOM      4  N   UNL d   1       1.109   1.998  -1.298  0.00  0.00    -0.330 N 
ATOM      5  O   UNL d   1      -0.480   1.439   0.229  0.00  0.00    -0.247 OA
ATOM      6  O   UNL d   1      -0.379  -1.123   1.192  0.00  0.00    -0.266 OA
ATOM      7  O   UNL d   1       2.844   4.158  -1.993  0.00  0.00    -0.388 OA
ATOM      8  C   UNL d   1       2.245   1.783  -2.207  0.00  0.00     0.153 C 
ATOM      9  C   UNL d   1       0.635   3.389  -1.301  0.00  0.00     0.153 C 
ATOM     10  C   UNL d   1       3.351   2.817  -1.943  0.00  0.00     0.187 C 
ATOM     11  C   UNL d   1       1.798   4.344  -1.025  0.00  0.00     0.187 C 
ATOM     12  H   UNL d   1       1.668  -0.450  -1.133  0.00  0.00     0.173 HD
ENDROOT
BRANCH   3  13
ATOM     13  C   UNL d   1       1.262  -2.441   0.179  0.00  0.00     0.121 A 
ATOM     14  N   UNL d   1       2.309  -2.531  -0.738  0.00  0.00    -0.287 N 
ATOM     15  N   UNL d   1       2.862  -3.733  -0.735  0.00  0.00    -0.061 NA
ATOM     16  HN  UNL d   1       2.612  -1.764  -1.338  1.00  0.00     0.183 HD
ATOM     17  S   UNL d   1       2.143  -4.779   0.357  0.00  0.00    -0.010 SA
ATOM     18  C   UNL d   1       1.017  -3.606   0.890  0.00  0.00     0.101 A 
ENDBRANCH   3  13
TORSDOF 1
