REMARK  5 active torsions:
REMARK  status: ('A' for Active; 'I' for Inactive)
REMARK    1  A    between atoms: N_4  and  C_1 
REMARK       I    between atoms: C_6  and  N_4 
REMARK    2  A    between atoms: C_9  and  C_6 
REMARK    3  A    between atoms: C_10  and  C_11 
REMARK    4  A    between atoms: O_23  and  C_10 
REMARK    5  A    between atoms: C_25  and  O_23 
ROOT
ATOM      1  C   UNL d   1      -1.954  -0.802   0.246  0.00  0.00     0.152 A 
ATOM      2  N   UNL d   1      -0.926  -1.585   0.025  0.00  0.00    -0.335 N 
ATOM      3  HN  UNL d   1      -0.980  -2.586  -0.167  1.00  0.00     0.168 HD
ATOM      4  S   UNL d   1      -1.605   0.833   0.551  0.00  0.00    -0.052 SA
ATOM      5  C   UNL d   1       0.069   0.520   0.323  0.00  0.00     0.036 A 
ATOM      6  C   UNL d   1       0.242  -0.846   0.091  0.00  0.00     0.051 A 
ATOM      7  C   UNL d   1       2.434   0.915   0.096  0.00  0.00     0.041 A 
ATOM      8  C   UNL d   1       1.146   1.419   0.332  0.00  0.00     0.038 A 
ATOM      9  C   UNL d   1       1.548  -1.343  -0.086  0.00  0.00     0.032 A 
ATOM     10  C   UNL d   1       2.634  -0.459  -0.082  0.00  0.00     0.020 A 
ENDROOT
BRANCH   1  11
ATOM     11  N   UNL d   1      -3.235  -1.282   0.134  0.00  0.00    -0.303 N 
ATOM     12  C   UNL d   1      -4.391  -0.613   0.462  0.00  0.00     0.257 C 
ATOM     13  O   UNL d   1      -4.469   0.456   1.056  0.00  0.00    -0.267 OA
ATOM     14  H   UNL d   1      -3.251  -2.211  -0.256  0.00  0.00     0.171 HD
BRANCH  12  15
ATOM     15  C   UNL d   1      -5.669  -1.260   0.030  0.00  0.00     0.034 A 
ATOM     16  C   UNL d   1      -6.800  -0.433  -0.092  0.00  0.00     0.044 A 
ATOM     17  C   UNL d   1      -8.011  -0.957  -0.543  0.00  0.00     0.073 A 
ATOM     18 CL   UNL d   1      -9.376   0.077  -0.702  0.00  0.00    -0.081 Cl
ATOM     19  C   UNL d   1      -8.101  -2.307  -0.870  0.00  0.00     0.138 A 
ATOM     20  C   UNL d   1      -6.997  -3.144  -0.731  0.00  0.00     0.045 A 
ATOM     21  F   UNL d   1      -9.249  -2.830  -1.322  0.00  0.00    -0.204 F 
ATOM     22  C   UNL d   1      -5.781  -2.625  -0.274  0.00  0.00     0.020 A 
ENDBRANCH  12  15
ENDBRANCH   1  11
BRANCH   7  23
ATOM     23  C   UNL d   1       3.538   1.904  -0.048  0.00  0.00     0.293 C 
ATOM     24  O   UNL d   1       3.373   3.109   0.019  0.00  0.00    -0.259 OA
BRANCH  23  25
ATOM     25  O   UNL d   1       4.690   1.268  -0.372  0.00  0.00    -0.318 OA
BRANCH  25  26
ATOM     26  C   UNL d   1       5.723   2.099  -0.918  0.00  0.00     0.174 C 
ATOM     27  C   UNL d   1       5.574   2.103  -2.429  0.00  0.00     0.034 C 
ENDBRANCH  25  26
ENDBRANCH  23  25
ENDBRANCH   7  23
TORSDOF 5
