REMARK  3 active torsions:
REMARK  status: ('A' for Active; 'I' for Inactive)
REMARK    1  A    between atoms: C_9  and  C_6 
REMARK    2  A    between atoms: C_13  and  C_7 
REMARK    3  A    between atoms: C_8  and  C_12 
ROOT
ATOM      1  O   UNL d   1      -1.103   0.003   0.005  0.00  0.00    -0.273 OA
ATOM      2  N   UNL d   1       1.018  -0.716  -0.020  0.00  0.00    -0.277 N 
ATOM      3  HN  UNL d   1       1.827  -1.337  -0.026  1.00  0.00     0.189 HD
ATOM      4  N   UNL d   1       1.036   0.660  -0.038  0.00  0.00    -0.277 N 
ATOM      5  HN  UNL d   1       1.861   1.259  -0.065  1.00  0.00     0.189 HD
ATOM      6  C   UNL d   1      -0.251  -1.073   0.006  0.00  0.00     0.174 A 
ATOM      7  C   UNL d   1      -0.221   1.054  -0.014  0.00  0.00     0.174 A 
ENDROOT
BRANCH   7   8
ATOM      8  C   UNL d   1      -0.763   2.407   0.033  0.00  0.00     0.017 A 
ATOM      9  C   UNL d   1       0.124   3.493  -0.011  0.00  0.00     0.017 A 
ATOM     10  C   UNL d   1      -0.338   4.809   0.081  0.00  0.00     0.017 A 
ATOM     11  C   UNL d   1      -1.705   5.073   0.220  0.00  0.00     0.048 A 
ATOM     12  C   UNL d   1      -2.600   3.991   0.243  0.00  0.00     0.017 A 
ATOM     13  C   UNL d   1      -2.134   2.672   0.149  0.00  0.00     0.017 A 
BRANCH  11  14
ATOM     14  C   UNL d   1      -2.213   6.488   0.356  0.00  0.00     0.417 C 
ATOM     15  F   UNL d   1      -1.224   7.426   0.333  0.00  0.00    -0.166 F 
ATOM     16  F   UNL d   1      -3.077   6.832  -0.638  0.00  0.00    -0.166 F 
ATOM     17  F   UNL d   1      -2.886   6.688   1.524  0.00  0.00    -0.166 F 
ENDBRANCH  11  14
ENDBRANCH   7   8
BRANCH   6  18
ATOM     18  C   UNL d   1      -0.836  -2.407   0.071  0.00  0.00     0.019 A 
ATOM     19  C   UNL d   1      -2.222  -2.610  -0.015  0.00  0.00     0.055 A 
ATOM     20  C   UNL d   1      -2.699  -3.903   0.076  0.00  0.00     0.105 A 
ATOM     21  O   UNL d   1      -4.007  -4.270   0.014  0.00  0.00    -0.323 OA
ATOM     22  C   UNL d   1      -1.861  -4.979   0.249  0.00  0.00     0.105 A 
ATOM     23  C   UNL d   1      -3.894  -5.703   0.150  0.00  0.00     0.352 A 
ATOM     24  O   UNL d   1      -2.536  -6.156   0.323  0.00  0.00    -0.323 OA
ATOM     25  C   UNL d   1      -0.496  -4.826   0.333  0.00  0.00     0.041 A 
ATOM     26  C   UNL d   1       0.016  -3.527   0.238  0.00  0.00     0.019 A 
ENDBRANCH   6  18
TORSDOF 3
