REMARK  3 active torsions:
REMARK  status: ('A' for Active; 'I' for Inactive)
REMARK    1  A    between atoms: C_4  and  N_1 
REMARK    2  A    between atoms: N_2  and  C_3 
REMARK    3  A    between atoms: O_15  and  C_5 
ROOT
ATOM      1  C   UNL d   1      -1.202  -1.140   3.412  0.00  0.00     0.072 A 
ATOM      2  C   UNL d   1       0.178  -0.367   1.095  0.00  0.00     0.105 A 
ATOM      3  C   UNL d   1      -1.544  -1.713   2.167  0.00  0.00     0.097 A 
ATOM      4  C   UNL d   1      -0.859  -1.305   1.010  0.00  0.00     0.075 A 
ATOM      5  C   UNL d   1      -0.174  -0.176   3.470  0.00  0.00     0.035 A 
ATOM      6  C   UNL d   1       0.523   0.203   2.321  0.00  0.00     0.038 A 
ENDROOT
BRANCH   1   7
ATOM      7  N   UNL d   1      -1.825  -1.527   4.646  0.00  0.00    -0.330 N 
ATOM      8  C   UNL d   1      -2.443  -2.727   4.942  0.00  0.00     0.097 A 
ATOM      9  C   UNL d   1      -2.823  -2.737   6.267  0.00  0.00     0.019 A 
ATOM     10  C   UNL d   1      -2.457  -1.494   6.815  0.00  0.00     0.019 A 
ATOM     11  C   UNL d   1      -1.858  -0.769   5.808  0.00  0.00     0.097 A 
ENDBRANCH   1   7
BRANCH   3  12
ATOM     12  O   UNL d   1      -2.604  -2.578   2.106  0.00  0.00    -0.354 OA
ATOM     13  C   UNL d   1      -2.666  -3.466   0.994  0.00  0.00     0.210 C 
ENDBRANCH   3  12
BRANCH   2  14
ATOM     14  N   UNL d   1       0.914   0.017  -0.117  0.00  0.00    -0.116 N 
ATOM     15  O   UNL d   1       0.580  -0.516  -1.186  0.00  0.00    -0.532 OA
ATOM     16  O   UNL d   1       1.829   0.843   0.001  0.00  0.00    -0.532 OA
ENDBRANCH   2  14
TORSDOF 3
