REMARK  4 active torsions:
REMARK  status: ('A' for Active; 'I' for Inactive)
REMARK    1  A    between atoms: C_13  and  N_1 
REMARK    2  A    between atoms: C_12  and  C_6 
REMARK       I    between atoms: C_8  and  N_10 
REMARK    3  A    between atoms: C_9  and  C_8 
REMARK    4  A    between atoms: N_10  and  C_12 
ROOT
ATOM      1  N   UNL d   1      -0.119  -1.153  -0.040  0.00  0.00    -0.197 N 
ATOM      2  N   UNL d   1       1.164  -0.712   0.089  0.00  0.00    -0.280 N 
ATOM      3  HN  UNL d   1       2.019  -1.257   0.198  1.00  0.00     0.189 HD
ATOM      4  N   UNL d   1      -1.066  -0.186  -0.167  0.00  0.00    -0.282 N 
ATOM      5  HN  UNL d   1      -2.074  -0.293  -0.286  1.00  0.00     0.189 HD
ATOM      6  C   UNL d   1       1.020   0.620   0.036  0.00  0.00     0.069 A 
ATOM      7  C   UNL d   1      -0.348   0.941  -0.095  0.00  0.00     0.049 A 
ATOM      8  C   UNL d   1      -0.988   2.274  -0.152  0.00  0.00     0.072 C 
ENDROOT
BRANCH   6   9
ATOM      9  C   UNL d   1       2.192   1.533   0.114  0.00  0.00     0.183 C 
BRANCH   9  10
ATOM     10  N   UNL d   1       2.807   1.637  -1.190  0.00  0.00    -0.351 N 
ATOM     11  C   UNL d   1       2.515   2.654  -2.072  0.00  0.00     0.258 C 
ATOM     12  O   UNL d   1       1.735   3.553  -1.773  0.00  0.00    -0.267 OA
ATOM     13  H   UNL d   1       3.332   0.842  -1.530  0.00  0.00     0.163 HD
BRANCH  11  14
ATOM     14  C   UNL d   1       3.193   2.590  -3.362  0.00  0.00     0.072 A 
ATOM     15  S   UNL d   1       4.370   1.393  -3.721  0.00  0.00    -0.097 SA
ATOM     16  C   UNL d   1       4.663   2.043  -5.275  0.00  0.00     0.050 A 
ATOM     17  C   UNL d   1       3.871   3.138  -5.534  0.00  0.00     0.009 A 
ATOM     18  C   UNL d   1       3.022   3.451  -4.432  0.00  0.00     0.025 A 
ENDBRANCH  11  14
ENDBRANCH   9  10
ENDBRANCH   6   9
BRANCH   1  19
ATOM     19  C   UNL d   1      -0.441  -2.535  -0.037  0.00  0.00     0.074 A 
ATOM     20  C   UNL d   1       0.548  -3.486   0.253  0.00  0.00     0.033 A 
ATOM     21  C   UNL d   1       0.231  -4.846   0.253  0.00  0.00     0.002 A 
ATOM     22  C   UNL d   1      -1.065  -5.262  -0.048  0.00  0.00     0.000 A 
ATOM     23  C   UNL d   1      -2.052  -4.320  -0.340  0.00  0.00     0.002 A 
ATOM     24  C   UNL d   1      -1.747  -2.956  -0.326  0.00  0.00     0.033 A 
ENDBRANCH   1  19
TORSDOF 4
