REMARK  2 active torsions:
REMARK  status: ('A' for Active; 'I' for Inactive)
REMARK       I    between atoms: N_2  and  C_1 
REMARK    1  A    between atoms: C_3  and  C_1 
REMARK    2  A    between atoms: C_12  and  N_2 
ROOT
ATOM      1  C   UNL d   1       1.022   0.560  -0.223  0.00  0.00     0.253 C 
ATOM      2  N   UNL d   1       0.416   0.404   1.045  0.00  0.00    -0.348 N 
ATOM      3  O   UNL d   1       2.077   1.195  -0.340  0.00  0.00    -0.267 OA
ATOM      4  C   UNL d   1       1.260   0.792   2.172  0.00  0.00     0.153 C 
ENDROOT
BRANCH   1   5
ATOM      5  C   UNL d   1       0.557  -0.139  -1.473  0.00  0.00     0.035 A 
ATOM      6  C   UNL d   1      -0.758  -0.475  -1.804  0.00  0.00     0.056 A 
ATOM      7  C   UNL d   1      -0.973  -1.274  -2.918  0.00  0.00     0.106 A 
ATOM      8  O   UNL d   1      -2.175  -1.783  -3.300  0.00  0.00    -0.323 OA
ATOM      9  C   UNL d   1       0.041  -1.652  -3.760  0.00  0.00     0.105 A 
ATOM     10  C   UNL d   1      -1.762  -2.661  -4.369  0.00  0.00     0.352 C 
ATOM     11  O   UNL d   1      -0.393  -2.452  -4.769  0.00  0.00    -0.323 OA
ATOM     12  C   UNL d   1       1.335  -1.250  -3.546  0.00  0.00     0.041 A 
ATOM     13  C   UNL d   1       1.589  -0.503  -2.388  0.00  0.00     0.020 A 
ENDBRANCH   1   5
BRANCH   2  14
ATOM     14  C   UNL d   1      -1.032   0.204   1.295  0.00  0.00     0.087 C 
ATOM     15  C   UNL d   1      -1.843   1.476   0.973  0.00  0.00     0.025 C 
ATOM     16  C   UNL d   1      -1.847   2.505   2.102  0.00  0.00     0.002 C 
ATOM     17  C   UNL d   1      -2.318   1.902   3.420  0.00  0.00     0.000 C 
ATOM     18  C   UNL d   1      -1.531   0.657   3.807  0.00  0.00     0.002 C 
ATOM     19  C   UNL d   1      -1.436  -0.363   2.672  0.00  0.00     0.025 C 
ENDBRANCH   2  14
TORSDOF 2
