REMARK  5 active torsions:
REMARK  status: ('A' for Active; 'I' for Inactive)
REMARK       I    between atoms: N_2  and  C_1 
REMARK    1  A    between atoms: C_3  and  C_1 
REMARK    2  A    between atoms: C_6  and  N_2 
REMARK    3  A    between atoms: C_5  and  C_3 
REMARK    4  A    between atoms: C_13  and  C_9 
REMARK    5  A    between atoms: C_20  and  C_13 
ROOT
ATOM      1  C   UNL d   1       0.217   0.768   0.830  0.00  0.00     0.107 C 
ATOM      2  C   UNL d   1      -1.268   0.384   0.794  0.00  0.00     0.025 C 
ENDROOT
BRANCH   1   3
ATOM      3  C   UNL d   1       1.059  -0.258   0.051  0.00  0.00     0.230 C 
ATOM      4  N   UNL d   1       0.579  -0.587  -1.205  0.00  0.00    -0.327 N 
ATOM      5  H   UNL d   1      -0.186  -0.025  -1.561  0.00  0.00     0.169 HD
ATOM      6  O   UNL d   1       2.106  -0.688   0.544  0.00  0.00    -0.272 OA
BRANCH   4   7
ATOM      7  C   UNL d   1       1.157  -1.499  -2.115  0.00  0.00     0.034 A 
ATOM      8  C   UNL d   1       2.172  -2.398  -1.773  0.00  0.00     0.031 A 
ATOM      9  C   UNL d   1       2.758  -3.218  -2.745  0.00  0.00     0.026 A 
ATOM     10  C   UNL d   1       2.321  -3.149  -4.064  0.00  0.00     0.034 A 
ATOM     11  C   UNL d   1       1.279  -2.294  -4.411  0.00  0.00     0.026 A 
ATOM     12 CL   UNL d   1       3.079  -4.113  -5.269  0.00  0.00    -0.084 Cl
ATOM     13  C   UNL d   1       0.690  -1.480  -3.435  0.00  0.00     0.031 A 
ENDBRANCH   4   7
ENDBRANCH   1   3
BRANCH   1  14
ATOM     14  C   UNL d   1       0.522   2.225   0.478  0.00  0.00    -0.045 A 
ATOM     15  C   UNL d   1      -0.461   3.223   0.580  0.00  0.00     0.008 A 
ATOM     16  C   UNL d   1      -0.156   4.572   0.368  0.00  0.00     0.007 A 
ATOM     17  C   UNL d   1       1.146   4.973   0.056  0.00  0.00    -0.058 A 
ATOM     18  C   UNL d   1       2.137   3.991  -0.040  0.00  0.00     0.007 A 
ATOM     19  C   UNL d   1       1.831   2.639   0.172  0.00  0.00     0.008 A 
BRANCH  17  20
ATOM     20  C   UNL d   1       1.463   6.443  -0.104  0.00  0.00     0.042 C 
BRANCH  20  21
ATOM     21  C   UNL d   1       2.068   6.843  -1.464  0.00  0.00    -0.019 C 
ATOM     22  C   UNL d   1       1.122   6.546  -2.629  0.00  0.00     0.010 C 
ATOM     23  C   UNL d   1       2.415   8.335  -1.457  0.00  0.00     0.010 C 
ENDBRANCH  20  21
ENDBRANCH  17  20
ENDBRANCH   1  14
TORSDOF 5
