REMARK  5 active torsions:
REMARK  status: ('A' for Active; 'I' for Inactive)
REMARK    1  A    between atoms: N_11  and  C_1 
REMARK    2  A    between atoms: C_7  and  C_2 
REMARK    3  A    between atoms: C_10  and  N_3 
REMARK       I    between atoms: N_12  and  C_7 
REMARK    4  A    between atoms: N_8  and  N_12 
REMARK    5  A    between atoms: C_17  and  C_16 
ROOT
ATOM      1  C   UNL d   1       1.048  -0.755  -0.265  0.00  0.00     0.118 A 
ATOM      2  C   UNL d   1      -0.235  -1.249  -0.090  0.00  0.00     0.090 A 
ATOM      3  N   UNL d   1       0.958   0.640  -0.076  0.00  0.00    -0.245 N 
ATOM      4  N   UNL d   1      -0.290   1.007   0.313  0.00  0.00    -0.303 N 
ATOM      5  HN  UNL d   1      -0.612   1.936   0.582  1.00  0.00     0.186 HD
ATOM      6  C   UNL d   1      -1.000  -0.119   0.263  0.00  0.00     0.128 A 
ENDROOT
BRANCH   2   7
ATOM      7  C   UNL d   1      -0.711  -2.622  -0.094  0.00  0.00     0.274 C 
ATOM      8  N   UNL d   1       0.029  -3.507  -0.871  0.00  0.00    -0.266 N 
ATOM      9  H   UNL d   1       0.772  -3.163  -1.468  0.00  0.00     0.190 HD
ATOM     10  O   UNL d   1      -1.706  -2.940   0.557  0.00  0.00    -0.266 OA
BRANCH   8  11
ATOM     11  N   UNL d   1      -0.218  -4.848  -0.755  0.00  0.00    -0.308 N 
ATOM     12  C   UNL d   1       0.412  -5.647  -1.552  0.00  0.00     0.120 C 
ATOM     13  HN  UNL d   1      -0.876  -5.204  -0.062  1.00  0.00     0.186 HD
BRANCH  12  14
ATOM     14  C   UNL d   1       0.258  -7.109  -1.419  0.00  0.00    -0.004 A 
ATOM     15  C   UNL d   1       0.924  -7.964  -2.284  0.00  0.00     0.100 A 
ATOM     16  N   UNL d   1       0.894  -9.316  -2.179  0.00  0.00    -0.374 N 
ATOM     17  C   UNL d   1       0.162  -9.832  -1.164  0.00  0.00     0.087 A 
ATOM     18  HN  UNL d   1       1.398  -9.915  -2.832  1.00  0.00     0.164 HD
ATOM     19  C   UNL d   1      -0.553  -9.060  -0.262  0.00  0.00     0.018 A 
ATOM     20  C   UNL d   1      -0.507  -7.674  -0.396  0.00  0.00     0.015 A 
ENDBRANCH  12  14
ENDBRANCH   8  11
ENDBRANCH   2   7
BRANCH   1  21
ATOM     21  N   UNL d   1       2.228  -1.435  -0.424  0.00  0.00    -0.286 NA
ATOM     22  H   UNL d   1       2.264  -2.389  -0.059  0.00  0.00     0.125 HD
ATOM     23  H   UNL d   1       3.077  -0.953  -0.122  0.00  0.00     0.125 HD
ENDBRANCH   1  21
BRANCH   3  24
ATOM     24  C   UNL d   1       2.002   1.608  -0.136  0.00  0.00     0.058 A 
ATOM     25  C   UNL d   1       3.098   1.429  -0.989  0.00  0.00     0.031 A 
ATOM     26  C   UNL d   1       4.169   2.324  -0.950  0.00  0.00     0.002 A 
ATOM     27  C   UNL d   1       4.145   3.404  -0.070  0.00  0.00     0.000 A 
ATOM     28  C   UNL d   1       3.031   3.618   0.743  0.00  0.00     0.002 A 
ATOM     29  C   UNL d   1       1.949   2.735   0.697  0.00  0.00     0.031 A 
ENDBRANCH   3  24
TORSDOF 5
