REMARK  3 active torsions:
REMARK  status: ('A' for Active; 'I' for Inactive)
REMARK    1  A    between atoms: C_5  and  C_1 
REMARK       I    between atoms: N_10  and  C_5 
REMARK    2  A    between atoms: C_16  and  N_10 
REMARK    3  A    between atoms: C_11  and  C_13 
ROOT
ATOM      1  C   UNL d   1      -0.244  -4.389   0.894  0.00  0.00    -0.007 A 
ATOM      2  C   UNL d   1      -2.445  -3.669   0.041  0.00  0.00     0.035 A 
ATOM      3  C   UNL d   1      -1.369  -3.543   0.925  0.00  0.00     0.043 A 
ATOM      4  C   UNL d   1      -0.283  -5.461  -0.008  0.00  0.00     0.014 A 
ATOM      5  C   UNL d   1      -1.384  -5.651  -0.854  0.00  0.00     0.003 A 
ATOM      6  C   UNL d   1      -2.460  -4.753  -0.835  0.00  0.00     0.029 A 
ENDROOT
BRANCH   2   7
ATOM      7  N   UNL d   1      -3.496  -2.725  -0.011  0.00  0.00    -0.321 N 
ATOM      8  C   UNL d   1      -3.472  -1.449   0.554  0.00  0.00     0.280 C 
ATOM      9  O   UNL d   1      -2.512  -0.988   1.174  0.00  0.00    -0.265 OA
ATOM     10  H   UNL d   1      -4.296  -2.922  -0.603  0.00  0.00     0.169 HD
BRANCH   8  11
ATOM     11  C   UNL d   1      -4.681  -0.667   0.308  0.00  0.00     0.144 A 
ATOM     12  N   UNL d   1      -5.723  -1.107  -0.372  0.00  0.00    -0.345 N 
ATOM     13  C   UNL d   1      -6.675  -0.095  -0.445  0.00  0.00     0.050 A 
ATOM     14  HN  UNL d   1      -5.815  -2.038  -0.779  1.00  0.00     0.167 HD
ATOM     15  C   UNL d   1      -7.923  -0.171  -1.095  0.00  0.00     0.031 A 
ATOM     16  C   UNL d   1      -6.330   1.103   0.188  0.00  0.00     0.034 A 
ATOM     17  C   UNL d   1      -8.774   0.941  -1.106  0.00  0.00     0.002 A 
ATOM     18  C   UNL d   1      -8.402   2.124  -0.473  0.00  0.00     0.002 A 
ATOM     19  C   UNL d   1      -7.176   2.224   0.187  0.00  0.00     0.021 A 
ATOM     20  S   UNL d   1      -4.782   0.936   0.904  0.00  0.00    -0.065 SA
ENDBRANCH   8  11
ENDBRANCH   2   7
BRANCH   1  21
ATOM     21  C   UNL d   1       0.923  -4.114   1.765  0.00  0.00     0.045 A 
ATOM     22  N   UNL d   1       1.704  -5.169   2.090  0.00  0.00    -0.345 N 
ATOM     23  C   UNL d   1       2.757  -4.927   2.898  0.00  0.00     0.077 A 
ATOM     24  HN  UNL d   1       1.507  -6.106   1.740  1.00  0.00     0.167 HD
ATOM     25  C   UNL d   1       3.645  -6.073   3.268  0.00  0.00     0.089 C 
ATOM     26  N   UNL d   1       3.087  -3.723   3.401  0.00  0.00    -0.356 N 
ATOM     27  C   UNL d   1       2.301  -2.698   3.045  0.00  0.00     0.091 A 
ATOM     28  HN  UNL d   1       3.890  -3.598   4.018  1.00  0.00     0.166 HD
ATOM     29  C   UNL d   1       1.214  -2.836   2.220  0.00  0.00     0.047 A 
ENDBRANCH   1  21
TORSDOF 3
