REMARK  8 active torsions:
REMARK  status: ('A' for Active; 'I' for Inactive)
REMARK    1  A    between atoms: C_3  and  N_1 
REMARK    2  A    between atoms: C_16  and  N_2 
REMARK    3  A    between atoms: C_4  and  C_17 
REMARK    4  A    between atoms: O_12  and  C_4 
REMARK    5  A    between atoms: C_19  and  C_16 
REMARK    6  A    between atoms: C_17  and  C_20 
REMARK    7  A    between atoms: C_21  and  C_19 
REMARK    8  A    between atoms: C_20  and  C_21 
ROOT
ATOM      1  N   UNL d   1      -1.543   0.051   0.149  0.00  0.00    -0.378 N 
ATOM      2  N   UNL d   1       1.387  -0.023  -0.211  0.00  0.00     0.091 N 
ATOM      3  C   UNL d   1      -0.870  -1.219  -0.163  0.00  0.00     0.153 C 
ATOM      4  C   UNL d   1      -0.814   1.282  -0.200  0.00  0.00     0.153 C 
ATOM      5  C   UNL d   1       0.666   1.190   0.244  0.00  0.00     0.292 C 
ATOM      6  C   UNL d   1       0.614  -1.197   0.273  0.00  0.00     0.292 C 
ENDROOT
BRANCH   2   7
ATOM      7  C   UNL d   1       1.550  -0.080  -1.675  0.00  0.00     0.272 C 
BRANCH   7   8
ATOM      8  C   UNL d   1       2.388   1.058  -2.268  0.00  0.00     0.030 C 
BRANCH   8   9
ATOM      9  C   UNL d   1       3.805   1.122  -1.697  0.00  0.00     0.002 C 
BRANCH   9  10
ATOM     10  C   UNL d   1       4.564   2.308  -2.288  0.00  0.00     0.010 C 
BRANCH  10  11
ATOM     11  C   UNL d   1       5.992   2.386  -1.754  0.00  0.00     0.110 C 
BRANCH  11  12
ATOM     12  C   UNL d   1       6.738   3.565  -2.337  0.00  0.00     0.139 C 
ATOM     13  O   UNL d   1       6.283   4.366  -3.138  0.00  0.00    -0.650 OA
BRANCH  12  14
ATOM     14  O   UNL d   1       8.006   3.648  -1.870  0.00  0.00    -0.776 OA
ATOM     15  H   UNL d   1       8.235   2.945  -1.235  0.00  0.00     0.167 HD
ENDBRANCH  12  14
ENDBRANCH  11  12
ENDBRANCH  10  11
ENDBRANCH   9  10
ENDBRANCH   8   9
ENDBRANCH   7   8
ENDBRANCH   2   7
BRANCH   1  16
ATOM     16  C   UNL d   1      -2.630   0.125   1.001  0.00  0.00     0.030 A 
ATOM     17  C   UNL d   1      -2.826  -0.781   2.050  0.00  0.00     0.030 A 
ATOM     18  C   UNL d   1      -3.931  -0.687   2.904  0.00  0.00     0.009 A 
ATOM     19  C   UNL d   1      -4.882   0.319   2.728  0.00  0.00    -0.062 A 
ATOM     20  C   UNL d   1      -4.709   1.228   1.685  0.00  0.00     0.009 A 
ATOM     21  C   UNL d   1      -6.049   0.420   3.661  0.00  0.00     0.048 C 
ATOM     22  C   UNL d   1      -3.600   1.126   0.838  0.00  0.00     0.030 A 
ENDBRANCH   1  16
TORSDOF 8
