REMARK  2 active torsions:
REMARK  status: ('A' for Active; 'I' for Inactive)
REMARK    1  A    between atoms: C_5  and  C_1 
REMARK    2  A    between atoms: C_8  and  C_2 
REMARK       I    between atoms: N_10  and  C_5 
ROOT
ATOM      1  C   UNL d   1      -0.826  -1.163   0.049  0.00  0.00     0.137 A 
ATOM      2  C   UNL d   1       0.559  -1.157   0.025  0.00  0.00     0.119 A 
ATOM      3  N   UNL d   1      -1.296   0.144   0.128  0.00  0.00    -0.340 N 
ATOM      4  HN  UNL d   1      -2.261   0.466   0.206  1.00  0.00     0.167 HD
ATOM      5  C   UNL d   1      -0.200   0.865   0.076  0.00  0.00     0.234 A 
ATOM      6  O   UNL d   1       0.958   0.158   0.013  0.00  0.00    -0.303 OA
ENDROOT
BRANCH   2   7
ATOM      7  C   UNL d   1       1.624  -2.149   0.085  0.00  0.00     0.000 A 
ATOM      8  C   UNL d   1       2.857  -1.926  -0.546  0.00  0.00     0.016 A 
ATOM      9  C   UNL d   1       3.881  -2.879  -0.468  0.00  0.00     0.024 A 
ATOM     10  C   UNL d   1       3.681  -4.057   0.244  0.00  0.00     0.034 A 
ATOM     11  C   UNL d   1       2.468  -4.294   0.882  0.00  0.00     0.024 A 
ATOM     12 CL   UNL d   1       4.938  -5.226   0.347  0.00  0.00    -0.084 Cl
ATOM     13  C   UNL d   1       1.450  -3.340   0.806  0.00  0.00     0.016 A 
ENDBRANCH   2   7
BRANCH   1  14
ATOM     14  C   UNL d   1      -1.704  -2.325   0.036  0.00  0.00     0.270 C 
ATOM     15  O   UNL d   1      -1.358  -3.433  -0.359  0.00  0.00    -0.266 OA
ATOM     16  N   UNL d   1      -2.957  -2.064   0.544  0.00  0.00    -0.360 N 
ATOM     17  C   UNL d   1      -3.932  -3.098   0.766  0.00  0.00     0.149 C 
ATOM     18  H   UNL d   1      -3.130  -1.116   0.867  0.00  0.00     0.162 HD
ENDBRANCH   1  14
TORSDOF 2
