REMARK  2 active torsions:
REMARK  status: ('A' for Active; 'I' for Inactive)
REMARK    1  A    between atoms: N_9  and  C_6 
REMARK    2  A    between atoms: O_12  and  N_9 
ROOT
ATOM      1  N   UNL d   1      -2.213   1.364   0.864  0.00  0.00    -0.344 N 
ATOM      2  C   UNL d   1      -3.365   0.909   0.301  0.00  0.00     0.066 A 
ATOM      3  C   UNL d   1      -4.283   1.933   0.323  0.00  0.00    -0.021 A 
ATOM      4  C   UNL d   1      -2.302   2.647   1.278  0.00  0.00     0.045 A 
ATOM      5  C   UNL d   1      -3.603   3.053   0.943  0.00  0.00    -0.001 A 
ATOM      6  C   UNL d   1      -3.205  -0.448  -0.107  0.00  0.00     0.060 C 
ATOM      7  C   UNL d   1      -1.181   0.347   0.930  0.00  0.00     0.136 C 
ATOM      8  C   UNL d   1      -1.723  -0.781   0.034  0.00  0.00     0.081 C 
ATOM      9  C   UNL d   1      -5.676   1.929  -0.192  0.00  0.00     0.052 C 
ATOM     10  C   UNL d   1      -1.377   3.487   1.908  0.00  0.00     0.030 A 
ATOM     11  C   UNL d   1      -3.981   4.377   1.248  0.00  0.00     0.014 A 
ATOM     12  C   UNL d   1      -1.784   4.790   2.200  0.00  0.00     0.002 A 
ATOM     13  C   UNL d   1      -3.063   5.233   1.875  0.00  0.00     0.001 A 
ENDROOT
BRANCH   6  14
ATOM     14  N   UNL d   1      -4.152  -1.224  -0.512  0.00  0.00    -0.271 N 
ATOM     15  HN  UNL d   1      -5.130  -0.951  -0.605  1.00  0.00     0.194 HD
BRANCH  14  16
ATOM     16  O   UNL d   1      -3.646  -2.498  -0.805  0.00  0.00    -0.290 OA
ATOM     17  H   UNL d   1      -4.455  -3.010  -0.991  0.00  0.00     0.244 HD
ENDBRANCH  14  16
ENDBRANCH   6  14
TORSDOF 2
