REMARK  2 active torsions:
REMARK  status: ('A' for Active; 'I' for Inactive)
REMARK    1  A    between atoms: C_4  and  C_3 
REMARK    2  A    between atoms: C_14  and  C_5 
ROOT
ATOM      1  N   UNL d   1       0.525   0.244  -0.984  0.00  0.00    -0.317 N 
ATOM      2  HN  UNL d   1       1.121   0.437  -1.788  1.00  0.00     0.169 HD
ATOM      3  C   UNL d   1      -0.072  -0.886  -0.657  0.00  0.00     0.200 A 
ATOM      4  C   UNL d   1       0.145   1.099   0.028  0.00  0.00     0.138 A 
ATOM      5  N   UNL d   1      -0.618   0.520   0.968  0.00  0.00    -0.242 N 
ATOM      6  HN  UNL d   1      -0.999   0.939   1.816  1.00  0.00     0.196 HD
ATOM      7  O   UNL d   1      -0.768  -0.787   0.515  0.00  0.00    -0.215 OA
ENDROOT
BRANCH   3   8
ATOM      8  C   UNL d   1      -0.029  -2.125  -1.482  0.00  0.00     0.106 A 
ATOM      9  N   UNL d   1      -0.745  -3.260  -1.129  0.00  0.00    -0.288 N 
ATOM     10  N   UNL d   1      -0.588  -4.230  -2.016  0.00  0.00    -0.061 NA
ATOM     11  HN  UNL d   1      -1.320  -3.337  -0.290  1.00  0.00     0.183 HD
ATOM     12  S   UNL d   1       0.429  -3.804  -3.275  0.00  0.00    -0.010 SA
ATOM     13  C   UNL d   1       0.704  -2.230  -2.650  0.00  0.00     0.100 A 
ENDBRANCH   3   8
BRANCH   4  14
ATOM     14  C   UNL d   1       0.503   2.514   0.028  0.00  0.00     0.010 A 
ATOM     15  C   UNL d   1       1.301   3.043  -0.998  0.00  0.00     0.015 A 
ATOM     16  C   UNL d   1       1.603   4.408  -1.034  0.00  0.00     0.001 A 
ATOM     17  C   UNL d   1       1.113   5.257  -0.044  0.00  0.00     0.000 A 
ATOM     18  C   UNL d   1       0.329   4.744   0.987  0.00  0.00     0.001 A 
ATOM     19  C   UNL d   1       0.027   3.380   1.025  0.00  0.00     0.015 A 
ENDBRANCH   4  14
TORSDOF 2
