REMARK  4 active torsions:
REMARK  status: ('A' for Active; 'I' for Inactive)
REMARK    1  A    between atoms: C_15  and  N_4 
REMARK       I    between atoms: C_12  and  N_10 
REMARK    2  A    between atoms: O_21  and  C_12 
REMARK    3  A    between atoms: C_19  and  C_15 
REMARK    4  A    between atoms: C_23  and  O_21 
ROOT
ATOM      1  C   UNL d   1       0.687   0.380  -0.001  0.00  0.00     0.073 A 
ATOM      2  C   UNL d   1       1.200  -0.902  -0.026  0.00  0.00     0.091 A 
ATOM      3  C   UNL d   1       1.639   1.484   0.003  0.00  0.00     0.262 A 
ATOM      4  N   UNL d   1       2.981   1.095  -0.027  0.00  0.00    -0.303 N 
ATOM      5  C   UNL d   1      -0.749   0.385   0.034  0.00  0.00    -0.023 A 
ATOM      6  C   UNL d   1      -1.258  -0.906   0.036  0.00  0.00     0.010 A 
ATOM      7  N   UNL d   1       2.508  -1.249  -0.057  0.00  0.00    -0.346 N 
ATOM      8  HN  UNL d   1       2.819  -2.220  -0.078  1.00  0.00     0.167 HD
ATOM      9  S   UNL d   1      -0.031  -2.087  -0.013  0.00  0.00    -0.074 SA
ATOM     10  N   UNL d   1      -3.507  -0.095   0.364  0.00  0.00    -0.323 N 
ATOM     11  C   UNL d   1       3.333  -0.251  -0.058  0.00  0.00     0.187 A 
ATOM     12  C   UNL d   1      -4.434  -0.060   1.386  0.00  0.00     0.363 C 
ATOM     13  C   UNL d   1      -2.714  -1.287   0.048  0.00  0.00     0.174 C 
ATOM     14  C   UNL d   1      -1.677   1.568   0.087  0.00  0.00     0.061 C 
ATOM     15  C   UNL d   1      -3.112   1.150  -0.301  0.00  0.00     0.133 C 
ATOM     16  O   UNL d   1       1.292   2.657   0.062  0.00  0.00    -0.267 OA
ATOM     17  O   UNL d   1      -4.985   0.964   1.774  0.00  0.00    -0.238 OA
ENDROOT
BRANCH  12  18
ATOM     18  O   UNL d   1      -4.620  -1.279   1.960  0.00  0.00    -0.304 OA
BRANCH  18  19
ATOM     19  C   UNL d   1      -5.110  -1.253   3.307  0.00  0.00     0.176 C 
ATOM     20  C   UNL d   1      -3.912  -1.101   4.227  0.00  0.00     0.034 C 
ENDBRANCH  18  19
ENDBRANCH  12  18
BRANCH   4  21
ATOM     21  C   UNL d   1       4.012   2.114   0.124  0.00  0.00     0.211 C 
BRANCH  21  22
ATOM     22  C   UNL d   1       4.507   2.716  -1.189  0.00  0.00     0.141 C 
ATOM     23  O   UNL d   1       4.594   2.056  -2.226  0.00  0.00    -0.297 OA
ATOM     24  C   UNL d   1       5.011   4.146  -1.141  0.00  0.00     0.092 C 
ENDBRANCH  21  22
ENDBRANCH   4  21
TORSDOF 4
