REMARK  2 active torsions:
REMARK  status: ('A' for Active; 'I' for Inactive)
REMARK       I    between atoms: N_2  and  C_1 
REMARK       I    between atoms: N_5  and  C_1 
REMARK    1  A    between atoms: C_3  and  C_6 
REMARK    2  A    between atoms: C_12  and  N_5 
ROOT
ATOM      1  C   UNL d   1       0.977  -0.123  -0.060  0.00  0.00     0.327 C 
ATOM      2  N   UNL d   1       0.398   1.151  -0.264  0.00  0.00    -0.299 N 
ATOM      3  C   UNL d   1      -0.650   1.633   0.610  0.00  0.00     0.045 A 
ATOM      4  N   UNL d   1       2.059  -0.413  -0.875  0.00  0.00    -0.309 N 
ATOM      5  O   UNL d   1       0.535  -0.931   0.753  0.00  0.00    -0.246 OA
ATOM      6  C   UNL d   1      -1.591   2.575   0.141  0.00  0.00    -0.031 A 
ATOM      7  C   UNL d   1       0.660   1.996  -1.440  0.00  0.00     0.134 C 
ATOM      8  C   UNL d   1      -0.765   1.197   1.940  0.00  0.00     0.030 A 
ATOM      9  C   UNL d   1      -0.625   2.347  -2.167  0.00  0.00     0.025 C 
ATOM     10  C   UNL d   1      -1.534   3.145  -1.252  0.00  0.00     0.042 C 
ATOM     11  C   UNL d   1      -2.624   3.021   0.987  0.00  0.00     0.009 A 
ATOM     12  C   UNL d   1      -1.797   1.643   2.771  0.00  0.00     0.002 A 
ATOM     13  C   UNL d   1      -2.733   2.549   2.291  0.00  0.00     0.001 A 
ATOM     14  H   UNL d   1       2.540   0.368  -1.286  0.00  0.00     0.170 HD
ENDROOT
BRANCH   4  15
ATOM     15  C   UNL d   1       2.699  -1.668  -1.029  0.00  0.00     0.036 A 
ATOM     16  C   UNL d   1       2.276  -2.847  -0.410  0.00  0.00     0.030 A 
ATOM     17  C   UNL d   1       2.963  -4.051  -0.605  0.00  0.00     0.018 A 
ATOM     18  C   UNL d   1       4.081  -4.109  -1.444  0.00  0.00     0.048 A 
ATOM     19  C   UNL d   1       4.496  -2.932  -2.083  0.00  0.00     0.018 A 
ATOM     20  C   UNL d   1       3.814  -1.725  -1.875  0.00  0.00     0.030 A 
BRANCH  18  21
ATOM     21  C   UNL d   1       4.824  -5.403  -1.663  0.00  0.00     0.417 C 
ATOM     22  F   UNL d   1       4.315  -6.455  -0.963  0.00  0.00    -0.166 F 
ATOM     23  F   UNL d   1       4.822  -5.789  -2.969  0.00  0.00    -0.166 F 
ATOM     24  F   UNL d   1       6.136  -5.316  -1.303  0.00  0.00    -0.166 F 
ENDBRANCH  18  21
ENDBRANCH   4  15
TORSDOF 2
