REMARK  4 active torsions:
REMARK  status: ('A' for Active; 'I' for Inactive)
REMARK    1  A    between atoms: C_14  and  C_1 
REMARK    2  A    between atoms: C_2  and  C_15 
REMARK    3  A    between atoms: S_13  and  C_14 
REMARK    4  A    between atoms: C_15  and  S_13 
ROOT
ATOM      1  S   UNL d   1      -2.313   3.767  -0.176  0.00  0.00    -0.160 SA
ENDROOT
BRANCH   1   2
ATOM      2  C   UNL d   1      -2.191   2.068   0.474  0.00  0.00     0.114 C 
BRANCH   2   3
ATOM      3  C   UNL d   1      -0.879   1.324   0.208  0.00  0.00    -0.036 C 
ATOM      4  C   UNL d   1       0.350   1.779   0.759  0.00  0.00    -0.048 C 
ATOM      5  C   UNL d   1       1.546   1.041   0.545  0.00  0.00    -0.049 C 
ATOM      6  C   UNL d   1       0.420   3.070   1.548  0.00  0.00     0.049 C 
ATOM      7  C   UNL d   1       2.877   1.602   1.002  0.00  0.00     0.049 C 
ATOM      8  C   UNL d   1       1.488  -0.260  -0.020  0.00  0.00    -0.049 C 
ATOM      9  C   UNL d   1       0.248  -0.764  -0.482  0.00  0.00    -0.049 C 
ATOM     10  C   UNL d   1       2.759  -1.077  -0.116  0.00  0.00     0.049 C 
ATOM     11  C   UNL d   1      -0.898   0.076  -0.485  0.00  0.00    -0.048 C 
ATOM     12  C   UNL d   1       0.158  -2.196  -0.968  0.00  0.00     0.049 C 
ATOM     13  C   UNL d   1      -2.155  -0.382  -1.194  0.00  0.00     0.049 C 
ENDBRANCH   2   3
ENDBRANCH   1   2
BRANCH   1  14
ATOM     14  C   UNL d   1      -4.128   3.947  -0.137  0.00  0.00     0.114 C 
BRANCH  14  15
ATOM     15  C   UNL d   1      -4.654   5.383  -0.106  0.00  0.00    -0.036 C 
ATOM     16  C   UNL d   1      -4.516   6.234  -1.237  0.00  0.00    -0.048 C 
ATOM     17  C   UNL d   1      -5.073   7.543  -1.218  0.00  0.00    -0.049 C 
ATOM     18  C   UNL d   1      -3.735   5.788  -2.456  0.00  0.00     0.049 C 
ATOM     19  C   UNL d   1      -4.823   8.491  -2.373  0.00  0.00     0.049 C 
ATOM     20  C   UNL d   1      -5.929   7.936  -0.159  0.00  0.00    -0.049 C 
ATOM     21  C   UNL d   1      -6.125   7.068   0.944  0.00  0.00    -0.049 C 
ATOM     22  C   UNL d   1      -6.609   9.288  -0.228  0.00  0.00     0.049 C 
ATOM     23  C   UNL d   1      -5.396   5.850   1.021  0.00  0.00    -0.048 C 
ATOM     24  C   UNL d   1      -7.106   7.455   2.030  0.00  0.00     0.049 C 
ATOM     25  C   UNL d   1      -5.451   5.027   2.291  0.00  0.00     0.049 C 
ENDBRANCH  14  15
ENDBRANCH   1  14
TORSDOF 4
