REMARK  2 active torsions:
REMARK  status: ('A' for Active; 'I' for Inactive)
REMARK    1  A    between atoms: C_7  and  N_2 
REMARK    2  A    between atoms: C_8  and  C_5 
ROOT
ATOM      1  N   UNL d   1       0.861  -0.675   0.347  0.00  0.00    -0.015 NA
ATOM      2  N   UNL d   1      -0.399  -1.084   0.059  0.00  0.00    -0.249 N 
ATOM      3  N   UNL d   1       0.883   0.651   0.342  0.00  0.00    -0.282 N 
ATOM      4  HN  UNL d   1       1.698   1.236   0.527  1.00  0.00     0.184 HD
ATOM      5  C   UNL d   1      -0.375   1.101   0.044  0.00  0.00     0.073 A 
ATOM      6  C   UNL d   1      -1.199   0.016  -0.152  0.00  0.00     0.146 A 
ENDROOT
BRANCH   2   7
ATOM      7  C   UNL d   1      -0.753  -2.458   0.019  0.00  0.00     0.054 A 
ATOM      8  C   UNL d   1       0.210  -3.432   0.324  0.00  0.00     0.031 A 
ATOM      9  C   UNL d   1      -0.131  -4.786   0.306  0.00  0.00     0.002 A 
ATOM     10  C   UNL d   1      -1.429  -5.177  -0.018  0.00  0.00     0.000 A 
ATOM     11  C   UNL d   1      -2.389  -4.215  -0.328  0.00  0.00     0.002 A 
ATOM     12  C   UNL d   1      -2.057  -2.858  -0.310  0.00  0.00     0.031 A 
ENDBRANCH   2   7
BRANCH   5  13
ATOM     13  C   UNL d   1      -0.742   2.506  -0.020  0.00  0.00    -0.007 A 
ATOM     14  C   UNL d   1       0.209   3.487   0.295  0.00  0.00     0.014 A 
ATOM     15  C   UNL d   1      -0.123   4.845   0.259  0.00  0.00     0.001 A 
ATOM     16  C   UNL d   1      -1.411   5.239  -0.096  0.00  0.00     0.000 A 
ATOM     17  C   UNL d   1      -2.366   4.277  -0.416  0.00  0.00     0.001 A 
ATOM     18  C   UNL d   1      -2.034   2.920  -0.380  0.00  0.00     0.014 A 
ENDBRANCH   5  13
TORSDOF 2
