REMARK  2 active torsions:
REMARK  status: ('A' for Active; 'I' for Inactive)
REMARK    1  A    between atoms: C_11  and  C_2 
REMARK    2  A    between atoms: S_12  and  C_7 
ROOT
ATOM      1  C   UNL d   1       0.446  -0.404  -0.050  0.00  0.00     0.140 A 
ATOM      2  C   UNL d   1      -0.407  -1.448  -0.035  0.00  0.00     0.071 A 
ATOM      3  N   UNL d   1      -1.525   0.980  -0.043  0.00  0.00    -0.302 N 
ATOM      4  C   UNL d   1      -0.164   0.944  -0.050  0.00  0.00     0.270 A 
ATOM      5  N   UNL d   1      -1.785  -1.339  -0.036  0.00  0.00    -0.335 N 
ATOM      6  HN  UNL d   1      -2.386  -2.163  -0.034  1.00  0.00     0.168 HD
ATOM      7  C   UNL d   1      -2.276  -0.149  -0.040  0.00  0.00     0.147 A 
ATOM      8  C   UNL d   1       1.861  -0.516  -0.060  0.00  0.00     0.107 C 
ATOM      9  N   UNL d   1       3.017  -0.626  -0.071  0.00  0.00    -0.191 NA
ATOM     10  O   UNL d   1       0.499   1.975  -0.052  0.00  0.00    -0.266 OA
ATOM     11  H   UNL d   1      -1.982   1.880  -0.041  0.00  0.00     0.171 HD
ENDROOT
BRANCH   2  12
ATOM     12  C   UNL d   1       0.106  -2.835  -0.003  0.00  0.00    -0.008 A 
ATOM     13  C   UNL d   1       0.355  -3.462   1.225  0.00  0.00     0.014 A 
ATOM     14  C   UNL d   1       0.827  -4.775   1.261  0.00  0.00     0.001 A 
ATOM     15  C   UNL d   1       1.050  -5.469   0.073  0.00  0.00     0.000 A 
ATOM     16  C   UNL d   1       0.804  -4.852  -1.153  0.00  0.00     0.001 A 
ATOM     17  C   UNL d   1       0.332  -3.538  -1.194  0.00  0.00     0.014 A 
ENDBRANCH   2  12
BRANCH   7  18
ATOM     18  S   UNL d   1      -3.974   0.201  -0.044  0.00  0.00    -0.098 SA
ATOM     19  C   UNL d   1      -4.670  -1.463  -0.083  0.00  0.00     0.099 C 
ENDBRANCH   7  18
TORSDOF 2
