REMARK  7 active torsions:
REMARK  status: ('A' for Active; 'I' for Inactive)
REMARK    1  A    between atoms: C_12  and  N_1 
REMARK    2  A    between atoms: C_14  and  C_2 
REMARK    3  A    between atoms: S_13  and  C_5 
REMARK    4  A    between atoms: C_8  and  C_16 
REMARK    5  A    between atoms: C_9  and  C_18 
REMARK    6  A    between atoms: C_15  and  C_12 
REMARK    7  A    between atoms: C_18  and  S_13 
ROOT
ATOM      1  N   UNL d   1      -0.258  -1.207  -0.082  0.00  0.00    -0.305 N 
ATOM      2  C   UNL d   1       0.987  -0.592  -0.045  0.00  0.00     0.135 A 
ATOM      3  N   UNL d   1       0.782   0.719  -0.034  0.00  0.00    -0.283 N 
ATOM      4  HN  UNL d   1       1.513   1.430  -0.026  1.00  0.00     0.188 HD
ATOM      5  C   UNL d   1      -1.185  -0.186  -0.067  0.00  0.00     0.163 A 
ATOM      6  N   UNL d   1      -0.571   0.968  -0.036  0.00  0.00    -0.278 N 
ATOM      7  HN  UNL d   1      -1.014   1.886  -0.017  1.00  0.00     0.189 HD
ENDROOT
BRANCH   5   8
ATOM      8  S   UNL d   1      -2.904  -0.433  -0.096  0.00  0.00    -0.088 SA
BRANCH   8   9
ATOM      9  C   UNL d   1      -3.552   1.259   0.067  0.00  0.00     0.123 C 
BRANCH   9  10
ATOM     10  C   UNL d   1      -5.071   1.278   0.094  0.00  0.00    -0.013 A 
ATOM     11  C   UNL d   1      -5.798   1.194   1.296  0.00  0.00     0.087 A 
ATOM     12  C   UNL d   1      -7.202   1.178   1.294  0.00  0.00     0.001 A 
ATOM     13  O   UNL d   1      -5.090   1.114   2.467  0.00  0.00    -0.325 OA
ATOM     14  C   UNL d   1      -7.954   1.073   2.587  0.00  0.00     0.212 C 
ATOM     15  C   UNL d   1      -7.894   1.293   0.083  0.00  0.00     0.036 A 
ATOM     16  O   UNL d   1      -7.108   0.594   3.623  0.00  0.00    -0.362 OA
ATOM     17  C   UNL d   1      -5.893   1.331   3.627  0.00  0.00     0.345 C 
ATOM     18  C   UNL d   1      -7.185   1.393  -1.111  0.00  0.00     0.035 A 
ATOM     19  C   UNL d   1      -5.789   1.376  -1.113  0.00  0.00     0.034 A 
ATOM     20 CL   UNL d   1      -8.043   1.544  -2.596  0.00  0.00    -0.084 Cl
ENDBRANCH   9  10
ENDBRANCH   8   9
ENDBRANCH   5   8
BRANCH   1  21
ATOM     21  C   UNL d   1      -0.557  -2.628  -0.048  0.00  0.00     0.198 C 
BRANCH  21  22
ATOM     22  C   UNL d   1      -0.085  -3.405  -1.225  0.00  0.00     0.070 A 
ATOM     23  O   UNL d   1      -0.325  -4.750  -1.141  0.00  0.00    -0.325 OA
ATOM     24  C   UNL d   1       0.166  -5.321  -2.269  0.00  0.00     0.142 A 
ATOM     25  C   UNL d   1       0.732  -4.370  -3.079  0.00  0.00     0.027 A 
ATOM     26  C   UNL d   1       0.560  -3.130  -2.415  0.00  0.00     0.036 A 
ENDBRANCH  21  22
ENDBRANCH   1  21
BRANCH   2  27
ATOM     27  C   UNL d   1       2.321  -1.215  -0.160  0.00  0.00     0.009 A 
ATOM     28  C   UNL d   1       3.316  -0.555  -0.904  0.00  0.00     0.016 A 
ATOM     29  C   UNL d   1       4.540  -1.173  -1.194  0.00  0.00     0.017 A 
ATOM     30  C   UNL d   1       4.801  -2.475  -0.749  0.00  0.00     0.048 A 
ATOM     31  C   UNL d   1       3.858  -3.095   0.079  0.00  0.00     0.017 A 
ATOM     32  C   UNL d   1       2.646  -2.461   0.387  0.00  0.00     0.016 A 
BRANCH  30  33
ATOM     33  C   UNL d   1       6.059  -3.193  -1.176  0.00  0.00     0.417 C 
ATOM     34  F   UNL d   1       6.094  -4.501  -0.793  0.00  0.00    -0.166 F 
ATOM     35  F   UNL d   1       6.212  -3.205  -2.531  0.00  0.00    -0.166 F 
ATOM     36  F   UNL d   1       7.190  -2.626  -0.677  0.00  0.00    -0.166 F 
ENDBRANCH  30  33
ENDBRANCH   2  27
TORSDOF 7
