REMARK  7 active torsions:
REMARK  status: ('A' for Active; 'I' for Inactive)
REMARK    1  A    between atoms: C_7  and  C_1 
REMARK    2  A    between atoms: N_13  and  C_2 
REMARK    3  A    between atoms: N_6  and  C_5 
REMARK    4  A    between atoms: C_9  and  C_12 
REMARK    5  A    between atoms: N_25  and  C_12 
REMARK       I    between atoms: C_15  and  N_13 
REMARK    6  A    between atoms: O_23  and  C_15 
REMARK    7  A    between atoms: N_16  and  O_23 
ROOT
ATOM      1  N   UNL d   1       0.770  -2.422   0.748  0.00  0.00    -0.297 N 
ATOM      2  C   UNL d   1       0.093  -1.325   0.279  0.00  0.00     0.387 C 
ATOM      3  O   UNL d   1       0.162  -0.839  -0.840  0.00  0.00    -0.236 OA
ATOM      4  H   UNL d   1       0.585  -2.663   1.712  0.00  0.00     0.171 HD
ENDROOT
BRANCH   1   5
ATOM      5  C   UNL d   1       1.607  -3.273   0.030  0.00  0.00     0.098 A 
ATOM      6  C   UNL d   1       2.271  -4.442   0.545  0.00  0.00     0.098 A 
ATOM      7  N   UNL d   1       3.030  -5.013  -0.400  0.00  0.00    -0.258 N 
ATOM      8  O   UNL d   1       2.829  -4.285  -1.545  0.00  0.00    -0.240 OA
ATOM      9  HN  UNL d   1       3.636  -5.826  -0.290  1.00  0.00     0.195 HD
ATOM     10  C   UNL d   1       1.942  -3.282  -1.310  0.00  0.00     0.101 A 
ATOM     11  C   UNL d   1       1.553  -2.538  -2.525  0.00  0.00     0.081 C 
BRANCH   6  12
ATOM     12  C   UNL d   1       2.152  -5.098   1.847  0.00  0.00     0.038 A 
ATOM     13  C   UNL d   1       0.929  -5.671   2.247  0.00  0.00     0.048 A 
ATOM     14 CL   UNL d   1      -0.529  -5.517   1.324  0.00  0.00    -0.083 Cl
ATOM     15  C   UNL d   1       0.841  -6.430   3.422  0.00  0.00     0.025 A 
ATOM     16  C   UNL d   1       1.968  -6.639   4.210  0.00  0.00     0.003 A 
ATOM     17  C   UNL d   1       3.182  -6.063   3.840  0.00  0.00     0.025 A 
ATOM     18  C   UNL d   1       3.275  -5.292   2.673  0.00  0.00     0.048 A 
ATOM     19 CL   UNL d   1       4.820  -4.587   2.332  0.00  0.00    -0.083 Cl
ENDBRANCH   6  12
ENDBRANCH   1   5
BRANCH   2  20
ATOM     20  O   UNL d   1      -0.695  -0.816   1.292  0.00  0.00    -0.179 OA
BRANCH  20  21
ATOM     21  N   UNL d   1      -1.774  -0.099   0.732  0.00  0.00    -0.244 N 
ATOM     22  C   UNL d   1      -2.224   0.831   1.525  0.00  0.00     0.116 C 
ATOM     23  HN  UNL d   1      -2.158  -0.288  -0.193  1.00  0.00     0.196 HD
BRANCH  22  24
ATOM     24  C   UNL d   1      -3.407   1.544   1.039  0.00  0.00     0.047 A 
ATOM     25  S   UNL d   1      -4.077   2.845   1.940  0.00  0.00    -0.063 SA
ATOM     26  C   UNL d   1      -5.326   3.072   0.812  0.00  0.00     0.144 A 
ATOM     27  C   UNL d   1      -5.254   2.194  -0.247  0.00  0.00     0.045 A 
ATOM     28  C   UNL d   1      -4.136   1.316  -0.117  0.00  0.00     0.025 A 
BRANCH  26  29
ATOM     29  N   UNL d   1      -6.324   4.089   1.016  0.00  0.00    -0.108 N 
ATOM     30  O   UNL d   1      -7.233   4.145   0.178  0.00  0.00    -0.531 OA
ATOM     31  O   UNL d   1      -6.208   4.836   1.997  0.00  0.00    -0.531 OA
ENDBRANCH  26  29
ENDBRANCH  22  24
BRANCH  22  32
ATOM     32  N   UNL d   1      -1.620   1.128   2.725  0.00  0.00    -0.286 NA
ATOM     33  H   UNL d   1      -1.779   2.073   3.060  0.00  0.00     0.125 HD
ATOM     34  H   UNL d   1      -0.647   0.852   2.756  0.00  0.00     0.125 HD
ENDBRANCH  22  32
ENDBRANCH  20  21
ENDBRANCH   2  20
TORSDOF 7
