REMARK  2 active torsions:
REMARK  status: ('A' for Active; 'I' for Inactive)
REMARK    1  A    between atoms: C_3  and  N_1 
REMARK    2  A    between atoms: N_2  and  C_5 
ROOT
ATOM      1  C   UNL d   1       0.179   1.060  -0.811  0.00  0.00     0.103 A 
ATOM      2  C   UNL d   1      -1.280   3.078  -2.165  0.00  0.00     0.030 A 
ATOM      3  C   UNL d   1       0.166   1.093  -2.206  0.00  0.00     0.038 A 
ATOM      4  C   UNL d   1      -0.529   2.017  -0.082  0.00  0.00     0.038 A 
ATOM      5  C   UNL d   1      -0.559   2.094  -2.864  0.00  0.00     0.032 A 
ATOM      6  C   UNL d   1      -1.246   3.010  -0.761  0.00  0.00     0.032 A 
ENDROOT
BRANCH   2   7
ATOM      7  N   UNL d   1      -1.980   4.066  -2.828  0.00  0.00    -0.381 N 
ATOM      8  C   UNL d   1      -2.154   5.411  -2.273  0.00  0.00     0.123 C 
ATOM      9  C   UNL d   1      -3.640   5.699  -2.074  0.00  0.00     0.020 C 
ATOM     10  C   UNL d   1      -4.421   5.474  -3.368  0.00  0.00     0.003 C 
ATOM     11  C   UNL d   1      -4.157   4.081  -3.936  0.00  0.00     0.020 C 
ATOM     12  C   UNL d   1      -2.659   3.813  -4.101  0.00  0.00     0.123 C 
ENDBRANCH   2   7
BRANCH   1  13
ATOM     13  N   UNL d   1       0.941   0.022  -0.109  0.00  0.00    -0.116 N 
ATOM     14  O   UNL d   1       1.559  -0.805  -0.796  0.00  0.00    -0.532 OA
ATOM     15  O   UNL d   1       0.923   0.030   1.130  0.00  0.00    -0.532 OA
ENDBRANCH   1  13
TORSDOF 2
