REMARK  3 active torsions:
REMARK  status: ('A' for Active; 'I' for Inactive)
REMARK    1  A    between atoms: C_5  and  C_1 
REMARK       I    between atoms: C_2  and  N_3 
REMARK    2  A    between atoms: C_9  and  C_2 
REMARK    3  A    between atoms: N_4  and  C_6 
ROOT
ATOM      1  C   UNL d   1      -2.317   2.128   8.968  0.00  0.00     0.253 C 
ATOM      2  N   UNL d   1      -1.823   1.898   7.685  0.00  0.00    -0.345 N 
ATOM      3  N   UNL d   1      -0.719   1.241   5.127  0.00  0.00    -0.364 N 
ATOM      4  C   UNL d   1      -0.936   0.736   7.514  0.00  0.00     0.146 C 
ATOM      5  C   UNL d   1      -2.399   2.452   6.447  0.00  0.00     0.146 C 
ATOM      6  C   UNL d   1      -1.404   2.534   5.272  0.00  0.00     0.144 C 
ATOM      7  C   UNL d   1       0.042   0.881   6.334  0.00  0.00     0.144 C 
ATOM      8  O   UNL d   1      -1.876   1.565   9.971  0.00  0.00    -0.267 OA
ENDROOT
BRANCH   3   9
ATOM      9  C   UNL d   1      -0.138   0.989   3.888  0.00  0.00     0.103 A 
ATOM     10  C   UNL d   1       0.324  -0.290   3.579  0.00  0.00     0.049 A 
ATOM     11  C   UNL d   1       0.770  -0.585   2.290  0.00  0.00     0.021 A 
ATOM     12  C   UNL d   1       0.750   0.407   1.313  0.00  0.00     0.063 A 
ATOM     13  C   UNL d   1       0.299   1.656   1.697  0.00  0.00     0.106 A 
ATOM     14  N   UNL d   1      -0.140   1.957   2.944  0.00  0.00    -0.352 N 
ATOM     15  HN  UNL d   1      -0.467   2.897   3.166  1.00  0.00     0.166 HD
BRANCH  12  16
ATOM     16  C   UNL d   1       1.152   0.126  -0.100  0.00  0.00     0.418 C 
ATOM     17  F   UNL d   1       1.171   1.232  -0.894  0.00  0.00    -0.166 F 
ATOM     18  F   UNL d   1       0.311  -0.754  -0.710  0.00  0.00    -0.166 F 
ATOM     19  F   UNL d   1       2.394  -0.422  -0.193  0.00  0.00    -0.166 F 
ENDBRANCH  12  16
ENDBRANCH   3   9
BRANCH   1  20
ATOM     20  C   UNL d   1      -3.392   3.128   9.183  0.00  0.00     0.032 A 
ATOM     21  C   UNL d   1      -4.630   3.031   8.539  0.00  0.00     0.018 A 
ATOM     22  C   UNL d   1      -5.609   4.001   8.771  0.00  0.00     0.025 A 
ATOM     23  C   UNL d   1      -5.361   5.037   9.673  0.00  0.00     0.034 A 
ATOM     24  C   UNL d   1      -4.147   5.106  10.356  0.00  0.00     0.025 A 
ATOM     25 CL   UNL d   1      -6.567   6.231   9.953  0.00  0.00    -0.084 Cl
ATOM     26  C   UNL d   1      -3.162   4.147  10.114  0.00  0.00     0.018 A 
ENDBRANCH   1  20
TORSDOF 3
