REMARK  6 active torsions:
REMARK  status: ('A' for Active; 'I' for Inactive)
REMARK    1  A    between atoms: C_3  and  S_1 
REMARK    2  A    between atoms: C_5  and  S_1 
REMARK    3  A    between atoms: C_2  and  C_3 
REMARK    4  A    between atoms: C_4  and  C_2 
REMARK    5  A    between atoms: C_10  and  C_3 
REMARK    6  A    between atoms: C_8  and  C_4 
ROOT
ATOM      1  C   UNL d   1       0.371   1.377  -0.583  0.00  0.00     0.092 C 
ENDROOT
BRANCH   1   2
ATOM      2  C   UNL d   1       0.907   2.413  -1.588  0.00  0.00     0.104 C 
BRANCH   2   3
ATOM      3  C   UNL d   1       1.048   2.044  -3.058  0.00  0.00     0.161 C 
ATOM      4  O   UNL d   1       0.480   1.091  -3.585  0.00  0.00    -0.292 OA
BRANCH   3   5
ATOM      5  C   UNL d   1       1.822   2.984  -3.930  0.00  0.00     0.010 A 
ATOM      6  C   UNL d   1       2.960   3.663  -3.471  0.00  0.00     0.017 A 
ATOM      7  C   UNL d   1       3.628   4.564  -4.308  0.00  0.00     0.025 A 
ATOM      8  C   UNL d   1       3.162   4.787  -5.602  0.00  0.00     0.034 A 
ATOM      9  C   UNL d   1       2.042   4.107  -6.075  0.00  0.00     0.025 A 
ATOM     10 CL   UNL d   1       3.977   5.910  -6.619  0.00  0.00    -0.084 Cl
ATOM     11  C   UNL d   1       1.378   3.199  -5.240  0.00  0.00     0.017 A 
ENDBRANCH   3   5
ENDBRANCH   2   3
ENDBRANCH   1   2
BRANCH   1  12
ATOM     12  S   UNL d   1       1.174  -0.293  -0.634  0.00  0.00    -0.118 SA
BRANCH  12  13
ATOM     13  C   UNL d   1       2.896  -0.221  -0.153  0.00  0.00     0.023 A 
ATOM     14  C   UNL d   1       3.705   0.805   0.360  0.00  0.00     0.052 A 
ATOM     15  C   UNL d   1       5.093   0.619   0.506  0.00  0.00     0.049 A 
ATOM     16 CL   UNL d   1       3.128   2.316   0.959  0.00  0.00    -0.083 Cl
ATOM     17  C   UNL d   1       5.676  -0.615   0.241  0.00  0.00     0.035 A 
ATOM     18  C   UNL d   1       4.885  -1.681  -0.147  0.00  0.00     0.025 A 
ATOM     19 CL   UNL d   1       7.372  -0.824   0.422  0.00  0.00    -0.084 Cl
ATOM     20  C   UNL d   1       3.518  -1.478  -0.351  0.00  0.00     0.022 A 
ENDBRANCH  12  13
ENDBRANCH   1  12
BRANCH   1  21
ATOM     21  C   UNL d   1      -1.155   1.175  -0.565  0.00  0.00    -0.044 A 
ATOM     22  C   UNL d   1      -2.006   1.538  -1.617  0.00  0.00     0.008 A 
ATOM     23  C   UNL d   1      -3.383   1.302  -1.545  0.00  0.00     0.001 A 
ATOM     24  C   UNL d   1      -3.938   0.695  -0.422  0.00  0.00     0.000 A 
ATOM     25  C   UNL d   1      -3.116   0.327   0.637  0.00  0.00     0.001 A 
ATOM     26  C   UNL d   1      -1.741   0.572   0.568  0.00  0.00     0.008 A 
ENDBRANCH   1  21
TORSDOF 6
