REMARK  2 active torsions:
REMARK  status: ('A' for Active; 'I' for Inactive)
REMARK    1  A    between atoms: S_10  and  C_3 
REMARK    2  A    between atoms: C_5  and  C_8 
ROOT
ATOM      1  N   UNL d   1      -1.629  -1.141  -0.000  0.00  0.00    -0.335 N 
ATOM      2  HN  UNL d   1      -1.947  -2.110  -0.000  1.00  0.00     0.168 HD
ATOM      3  C   UNL d   1      -2.364  -0.057  -0.000  0.00  0.00     0.142 A 
ATOM      4  N   UNL d   1      -1.618   1.083  -0.000  0.00  0.00    -0.335 N 
ATOM      5  C   UNL d   1      -0.334  -0.680  -0.000  0.00  0.00     0.061 A 
ATOM      6  C   UNL d   1      -0.297   0.713   0.000  0.00  0.00     0.061 A 
ATOM      7  C   UNL d   1       2.089  -0.690  -0.003  0.00  0.00     0.050 A 
ATOM      8  C   UNL d   1       0.871  -1.397  -0.002  0.00  0.00     0.048 A 
ATOM      9  C   UNL d   1       0.887   1.450   0.001  0.00  0.00     0.032 A 
ATOM     10  C   UNL d   1       2.080   0.717  -0.001  0.00  0.00     0.018 A 
ATOM     11  H   UNL d   1      -1.986   2.022  -0.001  0.00  0.00     0.168 HD
ENDROOT
BRANCH   7  12
ATOM     12  C   UNL d   1       3.405  -1.429  -0.008  0.00  0.00     0.417 C 
ATOM     13  F   UNL d   1       3.275  -2.784  -0.010  0.00  0.00    -0.166 F 
ATOM     14  F   UNL d   1       4.166  -1.125  -1.097  0.00  0.00    -0.166 F 
ATOM     15  F   UNL d   1       4.173  -1.130   1.077  0.00  0.00    -0.166 F 
ENDBRANCH   7  12
BRANCH   3  16
ATOM     16  S   UNL d   1      -4.081   0.021  -0.001  0.00  0.00    -0.107 SA
ATOM     17  H   UNL d   1      -4.293  -1.303   0.002  0.00  0.00     0.110 HD
ENDBRANCH   3  16
TORSDOF 2
