REMARK  5 active torsions:
REMARK  status: ('A' for Active; 'I' for Inactive)
REMARK       I    between atoms: N_4  and  C_1 
REMARK       I    between atoms: N_5  and  C_1 
REMARK    1  A    between atoms: C_13  and  N_4 
REMARK    2  A    between atoms: C_16  and  N_5 
REMARK    3  A    between atoms: O_10  and  C_6 
REMARK    4  A    between atoms: C_7  and  C_8 
REMARK    5  A    between atoms: C_15  and  O_10 
ROOT
ATOM      1  N   UNL d   1       1.342   2.876   3.928  0.00  0.00    -0.344 N 
ATOM      2  HN  UNL d   1       1.020   3.011   4.887  1.00  0.00     0.167 HD
ATOM      3  C   UNL d   1       2.396   3.555   3.439  0.00  0.00     0.148 A 
ATOM      4  C   UNL d   1       1.139   1.741   1.791  0.00  0.00     0.051 A 
ATOM      5  C   UNL d   1       0.729   2.007   3.096  0.00  0.00     0.119 A 
ATOM      6  C   UNL d   1       2.935   3.315   2.183  0.00  0.00     0.059 A 
ATOM      7  C   UNL d   1       2.299   2.384   1.351  0.00  0.00     0.035 A 
ENDROOT
BRANCH   4   8
ATOM      8  N   UNL d   1       0.444   0.877   0.909  0.00  0.00    -0.307 N 
ATOM      9  C   UNL d   1      -0.875   0.483   1.093  0.00  0.00     0.325 C 
ATOM     10  N   UNL d   1      -1.303  -0.389   0.110  0.00  0.00    -0.309 N 
ATOM     11  O   UNL d   1      -1.576   0.887   2.016  0.00  0.00    -0.247 OA
ATOM     12  H   UNL d   1      -0.608  -0.734  -0.533  0.00  0.00     0.170 HD
ATOM     13  H   UNL d   1       0.848   0.730  -0.002  0.00  0.00     0.170 HD
BRANCH  10  14
ATOM     14  C   UNL d   1      -2.611  -0.913  -0.033  0.00  0.00     0.036 A 
ATOM     15  C   UNL d   1      -3.683  -0.584   0.804  0.00  0.00     0.029 A 
ATOM     16  C   UNL d   1      -4.954  -1.129   0.595  0.00  0.00     0.002 A 
ATOM     17  C   UNL d   1      -5.170  -2.010  -0.458  0.00  0.00     0.000 A 
ATOM     18  C   UNL d   1      -4.114  -2.349  -1.300  0.00  0.00     0.002 A 
ATOM     19  C   UNL d   1      -2.841  -1.805  -1.087  0.00  0.00     0.029 A 
ENDBRANCH  10  14
ENDBRANCH   4   8
BRANCH   3  20
ATOM     20  O   UNL d   1       2.968   4.552   4.218  0.00  0.00    -0.294 OA
BRANCH  20  21
ATOM     21  C   UNL d   1       2.125   5.240   5.070  0.00  0.00     0.077 A 
ATOM     22  C   UNL d   1       2.633   5.622   6.308  0.00  0.00     0.038 A 
ATOM     23  C   UNL d   1       1.836   6.352   7.203  0.00  0.00     0.011 A 
ATOM     24  C   UNL d   1       0.515   6.726   6.881  0.00  0.00    -0.050 A 
ATOM     25  C   UNL d   1       0.029   6.330   5.625  0.00  0.00     0.011 A 
ATOM     26  C   UNL d   1       0.828   5.619   4.724  0.00  0.00     0.038 A 
BRANCH  24  27
ATOM     27  C   UNL d   1      -0.338   7.550   7.864  0.00  0.00    -0.024 C 
ATOM     28  C   UNL d   1      -1.754   7.873   7.330  0.00  0.00     0.019 C 
ATOM     29  C   UNL d   1      -0.515   6.786   9.193  0.00  0.00     0.019 C 
ATOM     30  C   UNL d   1       0.356   8.899   8.149  0.00  0.00     0.019 C 
ENDBRANCH  24  27
ENDBRANCH  20  21
ENDBRANCH   3  20
TORSDOF 5
