REMARK  4 active torsions:
REMARK  status: ('A' for Active; 'I' for Inactive)
REMARK    1  A    between atoms: C_12  and  N_3 
REMARK    2  A    between atoms: C_13  and  C_12 
REMARK       I    between atoms: N_17  and  C_13 
REMARK    3  A    between atoms: N_14  and  N_17 
REMARK    4  A    between atoms: C_23  and  C_22 
ROOT
ATOM      1  N   UNL d   1      -0.740   0.274   2.139  0.00  0.00    -0.046 N 
ATOM      2  C   UNL d   1      -0.787  -1.064   1.773  0.00  0.00     0.710 A 
ATOM      3  N   UNL d   1      -0.135  -1.470   0.642  0.00  0.00    -0.175 N 
ATOM      4  C   UNL d   1      -0.056   1.281   1.446  0.00  0.00     0.290 A 
ATOM      5  C   UNL d   1       0.684   0.765   0.280  0.00  0.00     0.036 A 
ATOM      6  C   UNL d   1       0.625  -0.534  -0.046  0.00  0.00     0.041 A 
ATOM      7  N   UNL d   1      -1.513  -1.739   2.638  0.00  0.00    -0.184 N 
ATOM      8  HN  UNL d   1      -1.739  -2.734   2.642  1.00  0.00     0.185 HD
ATOM      9  N   UNL d   1      -1.454   0.466   3.278  0.00  0.00    -0.272 N 
ATOM     10  HN  UNL d   1      -1.614   1.326   3.802  1.00  0.00     0.189 HD
ATOM     11  C   UNL d   1      -1.889  -0.770   3.530  0.00  0.00     0.216 A 
ATOM     12  O   UNL d   1      -0.069   2.450   1.803  0.00  0.00    -0.265 OA
ATOM     13  C   UNL d   1       1.551   1.567  -0.614  0.00  0.00     0.047 C 
ATOM     14  C   UNL d   1       1.517  -0.823  -1.214  0.00  0.00     0.059 C 
ATOM     15  C   UNL d   1       2.327   0.475  -1.356  0.00  0.00     0.011 C 
ENDROOT
BRANCH   3  16
ATOM     16  C   UNL d   1      -0.422  -2.828   0.153  0.00  0.00     0.252 C 
BRANCH  16  17
ATOM     17  C   UNL d   1      -1.881  -2.970  -0.302  0.00  0.00     0.254 C 
ATOM     18  N   UNL d   1      -2.712  -3.445   0.708  0.00  0.00    -0.269 N 
ATOM     19  H   UNL d   1      -2.390  -3.347   1.672  0.00  0.00     0.190 HD
ATOM     20  O   UNL d   1      -2.233  -2.694  -1.448  0.00  0.00    -0.270 OA
BRANCH  18  21
ATOM     21  N   UNL d   1      -4.044  -3.649   0.475  0.00  0.00    -0.308 N 
ATOM     22  C   UNL d   1      -4.721  -4.048   1.505  0.00  0.00     0.120 C 
ATOM     23  HN  UNL d   1      -4.471  -3.500  -0.439  1.00  0.00     0.186 HD
BRANCH  22  24
ATOM     24  C   UNL d   1      -6.170  -4.296   1.441  0.00  0.00    -0.004 A 
ATOM     25  C   UNL d   1      -6.821  -4.822   2.549  0.00  0.00     0.100 A 
ATOM     26  N   UNL d   1      -8.151  -5.080   2.588  0.00  0.00    -0.374 N 
ATOM     27  C   UNL d   1      -8.856  -4.797   1.469  0.00  0.00     0.087 A 
ATOM     28  HN  UNL d   1      -8.597  -5.468   3.419  1.00  0.00     0.164 HD
ATOM     29  C   UNL d   1      -8.293  -4.270   0.316  0.00  0.00     0.018 A 
ATOM     30  C   UNL d   1      -6.923  -4.016   0.302  0.00  0.00     0.015 A 
ENDBRANCH  22  24
ENDBRANCH  18  21
ENDBRANCH  16  17
ENDBRANCH   3  16
TORSDOF 4
