REMARK  7 active torsions:
REMARK  status: ('A' for Active; 'I' for Inactive)
REMARK    1  A    between atoms: C_6  and  C_1 
REMARK    2  A    between atoms: C_2  and  C_6 
REMARK    3  A    between atoms: C_3  and  C_6 
REMARK    4  A    between atoms: N_27  and  C_4 
REMARK    5  A    between atoms: N_26  and  C_5 
REMARK    6  A    between atoms: C_25  and  N_15 
REMARK    7  A    between atoms: C_20  and  C_16 
ROOT
ATOM      1  C   UNL d   1      -0.937   2.516  -0.060  0.00  0.00     0.106 C 
ENDROOT
BRANCH   1   2
ATOM      2  C   UNL d   1      -2.224   2.700  -0.859  0.00  0.00     0.061 C 
ATOM      3  C   UNL d   1      -3.470   2.291  -0.529  0.00  0.00     0.092 C 
ATOM      4  N   UNL d   1      -4.505   2.561  -1.381  0.00  0.00    -0.323 N 
ATOM      5  C   UNL d   1      -4.386   3.180  -2.586  0.00  0.00     0.179 C 
ATOM      6  H   UNL d   1      -5.421   2.204  -1.140  0.00  0.00     0.169 HD
ATOM      7  N   UNL d   1      -3.143   3.598  -2.931  0.00  0.00    -0.300 N 
ATOM      8  S   UNL d   1      -5.696   3.421  -3.581  0.00  0.00    -0.040 SA
ATOM      9  C   UNL d   1      -2.053   3.498  -2.115  0.00  0.00     0.258 C 
ATOM     10  H   UNL d   1      -3.030   4.123  -3.785  0.00  0.00     0.171 HD
ATOM     11  O   UNL d   1      -1.010   4.086  -2.379  0.00  0.00    -0.267 OA
BRANCH   3  12
ATOM     12  N   UNL d   1      -3.800   1.582   0.598  0.00  0.00    -0.288 NA
ATOM     13  H   UNL d   1      -3.057   1.450   1.288  0.00  0.00     0.125 HD
ATOM     14  H   UNL d   1      -4.661   1.893   1.037  0.00  0.00     0.125 HD
ENDBRANCH   3  12
ENDBRANCH   1   2
BRANCH   1  15
ATOM     15  C   UNL d   1      -0.977   3.199   1.302  0.00  0.00     0.061 C 
ATOM     16  C   UNL d   1      -1.064   4.540   1.479  0.00  0.00     0.092 C 
ATOM     17  N   UNL d   1      -1.002   5.050   2.747  0.00  0.00    -0.323 N 
ATOM     18  C   UNL d   1      -0.700   4.324   3.857  0.00  0.00     0.179 C 
ATOM     19  H   UNL d   1      -1.129   6.046   2.876  0.00  0.00     0.169 HD
ATOM     20  N   UNL d   1      -0.552   2.986   3.681  0.00  0.00    -0.300 N 
ATOM     21  S   UNL d   1      -0.534   5.038   5.348  0.00  0.00    -0.040 SA
ATOM     22  C   UNL d   1      -0.974   2.373   2.538  0.00  0.00     0.258 C 
ATOM     23  H   UNL d   1      -0.511   2.415   4.513  0.00  0.00     0.171 HD
ATOM     24  O   UNL d   1      -1.438   1.236   2.564  0.00  0.00    -0.267 OA
BRANCH  16  25
ATOM     25  N   UNL d   1      -1.210   5.454   0.465  0.00  0.00    -0.288 NA
ATOM     26  H   UNL d   1      -0.877   5.164  -0.455  0.00  0.00     0.125 HD
ATOM     27  H   UNL d   1      -0.880   6.385   0.697  0.00  0.00     0.125 HD
ENDBRANCH  16  25
ENDBRANCH   1  15
BRANCH   1  28
ATOM     28  C   UNL d   1      -0.395   1.095  -0.104  0.00  0.00     0.002 A 
ATOM     29  C   UNL d   1       0.961   0.633  -0.002  0.00  0.00     0.067 A 
ATOM     30  N   UNL d   1       1.017  -0.710   0.031  0.00  0.00    -0.293 N 
ATOM     31  N   UNL d   1      -0.264  -1.134  -0.083  0.00  0.00    -0.267 N 
ATOM     32  HN  UNL d   1       1.852  -1.289   0.123  1.00  0.00     0.187 HD
ATOM     33  C   UNL d   1      -1.119  -0.074  -0.244  0.00  0.00     0.127 A 
BRANCH  29  34
ATOM     34  C   UNL d   1       2.191   1.427   0.100  0.00  0.00    -0.007 A 
ATOM     35  C   UNL d   1       2.410   2.537  -0.726  0.00  0.00     0.014 A 
ATOM     36  C   UNL d   1       3.555   3.326  -0.577  0.00  0.00     0.007 A 
ATOM     37  C   UNL d   1       4.527   2.994   0.371  0.00  0.00    -0.062 A 
ATOM     38  C   UNL d   1       4.341   1.853   1.160  0.00  0.00     0.007 A 
ATOM     39  C   UNL d   1       5.743   3.858   0.524  0.00  0.00     0.048 C 
ATOM     40  C   UNL d   1       3.183   1.078   1.026  0.00  0.00     0.014 A 
ENDBRANCH  29  34
BRANCH  31  41
ATOM     41  C   UNL d   1      -0.616  -2.515  -0.024  0.00  0.00     0.056 A 
ATOM     42  C   UNL d   1      -1.949  -2.927  -0.183  0.00  0.00     0.031 A 
ATOM     43  C   UNL d   1      -2.284  -4.283  -0.105  0.00  0.00     0.002 A 
ATOM     44  C   UNL d   1      -1.293  -5.233   0.134  0.00  0.00     0.000 A 
ATOM     45  C   UNL d   1       0.030  -4.832   0.295  0.00  0.00     0.002 A 
ATOM     46  C   UNL d   1       0.374  -3.478   0.214  0.00  0.00     0.031 A 
ENDBRANCH  31  41
ENDBRANCH   1  28
TORSDOF 7
