REMARK  1 active torsions:
REMARK  status: ('A' for Active; 'I' for Inactive)
REMARK    1  A    between atoms: C_12  and  C_3 
ROOT
ATOM      1  N   UNL d   1      -0.303   0.630  -0.018  0.00  0.00    -0.205 N 
ATOM      2  C   UNL d   1      -0.195  -0.737  -0.026  0.00  0.00     0.164 A 
ATOM      3  C   UNL d   1       0.783   1.506   0.003  0.00  0.00     0.154 A 
ATOM      4  C   UNL d   1       1.113  -1.258  -0.035  0.00  0.00     0.102 A 
ATOM      5  N   UNL d   1       1.996   0.996   0.025  0.00  0.00    -0.342 N 
ATOM      6  HN  UNL d   1       2.813   1.606   0.063  1.00  0.00     0.167 HD
ATOM      7  N   UNL d   1      -1.603   0.969   0.059  0.00  0.00     0.002 NA
ATOM      8  N   UNL d   1      -1.407  -1.251  -0.001  0.00  0.00    -0.268 N 
ATOM      9  HN  UNL d   1      -1.656  -2.240  -0.016  1.00  0.00     0.185 HD
ATOM     10  C   UNL d   1       2.148  -0.388  -0.006  0.00  0.00     0.032 A 
ATOM     11  N   UNL d   1      -2.268  -0.180   0.048  0.00  0.00    -0.007 NA
ATOM     12 CL   UNL d   1       1.303  -2.970  -0.062  0.00  0.00    -0.078 Cl
ATOM     13  C   UNL d   1       3.581  -0.858  -0.011  0.00  0.00     0.070 C 
ENDROOT
BRANCH   3  14
ATOM     14  C   UNL d   1       0.627   2.989   0.016  0.00  0.00     0.078 A 
ATOM     15  N   UNL d   1      -0.489   3.489  -0.562  0.00  0.00    -0.363 N 
ATOM     16  C   UNL d   1      -0.644   4.830  -0.546  0.00  0.00     0.088 A 
ATOM     17  HN  UNL d   1      -1.184   2.879  -0.992  1.00  0.00     0.165 HD
ATOM     18  C   UNL d   1       0.275   5.702   0.011  0.00  0.00     0.017 A 
ATOM     19  C   UNL d   1       1.428   5.171   0.579  0.00  0.00     0.004 A 
ATOM     20  C   UNL d   1       1.616   3.791   0.578  0.00  0.00     0.033 A 
ENDBRANCH   3  14
TORSDOF 1
