REMARK  4 active torsions:
REMARK  status: ('A' for Active; 'I' for Inactive)
REMARK    1  A    between atoms: C_20  and  N_3 
REMARK    2  A    between atoms: C_17  and  C_12 
REMARK    3  A    between atoms: C_14  and  C_19 
REMARK       I    between atoms: N_18  and  C_17 
REMARK    4  A    between atoms: C_19  and  N_18 
ROOT
ATOM      1  C   UNL d   1       4.438   1.264  -1.088  0.00  0.00     0.258 C 
ATOM      2  N   UNL d   1       4.089   2.005   0.018  0.00  0.00    -0.351 N 
ATOM      3  O   UNL d   1       4.131   1.620  -2.224  0.00  0.00    -0.267 OA
ATOM      4  H   UNL d   1       4.417   1.702   0.926  0.00  0.00     0.163 HD
ENDROOT
BRANCH   2   5
ATOM      5  C   UNL d   1       3.278   3.194  -0.044  0.00  0.00     0.183 C 
BRANCH   5   6
ATOM      6  C   UNL d   1       4.125   4.409   0.087  0.00  0.00     0.069 A 
ATOM      7  N   UNL d   1       4.443   4.909   1.290  0.00  0.00    -0.280 N 
ATOM      8  N   UNL d   1       5.103   6.057   0.970  0.00  0.00    -0.197 N 
ATOM      9  HN  UNL d   1       4.241   4.525   2.213  1.00  0.00     0.189 HD
ATOM     10  N   UNL d   1       5.264   6.295  -0.359  0.00  0.00    -0.282 N 
ATOM     11  C   UNL d   1       4.675   5.231  -0.920  0.00  0.00     0.049 A 
ATOM     12  HN  UNL d   1       5.719   7.086  -0.814  1.00  0.00     0.189 HD
ATOM     13  C   UNL d   1       4.646   5.046  -2.389  0.00  0.00     0.072 C 
BRANCH   8  14
ATOM     14  C   UNL d   1       5.573   6.950   1.971  0.00  0.00     0.074 A 
ATOM     15  C   UNL d   1       5.502   6.574   3.320  0.00  0.00     0.033 A 
ATOM     16  C   UNL d   1       5.968   7.440   4.313  0.00  0.00     0.002 A 
ATOM     17  C   UNL d   1       6.487   8.684   3.964  0.00  0.00     0.000 A 
ATOM     18  C   UNL d   1       6.549   9.069   2.624  0.00  0.00     0.002 A 
ATOM     19  C   UNL d   1       6.100   8.201   1.623  0.00  0.00     0.033 A 
ENDBRANCH   8  14
ENDBRANCH   5   6
ENDBRANCH   2   5
BRANCH   1  20
ATOM     20  C   UNL d   1       5.173   0.035  -0.810  0.00  0.00     0.075 A 
ATOM     21  S   UNL d   1       5.501  -0.450   0.842  0.00  0.00    -0.065 SA
ATOM     22  C   UNL d   1       6.250  -1.822   0.295  0.00  0.00     0.104 A 
ATOM     23  C   UNL d   1       6.279  -1.942  -1.034  0.00  0.00     0.024 A 
ATOM     24  N   UNL d   1       6.869  -2.913   0.793  0.00  0.00    -0.289 N 
ATOM     25  C   UNL d   1       5.670  -0.897  -1.731  0.00  0.00     0.041 A 
ATOM     26  C   UNL d   1       6.931  -3.129  -1.344  0.00  0.00     0.035 A 
ATOM     27  C   UNL d   1       7.241  -3.751  -2.650  0.00  0.00     0.070 C 
ATOM     28  N   UNL d   1       7.304  -3.744  -0.197  0.00  0.00    -0.302 N 
ATOM     29  HN  UNL d   1       7.799  -4.630  -0.096  1.00  0.00     0.187 HD
ATOM     30  C   UNL d   1       7.086  -3.256   2.173  0.00  0.00     0.178 C 
ENDBRANCH   1  20
TORSDOF 4
