REMARK  3 active torsions:
REMARK  status: ('A' for Active; 'I' for Inactive)
REMARK    1  A    between atoms: C_2  and  C_1 
REMARK       I    between atoms: C_3  and  N_5 
REMARK       I    between atoms: N_6  and  C_3 
REMARK    2  A    between atoms: N_5  and  C_4 
REMARK    3  A    between atoms: C_9  and  N_6 
ROOT
ATOM      1  C   UNL d   1       3.438   0.655   0.031  0.00  0.00    -0.111 C 
ATOM      2  C   UNL d   1       4.479   0.365   0.563  0.00  0.00     0.012 C 
ATOM      3  C   UNL d   1       0.972   0.299   0.096  0.00  0.00     0.101 C 
ATOM      4  C   UNL d   1       2.159   0.924  -0.675  0.00  0.00     0.087 C 
ATOM      5  C   UNL d   1       0.998  -1.237   0.049  0.00  0.00     0.026 C 
ATOM      6  C   UNL d   1       2.252   0.400  -2.107  0.00  0.00     0.019 C 
ATOM      7  C   UNL d   1       1.322  -1.872  -1.304  0.00  0.00     0.002 C 
ATOM      8  C   UNL d   1       2.313  -1.122  -2.193  0.00  0.00     0.001 C 
ENDROOT
BRANCH   3   9
ATOM      9  N   UNL d   1      -0.338   0.917  -0.203  0.00  0.00    -0.337 N 
ATOM     10  C   UNL d   1      -1.099   0.720  -1.327  0.00  0.00     0.321 C 
ATOM     11  N   UNL d   1      -2.227   1.527  -1.323  0.00  0.00    -0.307 N 
ATOM     12  O   UNL d   1      -0.851  -0.091  -2.210  0.00  0.00    -0.247 OA
ATOM     13  H   UNL d   1      -2.692   1.490  -0.421  0.00  0.00     0.170 HD
ATOM     14  H   UNL d   1      -0.497   1.810   0.244  0.00  0.00     0.164 HD
BRANCH  11  15
ATOM     15  C   UNL d   1      -3.084   1.554  -2.458  0.00  0.00     0.066 C 
ATOM     16  C   UNL d   1      -2.643   1.838  -3.759  0.00  0.00     0.077 C 
ATOM     17  C   UNL d   1      -3.536   1.637  -4.826  0.00  0.00     0.035 C 
ATOM     18  C   UNL d   1      -4.848   1.295  -4.553  0.00  0.00     0.088 C 
ATOM     19  N   UNL d   1      -5.331   1.159  -3.304  0.00  0.00    -0.373 N 
ATOM     20  C   UNL d   1      -4.442   1.285  -2.290  0.00  0.00     0.117 C 
ATOM     21  HN  UNL d   1      -6.318   0.971  -3.130  1.00  0.00     0.164 HD
BRANCH  16  22
ATOM     22  C   UNL d   1      -1.336   2.534  -4.040  0.00  0.00     0.419 C 
ATOM     23  F   UNL d   1      -1.201   3.674  -3.299  0.00  0.00    -0.166 F 
ATOM     24  F   UNL d   1      -1.231   2.951  -5.338  0.00  0.00    -0.166 F 
ATOM     25  F   UNL d   1      -0.214   1.812  -3.816  0.00  0.00    -0.166 F 
ENDBRANCH  16  22
ENDBRANCH  11  15
ENDBRANCH   3   9
TORSDOF 3
