REMARK  5 active torsions:
REMARK  status: ('A' for Active; 'I' for Inactive)
REMARK    1  A    between atoms: N_7  and  C_1 
REMARK    2  A    between atoms: C_11  and  C_9 
REMARK    3  A    between atoms: O_16  and  C_12 
REMARK    4  A    between atoms: O_17  and  C_14 
REMARK    5  A    between atoms: C_20  and  O_17 
ROOT
ATOM      1  C   UNL d   1      -2.032  -0.892   0.073  0.00  0.00     0.149 A 
ATOM      2  N   UNL d   1      -0.959  -1.653   0.051  0.00  0.00    -0.335 N 
ATOM      3  HN  UNL d   1      -0.972  -2.672   0.055  1.00  0.00     0.168 HD
ATOM      4  S   UNL d   1      -1.701   0.806   0.032  0.00  0.00    -0.052 SA
ATOM      5  C   UNL d   1      -0.009   0.496   0.011  0.00  0.00     0.037 A 
ATOM      6  C   UNL d   1       0.187  -0.882   0.023  0.00  0.00     0.051 A 
ATOM      7  C   UNL d   1       1.073   1.397  -0.009  0.00  0.00     0.058 A 
ATOM      8  C   UNL d   1       1.503  -1.379   0.011  0.00  0.00     0.034 A 
ATOM      9  C   UNL d   1       2.378   0.885  -0.015  0.00  0.00     0.070 A 
ATOM     10  C   UNL d   1       2.586  -0.493  -0.005  0.00  0.00     0.039 A 
ENDROOT
BRANCH   1  11
ATOM     11  N   UNL d   1      -3.334  -1.289   0.134  0.00  0.00    -0.346 N 
ATOM     12  C   UNL d   1      -3.523  -2.570   0.148  0.00  0.00     0.104 C 
ATOM     13  HN  UNL d   1      -4.106  -0.623   0.165  1.00  0.00     0.167 HD
BRANCH  12  14
ATOM     14  C   UNL d   1      -4.883  -3.150   0.231  0.00  0.00     0.012 A 
ATOM     15  C   UNL d   1      -6.032  -2.353   0.304  0.00  0.00     0.077 A 
ATOM     16  C   UNL d   1      -7.292  -2.941   0.379  0.00  0.00     0.037 A 
ATOM     17  C   UNL d   1      -7.414  -4.330   0.387  0.00  0.00     0.003 A 
ATOM     18  C   UNL d   1      -6.274  -5.131   0.320  0.00  0.00     0.001 A 
ATOM     19  C   UNL d   1      -5.008  -4.544   0.240  0.00  0.00     0.015 A 
BRANCH  15  20
ATOM     20  O   UNL d   1      -5.996  -0.985   0.310  0.00  0.00    -0.360 OA
ATOM     21  H   UNL d   1      -5.054  -0.716   0.262  0.00  0.00     0.217 HD
ENDBRANCH  15  20
ENDBRANCH  12  14
ENDBRANCH   1  11
BRANCH   9  22
ATOM     22  O   UNL d   1       3.373   1.832  -0.028  0.00  0.00    -0.351 OA
BRANCH  22  23
ATOM     23  C   UNL d   1       4.716   1.344  -0.025  0.00  0.00     0.171 C 
ATOM     24  C   UNL d   1       5.675   2.520  -0.036  0.00  0.00     0.034 C 
ENDBRANCH  22  23
ENDBRANCH   9  22
TORSDOF 5
