REMARK  3 active torsions:
REMARK  status: ('A' for Active; 'I' for Inactive)
REMARK    1  A    between atoms: C_2  and  N_1 
REMARK    2  A    between atoms: C_8  and  C_3 
REMARK    3  A    between atoms: C_4  and  C_6 
ROOT
ATOM      1  C   UNL d   1       0.246   0.960  -0.477  0.00  0.00     0.117 A 
ATOM      2  C   UNL d   1       0.653   1.423  -1.731  0.00  0.00     0.042 A 
ATOM      3  C   UNL d   1      -0.929   1.430   0.141  0.00  0.00     0.053 A 
ATOM      4  C   UNL d   1      -1.720   2.397  -0.495  0.00  0.00     0.050 A 
ATOM      5  C   UNL d   1      -0.136   2.410  -2.348  0.00  0.00     0.018 A 
ATOM      6  C   UNL d   1      -1.304   2.889  -1.741  0.00  0.00     0.017 A 
ENDROOT
BRANCH   4   7
ATOM      7  C   UNL d   1      -2.997   2.909   0.134  0.00  0.00     0.417 C 
ATOM      8  F   UNL d   1      -3.272   2.330   1.335  0.00  0.00    -0.166 F 
ATOM      9  F   UNL d   1      -2.965   4.249   0.359  0.00  0.00    -0.166 F 
ATOM     10  F   UNL d   1      -4.084   2.681  -0.651  0.00  0.00    -0.166 F 
ENDBRANCH   4   7
BRANCH   1  11
ATOM     11  N   UNL d   1       1.043   0.020   0.280  0.00  0.00    -0.115 N 
ATOM     12  O   UNL d   1       2.206   0.348   0.542  0.00  0.00    -0.532 OA
ATOM     13  O   UNL d   1       0.492  -1.036   0.615  0.00  0.00    -0.532 OA
ENDBRANCH   1  11
BRANCH   2  14
ATOM     14  C   UNL d   1       1.856   0.976  -2.491  0.00  0.00     0.158 C 
ATOM     15  O   UNL d   1       2.432   1.796  -3.205  0.00  0.00    -0.293 OA
ATOM     16  C   UNL d   1       2.309  -0.459  -2.445  0.00  0.00     0.097 C 
ENDBRANCH   2  14
TORSDOF 3
