REMARK  7 active torsions:
REMARK  status: ('A' for Active; 'I' for Inactive)
REMARK    1  A    between atoms: S_9  and  C_3 
REMARK    2  A    between atoms: C_12  and  C_4 
REMARK    3  A    between atoms: C_7  and  S_9 
REMARK    4  A    between atoms: C_10  and  C_7 
REMARK    5  A    between atoms: C_11  and  C_7 
REMARK    6  A    between atoms: O_18  and  C_10 
REMARK    7  A    between atoms: C_23  and  O_18 
ROOT
ATOM      1  N   UNL d   1       1.119   0.330  -0.062  0.00  0.00    -0.320 N 
ATOM      2  HN  UNL d   1       1.968   0.637  -0.537  1.00  0.00     0.169 HD
ATOM      3  C   UNL d   1       0.768  -0.882   0.277  0.00  0.00     0.162 A 
ATOM      4  C   UNL d   1       0.053   1.096   0.381  0.00  0.00     0.132 A 
ATOM      5  N   UNL d   1      -0.937   0.380   0.943  0.00  0.00    -0.283 N 
ATOM      6  HN  UNL d   1      -1.819   0.703   1.340  1.00  0.00     0.188 HD
ATOM      7  N   UNL d   1      -0.462  -0.869   0.846  0.00  0.00    -0.278 N 
ATOM      8  H   UNL d   1      -0.999  -1.650   1.207  0.00  0.00     0.189 HD
ENDROOT
BRANCH   3   9
ATOM      9  S   UNL d   1       1.617  -2.360   0.119  0.00  0.00    -0.070 SA
BRANCH   9  10
ATOM     10  C   UNL d   1       3.378  -1.859   0.124  0.00  0.00     0.223 C 
BRANCH  10  11
ATOM     11  C   UNL d   1       3.725  -1.151   1.420  0.00  0.00     0.280 C 
ATOM     12  O   UNL d   1       4.054  -1.723   2.450  0.00  0.00    -0.263 OA
BRANCH  11  13
ATOM     13  O   UNL d   1       3.654   0.202   1.278  0.00  0.00    -0.321 OA
BRANCH  13  14
ATOM     14  C   UNL d   1       3.945   0.979   2.451  0.00  0.00     0.174 C 
ATOM     15  C   UNL d   1       2.773   0.985   3.416  0.00  0.00     0.034 C 
ENDBRANCH  13  14
ENDBRANCH  11  13
ENDBRANCH  10  11
BRANCH  10  16
ATOM     16  C   UNL d   1       4.255  -3.105  -0.045  0.00  0.00     0.146 C 
ATOM     17  O   UNL d   1       3.813  -4.244  -0.224  0.00  0.00    -0.297 OA
ATOM     18  C   UNL d   1       5.752  -2.907  -0.021  0.00  0.00     0.092 C 
ENDBRANCH  10  16
ENDBRANCH   9  10
ENDBRANCH   3   9
BRANCH   4  19
ATOM     19  C   UNL d   1       0.037   2.555   0.297  0.00  0.00     0.009 A 
ATOM     20  C   UNL d   1       1.082   3.247  -0.332  0.00  0.00     0.017 A 
ATOM     21  C   UNL d   1       1.077   4.646  -0.387  0.00  0.00     0.025 A 
ATOM     22  C   UNL d   1       0.028   5.360   0.190  0.00  0.00     0.034 A 
ATOM     23  C   UNL d   1      -1.018   4.690   0.818  0.00  0.00     0.025 A 
ATOM     24 CL   UNL d   1       0.028   7.079   0.131  0.00  0.00    -0.084 Cl
ATOM     25  C   UNL d   1      -1.013   3.293   0.869  0.00  0.00     0.017 A 
ENDBRANCH   4  19
TORSDOF 7
