REMARK  5 active torsions:
REMARK  status: ('A' for Active; 'I' for Inactive)
REMARK    1  A    between atoms: C_3  and  C_1 
REMARK    2  A    between atoms: N_9  and  C_2 
REMARK    3  A    between atoms: C_4  and  O_12 
REMARK       I    between atoms: C_8  and  N_9 
REMARK       I    between atoms: N_22  and  C_8 
REMARK    4  A    between atoms: O_12  and  C_17 
REMARK    5  A    between atoms: C_29  and  N_22 
ROOT
ATOM      1  N   UNL d   1       1.287   1.070   1.325  0.00  0.00    -0.344 N 
ATOM      2  HN  UNL d   1       0.634   1.502   1.978  1.00  0.00     0.167 HD
ATOM      3  C   UNL d   1       2.069   1.813   0.515  0.00  0.00     0.149 A 
ATOM      4  C   UNL d   1       2.241  -0.940   0.324  0.00  0.00     0.051 A 
ATOM      5  C   UNL d   1       1.411  -0.284   1.232  0.00  0.00     0.119 A 
ATOM      6  C   UNL d   1       2.933   1.258  -0.419  0.00  0.00     0.059 A 
ATOM      7  C   UNL d   1       3.023  -0.133  -0.508  0.00  0.00     0.035 A 
ENDROOT
BRANCH   4   8
ATOM      8  N   UNL d   1       2.326  -2.343   0.153  0.00  0.00    -0.307 N 
ATOM      9  C   UNL d   1       1.595  -3.314   0.816  0.00  0.00     0.325 C 
ATOM     10  N   UNL d   1       1.851  -4.572   0.290  0.00  0.00    -0.306 N 
ATOM     11  O   UNL d   1       0.784  -3.106   1.713  0.00  0.00    -0.247 OA
ATOM     12  H   UNL d   1       2.081  -4.590  -0.693  0.00  0.00     0.171 HD
ATOM     13  H   UNL d   1       3.024  -2.672  -0.498  0.00  0.00     0.170 HD
BRANCH  10  14
ATOM     14  C   UNL d   1       1.348  -5.766   0.801  0.00  0.00     0.077 A 
ATOM     15  C   UNL d   1       1.022  -6.142   2.097  0.00  0.00     0.186 A 
ATOM     16  O   UNL d   1       0.551  -7.435   2.083  0.00  0.00    -0.308 OA
ATOM     17  C   UNL d   1       0.617  -7.896   0.811  0.00  0.00     0.052 A 
ATOM     18  C   UNL d   1       0.163  -9.286   0.591  0.00  0.00     0.077 C 
ATOM     19  C   UNL d   1       1.122  -6.917  -0.011  0.00  0.00     0.064 A 
BRANCH  15  20
ATOM     20  C   UNL d   1       1.122  -5.554   3.459  0.00  0.00     0.441 C 
ATOM     21  F   UNL d   1       1.914  -4.456   3.539  0.00  0.00    -0.164 F 
ATOM     22  F   UNL d   1      -0.092  -5.232   3.978  0.00  0.00    -0.164 F 
ATOM     23  F   UNL d   1       1.675  -6.452   4.329  0.00  0.00    -0.164 F 
ENDBRANCH  15  20
ENDBRANCH  10  14
ENDBRANCH   4   8
BRANCH   3  24
ATOM     24  O   UNL d   1       1.910   3.191   0.453  0.00  0.00    -0.276 OA
BRANCH  24  25
ATOM     25  C   UNL d   1       1.579   3.854   1.627  0.00  0.00     0.163 A 
ATOM     26  C   UNL d   1       0.722   4.957   1.523  0.00  0.00     0.042 A 
ATOM     27  C   UNL d   1       0.519   5.658   2.720  0.00  0.00     0.049 A 
ATOM     28  C   UNL d   1       0.086   5.399   0.334  0.00  0.00     0.020 A 
ATOM     29  C   UNL d   1      -0.305   6.775   2.710  0.00  0.00     0.054 A 
ATOM     30  N   UNL d   1       1.105   5.299   3.868  0.00  0.00    -0.351 N 
ATOM     31  C   UNL d   1      -0.924   7.211   1.539  0.00  0.00     0.036 A 
ATOM     32  C   UNL d   1      -0.732   6.527   0.345  0.00  0.00     0.025 A 
ATOM     33 CL   UNL d   1      -1.924   8.612   1.568  0.00  0.00    -0.084 Cl
ATOM     34  C   UNL d   1       1.928   4.239   3.831  0.00  0.00     0.182 A 
ATOM     35  HN  UNL d   1       0.935   5.810   4.734  1.00  0.00     0.166 HD
ATOM     36  N   UNL d   1       2.231   3.511   2.754  0.00  0.00    -0.332 N 
ATOM     37  HN  UNL d   1       2.909   2.749   2.783  1.00  0.00     0.168 HD
ENDBRANCH  24  25
ENDBRANCH   3  24
TORSDOF 5
