REMARK  5 active torsions:
REMARK  status: ('A' for Active; 'I' for Inactive)
REMARK    1  A    between atoms: C_2  and  S_1 
REMARK    2  A    between atoms: N_6  and  S_1 
REMARK    3  A    between atoms: N_7  and  C_3 
REMARK    4  A    between atoms: C_14  and  N_6 
REMARK    5  A    between atoms: C_9  and  C_14 
ROOT
ATOM      1  S   UNL d   1       0.996   0.113  -0.165  0.00  0.00     0.243 S 
ATOM      2  O   UNL d   1       0.236  -1.053   0.225  0.00  0.00    -0.206 OA
ATOM      3  O   UNL d   1       0.949   1.344   0.594  0.00  0.00    -0.206 OA
ENDROOT
BRANCH   1   4
ATOM      4  C   UNL d   1       0.559   0.481  -1.832  0.00  0.00     0.090 A 
ATOM      5  C   UNL d   1       0.619   1.777  -2.302  0.00  0.00     0.114 A 
ATOM      6  N   UNL d   1       0.170   2.152  -3.530  0.00  0.00    -0.351 N 
ATOM      7  C   UNL d   1      -0.400   1.221  -4.329  0.00  0.00     0.103 A 
ATOM      8  HN  UNL d   1       0.260   3.119  -3.842  1.00  0.00     0.166 HD
ATOM      9  C   UNL d   1      -0.486  -0.110  -3.905  0.00  0.00     0.050 A 
ATOM     10  C   UNL d   1      -0.010  -0.486  -2.648  0.00  0.00     0.030 A 
BRANCH   7  11
ATOM     11  N   UNL d   1      -1.008   1.607  -5.512  0.00  0.00    -0.363 N 
ATOM     12  C   UNL d   1      -1.301   3.035  -5.718  0.00  0.00     0.150 C 
ATOM     13  C   UNL d   1      -0.282   3.689  -6.659  0.00  0.00     0.187 C 
ATOM     14  O   UNL d   1      -0.188   2.971  -7.903  0.00  0.00    -0.388 OA
ATOM     15  C   UNL d   1       0.243   1.624  -7.658  0.00  0.00     0.187 C 
ATOM     16  C   UNL d   1      -0.741   0.863  -6.753  0.00  0.00     0.150 C 
ENDBRANCH   7  11
ENDBRANCH   1   4
BRANCH   1  17
ATOM     17  N   UNL d   1       2.608  -0.376  -0.273  0.00  0.00    -0.211 NA
ATOM     18  H   UNL d   1       2.723  -1.131  -0.949  0.00  0.00     0.140 HD
BRANCH  17  19
ATOM     19  C   UNL d   1       3.612   0.686  -0.367  0.00  0.00     0.144 C 
BRANCH  19  20
ATOM     20  C   UNL d   1       5.015   0.140  -0.523  0.00  0.00    -0.022 A 
ATOM     21  C   UNL d   1       5.428  -0.540  -1.682  0.00  0.00     0.043 A 
ATOM     22  C   UNL d   1       6.742  -0.999  -1.815  0.00  0.00     0.048 A 
ATOM     23 CL   UNL d   1       4.335  -0.841  -2.989  0.00  0.00    -0.084 Cl
ATOM     24  C   UNL d   1       7.656  -0.779  -0.790  0.00  0.00     0.035 A 
ATOM     25  C   UNL d   1       7.268  -0.117   0.371  0.00  0.00     0.024 A 
ATOM     26 CL   UNL d   1       9.279  -1.325  -0.961  0.00  0.00    -0.084 Cl
ATOM     27  C   UNL d   1       5.953   0.337   0.505  0.00  0.00     0.012 A 
ENDBRANCH  19  20
ENDBRANCH  17  19
ENDBRANCH   1  17
TORSDOF 5
