REMARK  5 active torsions:
REMARK  status: ('A' for Active; 'I' for Inactive)
REMARK    1  A    between atoms: C_22  and  N_3 
REMARK    2  A    between atoms: S_16  and  C_10 
REMARK    3  A    between atoms: C_21  and  S_16 
REMARK    4  A    between atoms: C_17  and  C_21 
REMARK    5  A    between atoms: C_24  and  C_22 
ROOT
ATOM      1  C   UNL d   1       2.556   0.143  -0.406  0.00  0.00     0.079 A 
ATOM      2  C   UNL d   1       3.963   0.156  -0.082  0.00  0.00     0.144 A 
ATOM      3  N   UNL d   1       4.609   0.690   1.017  0.00  0.00    -0.307 N 
ATOM      4  C   UNL d   1       1.861  -0.818  -1.136  0.00  0.00     0.060 A 
ATOM      5  S   UNL d   1       1.551   1.471  -0.046  0.00  0.00    -0.065 SA
ATOM      6  C   UNL d   1       0.504  -0.422  -1.478  0.00  0.00     0.031 A 
ATOM      7  C   UNL d   1       0.238   0.814  -0.889  0.00  0.00     0.088 A 
ATOM      8  N   UNL d   1       4.875  -0.352  -0.896  0.00  0.00    -0.282 N 
ATOM      9  HN  UNL d   1       4.685  -0.866  -1.756  1.00  0.00     0.188 HD
ATOM     10  C   UNL d   1       5.952   0.572   0.740  0.00  0.00     0.163 A 
ATOM     11  N   UNL d   1       6.118  -0.071  -0.391  0.00  0.00    -0.278 N 
ATOM     12  HN  UNL d   1       7.011  -0.317  -0.818  1.00  0.00     0.189 HD
ATOM     13  N   UNL d   1      -0.904   1.528  -0.939  0.00  0.00    -0.354 N 
ATOM     14  HN  UNL d   1      -1.013   2.420  -0.457  1.00  0.00     0.166 HD
ATOM     15  C   UNL d   1      -0.562  -0.978  -2.251  0.00  0.00    -0.045 A 
ATOM     16  C   UNL d   1      -1.761  -0.235  -2.323  0.00  0.00     0.032 A 
ATOM     17  C   UNL d   1      -1.885   0.980  -1.667  0.00  0.00     0.006 A 
ATOM     18  N   UNL d   1       2.447  -1.990  -1.498  0.00  0.00    -0.397 N 
ATOM     19  C   UNL d   1      -0.550  -2.270  -3.025  0.00  0.00     0.049 C 
ATOM     20  C   UNL d   1      -3.167   1.755  -1.762  0.00  0.00     0.068 C 
ATOM     21  H   UNL d   1       3.463  -2.075  -1.400  0.00  0.00     0.156 HD
ATOM     22  H   UNL d   1       2.124  -2.521  -2.295  0.00  0.00     0.156 HD
ENDROOT
BRANCH   3  23
ATOM     23  C   UNL d   1       4.020   1.066   2.294  0.00  0.00     0.159 C 
BRANCH  23  24
ATOM     24  C   UNL d   1       3.684   2.526   2.412  0.00  0.00    -0.017 C 
ATOM     25  C   UNL d   1       2.646   2.985   3.134  0.00  0.00     0.008 C 
ENDBRANCH  23  24
ENDBRANCH   3  23
BRANCH  10  26
ATOM     26  S   UNL d   1       7.221   1.186   1.748  0.00  0.00    -0.088 SA
BRANCH  26  27
ATOM     27  C   UNL d   1       8.692   0.706   0.783  0.00  0.00     0.122 C 
BRANCH  27  28
ATOM     28  C   UNL d   1       9.976   1.165   1.441  0.00  0.00    -0.027 A 
ATOM     29  C   UNL d   1      10.718   0.360   2.320  0.00  0.00     0.041 A 
ATOM     30 CL   UNL d   1      10.224  -1.244   2.733  0.00  0.00    -0.084 Cl
ATOM     31  C   UNL d   1      11.905   0.833   2.895  0.00  0.00     0.024 A 
ATOM     32  C   UNL d   1      12.363   2.119   2.610  0.00  0.00     0.002 A 
ATOM     33  C   UNL d   1      11.635   2.934   1.750  0.00  0.00     0.001 A 
ATOM     34  C   UNL d   1      10.452   2.463   1.171  0.00  0.00     0.009 A 
ENDBRANCH  27  28
ENDBRANCH  26  27
ENDBRANCH  10  26
TORSDOF 5
