REMARK  6 active torsions:
REMARK  status: ('A' for Active; 'I' for Inactive)
REMARK    1  A    between atoms: C_10  and  C_1 
REMARK       I    between atoms: C_2  and  N_8 
REMARK       I    between atoms: N_4  and  C_2 
REMARK    2  A    between atoms: C_11  and  C_3 
REMARK    3  A    between atoms: C_6  and  N_4 
REMARK    4  A    between atoms: N_8  and  C_11 
REMARK    5  A    between atoms: O_14  and  C_10 
REMARK    6  A    between atoms: C_15  and  O_14 
ROOT
ATOM      1  C   UNL d   1       1.621   0.667  -0.059  0.00  0.00    -0.019 A 
ATOM      2  C   UNL d   1       0.317   1.147  -0.171  0.00  0.00     0.009 A 
ATOM      3  S   UNL d   1      -0.793  -0.141  -0.441  0.00  0.00    -0.104 SA
ATOM      4  C   UNL d   1       0.409  -1.327  -0.257  0.00  0.00     0.051 A 
ATOM      5  C   UNL d   1       1.652  -0.770  -0.082  0.00  0.00     0.017 A 
ENDROOT
BRANCH   2   6
ATOM      6  C   UNL d   1      -0.130   2.588  -0.128  0.00  0.00     0.171 C 
BRANCH   6   7
ATOM      7  N   UNL d   1      -1.558   2.756   0.034  0.00  0.00    -0.338 N 
ATOM      8  C   UNL d   1      -2.337   2.431   1.101  0.00  0.00     0.321 C 
ATOM      9  N   UNL d   1      -1.691   2.201   2.282  0.00  0.00    -0.306 N 
ATOM     10  O   UNL d   1      -3.552   2.352   0.925  0.00  0.00    -0.247 OA
ATOM     11  H   UNL d   1      -0.878   2.770   2.470  0.00  0.00     0.171 HD
ATOM     12  H   UNL d   1      -2.108   2.811  -0.813  0.00  0.00     0.164 HD
BRANCH   9  13
ATOM     13  C   UNL d   1      -2.273   1.570   3.404  0.00  0.00     0.075 A 
ATOM     14  C   UNL d   1      -1.765   1.859   4.674  0.00  0.00     0.143 A 
ATOM     15  F   UNL d   1      -0.758   2.739   4.803  0.00  0.00    -0.204 F 
ATOM     16  C   UNL d   1      -2.302   1.274   5.819  0.00  0.00     0.044 A 
ATOM     17  C   UNL d   1      -3.343   0.355   5.699  0.00  0.00     0.003 A 
ATOM     18  C   UNL d   1      -3.836   0.027   4.436  0.00  0.00     0.002 A 
ATOM     19  C   UNL d   1      -3.307   0.636   3.292  0.00  0.00     0.033 A 
ENDBRANCH   9  13
ENDBRANCH   6   7
ENDBRANCH   2   6
BRANCH   1  20
ATOM     20  C   UNL d   1       2.869   1.503   0.057  0.00  0.00     0.215 C 
BRANCH  20  21
ATOM     21  O   UNL d   1       3.524   1.559  -1.212  0.00  0.00    -0.347 OA
BRANCH  21  22
ATOM     22  C   UNL d   1       4.777   2.104  -1.240  0.00  0.00     0.069 A 
ATOM     23  C   UNL d   1       5.559   1.726  -2.336  0.00  0.00     0.038 A 
ATOM     24  C   UNL d   1       6.854   2.224  -2.492  0.00  0.00     0.026 A 
ATOM     25  C   UNL d   1       7.363   3.116  -1.553  0.00  0.00     0.034 A 
ATOM     26  C   UNL d   1       6.587   3.511  -0.465  0.00  0.00     0.026 A 
ATOM     27 CL   UNL d   1       8.955   3.740  -1.739  0.00  0.00    -0.084 Cl
ATOM     28  C   UNL d   1       5.291   3.005  -0.307  0.00  0.00     0.038 A 
ENDBRANCH  21  22
ENDBRANCH  20  21
ENDBRANCH   1  20
TORSDOF 6
