REMARK  3 active torsions:
REMARK  status: ('A' for Active; 'I' for Inactive)
REMARK    1  A    between atoms: C_2  and  S_1 
REMARK    2  A    between atoms: N_9  and  S_1 
REMARK    3  A    between atoms: C_17  and  N_9 
ROOT
ATOM      1  N   UNL d   1       2.712  -0.647  -6.708  0.00  0.00    -0.372 N 
ATOM      2  C   UNL d   1       2.113  -1.172  -5.564  0.00  0.00     0.064 C 
ATOM      3  C   UNL d   1       2.839  -1.287  -4.355  0.00  0.00     0.097 C 
ATOM      4  O   UNL d   1       4.210  -1.141  -4.276  0.00  0.00    -0.347 OA
ATOM      5  C   UNL d   1       2.183  -1.477  -3.140  0.00  0.00     0.063 C 
ATOM      6  C   UNL d   1       0.737  -1.414  -5.538  0.00  0.00     0.034 C 
ATOM      7  C   UNL d   1       4.015  -0.040  -6.435  0.00  0.00     0.109 C 
ATOM      8  C   UNL d   1       0.794  -1.573  -3.124  0.00  0.00     0.025 C 
ATOM      9  C   UNL d   1       4.831  -1.000  -5.567  0.00  0.00     0.201 C 
ATOM     10  C   UNL d   1       0.075  -1.589  -4.319  0.00  0.00     0.027 C 
ATOM     11  C   UNL d   1       2.723  -1.384  -7.968  0.00  0.00     0.123 C 
ATOM     12  C   UNL d   1       4.018  -0.934  -8.665  0.00  0.00     0.022 C 
ATOM     13  C   UNL d   1       4.559   0.220  -7.828  0.00  0.00     0.029 C 
ENDROOT
BRANCH   8  14
ATOM     14  N   UNL d   1       0.088  -1.509  -1.879  0.00  0.00    -0.181 NA
ATOM     15  H   UNL d   1       0.550  -2.031  -1.134  0.00  0.00     0.146 HD
BRANCH  14  16
ATOM     16  S   UNL d   1      -0.164   0.072  -1.267  0.00  0.00     0.246 S 
ATOM     17  O   UNL d   1      -0.791  -0.082   0.024  0.00  0.00    -0.206 OA
ATOM     18  O   UNL d   1       1.053   0.844  -1.418  0.00  0.00    -0.206 OA
BRANCH  16  19
ATOM     19  C   UNL d   1      -1.359   0.894  -2.224  0.00  0.00     0.088 A 
ATOM     20  C   UNL d   1      -2.616   0.392  -2.513  0.00  0.00     0.002 A 
ATOM     21  S   UNL d   1      -3.509   1.475  -3.497  0.00  0.00    -0.099 SA
ATOM     22  C   UNL d   1      -3.242  -0.901  -2.107  0.00  0.00     0.058 C 
ATOM     23  C   UNL d   1      -2.259   2.640  -3.489  0.00  0.00    -0.019 A 
ATOM     24  C   UNL d   1      -1.164   2.202  -2.773  0.00  0.00     0.039 A 
ATOM     25  C   UNL d   1      -2.442   3.931  -4.213  0.00  0.00     0.056 C 
ENDBRANCH  16  19
ENDBRANCH  14  16
ENDBRANCH   8  14
TORSDOF 3
