REMARK  2 active torsions:
REMARK  status: ('A' for Active; 'I' for Inactive)
REMARK    1  A    between atoms: C_10  and  C_6 
REMARK    2  A    between atoms: O_18  and  C_7 
ROOT
ATOM      1  C   UNL d   1      -0.817  -0.364  -0.016  0.00  0.00     0.052 A 
ATOM      2  C   UNL d   1      -1.234   0.970   0.012  0.00  0.00    -0.012 A 
ATOM      3  N   UNL d   1      -1.630  -1.423  -0.041  0.00  0.00    -0.335 N 
ATOM      4  HN  UNL d   1      -1.282  -2.382  -0.057  1.00  0.00     0.168 HD
ATOM      5  C   UNL d   1      -3.481   0.178  -0.022  0.00  0.00     0.109 A 
ATOM      6  C   UNL d   1      -2.594   1.275   0.017  0.00  0.00     0.032 A 
ATOM      7  C   UNL d   1      -2.953  -1.128  -0.042  0.00  0.00     0.164 A 
ATOM      8  C   UNL d   1       0.624  -0.430  -0.024  0.00  0.00    -0.002 A 
ATOM      9  C   UNL d   1      -0.019   1.879   0.010  0.00  0.00     0.081 A 
ATOM     10  C   UNL d   1       1.126   0.887  -0.013  0.00  0.00    -0.041 A 
ATOM     11  C   UNL d   1      -4.904   0.354  -0.034  0.00  0.00     0.105 C 
ATOM     12  N   UNL d   1      -6.050   0.534  -0.066  0.00  0.00    -0.191 NA
ATOM     13  C   UNL d   1       1.484  -1.514  -0.028  0.00  0.00     0.014 A 
ATOM     14  C   UNL d   1       2.486   1.144  -0.005  0.00  0.00     0.008 A 
ATOM     15  C   UNL d   1       2.860  -1.265  -0.017  0.00  0.00     0.001 A 
ATOM     16  C   UNL d   1       3.355   0.052  -0.005  0.00  0.00     0.001 A 
ENDROOT
BRANCH   7  17
ATOM     17  O   UNL d   1      -3.848  -2.183  -0.071  0.00  0.00    -0.340 OA
ATOM     18  C   UNL d   1      -3.217  -3.462  -0.036  0.00  0.00     0.211 C 
ENDBRANCH   7  17
BRANCH   6  19
ATOM     19  C   UNL d   1      -3.033   2.670   0.060  0.00  0.00     0.087 A 
ATOM     20  O   UNL d   1      -2.236   3.512   0.786  0.00  0.00    -0.322 OA
ATOM     21  C   UNL d   1      -2.770   4.755   0.714  0.00  0.00     0.142 A 
ATOM     22  C   UNL d   1      -3.916   4.736  -0.042  0.00  0.00     0.027 A 
ATOM     23  C   UNL d   1      -4.089   3.392  -0.461  0.00  0.00     0.040 A 
ENDBRANCH   6  19
TORSDOF 2
