REMARK  5 active torsions:
REMARK  status: ('A' for Active; 'I' for Inactive)
REMARK    1  A    between atoms: C_2  and  C_1 
REMARK    2  A    between atoms: C_3  and  C_2 
REMARK    3  A    between atoms: C_5  and  C_2 
REMARK       I    between atoms: C_4  and  N_7 
REMARK       I    between atoms: N_8  and  C_4 
REMARK    4  A    between atoms: N_7  and  C_5 
REMARK    5  A    between atoms: C_16  and  N_8 
ROOT
ATOM      1  C   UNL d   1       0.870  -2.315  -0.674  0.00  0.00     0.144 C 
ENDROOT
BRANCH   1   2
ATOM      2  C   UNL d   1       0.267  -1.411   0.421  0.00  0.00     0.161 C 
BRANCH   2   3
ATOM      3  C   UNL d   1       0.925  -1.654   1.787  0.00  0.00     0.398 C 
ATOM      4  F   UNL d   1       1.361  -0.521   2.384  0.00  0.00    -0.170 F 
ATOM      5  F   UNL d   1       1.993  -2.487   1.709  0.00  0.00    -0.170 F 
ATOM      6  F   UNL d   1       0.043  -2.225   2.645  0.00  0.00    -0.170 F 
ENDBRANCH   2   3
BRANCH   2   7
ATOM      7  C   UNL d   1       0.324   0.040  -0.021  0.00  0.00     0.023 A 
ATOM      8  N   UNL d   1      -0.821   0.795  -0.174  0.00  0.00    -0.369 N 
ATOM      9  C   UNL d   1      -0.483   2.068  -0.549  0.00  0.00     0.088 A 
ATOM     10  H   UNL d   1      -1.768   0.467  -0.026  0.00  0.00     0.165 HD
ATOM     11  C   UNL d   1       0.887   2.135  -0.656  0.00  0.00     0.019 A 
ATOM     12  C   UNL d   1       1.397   0.857  -0.329  0.00  0.00     0.027 A 
ENDBRANCH   2   7
ENDBRANCH   1   2
BRANCH   1  13
ATOM     13  N   UNL d   1       0.755  -3.748  -0.450  0.00  0.00    -0.342 N 
ATOM     14  C   UNL d   1      -0.459  -4.400  -0.508  0.00  0.00     0.320 C 
ATOM     15  N   UNL d   1      -0.312  -5.750  -0.295  0.00  0.00    -0.309 N 
ATOM     16  O   UNL d   1      -1.498  -3.788  -0.725  0.00  0.00    -0.247 OA
ATOM     17  H   UNL d   1       0.632  -6.099  -0.286  0.00  0.00     0.170 HD
ATOM     18  H   UNL d   1       1.529  -4.218   0.001  0.00  0.00     0.164 HD
BRANCH  15  19
ATOM     19  C   UNL d   1      -1.333  -6.715  -0.149  0.00  0.00     0.036 A 
ATOM     20  C   UNL d   1      -2.696  -6.410  -0.157  0.00  0.00     0.029 A 
ATOM     21  C   UNL d   1      -3.649  -7.409   0.061  0.00  0.00     0.002 A 
ATOM     22  C   UNL d   1      -3.250  -8.724   0.285  0.00  0.00     0.000 A 
ATOM     23  C   UNL d   1      -1.896  -9.046   0.271  0.00  0.00     0.002 A 
ATOM     24  C   UNL d   1      -0.942  -8.047   0.051  0.00  0.00     0.029 A 
ENDBRANCH  15  19
ENDBRANCH   1  13
TORSDOF 5
