REMARK  5 active torsions:
REMARK  status: ('A' for Active; 'I' for Inactive)
REMARK    1  A    between atoms: N_4  and  C_1 
REMARK    2  A    between atoms: C_2  and  N_4 
REMARK    3  A    between atoms: N_10  and  C_2 
REMARK    4  A    between atoms: C_9  and  C_12 
REMARK    5  A    between atoms: C_12  and  N_10 
ROOT
ATOM      1  C   UNL d   1       3.836   2.060  -0.142  0.00  0.00     0.172 C 
ATOM      2  S   UNL d   1       4.973   3.199  -0.588  0.00  0.00    -0.041 SA
ENDROOT
BRANCH   1   3
ATOM      3  N   UNL d   1       2.572   2.299   0.327  0.00  0.00    -0.332 N 
ATOM      4  H   UNL d   1       2.334   1.769   1.161  0.00  0.00     0.168 HD
BRANCH   3   5
ATOM      5  C   UNL d   1       1.693   3.366   0.023  0.00  0.00     0.058 A 
ATOM      6  C   UNL d   1       1.723   4.008  -1.220  0.00  0.00     0.057 A 
ATOM      7  C   UNL d   1       0.770   4.981  -1.544  0.00  0.00     0.058 A 
ATOM      8 CL   UNL d   1       0.857   5.696  -3.115  0.00  0.00    -0.082 Cl
ATOM      9  C   UNL d   1      -0.225   5.320  -0.621  0.00  0.00     0.057 A 
ATOM     10  C   UNL d   1      -0.260   4.694   0.626  0.00  0.00     0.051 A 
ATOM     11 CL   UNL d   1      -1.454   6.482  -0.972  0.00  0.00    -0.082 Cl
ATOM     12  C   UNL d   1       0.687   3.716   0.940  0.00  0.00     0.062 A 
ATOM     13 CL   UNL d   1       0.594   2.958   2.492  0.00  0.00    -0.082 Cl
ENDBRANCH   3   5
ENDBRANCH   1   3
BRANCH   1  14
ATOM     14  N   UNL d   1       4.208   0.746  -0.182  0.00  0.00    -0.363 N 
ATOM     15  H   UNL d   1       5.125   0.624  -0.599  0.00  0.00     0.162 HD
BRANCH  14  16
ATOM     16  C   UNL d   1       3.304  -0.386  -0.344  0.00  0.00     0.162 C 
BRANCH  16  17
ATOM     17  C   UNL d   1       3.908  -1.715   0.044  0.00  0.00    -0.019 A 
ATOM     18  C   UNL d   1       3.292  -2.922  -0.339  0.00  0.00     0.042 A 
ATOM     19 CL   UNL d   1       1.838  -2.942  -1.275  0.00  0.00    -0.084 Cl
ATOM     20  C   UNL d   1       3.829  -4.157   0.038  0.00  0.00     0.024 A 
ATOM     21  C   UNL d   1       4.987  -4.211   0.813  0.00  0.00     0.002 A 
ATOM     22  C   UNL d   1       5.601  -3.029   1.217  0.00  0.00     0.001 A 
ATOM     23  C   UNL d   1       5.062  -1.794   0.846  0.00  0.00     0.010 A 
ENDBRANCH  16  17
ENDBRANCH  14  16
ENDBRANCH   1  14
TORSDOF 5
