REMARK  4 active torsions:
REMARK  status: ('A' for Active; 'I' for Inactive)
REMARK    1  A    between atoms: O_5  and  S_1 
REMARK    2  A    between atoms: C_6  and  S_1 
REMARK    3  A    between atoms: N_2  and  C_7 
REMARK    4  A    between atoms: C_18  and  O_5 
ROOT
ATOM      1  C   UNL d   1       0.438   1.443  -0.643  0.00  0.00     0.086 A 
ATOM      2  C   UNL d   1      -0.403   3.985  -1.550  0.00  0.00     0.045 A 
ATOM      3  C   UNL d   1      -0.780   1.575  -1.305  0.00  0.00     0.028 A 
ATOM      4  C   UNL d   1       1.226   2.563  -0.393  0.00  0.00     0.028 A 
ATOM      5  C   UNL d   1      -1.193   2.838  -1.749  0.00  0.00     0.032 A 
ATOM      6  C   UNL d   1       0.806   3.819  -0.850  0.00  0.00     0.032 A 
ENDROOT
BRANCH   1   7
ATOM      7  S   UNL d   1       0.994  -0.159  -0.106  0.00  0.00     0.303 S 
ATOM      8  O   UNL d   1       1.813   0.052   1.074  0.00  0.00    -0.193 OA
ATOM      9  O   UNL d   1      -0.174  -1.021  -0.056  0.00  0.00    -0.193 OA
BRANCH   7  10
ATOM     10  O   UNL d   1       1.948  -0.626  -1.344  0.00  0.00    -0.229 OA
BRANCH  10  11
ATOM     11  C   UNL d   1       2.563  -1.850  -1.386  0.00  0.00     0.089 A 
ATOM     12  C   UNL d   1       2.543  -2.800  -0.362  0.00  0.00     0.041 A 
ATOM     13  C   UNL d   1       3.210  -4.017  -0.528  0.00  0.00     0.045 A 
ATOM     14  C   UNL d   1       3.892  -4.276  -1.710  0.00  0.00     0.116 A 
ATOM     15  C   UNL d   1       3.925  -3.338  -2.734  0.00  0.00     0.045 A 
ATOM     16  F   UNL d   1       4.526  -5.445  -1.865  0.00  0.00    -0.206 F 
ATOM     17  C   UNL d   1       3.260  -2.122  -2.570  0.00  0.00     0.041 A 
ENDBRANCH  10  11
ENDBRANCH   7  10
ENDBRANCH   1   7
BRANCH   2  18
ATOM     18  N   UNL d   1      -0.800   5.262  -2.058  0.00  0.00    -0.252 N 
ATOM     19  C   UNL d   1       0.063   6.316  -2.268  0.00  0.00     0.231 A 
ATOM     20  C   UNL d   1      -0.683   7.456  -2.889  0.00  0.00     0.113 A 
ATOM     21  O   UNL d   1       1.270   6.383  -2.069  0.00  0.00    -0.273 OA
ATOM     22  C   UNL d   1      -2.116   6.997  -2.939  0.00  0.00     0.113 A 
ATOM     23  C   UNL d   1      -2.086   5.589  -2.430  0.00  0.00     0.231 A 
ATOM     24  O   UNL d   1      -3.108   4.921  -2.349  0.00  0.00    -0.273 OA
ENDBRANCH   2  18
TORSDOF 4
