REMARK  5 active torsions:
REMARK  status: ('A' for Active; 'I' for Inactive)
REMARK    1  A    between atoms: C_5  and  S_1 
REMARK    2  A    between atoms: N_10  and  S_1 
REMARK    3  A    between atoms: N_2  and  C_6 
REMARK       I    between atoms: C_4  and  N_9 
REMARK    4  A    between atoms: C_6  and  C_4 
REMARK    5  A    between atoms: N_9  and  C_15 
ROOT
ATOM      1  C   UNL d   1      -0.357  -6.600  -1.215  0.00  0.00     0.235 C 
ATOM      2  N   UNL d   1      -0.363  -5.664  -2.242  0.00  0.00    -0.326 N 
ATOM      3  O   UNL d   1      -1.320  -7.276  -0.852  0.00  0.00    -0.272 OA
ATOM      4  H   UNL d   1       0.470  -5.089  -2.317  0.00  0.00     0.169 HD
ENDROOT
BRANCH   2   5
ATOM      5  C   UNL d   1      -1.448  -5.336  -3.086  0.00  0.00     0.034 A 
ATOM      6  C   UNL d   1      -2.668  -6.019  -3.079  0.00  0.00     0.031 A 
ATOM      7  C   UNL d   1      -3.731  -5.599  -3.886  0.00  0.00     0.027 A 
ATOM      8  C   UNL d   1      -3.569  -4.497  -4.725  0.00  0.00     0.074 A 
ATOM      9  C   UNL d   1      -2.344  -3.832  -4.783  0.00  0.00     0.027 A 
ATOM     10  C   UNL d   1      -1.286  -4.257  -3.967  0.00  0.00     0.031 A 
BRANCH   8  11
ATOM     11  S   UNL d   1      -4.959  -3.904  -5.642  0.00  0.00     0.239 S 
ATOM     12  O   UNL d   1      -4.541  -2.808  -6.487  0.00  0.00    -0.206 OA
ATOM     13  O   UNL d   1      -6.093  -3.811  -4.756  0.00  0.00    -0.206 OA
BRANCH  11  14
ATOM     14  N   UNL d   1      -5.289  -5.174  -6.691  0.00  0.00    -0.225 NA
ATOM     15  H   UNL d   1      -5.170  -4.859  -7.655  0.00  0.00     0.136 HD
ATOM     16  H   UNL d   1      -6.222  -5.541  -6.497  0.00  0.00     0.136 HD
ENDBRANCH  11  14
ENDBRANCH   8  11
ENDBRANCH   2   5
BRANCH   1  17
ATOM     17  C   UNL d   1       0.994  -6.732  -0.496  0.00  0.00     0.198 C 
BRANCH  17  18
ATOM     18  N   UNL d   1       1.262  -5.664   0.505  0.00  0.00    -0.274 NA
ATOM     19  C   UNL d   1       2.363  -6.021   1.335  0.00  0.00     0.017 A 
ATOM     20  C   UNL d   1       2.217  -6.263   2.718  0.00  0.00    -0.037 A 
ATOM     21  C   UNL d   1       3.646  -6.146   0.775  0.00  0.00     0.024 A 
ATOM     22  C   UNL d   1       3.339  -6.579   3.504  0.00  0.00     0.009 A 
ATOM     23  C   UNL d   1       0.874  -6.179   3.398  0.00  0.00     0.041 C 
ATOM     24  C   UNL d   1       4.601  -6.684   2.930  0.00  0.00     0.001 A 
ATOM     25  C   UNL d   1       4.754  -6.474   1.563  0.00  0.00     0.002 A 
ATOM     26  C   UNL d   1      -0.274  -6.063   2.408  0.00  0.00     0.019 C 
ATOM     27  C   UNL d   1       0.123  -5.132   1.275  0.00  0.00     0.096 C 
ENDBRANCH  17  18
ENDBRANCH   1  17
TORSDOF 5
