REMARK  3 active torsions:
REMARK  status: ('A' for Active; 'I' for Inactive)
REMARK    1  A    between atoms: N_6  and  C_1 
REMARK    2  A    between atoms: C_9  and  N_3 
REMARK    3  A    between atoms: C_11  and  N_6 
ROOT
ATOM      1  C   UNL d   1       1.008   0.621  -0.111  0.00  0.00     0.109 A 
ATOM      2  C   UNL d   1       0.927  -0.683   0.144  0.00  0.00     0.129 A 
ATOM      3  N   UNL d   1      -1.214   0.007  -0.227  0.00  0.00    -0.242 N 
ATOM      4  C   UNL d   1      -0.391   1.100  -0.265  0.00  0.00     0.278 A 
ATOM      5  C   UNL d   1      -0.481  -1.102   0.100  0.00  0.00     0.279 A 
ATOM      6  O   UNL d   1      -0.649   2.287  -0.379  0.00  0.00    -0.265 OA
ATOM      7  O   UNL d   1      -0.839  -2.260   0.266  0.00  0.00    -0.266 OA
ATOM      8 CL   UNL d   1       2.201  -1.777   0.384  0.00  0.00    -0.076 Cl
ENDROOT
BRANCH   1   9
ATOM      9  N   UNL d   1       2.067   1.492  -0.267  0.00  0.00    -0.254 NA
ATOM     10  H   UNL d   1       1.761   2.463  -0.137  0.00  0.00     0.134 HD
BRANCH   9  11
ATOM     11  C   UNL d   1       2.940   1.450  -1.389  0.00  0.00     0.013 A 
ATOM     12  C   UNL d   1       2.840   0.497  -2.413  0.00  0.00     0.024 A 
ATOM     13  C   UNL d   1       3.752   0.479  -3.472  0.00  0.00     0.002 A 
ATOM     14  C   UNL d   1       4.784   1.410  -3.518  0.00  0.00     0.000 A 
ATOM     15  C   UNL d   1       4.902   2.362  -2.508  0.00  0.00     0.002 A 
ATOM     16  C   UNL d   1       3.988   2.379  -1.451  0.00  0.00     0.024 A 
ENDBRANCH   9  11
ENDBRANCH   1   9
BRANCH   3  17
ATOM     17  C   UNL d   1      -2.589   0.001  -0.587  0.00  0.00     0.046 A 
ATOM     18  C   UNL d   1      -3.109   0.996  -1.431  0.00  0.00     0.030 A 
ATOM     19  C   UNL d   1      -4.422   0.925  -1.907  0.00  0.00     0.002 A 
ATOM     20  C   UNL d   1      -5.250  -0.122  -1.520  0.00  0.00     0.000 A 
ATOM     21  C   UNL d   1      -4.768  -1.095  -0.651  0.00  0.00     0.002 A 
ATOM     22  C   UNL d   1      -3.446  -1.037  -0.194  0.00  0.00     0.030 A 
ENDBRANCH   3  17
TORSDOF 3
