REMARK  6 active torsions:
REMARK  status: ('A' for Active; 'I' for Inactive)
REMARK    1  A    between atoms: C_9  and  N_1 
REMARK    2  A    between atoms: N_7  and  N_2 
REMARK       I    between atoms: C_8  and  N_7 
REMARK    3  A    between atoms: C_14  and  C_8 
REMARK    4  A    between atoms: N_16  and  C_14 
REMARK    5  A    between atoms: C_20  and  N_16 
REMARK    6  A    between atoms: C_21  and  N_16 
ROOT
ATOM      1  N   UNL d   1      -0.723  -1.120   0.224  0.00  0.00    -0.308 N 
ATOM      2  N   UNL d   1       0.728   1.128   0.149  0.00  0.00    -0.248 N 
ATOM      3  C   UNL d   1      -1.450   0.076   0.125  0.00  0.00     0.244 C 
ATOM      4  C   UNL d   1       1.455  -0.021  -0.147  0.00  0.00     0.257 C 
ATOM      5  C   UNL d   1      -0.629   1.261  -0.361  0.00  0.00     0.255 C 
ATOM      6  C   UNL d   1       0.562  -1.226  -0.474  0.00  0.00     0.236 C 
ATOM      7  O   UNL d   1       2.681  -0.038  -0.263  0.00  0.00    -0.270 OA
ATOM      8  O   UNL d   1      -2.671   0.164   0.266  0.00  0.00    -0.271 OA
ENDROOT
BRANCH   2   9
ATOM      9  N   UNL d   1       1.416   2.350   0.274  0.00  0.00    -0.263 N 
ATOM     10  C   UNL d   1       1.106   3.189   1.335  0.00  0.00     0.264 C 
ATOM     11  O   UNL d   1       0.193   2.977   2.132  0.00  0.00    -0.270 OA
ATOM     12  H   UNL d   1       2.301   2.452  -0.219  0.00  0.00     0.190 HD
BRANCH  10  13
ATOM     13  C   UNL d   1       1.992   4.430   1.433  0.00  0.00     0.376 C 
BRANCH  13  14
ATOM     14  N   UNL d   1       2.062   5.187   0.155  0.00  0.00     0.096 N 
BRANCH  14  15
ATOM     15  C   UNL d   1       0.733   5.616  -0.327  0.00  0.00     0.268 C 
ATOM     16  C   UNL d   1      -0.025   6.625   0.531  0.00  0.00     0.037 C 
ENDBRANCH  14  15
BRANCH  14  17
ATOM     17  C   UNL d   1       3.011   6.305   0.324  0.00  0.00     0.268 C 
ATOM     18  C   UNL d   1       3.249   7.130  -0.937  0.00  0.00     0.037 C 
ENDBRANCH  14  17
ENDBRANCH  13  14
ENDBRANCH  10  13
ENDBRANCH   2   9
BRANCH   1  19
ATOM     19  C   UNL d   1      -1.347  -2.284   0.748  0.00  0.00     0.039 A 
ATOM     20  C   UNL d   1      -1.288  -3.515   0.090  0.00  0.00     0.053 A 
ATOM     21  C   UNL d   1      -1.930  -4.627   0.643  0.00  0.00     0.036 A 
ATOM     22 CL   UNL d   1      -1.926  -6.124  -0.208  0.00  0.00    -0.084 Cl
ATOM     23  C   UNL d   1      -2.588  -4.537   1.869  0.00  0.00     0.024 A 
ATOM     24  C   UNL d   1      -2.630  -3.318   2.540  0.00  0.00     0.004 A 
ATOM     25  C   UNL d   1      -2.029  -2.195   1.971  0.00  0.00     0.030 A 
ENDBRANCH   1  19
TORSDOF 6
