REMARK  3 active torsions:
REMARK  status: ('A' for Active; 'I' for Inactive)
REMARK    1  A    between atoms: C_3  and  C_1 
REMARK       I    between atoms: N_8  and  C_3 
REMARK    2  A    between atoms: C_4  and  C_10 
REMARK    3  A    between atoms: C_17  and  N_8 
ROOT
ATOM      1  C   UNL d   1      -1.458  -3.456   2.870  0.00  0.00    -0.008 A 
ATOM      2  C   UNL d   1      -1.655  -2.109   2.545  0.00  0.00     0.016 A 
ATOM      3  C   UNL d   1      -0.940  -4.308   1.889  0.00  0.00     0.016 A 
ATOM      4  C   UNL d   1      -0.776  -2.474   0.304  0.00  0.00     0.034 A 
ATOM      5  C   UNL d   1      -0.603  -3.822   0.621  0.00  0.00     0.030 A 
ATOM      6  C   UNL d   1      -1.308  -1.619   1.277  0.00  0.00     0.030 A 
ENDROOT
BRANCH   4   7
ATOM      7  N   UNL d   1      -0.404  -1.910  -0.935  0.00  0.00    -0.323 N 
ATOM      8  C   UNL d   1       0.028  -2.589  -2.074  0.00  0.00     0.277 C 
ATOM      9  O   UNL d   1      -0.037  -3.816  -2.196  0.00  0.00    -0.268 OA
ATOM     10  H   UNL d   1      -0.462  -0.897  -0.999  0.00  0.00     0.169 HD
BRANCH   8  11
ATOM     11  C   UNL d   1       0.594  -1.706  -3.219  0.00  0.00     0.269 C 
ATOM     12 CL   UNL d   1       0.649   0.024  -2.764  0.00  0.00    -0.073 Cl
ATOM     13 CL   UNL d   1      -0.450  -1.899  -4.650  0.00  0.00    -0.073 Cl
ATOM     14 CL   UNL d   1       2.252  -2.260  -3.579  0.00  0.00    -0.073 Cl
ENDBRANCH   8  11
ENDBRANCH   4   7
BRANCH   1  15
ATOM     15  C   UNL d   1      -1.784  -3.946   4.203  0.00  0.00     0.063 A 
ATOM     16  N   UNL d   1      -2.771  -3.344   4.977  0.00  0.00    -0.292 N 
ATOM     17  N   UNL d   1      -2.911  -3.937   6.151  0.00  0.00    -0.061 NA
ATOM     18  HN  UNL d   1      -3.321  -2.540   4.674  1.00  0.00     0.183 HD
ATOM     19  S   UNL d   1      -1.852  -5.211   6.366  0.00  0.00    -0.010 SA
ATOM     20  C   UNL d   1      -1.139  -5.006   4.819  0.00  0.00     0.096 A 
ENDBRANCH   1  15
TORSDOF 3
