REMARK  6 active torsions:
REMARK  status: ('A' for Active; 'I' for Inactive)
REMARK    1  A    between atoms: N_2  and  C_1 
REMARK    2  A    between atoms: N_4  and  C_1 
REMARK    3  A    between atoms: C_6  and  N_2 
REMARK    4  A    between atoms: C_3  and  N_4 
REMARK    5  A    between atoms: O_16  and  C_10 
REMARK    6  A    between atoms: O_17  and  C_12 
ROOT
ATOM      1  N   UNL d   1      -0.017   1.127   0.250  0.00  0.00    -0.331 N 
ATOM      2  H   UNL d   1       0.394   0.197   0.286  0.00  0.00     0.168 HD
ENDROOT
BRANCH   1   3
ATOM      3  C   UNL d   1      -1.414   1.148   0.427  0.00  0.00     0.070 A 
ATOM      4  C   UNL d   1      -2.171   2.273   0.090  0.00  0.00     0.071 A 
ATOM      5  C   UNL d   1      -3.574   2.267   0.149  0.00  0.00     0.092 A 
ATOM      6  C   UNL d   1      -4.215   1.097   0.575  0.00  0.00     0.070 A 
ATOM      7  C   UNL d   1      -3.457  -0.038   0.918  0.00  0.00     0.065 A 
ATOM      8 CL   UNL d   1      -5.926   0.887   0.705  0.00  0.00    -0.081 Cl
ATOM      9  C   UNL d   1      -2.062  -0.026   0.838  0.00  0.00     0.096 A 
BRANCH   5  10
ATOM     10  O   UNL d   1      -4.080   3.465  -0.271  0.00  0.00    -0.354 OA
ATOM     11  C   UNL d   1      -5.473   3.706  -0.285  0.00  0.00     0.210 C 
ENDBRANCH   5  10
BRANCH   9  12
ATOM     12  O   UNL d   1      -1.252  -1.093   1.134  0.00  0.00    -0.354 OA
ATOM     13  C   UNL d   1      -1.860  -2.197   1.802  0.00  0.00     0.210 C 
ENDBRANCH   9  12
ENDBRANCH   1   3
BRANCH   1  14
ATOM     14  C   UNL d   1       0.894   2.148   0.396  0.00  0.00     0.177 C 
ATOM     15  S   UNL d   1       0.778   3.429   1.466  0.00  0.00    -0.040 SA
BRANCH  14  16
ATOM     16  N   UNL d   1       2.063   1.974  -0.294  0.00  0.00    -0.319 N 
ATOM     17  H   UNL d   1       2.896   2.417   0.074  0.00  0.00     0.169 HD
BRANCH  16  18
ATOM     18  C   UNL d   1       2.250   1.395  -1.553  0.00  0.00     0.107 A 
ATOM     19  N   UNL d   1       3.519   1.038  -1.829  0.00  0.00    -0.346 N 
ATOM     20  C   UNL d   1       3.769   0.470  -3.034  0.00  0.00     0.007 A 
ATOM     21  HN  UNL d   1       4.268   1.191  -1.153  1.00  0.00     0.167 HD
ATOM     22  C   UNL d   1       5.161  -0.031  -3.280  0.00  0.00     0.068 C 
ATOM     23  C   UNL d   1       2.789   0.309  -4.008  0.00  0.00     0.025 A 
ATOM     24  C   UNL d   1       1.498   0.733  -3.728  0.00  0.00     0.006 A 
ATOM     25  C   UNL d   1       1.218   1.274  -2.476  0.00  0.00     0.048 A 
ENDBRANCH  16  18
ENDBRANCH  14  16
ENDBRANCH   1  14
TORSDOF 6
