REMARK  5 active torsions:
REMARK  status: ('A' for Active; 'I' for Inactive)
REMARK    1  A    between atoms: C_4  and  C_1 
REMARK       I    between atoms: N_9  and  C_1 
REMARK    2  A    between atoms: C_3  and  C_12 
REMARK    3  A    between atoms: C_14  and  N_9 
REMARK    4  A    between atoms: C_12  and  C_14 
REMARK    5  A    between atoms: O_17  and  C_13 
ROOT
ATOM      1  C   UNL d   1       0.996  -0.001  -0.017  0.00  0.00     0.251 C 
ATOM      2  O   UNL d   1       0.417   0.630  -0.892  0.00  0.00    -0.268 OA
ATOM      3  N   UNL d   1       2.368  -0.023   0.123  0.00  0.00    -0.357 N 
ATOM      4  H   UNL d   1       2.776  -0.391   0.972  0.00  0.00     0.162 HD
ENDROOT
BRANCH   1   5
ATOM      5  C   UNL d   1       0.214  -0.793   0.977  0.00  0.00     0.032 A 
ATOM      6  C   UNL d   1       0.725  -1.961   1.557  0.00  0.00     0.020 A 
ATOM      7  C   UNL d   1      -0.056  -2.709   2.450  0.00  0.00     0.038 A 
ATOM      8  C   UNL d   1      -1.352  -2.299   2.765  0.00  0.00     0.068 A 
ATOM      9  C   UNL d   1      -1.861  -1.136   2.181  0.00  0.00     0.038 A 
ATOM     10  C   UNL d   1      -1.088  -0.389   1.286  0.00  0.00     0.020 A 
BRANCH   8  11
ATOM     11  O   UNL d   1      -2.216  -2.941   3.608  0.00  0.00    -0.356 OA
ATOM     12  C   UNL d   1      -1.764  -4.155   4.197  0.00  0.00     0.210 C 
ENDBRANCH   8  11
ENDBRANCH   1   5
BRANCH   3  13
ATOM     13  C   UNL d   1       3.246   0.634  -0.831  0.00  0.00     0.128 C 
BRANCH  13  14
ATOM     14  C   UNL d   1       3.554   2.084  -0.452  0.00  0.00     0.066 C 
BRANCH  14  15
ATOM     15  C   UNL d   1       4.495   2.732  -1.431  0.00  0.00    -0.016 A 
ATOM     16  S   UNL d   1       6.191   2.635  -1.197  0.00  0.00    -0.106 SA
ATOM     17  C   UNL d   1       6.501   3.568  -2.596  0.00  0.00     0.050 A 
ATOM     18  C   UNL d   1       5.341   3.940  -3.237  0.00  0.00     0.008 A 
ATOM     19  C   UNL d   1       4.183   3.453  -2.564  0.00  0.00     0.015 A 
ENDBRANCH  14  15
ENDBRANCH  13  14
ENDBRANCH   3  13
TORSDOF 5
