REMARK  3 active torsions:
REMARK  status: ('A' for Active; 'I' for Inactive)
REMARK    1  A    between atoms: N_2  and  C_1 
REMARK    2  A    between atoms: N_3  and  C_1 
REMARK    3  A    between atoms: C_5  and  N_3 
ROOT
ATOM      1  C   UNL d   1       0.864  -0.326  -0.048  0.00  0.00     0.179 C 
ATOM      2  S   UNL d   1       2.528  -0.274  -0.379  0.00  0.00    -0.040 SA
ENDROOT
BRANCH   1   3
ATOM      3  N   UNL d   1       0.346  -0.223   1.234  0.00  0.00    -0.323 N 
ATOM      4  C   UNL d   1      -0.771  -0.981   1.785  0.00  0.00     0.049 C 
ATOM      5  C   UNL d   1      -1.385  -0.520   2.981  0.00  0.00    -0.031 C 
ATOM      6  C   UNL d   1      -1.271  -2.194   1.258  0.00  0.00    -0.035 C 
ATOM      7  C   UNL d   1      -2.599  -1.061   3.442  0.00  0.00     0.009 C 
ATOM      8  C   UNL d   1      -0.752   0.533   3.858  0.00  0.00     0.042 C 
ATOM      9  C   UNL d   1      -3.185  -2.126   2.780  0.00  0.00     0.001 C 
ATOM     10  C   UNL d   1      -2.504  -2.708   1.721  0.00  0.00     0.009 C 
ATOM     11  C   UNL d   1       0.725   0.636   3.560  0.00  0.00     0.025 C 
ATOM     12  C   UNL d   1       0.878   0.873   2.076  0.00  0.00     0.132 C 
ATOM     13  C   UNL d   1      -0.523  -3.126   0.343  0.00  0.00     0.050 C 
ENDBRANCH   1   3
BRANCH   1  14
ATOM     14  N   UNL d   1       0.109  -0.548  -1.154  0.00  0.00    -0.332 N 
ATOM     15  H   UNL d   1       0.702  -0.852  -1.916  0.00  0.00     0.168 HD
BRANCH  14  16
ATOM     16  C   UNL d   1      -1.248  -0.405  -1.506  0.00  0.00     0.046 C 
ATOM     17  C   UNL d   1      -2.088   0.611  -1.014  0.00  0.00    -0.035 C 
ATOM     18  C   UNL d   1      -3.452   0.610  -1.369  0.00  0.00     0.009 C 
ATOM     19  C   UNL d   1      -1.615   1.789  -0.215  0.00  0.00     0.050 C 
ATOM     20  C   UNL d   1      -3.963  -0.318  -2.269  0.00  0.00     0.001 C 
ATOM     21  C   UNL d   1      -3.112  -1.246  -2.847  0.00  0.00     0.009 C 
ATOM     22  C   UNL d   1      -1.754  -1.300  -2.488  0.00  0.00    -0.035 C 
ATOM     23  C   UNL d   1      -0.931  -2.357  -3.187  0.00  0.00     0.050 C 
ENDBRANCH  14  16
ENDBRANCH   1  14
TORSDOF 3
