REMARK  7 active torsions:
REMARK  status: ('A' for Active; 'I' for Inactive)
REMARK    1  A    between atoms: S_9  and  C_1 
REMARK    2  A    between atoms: C_11  and  N_2 
REMARK    3  A    between atoms: C_7  and  C_8 
REMARK    4  A    between atoms: C_17  and  S_9 
REMARK    5  A    between atoms: C_18  and  C_11 
REMARK    6  A    between atoms: C_19  and  C_17 
REMARK    7  A    between atoms: C_20  and  C_18 
ROOT
ATOM      1  C   UNL d   1       2.301   0.025   0.117  0.00  0.00     0.147 A 
ATOM      2  N   UNL d   1       1.483   1.141   0.069  0.00  0.00    -0.325 N 
ATOM      3  N   UNL d   1       1.614  -1.091   0.153  0.00  0.00    -0.335 N 
ATOM      4  HN  UNL d   1       1.980  -2.041   0.214  1.00  0.00     0.168 HD
ATOM      5  C   UNL d   1       0.301  -0.713   0.091  0.00  0.00     0.062 A 
ATOM      6  C   UNL d   1       0.177   0.676   0.015  0.00  0.00     0.063 A 
ATOM      7  C   UNL d   1      -2.120  -0.927   0.001  0.00  0.00     0.050 A 
ATOM      8  C   UNL d   1      -0.849  -1.523   0.079  0.00  0.00     0.048 A 
ATOM      9  C   UNL d   1      -1.082   1.284  -0.098  0.00  0.00     0.033 A 
ATOM     10  C   UNL d   1      -2.218   0.466  -0.083  0.00  0.00     0.018 A 
ENDROOT
BRANCH   1  11
ATOM     11  S   UNL d   1       4.039   0.099   0.102  0.00  0.00    -0.089 SA
BRANCH  11  12
ATOM     12  C   UNL d   1       4.473  -1.668   0.088  0.00  0.00     0.121 C 
BRANCH  12  13
ATOM     13  C   UNL d   1       5.970  -1.885   0.150  0.00  0.00    -0.049 A 
ATOM     14  C   UNL d   1       6.624  -1.996   1.387  0.00  0.00     0.008 A 
ATOM     15  C   UNL d   1       8.004  -2.211   1.446  0.00  0.00     0.001 A 
ATOM     16  C   UNL d   1       8.747  -2.310   0.272  0.00  0.00     0.000 A 
ATOM     17  C   UNL d   1       8.112  -2.191  -0.963  0.00  0.00     0.001 A 
ATOM     18  C   UNL d   1       6.732  -1.976  -1.025  0.00  0.00     0.008 A 
ENDBRANCH  12  13
ENDBRANCH  11  12
ENDBRANCH   1  11
BRANCH   2  19
ATOM     19  C   UNL d   1       1.932   2.525  -0.031  0.00  0.00     0.136 C 
BRANCH  19  20
ATOM     20  C   UNL d   1       1.141   3.569   0.763  0.00  0.00     0.058 C 
BRANCH  20  21
ATOM     21  C   UNL d   1       1.694   4.964   0.588  0.00  0.00    -0.057 A 
ATOM     22  C   UNL d   1       1.304   5.743  -0.511  0.00  0.00     0.007 A 
ATOM     23  C   UNL d   1       1.790   7.045  -0.666  0.00  0.00     0.001 A 
ATOM     24  C   UNL d   1       2.671   7.572   0.276  0.00  0.00     0.000 A 
ATOM     25  C   UNL d   1       3.072   6.800   1.366  0.00  0.00     0.001 A 
ATOM     26  C   UNL d   1       2.588   5.499   1.522  0.00  0.00     0.007 A 
ENDBRANCH  20  21
ENDBRANCH  19  20
ENDBRANCH   2  19
BRANCH   7  27
ATOM     27  C   UNL d   1      -3.378  -1.758  -0.001  0.00  0.00     0.417 C 
ATOM     28  F   UNL d   1      -3.156  -3.099   0.013  0.00  0.00    -0.166 F 
ATOM     29  F   UNL d   1      -4.171  -1.497   1.077  0.00  0.00    -0.166 F 
ATOM     30  F   UNL d   1      -4.155  -1.518  -1.095  0.00  0.00    -0.166 F 
ENDBRANCH   7  27
TORSDOF 7
