REMARK  3 active torsions:
REMARK  status: ('A' for Active; 'I' for Inactive)
REMARK    1  A    between atoms: C_6  and  C_8 
REMARK    2  A    between atoms: C_8  and  O_14 
REMARK    3  A    between atoms: O_14  and  N_10 
ROOT
ATOM      1  N   UNL d   1      -0.988   0.325  -0.091  0.00  0.00    -0.344 N 
ATOM      2  C   UNL d   1      -1.493  -0.949  -0.084  0.00  0.00     0.066 A 
ATOM      3  C   UNL d   1      -0.418  -1.812  -0.039  0.00  0.00    -0.021 A 
ATOM      4  C   UNL d   1       0.364   0.365  -0.072  0.00  0.00     0.045 A 
ATOM      5  C   UNL d   1       0.765  -0.974  -0.047  0.00  0.00    -0.001 A 
ATOM      6  C   UNL d   1      -2.926  -0.880  -0.068  0.00  0.00     0.061 C 
ATOM      7  N   UNL d   1      -3.854  -1.762  -0.218  0.00  0.00    -0.259 N 
ATOM      8  HN  UNL d   1      -4.846  -1.555  -0.101  1.00  0.00     0.194 HD
ATOM      9  C   UNL d   1      -2.011   1.354  -0.093  0.00  0.00     0.136 C 
ATOM     10  C   UNL d   1      -3.300   0.575   0.197  0.00  0.00     0.081 C 
ATOM     11  C   UNL d   1      -0.379  -3.293   0.051  0.00  0.00     0.052 C 
ATOM     12  C   UNL d   1       1.269   1.432  -0.065  0.00  0.00     0.030 A 
ATOM     13  C   UNL d   1       2.151  -1.252  -0.006  0.00  0.00     0.014 A 
ATOM     14  C   UNL d   1       2.632   1.126  -0.024  0.00  0.00     0.002 A 
ATOM     15  C   UNL d   1       3.070  -0.195   0.006  0.00  0.00     0.001 A 
ENDROOT
BRANCH   7  16
ATOM     16  O   UNL d   1      -3.371  -3.031  -0.557  0.00  0.00    -0.195 OA
BRANCH  16  17
ATOM     17  C   UNL d   1      -4.366  -3.950  -0.409  0.00  0.00     0.316 C 
ATOM     18  O   UNL d   1      -5.464  -3.794   0.112  0.00  0.00    -0.257 OA
BRANCH  17  19
ATOM     19  C   UNL d   1      -3.916  -5.286  -0.860  0.00  0.00     0.063 A 
ATOM     20  C   UNL d   1      -3.200  -5.524  -2.042  0.00  0.00     0.052 A 
ATOM     21  C   UNL d   1      -2.870  -6.837  -2.404  0.00  0.00     0.048 A 
ATOM     22 CL   UNL d   1      -2.745  -4.278  -3.147  0.00  0.00    -0.083 Cl
ATOM     23  C   UNL d   1      -3.259  -7.906  -1.598  0.00  0.00     0.035 A 
ATOM     24  C   UNL d   1      -3.977  -7.681  -0.427  0.00  0.00     0.025 A 
ATOM     25 CL   UNL d   1      -2.870  -9.514  -2.065  0.00  0.00    -0.084 Cl
ATOM     26  C   UNL d   1      -4.306  -6.376  -0.060  0.00  0.00     0.021 A 
ENDBRANCH  17  19
ENDBRANCH  16  17
ENDBRANCH   7  16
TORSDOF 3
