REMARK  4 active torsions:
REMARK  status: ('A' for Active; 'I' for Inactive)
REMARK    1  A    between atoms: N_2  and  S_1 
REMARK    2  A    between atoms: C_8  and  S_1 
REMARK       I    between atoms: C_3  and  N_2 
REMARK       I    between atoms: N_4  and  C_3 
REMARK    3  A    between atoms: C_6  and  N_4 
REMARK    4  A    between atoms: N_5  and  C_7 
ROOT
ATOM      1  N   UNL d   1      -0.792   3.018  -2.277  0.00  0.00    -0.232 N 
ATOM      2  C   UNL d   1       0.021   2.900  -1.159  0.00  0.00     0.334 C 
ATOM      3  N   UNL d   1       1.345   2.595  -1.342  0.00  0.00    -0.306 N 
ATOM      4  O   UNL d   1      -0.535   3.008  -0.071  0.00  0.00    -0.246 OA
ATOM      5  H   UNL d   1      -1.784   2.992  -2.066  0.00  0.00     0.183 HD
ATOM      6  H   UNL d   1       1.543   2.124  -2.213  0.00  0.00     0.171 HD
ENDROOT
BRANCH   1   7
ATOM      7  S   UNL d   1      -0.441   3.004  -3.881  0.00  0.00     0.266 S 
ATOM      8  O   UNL d   1      -1.646   2.578  -4.566  0.00  0.00    -0.200 OA
ATOM      9  O   UNL d   1       0.814   2.309  -4.062  0.00  0.00    -0.200 OA
BRANCH   7  10
ATOM     10  C   UNL d   1      -0.201   4.720  -4.279  0.00  0.00     0.080 A 
ATOM     11  C   UNL d   1       1.011   5.145  -4.826  0.00  0.00     0.026 A 
ATOM     12  C   UNL d   1       1.148   6.465  -5.262  0.00  0.00     0.008 A 
ATOM     13  C   UNL d   1       0.084   7.371  -5.146  0.00  0.00    -0.062 A 
ATOM     14  C   UNL d   1      -1.124   6.935  -4.586  0.00  0.00     0.008 A 
ATOM     15  C   UNL d   1       0.229   8.769  -5.677  0.00  0.00     0.048 C 
ATOM     16  C   UNL d   1      -1.272   5.614  -4.154  0.00  0.00     0.026 A 
ENDBRANCH   7  10
ENDBRANCH   1   7
BRANCH   3  17
ATOM     17  C   UNL d   1       2.207   2.348  -0.243  0.00  0.00     0.063 A 
ATOM     18  C   UNL d   1       2.990   1.174  -0.151  0.00  0.00     0.057 A 
ATOM     19  C   UNL d   1       3.699   0.983   1.059  0.00  0.00     0.031 A 
ATOM     20  C   UNL d   1       3.664   1.898   2.113  0.00  0.00     0.002 A 
ATOM     21  C   UNL d   1       2.929   3.063   1.981  0.00  0.00     0.002 A 
ATOM     22  C   UNL d   1       2.209   3.285   0.810  0.00  0.00     0.032 A 
BRANCH  18  23
ATOM     23  N   UNL d   1       3.078   0.160  -1.098  0.00  0.00    -0.379 N 
ATOM     24  C   UNL d   1       3.146   0.385  -2.537  0.00  0.00     0.123 C 
ATOM     25  C   UNL d   1       4.124  -0.619  -3.154  0.00  0.00     0.020 C 
ATOM     26  C   UNL d   1       3.770  -2.058  -2.777  0.00  0.00     0.003 C 
ATOM     27  C   UNL d   1       3.630  -2.212  -1.264  0.00  0.00     0.020 C 
ATOM     28  C   UNL d   1       2.651  -1.187  -0.692  0.00  0.00     0.123 C 
ENDBRANCH  18  23
ENDBRANCH   3  17
TORSDOF 4
