REMARK  1 active torsions:
REMARK  status: ('A' for Active; 'I' for Inactive)
REMARK    1  A    between atoms: C_2  and  N_1 
ROOT
ATOM      1  C   UNL d   1       0.342  -1.055  -0.903  0.00  0.00     0.103 A 
ATOM      2  C   UNL d   1      -1.311  -1.699  -2.557  0.00  0.00     0.001 A 
ATOM      3  C   UNL d   1      -0.709  -0.710  -1.767  0.00  0.00     0.048 A 
ATOM      4  C   UNL d   1      -0.878  -3.023  -2.446  0.00  0.00     0.080 A 
ATOM      5  O   UNL d   1      -1.436  -4.040  -3.169  0.00  0.00    -0.326 OA
ATOM      6  C   UNL d   1       0.790  -2.380  -0.819  0.00  0.00     0.039 A 
ATOM      7  O   UNL d   1      -2.591  -2.399  -4.462  0.00  0.00    -0.362 OA
ATOM      8  C   UNL d   1       0.175  -3.362  -1.596  0.00  0.00     0.040 A 
ATOM      9  C   UNL d   1      -2.654  -3.663  -3.814  0.00  0.00     0.345 C 
ATOM     10  C   UNL d   1      -2.430  -1.367  -3.497  0.00  0.00     0.212 C 
ENDROOT
BRANCH   1  11
ATOM     11  N   UNL d   1       0.976  -0.018  -0.080  0.00  0.00    -0.116 N 
ATOM     12  O   UNL d   1       0.543   1.139  -0.178  0.00  0.00    -0.532 OA
ATOM     13  O   UNL d   1       1.903  -0.360   0.667  0.00  0.00    -0.532 OA
ENDBRANCH   1  11
TORSDOF 1
