REMARK  7 active torsions:
REMARK  status: ('A' for Active; 'I' for Inactive)
REMARK    1  A    between atoms: C_15  and  N_1 
REMARK    2  A    between atoms: C_2  and  S_14 
REMARK    3  A    between atoms: C_16  and  N_3 
REMARK    4  A    between atoms: C_13  and  C_6 
REMARK    5  A    between atoms: C_19  and  C_9 
REMARK    6  A    between atoms: S_14  and  C_19 
REMARK    7  A    between atoms: O_33  and  C_27 
ROOT
ATOM      1  C   UNL d   1       5.001   1.669  -0.477  0.00  0.00     0.152 A 
ATOM      2  N   UNL d   1       5.022   2.989  -0.032  0.00  0.00    -0.301 N 
ATOM      3  N   UNL d   1       6.200   1.115  -0.464  0.00  0.00    -0.334 N 
ATOM      4  HN  UNL d   1       6.438   0.151  -0.696  1.00  0.00     0.168 HD
ATOM      5  C   UNL d   1       7.054   2.111  -0.072  0.00  0.00     0.067 A 
ATOM      6  C   UNL d   1       6.360   3.266   0.178  0.00  0.00     0.130 A 
ENDROOT
BRANCH   1   7
ATOM      7  S   UNL d   1       3.616   0.874  -1.179  0.00  0.00    -0.086 SA
BRANCH   7   8
ATOM      8  C   UNL d   1       4.428  -0.435  -2.130  0.00  0.00     0.160 C 
BRANCH   8   9
ATOM      9  C   UNL d   1       3.427  -1.309  -2.850  0.00  0.00     0.115 A 
ATOM     10  N   UNL d   1       2.496  -2.146  -2.296  0.00  0.00    -0.275 N 
ATOM     11  C   UNL d   1       1.839  -2.695  -3.395  0.00  0.00     0.199 A 
ATOM     12  N   UNL d   1       2.417  -2.116  -4.515  0.00  0.00    -0.274 N 
ATOM     13  S   UNL d   1       0.677  -3.872  -3.566  0.00  0.00    -0.039 SA
ATOM     14  N   UNL d   1       3.412  -1.276  -4.158  0.00  0.00    -0.286 N 
ATOM     15  H   UNL d   1       2.205  -2.330  -5.483  0.00  0.00     0.189 HD
ATOM     16  HN  UNL d   1       4.018  -0.733  -4.773  1.00  0.00     0.188 HD
BRANCH  10  17
ATOM     17  C   UNL d   1       2.225  -2.390  -0.915  0.00  0.00     0.043 A 
ATOM     18  C   UNL d   1       3.237  -2.346   0.049  0.00  0.00     0.033 A 
ATOM     19  C   UNL d   1       2.968  -2.481   1.417  0.00  0.00     0.039 A 
ATOM     20  C   UNL d   1       1.673  -2.728   1.856  0.00  0.00     0.068 A 
ATOM     21  C   UNL d   1       0.656  -2.822   0.913  0.00  0.00     0.039 A 
ATOM     22  C   UNL d   1       0.927  -2.654  -0.453  0.00  0.00     0.033 A 
BRANCH  20  23
ATOM     23  O   UNL d   1       1.292  -2.869   3.160  0.00  0.00    -0.356 OA
ATOM     24  C   UNL d   1       2.330  -3.206   4.074  0.00  0.00     0.210 C 
ENDBRANCH  20  23
ENDBRANCH  10  17
ENDBRANCH   8   9
ENDBRANCH   7   8
ENDBRANCH   1   7
BRANCH   2  25
ATOM     25  C   UNL d   1       3.972   3.928   0.206  0.00  0.00     0.041 A 
ATOM     26  C   UNL d   1       2.674   3.519   0.522  0.00  0.00     0.030 A 
ATOM     27  C   UNL d   1       1.687   4.466   0.819  0.00  0.00     0.009 A 
ATOM     28  C   UNL d   1       1.983   5.832   0.822  0.00  0.00    -0.062 A 
ATOM     29  C   UNL d   1       3.272   6.246   0.488  0.00  0.00     0.009 A 
ATOM     30  C   UNL d   1       0.922   6.829   1.178  0.00  0.00     0.048 C 
ATOM     31  C   UNL d   1       4.261   5.304   0.186  0.00  0.00     0.030 A 
ENDBRANCH   2  25
BRANCH   5  32
ATOM     32  C   UNL d   1       8.537   1.961   0.033  0.00  0.00     0.033 A 
ATOM     33  S   UNL d   1       9.603   3.211   0.510  0.00  0.00    -0.100 SA
ATOM     34  C   UNL d   1      10.975   2.218   0.293  0.00  0.00     0.050 A 
ATOM     35  C   UNL d   1      10.629   0.948  -0.124  0.00  0.00     0.008 A 
ATOM     36  C   UNL d   1       9.216   0.799  -0.263  0.00  0.00     0.021 A 
ENDBRANCH   5  32
TORSDOF 7
