REMARK  5 active torsions:
REMARK  status: ('A' for Active; 'I' for Inactive)
REMARK    1  A    between atoms: C_2  and  C_1 
REMARK    2  A    between atoms: N_3  and  C_1 
REMARK       I    between atoms: N_10  and  C_2 
REMARK       I    between atoms: C_5  and  N_3 
REMARK    3  A    between atoms: C_6  and  C_4 
REMARK    4  A    between atoms: C_9  and  C_5 
REMARK    5  A    between atoms: N_12  and  N_10 
ROOT
ATOM      1  C   UNL d   1       0.954   0.162  -0.055  0.00  0.00     0.105 C 
ATOM      2  C   UNL d   1       2.308   0.165  -0.098  0.00  0.00     0.048 C 
ENDROOT
BRANCH   1   3
ATOM      3  C   UNL d   1       0.158   0.746  -1.229  0.00  0.00     0.282 C 
ATOM      4  O   UNL d   1       0.653   1.325  -2.190  0.00  0.00    -0.265 OA
ATOM      5  N   UNL d   1      -1.218   0.536  -1.161  0.00  0.00    -0.288 N 
ATOM      6  H   UNL d   1      -1.588  -0.194  -0.563  0.00  0.00     0.183 HD
BRANCH   5   7
ATOM      7  N   UNL d   1      -2.009   0.932  -2.275  0.00  0.00    -0.247 NA
ATOM      8  H   UNL d   1      -1.353   1.073  -3.060  0.00  0.00     0.143 HD
ATOM      9  H   UNL d   1      -2.348   1.883  -2.095  0.00  0.00     0.143 HD
ENDBRANCH   5   7
ENDBRANCH   1   3
BRANCH   1  10
ATOM     10  N   UNL d   1       0.244  -0.296   1.051  0.00  0.00    -0.318 N 
ATOM     11  C   UNL d   1       0.733  -1.125   2.057  0.00  0.00     0.256 C 
ATOM     12  O   UNL d   1       1.829  -1.675   2.046  0.00  0.00    -0.267 OA
ATOM     13  H   UNL d   1      -0.691   0.071   1.159  0.00  0.00     0.169 HD
BRANCH  11  14
ATOM     14  C   UNL d   1      -0.154  -1.378   3.228  0.00  0.00     0.032 A 
ATOM     15  C   UNL d   1      -1.552  -1.358   3.156  0.00  0.00     0.017 A 
ATOM     16  C   UNL d   1      -2.313  -1.647   4.295  0.00  0.00     0.001 A 
ATOM     17  C   UNL d   1      -1.685  -1.961   5.502  0.00  0.00     0.000 A 
ATOM     18  C   UNL d   1      -0.296  -1.990   5.578  0.00  0.00     0.001 A 
ATOM     19  C   UNL d   1       0.466  -1.702   4.446  0.00  0.00     0.017 A 
ENDBRANCH  11  14
ENDBRANCH   1  10
BRANCH   2  20
ATOM     20  C   UNL d   1       3.167   0.668  -1.175  0.00  0.00    -0.012 A 
ATOM     21  C   UNL d   1       3.530   2.021  -1.290  0.00  0.00     0.044 A 
ATOM     22 CL   UNL d   1       3.037   3.200  -0.122  0.00  0.00    -0.083 Cl
ATOM     23  C   UNL d   1       4.310   2.451  -2.366  0.00  0.00     0.024 A 
ATOM     24  C   UNL d   1       4.742   1.535  -3.326  0.00  0.00     0.002 A 
ATOM     25  C   UNL d   1       4.409   0.187  -3.204  0.00  0.00     0.001 A 
ATOM     26  C   UNL d   1       3.627  -0.247  -2.133  0.00  0.00     0.013 A 
ENDBRANCH   2  20
TORSDOF 5
