REMARK  4 active torsions:
REMARK  status: ('A' for Active; 'I' for Inactive)
REMARK    1  A    between atoms: N_9  and  C_1 
REMARK       I    between atoms: C_2  and  N_8 
REMARK    2  A    between atoms: C_7  and  C_2 
REMARK    3  A    between atoms: C_11  and  C_10 
REMARK    4  A    between atoms: O_18  and  C_11 
ROOT
ATOM      1  C   UNL d   1      -3.362   2.007   3.747  0.00  0.00     0.255 C 
ATOM      2  N   UNL d   1      -2.265   2.305   2.922  0.00  0.00    -0.345 N 
ATOM      3  N   UNL d   1       0.047   2.562   1.055  0.00  0.00     0.105 N 
ATOM      4  O   UNL d   1      -3.337   1.060   4.547  0.00  0.00    -0.267 OA
ATOM      5  C   UNL d   1      -1.179   1.320   2.902  0.00  0.00     0.156 C 
ATOM      6  C   UNL d   1      -2.314   3.213   1.768  0.00  0.00     0.156 C 
ATOM      7  C   UNL d   1      -0.969   3.610   1.127  0.00  0.00     0.293 C 
ATOM      8  C   UNL d   1       0.139   1.885   2.360  0.00  0.00     0.293 C 
ENDROOT
BRANCH   3   9
ATOM      9  C   UNL d   1       0.051   1.726  -0.165  0.00  0.00     0.290 C 
ATOM     10  C   UNL d   1      -1.164   0.840  -0.439  0.00  0.00    -0.009 C 
ATOM     11  C   UNL d   1      -0.824  -0.520  -0.262  0.00  0.00    -0.017 C 
ATOM     12  C   UNL d   1      -2.427   1.191  -0.895  0.00  0.00     0.010 C 
ATOM     13  C   UNL d   1      -1.794  -1.507  -0.342  0.00  0.00     0.013 C 
ATOM     14  C   UNL d   1       0.608  -0.621  -0.074  0.00  0.00    -0.017 A 
ATOM     15  C   UNL d   1      -3.099  -1.136  -0.679  0.00  0.00     0.001 C 
ATOM     16  C   UNL d   1      -3.405   0.195  -0.991  0.00  0.00     0.001 C 
ATOM     17  C   UNL d   1       1.164   0.676  -0.094  0.00  0.00    -0.009 A 
ATOM     18  C   UNL d   1       1.427  -1.728   0.066  0.00  0.00     0.013 A 
ATOM     19  C   UNL d   1       2.531   0.888   0.022  0.00  0.00     0.010 A 
ATOM     20  C   UNL d   1       3.353  -0.230   0.170  0.00  0.00     0.001 A 
ATOM     21  C   UNL d   1       2.806  -1.524   0.194  0.00  0.00     0.001 A 
ENDBRANCH   3   9
BRANCH   1  22
ATOM     22  C   UNL d   1      -4.590   2.838   3.759  0.00  0.00     0.049 C 
ATOM     23  C   UNL d   1      -5.220   3.271   4.944  0.00  0.00     0.053 C 
ATOM     24  C   UNL d   1      -6.355   4.110   4.818  0.00  0.00     0.019 C 
ATOM     25  C   UNL d   1      -6.846   4.521   3.578  0.00  0.00     0.001 C 
ATOM     26  C   UNL d   1      -6.263   4.036   2.423  0.00  0.00     0.001 C 
ATOM     27  C   UNL d   1      -5.188   3.154   2.520  0.00  0.00     0.018 C 
BRANCH  23  28
ATOM     28  C   UNL d   1      -4.833   3.001   6.373  0.00  0.00     0.177 C 
ATOM     29  O   UNL d   1      -5.460   3.518   7.294  0.00  0.00    -0.646 OA
BRANCH  28  30
ATOM     30  O   UNL d   1      -3.783   2.214   6.650  0.00  0.00    -0.773 OA
ATOM     31  H   UNL d   1      -3.494   1.602   5.931  0.00  0.00     0.167 HD
ENDBRANCH  28  30
ENDBRANCH  23  28
ENDBRANCH   1  22
TORSDOF 4
