REMARK  5 active torsions:
REMARK  status: ('A' for Active; 'I' for Inactive)
REMARK    1  A    between atoms: C_6  and  C_1 
REMARK    2  A    between atoms: C_9  and  N_2 
REMARK    3  A    between atoms: C_8  and  C_4 
REMARK       I    between atoms: N_7  and  C_6 
REMARK    4  A    between atoms: C_11  and  N_7 
REMARK    5  A    between atoms: O_15  and  C_14 
ROOT
ATOM      1  C   UNL d   1      -0.156   1.000   0.029  0.00  0.00     0.057 C 
ATOM      2  N   UNL d   1       0.994  -0.968   0.162  0.00  0.00    -0.318 N 
ATOM      3  C   UNL d   1       1.060   0.418   0.370  0.00  0.00     0.029 C 
ATOM      4  C   UNL d   1      -0.380  -1.298   0.072  0.00  0.00     0.025 C 
ATOM      5  C   UNL d   1      -1.045  -0.088  -0.124  0.00  0.00     0.045 C 
ATOM      6  C   UNL d   1       2.272   1.115   0.917  0.00  0.00     0.070 C 
ENDROOT
BRANCH   1   7
ATOM      7  C   UNL d   1      -0.408   2.452  -0.041  0.00  0.00     0.258 C 
ATOM      8  N   UNL d   1      -1.718   2.803  -0.336  0.00  0.00    -0.323 N 
ATOM      9  H   UNL d   1      -2.356   2.050  -0.539  0.00  0.00     0.169 HD
ATOM     10  O   UNL d   1       0.502   3.258   0.143  0.00  0.00    -0.267 OA
BRANCH   8  11
ATOM     11  C   UNL d   1      -2.282   4.102  -0.336  0.00  0.00     0.037 A 
ATOM     12  C   UNL d   1      -1.565   5.263  -0.029  0.00  0.00     0.066 A 
ATOM     13  C   UNL d   1      -2.203   6.505   0.039  0.00  0.00     0.070 A 
ATOM     14  C   UNL d   1      -3.564   6.595  -0.250  0.00  0.00     0.037 A 
ATOM     15  C   UNL d   1      -4.287   5.453  -0.588  0.00  0.00     0.005 A 
ATOM     16  C   UNL d   1      -3.649   4.211  -0.626  0.00  0.00     0.029 A 
BRANCH  13  17
ATOM     17  O   UNL d   1      -1.607   7.690   0.382  0.00  0.00    -0.356 OA
ATOM     18  C   UNL d   1      -0.266   7.615   0.857  0.00  0.00     0.210 C 
ENDBRANCH  13  17
ENDBRANCH   8  11
ENDBRANCH   1   7
BRANCH   2  19
ATOM     19  C   UNL d   1       2.171  -1.791   0.003  0.00  0.00     0.039 A 
ATOM     20  C   UNL d   1       2.291  -3.086   0.506  0.00  0.00     0.030 A 
ATOM     21  C   UNL d   1       3.445  -3.849   0.283  0.00  0.00     0.002 A 
ATOM     22  C   UNL d   1       4.513  -3.315  -0.429  0.00  0.00     0.000 A 
ATOM     23  C   UNL d   1       4.425  -2.021  -0.923  0.00  0.00     0.002 A 
ATOM     24  C   UNL d   1       3.262  -1.268  -0.718  0.00  0.00     0.030 A 
ENDBRANCH   2  19
BRANCH   4  25
ATOM     25  C   UNL d   1      -1.047  -2.684   0.099  0.00  0.00    -0.008 C 
ATOM     26  C   UNL d   1      -2.578  -2.576  -0.185  0.00  0.00     0.021 C 
ATOM     27  C   UNL d   1      -0.531  -3.606  -1.023  0.00  0.00     0.021 C 
ATOM     28  C   UNL d   1      -0.963  -3.292   1.516  0.00  0.00     0.021 C 
ENDBRANCH   4  25
TORSDOF 5
