REMARK  3 active torsions:
REMARK  status: ('A' for Active; 'I' for Inactive)
REMARK    1  A    between atoms: N_2  and  S_1 
REMARK    2  A    between atoms: C_7  and  S_1 
REMARK    3  A    between atoms: C_11  and  C_3 
ROOT
ATOM      1  N   UNL d   1       0.557  -0.649  -1.451  0.00  0.00    -0.203 NA
ATOM      2  C   UNL d   1       0.951  -1.919  -3.999  0.00  0.00    -0.049 C 
ATOM      3  C   UNL d   1       1.143  -0.596  -3.884  0.00  0.00    -0.004 C 
ATOM      4  C   UNL d   1       0.982   0.182  -2.613  0.00  0.00     0.135 C 
ATOM      5  C   UNL d   1       1.002  -2.075  -1.518  0.00  0.00     0.112 C 
ATOM      6  C   UNL d   1       0.545  -2.741  -2.815  0.00  0.00     0.054 C 
ENDROOT
BRANCH   1   7
ATOM      7  S   UNL d   1       0.956   0.061   0.068  0.00  0.00     0.243 S 
ATOM      8  O   UNL d   1       2.393   0.252   0.082  0.00  0.00    -0.206 OA
ATOM      9  O   UNL d   1       0.293  -0.701   1.108  0.00  0.00    -0.206 OA
BRANCH   7  10
ATOM     10  C   UNL d   1       0.182   1.655   0.000  0.00  0.00     0.074 A 
ATOM     11  C   UNL d   1      -1.200   1.735  -0.198  0.00  0.00     0.025 A 
ATOM     12  C   UNL d   1      -1.807   2.986  -0.280  0.00  0.00     0.002 A 
ATOM     13  C   UNL d   1      -1.040   4.146  -0.158  0.00  0.00     0.000 A 
ATOM     14  C   UNL d   1       0.338   4.061   0.051  0.00  0.00     0.002 A 
ATOM     15  C   UNL d   1       0.955   2.813   0.132  0.00  0.00     0.025 A 
ENDBRANCH   7  10
ENDBRANCH   1   7
BRANCH   2  16
ATOM     16  C   UNL d   1       1.211  -2.602  -5.269  0.00  0.00    -0.030 A 
ATOM     17  C   UNL d   1       2.491  -3.097  -5.548  0.00  0.00     0.012 A 
ATOM     18  C   UNL d   1       2.748  -3.746  -6.757  0.00  0.00     0.001 A 
ATOM     19  C   UNL d   1       1.728  -3.898  -7.695  0.00  0.00     0.000 A 
ATOM     20  C   UNL d   1       0.454  -3.397  -7.428  0.00  0.00     0.001 A 
ATOM     21  C   UNL d   1       0.195  -2.748  -6.218  0.00  0.00     0.012 A 
ENDBRANCH   2  16
TORSDOF 3
