REMARK  2 active torsions:
REMARK  status: ('A' for Active; 'I' for Inactive)
REMARK    1  A    between atoms: C_2  and  C_1 
REMARK    2  A    between atoms: C_13  and  C_10 
ROOT
ATOM      1  C   UNL d   1      -0.753   0.977  -0.057  0.00  0.00     0.128 A 
ATOM      2  C   UNL d   1      -1.279  -0.271   0.180  0.00  0.00     0.074 A 
ATOM      3  N   UNL d   1       0.914  -0.494  -0.343  0.00  0.00    -0.260 N 
ATOM      4  HN  UNL d   1       1.835  -0.888  -0.533  1.00  0.00     0.195 HD
ATOM      5  O   UNL d   1       0.567   0.840  -0.357  0.00  0.00    -0.235 OA
ATOM      6  C   UNL d   1      -0.203  -1.173  -0.030  0.00  0.00     0.068 A 
ENDROOT
BRANCH   1   7
ATOM      7  C   UNL d   1      -1.491   2.265  -0.019  0.00  0.00     0.077 A 
ATOM      8  N   UNL d   1      -2.833   2.330   0.316  0.00  0.00    -0.334 N 
ATOM      9  C   UNL d   1      -3.245   3.572   0.251  0.00  0.00     0.142 A 
ATOM     10  HN  UNL d   1      -3.413   1.532   0.573  1.00  0.00     0.168 HD
ATOM     11  N   UNL d   1      -4.504   3.943   0.528  0.00  0.00    -0.380 N 
ATOM     12  S   UNL d   1      -2.055   4.727  -0.197  0.00  0.00    -0.064 SA
ATOM     13  H   UNL d   1      -5.061   3.270   1.043  0.00  0.00     0.158 HD
ATOM     14  H   UNL d   1      -4.673   4.908   0.780  0.00  0.00     0.158 HD
ATOM     15  C   UNL d   1      -0.896   3.471  -0.323  0.00  0.00     0.085 A 
ENDBRANCH   1   7
BRANCH   6  16
ATOM     16  C   UNL d   1      -0.222  -2.635   0.031  0.00  0.00    -0.007 A 
ATOM     17  C   UNL d   1       0.705  -3.385  -0.711  0.00  0.00     0.014 A 
ATOM     18  C   UNL d   1       0.676  -4.782  -0.688  0.00  0.00     0.001 A 
ATOM     19  C   UNL d   1      -0.274  -5.445   0.084  0.00  0.00     0.000 A 
ATOM     20  C   UNL d   1      -1.194  -4.715   0.835  0.00  0.00     0.001 A 
ATOM     21  C   UNL d   1      -1.169  -3.317   0.808  0.00  0.00     0.014 A 
ENDBRANCH   6  16
TORSDOF 2
