REMARK  5 active torsions:
REMARK  status: ('A' for Active; 'I' for Inactive)
REMARK    1  A    between atoms: S_12  and  C_5 
REMARK    2  A    between atoms: N_17  and  C_6 
REMARK    3  A    between atoms: S_16  and  C_7 
REMARK    4  A    between atoms: C_20  and  S_12 
REMARK    5  A    between atoms: C_19  and  C_20 
ROOT
ATOM      1  C   UNL d   1      -1.500  -0.092  -0.037  0.00  0.00     0.096 A 
ATOM      2  C   UNL d   1       0.899  -0.490  -0.059  0.00  0.00     0.101 A 
ATOM      3  N   UNL d   1       0.046   1.744  -0.221  0.00  0.00    -0.339 N 
ATOM      4  HN  UNL d   1       0.216   2.746  -0.317  1.00  0.00     0.167 HD
ATOM      5  C   UNL d   1      -1.220   1.267  -0.191  0.00  0.00     0.093 A 
ATOM      6  C   UNL d   1       1.078   0.889  -0.125  0.00  0.00     0.101 A 
ATOM      7  C   UNL d   1      -0.417  -0.997  -0.008  0.00  0.00     0.047 A 
ATOM      8  C   UNL d   1      -2.853  -0.539   0.112  0.00  0.00     0.103 C 
ATOM      9  C   UNL d   1       2.054  -1.343  -0.035  0.00  0.00     0.104 C 
ATOM     10  N   UNL d   1      -3.942  -0.922   0.229  0.00  0.00    -0.191 NA
ATOM     11  N   UNL d   1       3.003  -2.009  -0.012  0.00  0.00    -0.191 NA
ENDROOT
BRANCH   5  12
ATOM     12  S   UNL d   1      -2.496   2.518  -0.341  0.00  0.00    -0.106 SA
BRANCH  12  13
ATOM     13  C   UNL d   1      -1.600   3.762  -1.330  0.00  0.00     0.119 C 
BRANCH  13  14
ATOM     14  C   UNL d   1      -2.466   4.949  -1.679  0.00  0.00    -0.045 A 
ATOM     15  C   UNL d   1      -2.453   6.098  -0.872  0.00  0.00     0.053 A 
ATOM     16  C   UNL d   1      -3.230   7.202  -1.214  0.00  0.00     0.155 A 
ATOM     17  F   UNL d   1      -3.192   8.296  -0.440  0.00  0.00    -0.203 F 
ATOM     18  C   UNL d   1      -4.029   7.176  -2.349  0.00  0.00     0.154 A 
ATOM     19  C   UNL d   1      -4.066   6.043  -3.155  0.00  0.00     0.046 A 
ATOM     20  F   UNL d   1      -4.769   8.243  -2.679  0.00  0.00    -0.203 F 
ATOM     21  C   UNL d   1      -3.288   4.931  -2.820  0.00  0.00     0.011 A 
ENDBRANCH  13  14
ENDBRANCH  12  13
ENDBRANCH   5  12
BRANCH   7  22
ATOM     22  S   UNL d   1      -0.669  -2.779   0.190  0.00  0.00    -0.131 SA
ATOM     23  C   UNL d   1      -1.398  -3.210  -1.418  0.00  0.00     0.095 C 
ENDBRANCH   7  22
BRANCH   6  24
ATOM     24  N   UNL d   1       2.327   1.496  -0.162  0.00  0.00    -0.287 NA
ATOM     25  H   UNL d   1       2.966   1.183   0.564  0.00  0.00     0.125 HD
ATOM     26  H   UNL d   1       2.205   2.506  -0.140  0.00  0.00     0.125 HD
ENDBRANCH   6  24
TORSDOF 5
