REMARK  9 active torsions:
REMARK  status: ('A' for Active; 'I' for Inactive)
REMARK    1  A    between atoms: C_8  and  N_1 
REMARK    2  A    between atoms: S_19  and  C_2 
REMARK    3  A    between atoms: O_28  and  C_3 
REMARK    4  A    between atoms: N_11  and  C_20 
REMARK    5  A    between atoms: C_27  and  C_12 
REMARK    6  A    between atoms: C_15  and  C_26 
REMARK    7  A    between atoms: C_26  and  S_19 
REMARK    8  A    between atoms: O_31  and  C_27 
REMARK    9  A    between atoms: C_32  and  O_31 
ROOT
ATOM      1  S   UNL d   1       2.721  -1.552  -0.459  0.00  0.00    -0.084 SA
ENDROOT
BRANCH   1   2
ATOM      2  C   UNL d   1       1.216  -0.743  -0.144  0.00  0.00     0.169 A 
ATOM      3  N   UNL d   1      -0.020  -1.336   0.105  0.00  0.00    -0.254 N 
ATOM      4  C   UNL d   1      -0.851  -0.228   0.274  0.00  0.00     0.245 A 
ATOM      5  N   UNL d   1      -0.206   0.888   0.033  0.00  0.00    -0.263 N 
ATOM      6  N   UNL d   1       1.096   0.564  -0.210  0.00  0.00    -0.276 N 
ATOM      7  HN  UNL d   1      -0.605   1.827   0.029  1.00  0.00     0.190 HD
ATOM      8  HN  UNL d   1       1.848   1.223  -0.410  1.00  0.00     0.189 HD
BRANCH   3   9
ATOM      9  C   UNL d   1      -0.421  -2.713   0.200  0.00  0.00     0.057 A 
ATOM     10  C   UNL d   1       0.324  -3.653   0.957  0.00  0.00    -0.034 A 
ATOM     11  C   UNL d   1      -0.131  -4.985   1.045  0.00  0.00     0.015 A 
ATOM     12  C   UNL d   1       1.561  -3.387   1.775  0.00  0.00     0.050 C 
ATOM     13  C   UNL d   1      -1.350  -5.388   0.510  0.00  0.00    -0.061 A 
ATOM     14  C   UNL d   1      -2.091  -4.464  -0.217  0.00  0.00     0.015 A 
ATOM     15  C   UNL d   1      -1.826  -6.794   0.720  0.00  0.00     0.048 C 
ATOM     16  C   UNL d   1      -1.633  -3.144  -0.422  0.00  0.00    -0.034 A 
ATOM     17  C   UNL d   1      -2.509  -2.320  -1.341  0.00  0.00     0.050 C 
ENDBRANCH   3   9
BRANCH   4  18
ATOM     18  O   UNL d   1      -2.110  -0.230   0.698  0.00  0.00    -0.331 OA
ATOM     19  H   UNL d   1      -2.316  -1.115   1.042  0.00  0.00     0.221 HD
ENDBRANCH   4  18
ENDBRANCH   1   2
BRANCH   1  20
ATOM     20  C   UNL d   1       3.672  -0.226  -1.258  0.00  0.00     0.169 C 
BRANCH  20  21
ATOM     21  C   UNL d   1       3.285  -0.011  -2.673  0.00  0.00     0.158 A 
ATOM     22  N   UNL d   1       3.867   0.730  -3.591  0.00  0.00    -0.324 N 
ATOM     23  C   UNL d   1       3.078   0.487  -4.689  0.00  0.00     0.128 A 
ATOM     24  HN  UNL d   1       4.689   1.328  -3.509  1.00  0.00     0.169 HD
ATOM     25  N   UNL d   1       2.057  -0.354  -4.481  0.00  0.00    -0.245 N 
ATOM     26  O   UNL d   1       2.190  -0.683  -3.144  0.00  0.00    -0.222 OA
ATOM     27  HN  UNL d   1       1.353  -0.673  -5.146  1.00  0.00     0.196 HD
BRANCH  23  28
ATOM     28  C   UNL d   1       3.327   1.088  -6.018  0.00  0.00     0.254 C 
BRANCH  28  29
ATOM     29  O   UNL d   1       4.194   0.251  -6.790  0.00  0.00    -0.344 OA
BRANCH  29  30
ATOM     30  C   UNL d   1       4.528   0.731  -8.024  0.00  0.00     0.069 A 
ATOM     31  C   UNL d   1       5.759   0.288  -8.515  0.00  0.00     0.039 A 
ATOM     32  C   UNL d   1       6.208   0.704  -9.770  0.00  0.00     0.039 A 
ATOM     33  C   UNL d   1       5.401   1.555 -10.540  0.00  0.00     0.103 A 
ATOM     34  C   UNL d   1       4.156   1.980 -10.059  0.00  0.00     0.039 A 
ATOM     35  C   UNL d   1       3.721   1.563  -8.801  0.00  0.00     0.039 A 
BRANCH  33  36
ATOM     36  N   UNL d   1       5.859   2.006 -11.851  0.00  0.00    -0.116 N 
ATOM     37  O   UNL d   1       6.974   1.618 -12.239  0.00  0.00    -0.532 OA
ATOM     38  O   UNL d   1       5.112   2.747 -12.504  0.00  0.00    -0.532 OA
ENDBRANCH  33  36
ENDBRANCH  29  30
ENDBRANCH  28  29
ENDBRANCH  23  28
ENDBRANCH  20  21
ENDBRANCH   1  20
TORSDOF 9
