REMARK  7 active torsions:
REMARK  status: ('A' for Active; 'I' for Inactive)
REMARK    1  A    between atoms: C_8  and  C_1 
REMARK       I    between atoms: C_2  and  N_3 
REMARK    2  A    between atoms: C_7  and  C_2 
REMARK       I    between atoms: N_3  and  C_6 
REMARK    3  A    between atoms: C_5  and  C_4 
REMARK       I    between atoms: C_6  and  N_14 
REMARK    4  A    between atoms: O_25  and  C_8 
REMARK    5  A    between atoms: O_18  and  C_12 
REMARK    6  A    between atoms: N_14  and  C_23 
REMARK    7  A    between atoms: C_24  and  O_18 
ROOT
ATOM      1  C   UNL d   1       1.219  -6.445   0.300  0.00  0.00     0.036 A 
ATOM      2  C   UNL d   1      -0.270  -4.063  -0.046  0.00  0.00     0.077 A 
ATOM      3  C   UNL d   1       0.422  -6.258  -0.830  0.00  0.00     0.032 A 
ATOM      4  C   UNL d   1       1.280  -5.426   1.253  0.00  0.00     0.032 A 
ATOM      5  C   UNL d   1      -0.323  -5.077  -0.999  0.00  0.00     0.039 A 
ATOM      6  C   UNL d   1       0.528  -4.258   1.088  0.00  0.00     0.039 A 
ENDROOT
BRANCH   2   7
ATOM      7  O   UNL d   1      -0.989  -2.895  -0.023  0.00  0.00    -0.294 OA
BRANCH   7   8
ATOM      8  C   UNL d   1      -1.414  -2.229  -1.165  0.00  0.00     0.148 A 
ATOM      9  N   UNL d   1      -1.390  -2.793  -2.386  0.00  0.00    -0.346 N 
ATOM     10  C   UNL d   1      -1.889  -2.061  -3.413  0.00  0.00     0.108 A 
ATOM     11  HN  UNL d   1      -1.014  -3.729  -2.533  1.00  0.00     0.167 HD
ATOM     12  C   UNL d   1      -2.393  -0.773  -3.284  0.00  0.00     0.070 A 
ATOM     13  C   UNL d   1      -2.380  -0.180  -2.020  0.00  0.00     0.069 A 
ATOM     14  C   UNL d   1      -1.897  -0.944  -0.942  0.00  0.00     0.073 A 
BRANCH  12  15
ATOM     15  C   UNL d   1      -2.980  -0.109  -4.467  0.00  0.00     0.295 C 
ATOM     16  O   UNL d   1      -3.987   0.571  -4.423  0.00  0.00    -0.259 OA
BRANCH  15  17
ATOM     17  O   UNL d   1      -2.210  -0.371  -5.547  0.00  0.00    -0.322 OA
ATOM     18  C   UNL d   1      -2.675   0.223  -6.761  0.00  0.00     0.213 C 
ENDBRANCH  15  17
ENDBRANCH  12  15
BRANCH  13  19
ATOM     19  C   UNL d   1      -2.864   1.224  -1.773  0.00  0.00     0.418 C 
ATOM     20  F   UNL d   1      -2.584   2.090  -2.782  0.00  0.00    -0.166 F 
ATOM     21  F   UNL d   1      -4.201   1.289  -1.541  0.00  0.00    -0.166 F 
ATOM     22  F   UNL d   1      -2.277   1.774  -0.670  0.00  0.00    -0.166 F 
ENDBRANCH  13  19
ENDBRANCH   7   8
ENDBRANCH   2   7
BRANCH   1  23
ATOM     23  N   UNL d   1       1.965  -7.613   0.550  0.00  0.00    -0.309 N 
ATOM     24  C   UNL d   1       1.801  -8.845  -0.029  0.00  0.00     0.327 C 
ATOM     25  N   UNL d   1       2.630  -9.842   0.450  0.00  0.00    -0.275 N 
ATOM     26  O   UNL d   1       0.970  -9.150  -0.881  0.00  0.00    -0.247 OA
ATOM     27  C   UNL d   1       3.583  -9.774   1.450  0.00  0.00     0.261 C 
ATOM     28  H   UNL d   1       2.369 -10.746   0.082  0.00  0.00     0.173 HD
ATOM     29  O   UNL d   1       4.010  -8.717   1.909  0.00  0.00    -0.267 OA
ATOM     30  H   UNL d   1       2.624  -7.586   1.325  0.00  0.00     0.170 HD
BRANCH  27  31
ATOM     31  C   UNL d   1       4.162 -11.062   1.922  0.00  0.00     0.054 A 
ATOM     32  C   UNL d   1       3.410 -12.219   2.168  0.00  0.00     0.049 A 
ATOM     33 CL   UNL d   1       1.701 -12.307   1.930  0.00  0.00    -0.083 Cl
ATOM     34  C   UNL d   1       4.036 -13.366   2.673  0.00  0.00     0.025 A 
ATOM     35  C   UNL d   1       5.406 -13.367   2.936  0.00  0.00     0.002 A 
ATOM     36  C   UNL d   1       6.160 -12.222   2.695  0.00  0.00     0.001 A 
ATOM     37  C   UNL d   1       5.541 -11.073   2.195  0.00  0.00     0.019 A 
ENDBRANCH  27  31
ENDBRANCH   1  23
TORSDOF 7
