REMARK  7 active torsions:
REMARK  status: ('A' for Active; 'I' for Inactive)
REMARK    1  A    between atoms: N_7  and  C_1 
REMARK    2  A    between atoms: C_9  and  C_6 
REMARK       I    between atoms: C_8  and  N_7 
REMARK    3  A    between atoms: C_22  and  C_8 
REMARK    4  A    between atoms: C_10  and  C_23 
REMARK    5  A    between atoms: O_18  and  C_10 
REMARK    6  A    between atoms: S_15  and  C_22 
REMARK    7  A    between atoms: C_23  and  S_15 
ROOT
ATOM      1  C   UNL d   1       0.103  -1.198   0.056  0.00  0.00     0.126 A 
ATOM      2  N   UNL d   1       0.113   1.073  -0.086  0.00  0.00    -0.296 N 
ATOM      3  HN  UNL d   1      -0.214   2.038  -0.145  1.00  0.00     0.187 HD
ATOM      4  C   UNL d   1       1.412  -0.776   0.044  0.00  0.00     0.082 A 
ATOM      5  N   UNL d   1      -0.635  -0.044  -0.044  0.00  0.00    -0.281 N 
ATOM      6  C   UNL d   1       1.383   0.642  -0.034  0.00  0.00     0.062 A 
ATOM      7  C   UNL d   1      -2.073   0.076  -0.049  0.00  0.00     0.179 C 
ENDROOT
BRANCH   1   8
ATOM      8  N   UNL d   1      -0.369  -2.505   0.126  0.00  0.00    -0.311 N 
ATOM      9  C   UNL d   1       0.474  -3.629   0.469  0.00  0.00     0.232 C 
ATOM     10  O   UNL d   1       1.626  -3.466   0.846  0.00  0.00    -0.272 OA
ATOM     11  H   UNL d   1      -1.344  -2.689  -0.080  0.00  0.00     0.170 HD
BRANCH   9  12
ATOM     12  C   UNL d   1      -0.185  -4.986   0.415  0.00  0.00     0.177 C 
BRANCH  12  13
ATOM     13  S   UNL d   1      -0.758  -5.339  -1.281  0.00  0.00    -0.149 SA
BRANCH  13  14
ATOM     14  C   UNL d   1      -1.264  -7.083  -1.061  0.00  0.00     0.184 C 
BRANCH  14  15
ATOM     15  C   UNL d   1      -2.458  -7.232  -0.137  0.00  0.00     0.149 C 
ATOM     16  O   UNL d   1      -2.948  -6.338   0.535  0.00  0.00    -0.649 OA
BRANCH  15  17
ATOM     17  O   UNL d   1      -2.929  -8.501  -0.083  0.00  0.00    -0.776 OA
ATOM     18  H   UNL d   1      -2.477  -9.149  -0.658  0.00  0.00     0.167 HD
ENDBRANCH  15  17
ENDBRANCH  14  15
ENDBRANCH  13  14
ENDBRANCH  12  13
ENDBRANCH   9  12
ENDBRANCH   1   8
BRANCH   6  19
ATOM     19  C   UNL d   1       2.528   1.562  -0.056  0.00  0.00    -0.008 A 
ATOM     20  C   UNL d   1       3.843   1.076  -0.143  0.00  0.00     0.015 A 
ATOM     21  C   UNL d   1       4.933   1.954  -0.154  0.00  0.00     0.024 A 
ATOM     22  C   UNL d   1       4.718   3.326  -0.078  0.00  0.00     0.034 A 
ATOM     23  C   UNL d   1       3.422   3.828   0.010  0.00  0.00     0.024 A 
ATOM     24 CL   UNL d   1       6.058   4.403  -0.093  0.00  0.00    -0.084 Cl
ATOM     25  C   UNL d   1       2.333   2.949   0.020  0.00  0.00     0.015 A 
ENDBRANCH   6  19
TORSDOF 7
