REMARK  2 active torsions:
REMARK  status: ('A' for Active; 'I' for Inactive)
REMARK    1  A    between atoms: O_11  and  C_9 
REMARK    2  A    between atoms: C_14  and  O_11 
ROOT
ATOM      1  C   UNL d   1      -0.419   1.021   0.033  0.00  0.00     0.147 A 
ATOM      2  C   UNL d   1      -0.888  -0.260   0.023  0.00  0.00     0.151 A 
ATOM      3  N   UNL d   1      -1.421   1.935   0.016  0.00  0.00    -0.305 N 
ATOM      4  HN  UNL d   1      -1.338   2.952   0.032  1.00  0.00     0.171 HD
ATOM      5  N   UNL d   1       0.924   1.304   0.034  0.00  0.00    -0.287 N 
ATOM      6  N   UNL d   1       1.332  -1.051   0.025  0.00  0.00    -0.269 N 
ATOM      7  C   UNL d   1       1.846   0.258   0.024  0.00  0.00     0.332 A 
ATOM      8  C   UNL d   1      -0.027  -1.391   0.027  0.00  0.00     0.282 A 
ATOM      9  C   UNL d   1      -2.523   1.217  -0.025  0.00  0.00     0.233 A 
ATOM     10  N   UNL d   1      -2.252  -0.133  -0.005  0.00  0.00    -0.309 N 
ATOM     11  O   UNL d   1       3.060   0.482   0.011  0.00  0.00    -0.246 OA
ATOM     12  O   UNL d   1      -0.432  -2.552   0.024  0.00  0.00    -0.265 OA
ATOM     13  C   UNL d   1       1.416   2.669   0.025  0.00  0.00     0.163 C 
ATOM     14  C   UNL d   1       2.268  -2.158   0.023  0.00  0.00     0.164 C 
ATOM     15  C   UNL d   1      -3.239  -1.179  -0.086  0.00  0.00     0.160 C 
ENDROOT
BRANCH   9  16
ATOM     16  O   UNL d   1      -3.763   1.700  -0.098  0.00  0.00    -0.277 OA
BRANCH  16  17
ATOM     17  C   UNL d   1      -4.007   2.912  -0.712  0.00  0.00     0.101 A 
ATOM     18  C   UNL d   1      -5.048   3.716  -0.236  0.00  0.00     0.068 A 
ATOM     19 CL   UNL d   1      -5.947   3.287   1.175  0.00  0.00    -0.081 Cl
ATOM     20  C   UNL d   1      -5.383   4.900  -0.903  0.00  0.00     0.026 A 
ATOM     21  C   UNL d   1      -4.679   5.286  -2.046  0.00  0.00     0.002 A 
ATOM     22  C   UNL d   1      -3.635   4.495  -2.518  0.00  0.00     0.003 A 
ATOM     23  C   UNL d   1      -3.307   3.308  -1.860  0.00  0.00     0.039 A 
ENDBRANCH  16  17
ENDBRANCH   9  16
TORSDOF 2
