REMARK  3 active torsions:
REMARK  status: ('A' for Active; 'I' for Inactive)
REMARK    1  A    between atoms: N_2  and  S_1 
REMARK    2  A    between atoms: C_15  and  S_1 
REMARK    3  A    between atoms: C_6  and  C_3 
ROOT
ATOM      1  N   UNL d   1       0.577  -0.832  -1.247  0.00  0.00    -0.235 N 
ATOM      2  C   UNL d   1      -0.253  -0.080  -2.065  0.00  0.00     0.052 A 
ATOM      3  C   UNL d   1      -0.571  -0.872  -3.151  0.00  0.00     0.044 A 
ATOM      4  C   UNL d   1       0.761  -2.104  -1.780  0.00  0.00     0.061 A 
ATOM      5  C   UNL d   1       0.046  -2.134  -2.985  0.00  0.00    -0.006 A 
ATOM      6  C   UNL d   1       1.460  -3.240  -1.333  0.00  0.00     0.031 A 
ATOM      7  C   UNL d   1       0.038  -3.309  -3.762  0.00  0.00     0.014 A 
ATOM      8  C   UNL d   1       1.438  -4.395  -2.123  0.00  0.00     0.002 A 
ATOM      9  C   UNL d   1       0.737  -4.433  -3.322  0.00  0.00     0.001 A 
ENDROOT
BRANCH   2  10
ATOM     10  C   UNL d   1      -0.637   1.254  -1.799  0.00  0.00     0.048 C 
ATOM     11  C   UNL d   1      -1.850   1.598  -1.344  0.00  0.00     0.047 A 
ATOM     12  C   UNL d   1      -2.991   0.709  -0.909  0.00  0.00     0.257 A 
ATOM     13  C   UNL d   1      -2.307   2.983  -1.183  0.00  0.00     0.006 A 
ATOM     14  N   UNL d   1      -4.009   1.585  -0.552  0.00  0.00    -0.322 N 
ATOM     15  O   UNL d   1      -3.026  -0.504  -0.857  0.00  0.00    -0.267 OA
ATOM     16  C   UNL d   1      -3.618   2.913  -0.704  0.00  0.00     0.046 A 
ATOM     17  H   UNL d   1      -4.899   1.268  -0.201  0.00  0.00     0.169 HD
ATOM     18  C   UNL d   1      -4.365   4.041  -0.431  0.00  0.00     0.030 A 
ATOM     19  C   UNL d   1      -3.760   5.282  -0.651  0.00  0.00     0.002 A 
ATOM     20  C   UNL d   1      -2.444   5.365  -1.143  0.00  0.00     0.001 A 
ATOM     21  C   UNL d   1      -1.708   4.208  -1.419  0.00  0.00     0.015 A 
ENDBRANCH   2  10
BRANCH   1  22
ATOM     22  S   UNL d   1       1.186  -0.365   0.288  0.00  0.00     0.269 S 
ATOM     23  O   UNL d   1       0.645  -1.331   1.226  0.00  0.00    -0.200 OA
ATOM     24  O   UNL d   1       0.965   1.064   0.443  0.00  0.00    -0.200 OA
BRANCH  22  25
ATOM     25  C   UNL d   1       2.950  -0.580   0.218  0.00  0.00     0.080 A 
ATOM     26  C   UNL d   1       3.709   0.160  -0.693  0.00  0.00     0.025 A 
ATOM     27  C   UNL d   1       5.096  -0.005  -0.722  0.00  0.00     0.002 A 
ATOM     28  C   UNL d   1       5.717  -0.896   0.157  0.00  0.00     0.000 A 
ATOM     29  C   UNL d   1       4.959  -1.607   1.087  0.00  0.00     0.002 A 
ATOM     30  C   UNL d   1       3.575  -1.441   1.129  0.00  0.00     0.025 A 
ENDBRANCH  22  25
ENDBRANCH   1  22
TORSDOF 3
