REMARK  8 active torsions:
REMARK  status: ('A' for Active; 'I' for Inactive)
REMARK    1  A    between atoms: C_3  and  C_1 
REMARK    2  A    between atoms: O_13  and  C_1 
REMARK    3  A    between atoms: C_2  and  O_14 
REMARK    4  A    between atoms: C_4  and  C_2 
REMARK    5  A    between atoms: C_5  and  C_17 
REMARK    6  A    between atoms: C_18  and  C_6 
REMARK    7  A    between atoms: C_17  and  O_13 
REMARK    8  A    between atoms: O_14  and  C_18 
ROOT
ATOM      1  C   UNL d   1       4.626  -0.255   0.901  0.00  0.00    -0.078 C 
ATOM      2  C   UNL d   1       5.809  -0.150   0.714  0.00  0.00    -0.078 C 
ENDROOT
BRANCH   1   3
ATOM      3  C   UNL d   1       3.191  -0.431   1.156  0.00  0.00     0.272 C 
BRANCH   3   4
ATOM      4  O   UNL d   1       2.443   0.205   0.110  0.00  0.00    -0.305 OA
BRANCH   4   5
ATOM      5  C   UNL d   1       1.486  -0.547  -0.478  0.00  0.00     0.295 C 
ATOM      6  O   UNL d   1       1.219  -1.711  -0.223  0.00  0.00    -0.259 OA
BRANCH   5   7
ATOM      7  C   UNL d   1       0.759   0.236  -1.502  0.00  0.00     0.054 A 
ATOM      8  C   UNL d   1       0.995   1.587  -1.725  0.00  0.00     0.105 A 
ATOM      9  N   UNL d   1       0.329   2.329  -2.645  0.00  0.00    -0.374 N 
ATOM     10  C   UNL d   1      -0.615   1.694  -3.375  0.00  0.00     0.087 A 
ATOM     11  HN  UNL d   1       0.530   3.320  -2.780  1.00  0.00     0.164 HD
ATOM     12  C   UNL d   1      -0.924   0.351  -3.228  0.00  0.00     0.018 A 
ATOM     13  C   UNL d   1      -0.225  -0.388  -2.275  0.00  0.00     0.020 A 
ENDBRANCH   5   7
ENDBRANCH   4   5
ENDBRANCH   3   4
ENDBRANCH   1   3
BRANCH   2  14
ATOM     14  C   UNL d   1       7.262  -0.082   0.508  0.00  0.00     0.272 C 
BRANCH  14  15
ATOM     15  O   UNL d   1       7.686   1.289   0.505  0.00  0.00    -0.305 OA
BRANCH  15  16
ATOM     16  C   UNL d   1       8.694   1.593   1.357  0.00  0.00     0.295 C 
ATOM     17  O   UNL d   1       9.232   0.828   2.141  0.00  0.00    -0.259 OA
BRANCH  16  18
ATOM     18  C   UNL d   1       9.103   3.007   1.212  0.00  0.00     0.054 A 
ATOM     19  C   UNL d   1      10.101   3.490   2.050  0.00  0.00     0.105 A 
ATOM     20  N   UNL d   1      10.583   4.758   2.007  0.00  0.00    -0.374 N 
ATOM     21  C   UNL d   1      10.045   5.580   1.081  0.00  0.00     0.087 A 
ATOM     22  HN  UNL d   1      11.316   5.074   2.642  1.00  0.00     0.164 HD
ATOM     23  C   UNL d   1       9.046   5.195   0.201  0.00  0.00     0.018 A 
ATOM     24  C   UNL d   1       8.566   3.885   0.268  0.00  0.00     0.020 A 
ENDBRANCH  16  18
ENDBRANCH  15  16
ENDBRANCH  14  15
ENDBRANCH   2  14
TORSDOF 8
