REMARK  7 active torsions:
REMARK  status: ('A' for Active; 'I' for Inactive)
REMARK       I    between atoms: N_2  and  C_1 
REMARK    1  A    between atoms: C_8  and  C_1 
REMARK    2  A    between atoms: C_10  and  N_2 
REMARK    3  A    between atoms: O_3  and  C_4 
REMARK    4  A    between atoms: C_9  and  O_3 
REMARK    5  A    between atoms: C_5  and  C_9 
REMARK    6  A    between atoms: O_18  and  C_5 
REMARK    7  A    between atoms: C_20  and  O_18 
ROOT
ATOM      1  C   UNL d   1       2.481   1.159  -4.798  0.00  0.00     0.091 A 
ATOM      2  C   UNL d   1       3.090   0.322  -3.848  0.00  0.00     0.069 A 
ATOM      3  C   UNL d   1       2.484   0.075  -2.612  0.00  0.00     0.056 A 
ATOM      4  C   UNL d   1       1.253   0.647  -2.305  0.00  0.00     0.036 A 
ATOM      5  C   UNL d   1       1.236   1.710  -4.498  0.00  0.00     0.041 A 
ATOM      6 CL   UNL d   1       4.619  -0.426  -4.169  0.00  0.00    -0.081 Cl
ATOM      7  C   UNL d   1       0.625   1.450  -3.265  0.00  0.00     0.032 A 
ENDROOT
BRANCH   1   8
ATOM      8  O   UNL d   1       3.140   1.336  -5.984  0.00  0.00    -0.335 OA
BRANCH   8   9
ATOM      9  C   UNL d   1       2.878   2.511  -6.738  0.00  0.00     0.224 C 
ATOM     10  C   UNL d   1       3.550   2.335  -8.098  0.00  0.00     0.051 C 
BRANCH   9  11
ATOM     11  C   UNL d   1       3.397   3.821  -6.131  0.00  0.00     0.288 C 
ATOM     12  O   UNL d   1       2.823   4.898  -6.252  0.00  0.00    -0.262 OA
BRANCH  11  13
ATOM     13  O   UNL d   1       4.604   3.640  -5.526  0.00  0.00    -0.320 OA
BRANCH  13  14
ATOM     14  C   UNL d   1       5.319   4.821  -5.136  0.00  0.00     0.174 C 
ATOM     15  C   UNL d   1       5.172   5.068  -3.648  0.00  0.00     0.034 C 
ENDBRANCH  13  14
ENDBRANCH  11  13
ENDBRANCH   9  11
ENDBRANCH   8   9
ENDBRANCH   1   8
BRANCH   4  16
ATOM     16  N   UNL d   1       0.582   0.475  -1.078  0.00  0.00    -0.325 N 
ATOM     17  C   UNL d   1       1.078  -0.110   0.083  0.00  0.00     0.255 C 
ATOM     18  O   UNL d   1       2.205  -0.587   0.213  0.00  0.00    -0.270 OA
ATOM     19  H   UNL d   1      -0.338   0.898  -1.002  0.00  0.00     0.169 HD
BRANCH  17  20
ATOM     20  C   UNL d   1       0.091  -0.133   1.252  0.00  0.00     0.270 C 
ATOM     21 CL   UNL d   1      -0.551   1.503   1.531  0.00  0.00    -0.098 Cl
ATOM     22 CL   UNL d   1      -1.230  -1.257   0.873  0.00  0.00    -0.098 Cl
ENDBRANCH  17  20
ENDBRANCH   4  16
TORSDOF 7
