REMARK  3 active torsions:
REMARK  status: ('A' for Active; 'I' for Inactive)
REMARK    1  A    between atoms: C_7  and  C_1 
REMARK    2  A    between atoms: O_13  and  C_7 
REMARK    3  A    between atoms: C_15  and  O_13 
ROOT
ATOM      1  C   UNL d   1       1.617  -1.171  -0.022  0.00  0.00     0.138 A 
ATOM      2  N   UNL d   1       0.303  -0.729  -0.042  0.00  0.00    -0.301 N 
ATOM      3  N   UNL d   1       1.579   1.112  -0.085  0.00  0.00    -0.344 N 
ATOM      4  HN  UNL d   1       1.880   2.086  -0.117  1.00  0.00     0.167 HD
ATOM      5  C   UNL d   1       2.378  -0.005  -0.057  0.00  0.00     0.040 A 
ATOM      6  C   UNL d   1       0.346   0.663  -0.061  0.00  0.00     0.112 A 
ATOM      7  C   UNL d   1      -0.904  -1.439  -0.027  0.00  0.00     0.099 A 
ATOM      8  C   UNL d   1      -0.893   1.364  -0.040  0.00  0.00     0.049 A 
ATOM      9  C   UNL d   1      -2.071  -0.772  -0.016  0.00  0.00     0.018 A 
ATOM     10  C   UNL d   1      -2.051   0.681  -0.016  0.00  0.00     0.005 A 
ATOM     11  C   UNL d   1       3.853   0.171  -0.033  0.00  0.00     0.071 C 
ENDROOT
BRANCH   1  12
ATOM     12  C   UNL d   1       2.022  -2.549   0.083  0.00  0.00     0.312 C 
ATOM     13  O   UNL d   1       1.273  -3.512   0.175  0.00  0.00    -0.258 OA
BRANCH  12  14
ATOM     14  O   UNL d   1       3.380  -2.632   0.155  0.00  0.00    -0.317 OA
BRANCH  14  15
ATOM     15  C   UNL d   1       3.906  -3.861   0.672  0.00  0.00     0.175 C 
ATOM     16  C   UNL d   1       3.965  -3.750   2.185  0.00  0.00     0.034 C 
ENDBRANCH  14  15
ENDBRANCH  12  14
ENDBRANCH   1  12
TORSDOF 3
