REMARK  3 active torsions:
REMARK  status: ('A' for Active; 'I' for Inactive)
REMARK    1  A    between atoms: C_7  and  N_1 
REMARK    2  A    between atoms: S_18  and  C_3 
REMARK    3  A    between atoms: C_10  and  C_6 
ROOT
ATOM      1  N   UNL d   1      -0.033  -1.173  -0.023  0.00  0.00    -0.230 N 
ATOM      2  C   UNL d   1       1.164   0.699  -0.008  0.00  0.00     0.111 A 
ATOM      3  C   UNL d   1       1.266  -0.672   0.053  0.00  0.00     0.117 A 
ATOM      4  N   UNL d   1      -0.943  -0.151  -0.153  0.00  0.00    -0.287 N 
ATOM      5  HN  UNL d   1      -1.956  -0.229  -0.238  1.00  0.00     0.188 HD
ATOM      6  C   UNL d   1      -0.209   0.970  -0.143  0.00  0.00     0.106 A 
ATOM      7  C   UNL d   1       2.244   1.629   0.027  0.00  0.00     0.105 C 
ATOM      8  N   UNL d   1       3.139   2.365   0.041  0.00  0.00    -0.191 NA
ENDROOT
BRANCH   3   9
ATOM      9  S   UNL d   1       2.725  -1.624   0.199  0.00  0.00    -0.113 SA
ATOM     10  C   UNL d   1       3.126  -1.890  -1.547  0.00  0.00     0.097 C 
ENDBRANCH   3   9
BRANCH   6  11
ATOM     11  C   UNL d   1      -0.798   2.339  -0.294  0.00  0.00     0.104 A 
ATOM     12  O   UNL d   1      -0.052   3.487  -0.292  0.00  0.00    -0.320 OA
ATOM     13  C   UNL d   1      -0.896   4.530  -0.483  0.00  0.00     0.142 A 
ATOM     14  C   UNL d   1      -2.188   4.078  -0.605  0.00  0.00     0.027 A 
ATOM     15  C   UNL d   1      -2.128   2.666  -0.474  0.00  0.00     0.041 A 
ENDBRANCH   6  11
BRANCH   1  16
ATOM     16  C   UNL d   1      -0.476  -2.534  -0.033  0.00  0.00     0.144 A 
ATOM     17  N   UNL d   1       0.428  -3.539   0.071  0.00  0.00    -0.338 N 
ATOM     18  C   UNL d   1      -0.020  -4.801  -0.034  0.00  0.00     0.060 A 
ATOM     19  HN  UNL d   1       1.417  -3.343   0.223  1.00  0.00     0.167 HD
ATOM     20  C   UNL d   1       0.891  -5.846   0.048  0.00  0.00     0.032 A 
ATOM     21  C   UNL d   1      -1.388  -5.083  -0.248  0.00  0.00     0.059 A 
ATOM     22  C   UNL d   1       0.488  -7.171  -0.114  0.00  0.00     0.002 A 
ATOM     23  C   UNL d   1      -0.851  -7.452  -0.354  0.00  0.00     0.002 A 
ATOM     24  C   UNL d   1      -1.778  -6.408  -0.410  0.00  0.00     0.032 A 
ATOM     25  N   UNL d   1      -2.296  -4.087  -0.315  0.00  0.00    -0.360 N 
ATOM     26  C   UNL d   1      -1.823  -2.818  -0.202  0.00  0.00     0.139 A 
ATOM     27  HN  UNL d   1      -3.290  -4.278  -0.444  1.00  0.00     0.165 HD
ENDBRANCH   1  16
TORSDOF 3
