REMARK  4 active torsions:
REMARK  status: ('A' for Active; 'I' for Inactive)
REMARK    1  A    between atoms: C_4  and  C_1 
REMARK       I    between atoms: N_9  and  C_4 
REMARK       I    between atoms: C_8  and  N_7 
REMARK    2  A    between atoms: O_19  and  C_8 
REMARK    3  A    between atoms: C_15  and  N_9 
REMARK    4  A    between atoms: C_20  and  O_19 
ROOT
ATOM      1  N   UNL d   1      -1.331  -5.805  -2.459  0.00  0.00    -0.328 N 
ATOM      2  C   UNL d   1      -2.215  -6.431  -3.317  0.00  0.00     0.362 C 
ATOM      3  C   UNL d   1      -0.842  -4.445  -2.644  0.00  0.00     0.130 C 
ATOM      4  C   UNL d   1      -0.785  -6.519  -1.317  0.00  0.00     0.130 C 
ATOM      5  O   UNL d   1      -2.555  -7.602  -3.217  0.00  0.00    -0.238 OA
ATOM      6  C   UNL d   1      -0.663  -4.261  -0.124  0.00  0.00     0.087 C 
ATOM      7  C   UNL d   1      -1.060  -5.744  -0.031  0.00  0.00     0.045 C 
ATOM      8  C   UNL d   1      -1.173  -3.607  -1.417  0.00  0.00     0.045 C 
ENDROOT
BRANCH   6   9
ATOM      9  N   UNL d   1       0.779  -4.099   0.025  0.00  0.00    -0.352 N 
ATOM     10  C   UNL d   1       1.345  -2.955   0.550  0.00  0.00     0.254 C 
ATOM     11  O   UNL d   1       0.667  -2.008   0.932  0.00  0.00    -0.268 OA
ATOM     12  H   UNL d   1       1.389  -4.806  -0.362  0.00  0.00     0.163 HD
BRANCH  10  13
ATOM     13  C   UNL d   1       2.808  -2.917   0.622  0.00  0.00     0.062 A 
ATOM     14  C   UNL d   1       3.716  -3.908   0.302  0.00  0.00     0.091 A 
ATOM     15  S   UNL d   1       5.344  -3.459   0.512  0.00  0.00    -0.065 SA
ATOM     16 CL   UNL d   1       3.429  -5.512  -0.272  0.00  0.00    -0.075 Cl
ATOM     17  C   UNL d   1       4.888  -1.928   1.054  0.00  0.00     0.077 A 
ATOM     18  C   UNL d   1       3.531  -1.748   1.083  0.00  0.00     0.050 A 
ATOM     19 CL   UNL d   1       6.089  -0.786   1.498  0.00  0.00    -0.076 Cl
ENDBRANCH  10  13
ENDBRANCH   6   9
BRANCH   2  20
ATOM     20  O   UNL d   1      -2.636  -5.599  -4.305  0.00  0.00    -0.304 OA
BRANCH  20  21
ATOM     21  C   UNL d   1      -3.277  -6.222  -5.424  0.00  0.00     0.176 C 
ATOM     22  C   UNL d   1      -2.198  -6.600  -6.422  0.00  0.00     0.034 C 
ENDBRANCH  20  21
ENDBRANCH   2  20
TORSDOF 4
