REMARK  5 active torsions:
REMARK  status: ('A' for Active; 'I' for Inactive)
REMARK    1  A    between atoms: C_2  and  C_1 
REMARK       I    between atoms: N_7  and  C_1 
REMARK    2  A    between atoms: C_3  and  C_4 
REMARK    3  A    between atoms: O_16  and  C_3 
REMARK    4  A    between atoms: C_14  and  N_7 
REMARK    5  A    between atoms: C_12  and  C_14 
ROOT
ATOM      1  C   UNL d   1       1.075   0.638  -0.687  0.00  0.00     0.241 C 
ATOM      2  N   UNL d   1       0.346   1.124   0.365  0.00  0.00    -0.353 N 
ATOM      3  O   UNL d   1       0.603   0.304  -1.766  0.00  0.00    -0.269 OA
ATOM      4  H   UNL d   1       0.804   1.381   1.230  0.00  0.00     0.163 HD
ENDROOT
BRANCH   2   5
ATOM      5  C   UNL d   1      -1.091   1.279   0.297  0.00  0.00     0.161 C 
BRANCH   5   6
ATOM      6  C   UNL d   1      -1.496   2.715   0.522  0.00  0.00    -0.039 A 
ATOM      7  C   UNL d   1      -1.105   3.710  -0.390  0.00  0.00     0.034 A 
ATOM      8  C   UNL d   1      -1.484   5.044  -0.204  0.00  0.00     0.056 A 
ATOM      9 CL   UNL d   1      -0.952   6.202  -1.370  0.00  0.00    -0.083 Cl
ATOM     10  C   UNL d   1      -2.270   5.396   0.899  0.00  0.00     0.055 A 
ATOM     11  C   UNL d   1      -2.669   4.412   1.807  0.00  0.00     0.026 A 
ATOM     12 CL   UNL d   1      -2.781   7.019   1.194  0.00  0.00    -0.083 Cl
ATOM     13  C   UNL d   1      -2.285   3.080   1.621  0.00  0.00     0.010 A 
ENDBRANCH   5   6
ENDBRANCH   2   5
BRANCH   1  14
ATOM     14  C   UNL d   1       2.525   0.554  -0.405  0.00  0.00     0.080 C 
ATOM     15  C   UNL d   1       3.351   0.111  -1.365  0.00  0.00     0.086 C 
BRANCH  15  16
ATOM     16  C   UNL d   1       4.792   0.036  -1.081  0.00  0.00     0.165 C 
ATOM     17  O   UNL d   1       5.297   0.342  -0.014  0.00  0.00    -0.647 OA
BRANCH  16  18
ATOM     18  O   UNL d   1       5.500  -0.410  -2.136  0.00  0.00    -0.773 OA
ATOM     19  H   UNL d   1       4.984  -0.617  -2.936  0.00  0.00     0.167 HD
ENDBRANCH  16  18
ENDBRANCH  15  16
ENDBRANCH   1  14
TORSDOF 5
