REMARK  6 active torsions:
REMARK  status: ('A' for Active; 'I' for Inactive)
REMARK    1  A    between atoms: C_2  and  C_1 
REMARK    2  A    between atoms: C_3  and  C_1 
REMARK    3  A    between atoms: C_4  and  C_2 
REMARK       I    between atoms: N_5  and  C_3 
REMARK    4  A    between atoms: O_15  and  C_4 
REMARK    5  A    between atoms: C_11  and  N_5 
REMARK    6  A    between atoms: C_6  and  C_11 
ROOT
ATOM      1  C   UNL d   1       1.005   0.513  -2.636  0.00  0.00     0.297 C 
ATOM      2  N   UNL d   1      -0.255   0.247  -2.132  0.00  0.00    -0.351 N 
ATOM      3  O   UNL d   1       1.720  -0.370  -3.108  0.00  0.00    -0.266 OA
ATOM      4  H   UNL d   1      -0.810   1.009  -1.760  0.00  0.00     0.162 HD
ENDROOT
BRANCH   1   5
ATOM      5  C   UNL d   1       1.469   1.964  -2.489  0.00  0.00     0.396 C 
ATOM      6  F   UNL d   1       0.554   2.828  -3.015  0.00  0.00    -0.188 F 
ATOM      7  F   UNL d   1       1.525   2.292  -1.156  0.00  0.00    -0.188 F 
BRANCH   5   8
ATOM      8  C   UNL d   1       2.844   2.152  -3.109  0.00  0.00     0.399 C 
ATOM      9  F   UNL d   1       3.289   3.426  -2.881  0.00  0.00    -0.186 F 
ATOM     10  F   UNL d   1       3.770   1.348  -2.490  0.00  0.00    -0.186 F 
BRANCH   8  11
ATOM     11  C   UNL d   1       2.798   1.850  -4.599  0.00  0.00     0.223 C 
ATOM     12  O   UNL d   1       2.079   2.416  -5.411  0.00  0.00    -0.645 OA
BRANCH  11  13
ATOM     13  O   UNL d   1       3.682   0.887  -4.983  0.00  0.00    -0.772 OA
ATOM     14  H   UNL d   1       4.154   0.485  -4.218  0.00  0.00     0.167 HD
ENDBRANCH  11  13
ENDBRANCH   8  11
ENDBRANCH   5   8
ENDBRANCH   1   5
BRANCH   2  15
ATOM     15  C   UNL d   1      -0.812  -1.088  -2.094  0.00  0.00     0.163 C 
BRANCH  15  16
ATOM     16  C   UNL d   1      -1.615  -1.423  -3.325  0.00  0.00    -0.019 A 
ATOM     17  C   UNL d   1      -2.984  -1.137  -3.446  0.00  0.00     0.042 A 
ATOM     18 CL   UNL d   1      -3.864  -0.344  -2.187  0.00  0.00    -0.084 Cl
ATOM     19  C   UNL d   1      -3.688  -1.496  -4.600  0.00  0.00     0.024 A 
ATOM     20  C   UNL d   1      -3.036  -2.138  -5.652  0.00  0.00     0.002 A 
ATOM     21  C   UNL d   1      -1.676  -2.415  -5.554  0.00  0.00     0.001 A 
ATOM     22  C   UNL d   1      -0.972  -2.057  -4.404  0.00  0.00     0.010 A 
ENDBRANCH  15  16
ENDBRANCH   2  15
TORSDOF 6
