REMARK  3 active torsions:
REMARK  status: ('A' for Active; 'I' for Inactive)
REMARK       I    between atoms: N_4  and  C_1 
REMARK       I    between atoms: N_6  and  C_1 
REMARK    1  A    between atoms: C_2  and  C_3 
REMARK    2  A    between atoms: C_5  and  N_4 
REMARK    3  A    between atoms: C_13  and  N_6 
ROOT
ATOM      1  C   UNL d   1       0.995   0.403   0.166  0.00  0.00     0.323 C 
ATOM      2  N   UNL d   1       0.192   1.465  -0.194  0.00  0.00    -0.307 N 
ATOM      3  N   UNL d   1       0.331  -0.760   0.567  0.00  0.00    -0.334 N 
ATOM      4  O   UNL d   1       2.217   0.516   0.126  0.00  0.00    -0.247 OA
ATOM      5  C   UNL d   1      -1.133  -0.843   0.596  0.00  0.00     0.155 C 
ATOM      6  H   UNL d   1      -0.588   1.629   0.430  0.00  0.00     0.170 HD
ENDROOT
BRANCH   2   7
ATOM      7  C   UNL d   1       0.680   2.579  -0.928  0.00  0.00     0.066 A 
ATOM      8  C   UNL d   1       0.161   3.867  -0.746  0.00  0.00     0.077 A 
ATOM      9  C   UNL d   1       0.698   4.923  -1.507  0.00  0.00     0.035 A 
ATOM     10  C   UNL d   1       1.694   4.659  -2.431  0.00  0.00     0.088 A 
ATOM     11  N   UNL d   1       2.184   3.429  -2.653  0.00  0.00    -0.373 N 
ATOM     12  C   UNL d   1       1.678   2.425  -1.897  0.00  0.00     0.117 A 
ATOM     13  HN  UNL d   1       2.903   3.259  -3.356  1.00  0.00     0.164 HD
BRANCH   8  14
ATOM     14  C   UNL d   1      -0.889   4.200   0.273  0.00  0.00     0.419 C 
ATOM     15  F   UNL d   1      -1.475   3.108   0.847  0.00  0.00    -0.166 F 
ATOM     16  F   UNL d   1      -0.398   4.940   1.305  0.00  0.00    -0.166 F 
ATOM     17  F   UNL d   1      -1.914   4.928  -0.252  0.00  0.00    -0.166 F 
ENDBRANCH   8  14
ENDBRANCH   2   7
BRANCH   3  18
ATOM     18  C   UNL d   1       1.075  -1.868   1.257  0.00  0.00     0.088 C 
ATOM     19  C   UNL d   1       2.580  -2.030   0.941  0.00  0.00     0.025 C 
ATOM     20  C   UNL d   1       2.818  -2.450  -0.509  0.00  0.00     0.002 C 
ATOM     21  C   UNL d   1       2.116  -3.768  -0.819  0.00  0.00     0.000 C 
ATOM     22  C   UNL d   1       0.644  -3.752  -0.411  0.00  0.00     0.002 C 
ATOM     23  C   UNL d   1       0.450  -3.268   1.029  0.00  0.00     0.025 C 
ENDBRANCH   3  18
TORSDOF 3
