REMARK  5 active torsions:
REMARK  status: ('A' for Active; 'I' for Inactive)
REMARK    1  A    between atoms: C_7  and  N_1 
REMARK    2  A    between atoms: S_6  and  C_4 
REMARK    3  A    between atoms: C_8  and  S_6 
REMARK    4  A    between atoms: N_14  and  C_11 
REMARK    5  A    between atoms: O_18  and  C_15 
ROOT
ATOM      1  N   UNL d   1       0.068   0.904   0.059  0.00  0.00    -0.251 N 
ATOM      2  C   UNL d   1      -1.064   0.174   0.332  0.00  0.00     0.232 A 
ATOM      3  C   UNL d   1       1.169   0.081  -0.108  0.00  0.00     0.245 A 
ATOM      4  C   UNL d   1       0.715  -1.369  -0.113  0.00  0.00     0.154 A 
ATOM      5  C   UNL d   1      -0.759  -1.291   0.228  0.00  0.00     0.129 A 
ATOM      6  O   UNL d   1      -2.186   0.569   0.616  0.00  0.00    -0.273 OA
ATOM      7  O   UNL d   1       2.341   0.414  -0.189  0.00  0.00    -0.271 OA
ENDROOT
BRANCH   4   8
ATOM      8  S   UNL d   1       1.083  -2.042  -1.784  0.00  0.00    -0.113 SA
BRANCH   8   9
ATOM      9  C   UNL d   1       0.626  -3.778  -1.657  0.00  0.00     0.022 A 
ATOM     10  C   UNL d   1      -0.343  -4.308  -2.542  0.00  0.00     0.022 A 
ATOM     11  C   UNL d   1      -0.659  -5.671  -2.485  0.00  0.00     0.024 A 
ATOM     12  C   UNL d   1       0.073  -6.534  -1.672  0.00  0.00     0.002 A 
ATOM     13  C   UNL d   1       1.078  -6.026  -0.852  0.00  0.00     0.001 A 
ATOM     14  C   UNL d   1       1.342  -4.651  -0.827  0.00  0.00     0.020 A 
BRANCH  10  15
ATOM     15  N   UNL d   1      -1.105  -3.470  -3.383  0.00  0.00    -0.302 NA
ATOM     16  H   UNL d   1      -0.514  -2.730  -3.763  0.00  0.00     0.124 HD
ATOM     17  H   UNL d   1      -1.602  -3.968  -4.114  0.00  0.00     0.124 HD
ENDBRANCH  10  15
ENDBRANCH   8   9
ENDBRANCH   4   8
BRANCH   1  18
ATOM     18  C   UNL d   1       0.115   2.329   0.005  0.00  0.00     0.045 A 
ATOM     19  C   UNL d   1      -0.844   3.116   0.652  0.00  0.00     0.033 A 
ATOM     20  C   UNL d   1      -0.817   4.515   0.583  0.00  0.00     0.039 A 
ATOM     21  C   UNL d   1       0.166   5.165  -0.155  0.00  0.00     0.068 A 
ATOM     22  C   UNL d   1       1.124   4.399  -0.818  0.00  0.00     0.039 A 
ATOM     23  C   UNL d   1       1.106   3.000  -0.733  0.00  0.00     0.033 A 
BRANCH  21  24
ATOM     24  O   UNL d   1       0.288   6.519  -0.301  0.00  0.00    -0.356 OA
ATOM     25  C   UNL d   1      -0.664   7.317   0.394  0.00  0.00     0.210 C 
ENDBRANCH  21  24
ENDBRANCH   1  18
TORSDOF 5
