REMARK  6 active torsions:
REMARK  status: ('A' for Active; 'I' for Inactive)
REMARK    1  A    between atoms: C_3  and  C_1 
REMARK    2  A    between atoms: N_5  and  C_2 
REMARK       I    between atoms: C_4  and  N_6 
REMARK    3  A    between atoms: C_7  and  C_4 
REMARK    4  A    between atoms: S_16  and  C_23 
REMARK    5  A    between atoms: C_20  and  S_16 
REMARK    6  A    between atoms: C_23  and  C_21 
ROOT
ATOM      1  C   UNL d   1      -3.855   5.847   0.551  0.00  0.00     0.253 C 
ATOM      2  N   UNL d   1      -0.030   4.086   1.134  0.00  0.00    -0.266 NA
ATOM      3  N   UNL d   1      -2.636   5.204   0.761  0.00  0.00    -0.346 N 
ATOM      4  C   UNL d   1      -0.777   4.567   2.303  0.00  0.00     0.117 C 
ATOM      5  C   UNL d   1      -0.240   4.987  -0.018  0.00  0.00     0.117 C 
ATOM      6  C   UNL d   1      -1.744   4.972  -0.393  0.00  0.00     0.141 C 
ATOM      7  C   UNL d   1      -2.272   4.480   1.989  0.00  0.00     0.141 C 
ATOM      8  O   UNL d   1      -4.135   6.439  -0.488  0.00  0.00    -0.267 OA
ENDROOT
BRANCH   1   9
ATOM      9  C   UNL d   1      -4.856   5.876   1.650  0.00  0.00     0.032 A 
ATOM     10  C   UNL d   1      -5.303   4.696   2.260  0.00  0.00     0.025 A 
ATOM     11  C   UNL d   1      -6.118   4.742   3.402  0.00  0.00    -0.048 A 
ATOM     12  C   UNL d   1      -6.591   5.998   3.824  0.00  0.00     0.008 A 
ATOM     13  C   UNL d   1      -6.218   7.170   3.160  0.00  0.00     0.002 A 
ATOM     14  C   UNL d   1      -5.337   7.113   2.083  0.00  0.00     0.017 A 
BRANCH  11  15
ATOM     15  C   UNL d   1      -6.535   3.519   4.191  0.00  0.00     0.117 C 
BRANCH  15  16
ATOM     16  S   UNL d   1      -5.571   1.987   3.961  0.00  0.00    -0.125 SA
BRANCH  16  17
ATOM     17  C   UNL d   1      -3.925   2.364   4.553  0.00  0.00     0.001 A 
ATOM     18  C   UNL d   1      -3.574   3.480   5.321  0.00  0.00     0.020 A 
ATOM     19  C   UNL d   1      -2.251   3.670   5.741  0.00  0.00     0.025 A 
ATOM     20  C   UNL d   1      -1.271   2.735   5.412  0.00  0.00     0.034 A 
ATOM     21  C   UNL d   1      -1.597   1.628   4.637  0.00  0.00     0.025 A 
ATOM     22 CL   UNL d   1       0.353   2.977   5.925  0.00  0.00    -0.084 Cl
ATOM     23  C   UNL d   1      -2.918   1.445   4.213  0.00  0.00     0.020 A 
ENDBRANCH  16  17
ENDBRANCH  15  16
ENDBRANCH  11  15
ENDBRANCH   1   9
BRANCH   2  24
ATOM     24  C   UNL d   1       1.272   3.693   1.414  0.00  0.00     0.097 A 
ATOM     25  C   UNL d   1       1.893   2.677   0.697  0.00  0.00     0.086 A 
ATOM     26  C   UNL d   1       3.158   2.225   1.129  0.00  0.00     0.021 A 
ATOM     27  C   UNL d   1       3.744   2.757   2.266  0.00  0.00     0.018 A 
ATOM     28  C   UNL d   1       3.058   3.750   2.926  0.00  0.00     0.089 A 
ATOM     29  N   UNL d   1       1.862   4.226   2.520  0.00  0.00    -0.356 N 
ATOM     30  HN  UNL d   1       1.404   4.977   3.036  1.00  0.00     0.166 HD
BRANCH  25  31
ATOM     31  C   UNL d   1       1.272   1.997  -0.487  0.00  0.00     0.420 C 
ATOM     32  F   UNL d   1      -0.061   2.189  -0.689  0.00  0.00    -0.166 F 
ATOM     33  F   UNL d   1       1.873   2.372  -1.655  0.00  0.00    -0.166 F 
ATOM     34  F   UNL d   1       1.421   0.638  -0.431  0.00  0.00    -0.166 F 
ENDBRANCH  25  31
ENDBRANCH   2  24
TORSDOF 6
