REMARK  4 active torsions:
REMARK  status: ('A' for Active; 'I' for Inactive)
REMARK    1  A    between atoms: C_10  and  N_5 
REMARK    2  A    between atoms: C_12  and  C_10 
REMARK    3  A    between atoms: O_16  and  C_12 
REMARK    4  A    between atoms: C_19  and  O_16 
ROOT
ATOM      1  N   UNL d   1       0.638   0.362  -0.045  0.00  0.00    -0.251 N 
ATOM      2  C   UNL d   1       1.246  -0.874   0.002  0.00  0.00     0.174 A 
ATOM      3  C   UNL d   1       1.391   1.515  -0.065  0.00  0.00     0.324 A 
ATOM      4  C   UNL d   1       2.912   1.302  -0.130  0.00  0.00     0.331 A 
ATOM      5  N   UNL d   1       3.352  -0.013  -0.006  0.00  0.00    -0.241 N 
ATOM      6  N   UNL d   1       2.515  -1.098   0.038  0.00  0.00    -0.273 N 
ATOM      7  HN  UNL d   1       2.882  -2.048   0.096  1.00  0.00     0.189 HD
ATOM      8  S   UNL d   1       0.075  -2.177   0.032  0.00  0.00    -0.050 SA
ATOM      9  C   UNL d   1      -0.778   0.300  -0.022  0.00  0.00     0.062 A 
ATOM     10  C   UNL d   1      -1.258  -1.014   0.011  0.00  0.00     0.035 A 
ATOM     11  O   UNL d   1       3.658   2.266  -0.256  0.00  0.00    -0.260 OA
ATOM     12  O   UNL d   1       0.961   2.663  -0.015  0.00  0.00    -0.261 OA
ATOM     13  C   UNL d   1      -1.679   1.359  -0.029  0.00  0.00     0.031 A 
ATOM     14  C   UNL d   1      -2.615  -1.302   0.025  0.00  0.00     0.021 A 
ATOM     15  C   UNL d   1      -3.052   1.082  -0.011  0.00  0.00     0.002 A 
ATOM     16  C   UNL d   1      -3.516  -0.239   0.013  0.00  0.00     0.002 A 
ENDROOT
BRANCH   5  17
ATOM     17  C   UNL d   1       4.784  -0.287   0.078  0.00  0.00     0.263 C 
BRANCH  17  18
ATOM     18  C   UNL d   1       5.501  -0.521  -1.240  0.00  0.00     0.278 C 
ATOM     19  O   UNL d   1       6.698  -0.791  -1.296  0.00  0.00    -0.263 OA
BRANCH  18  20
ATOM     20  O   UNL d   1       4.702  -0.329  -2.325  0.00  0.00    -0.321 OA
BRANCH  20  21
ATOM     21  C   UNL d   1       5.391  -0.209  -3.579  0.00  0.00     0.174 C 
ATOM     22  C   UNL d   1       5.695   1.260  -3.807  0.00  0.00     0.034 C 
ENDBRANCH  20  21
ENDBRANCH  18  20
ENDBRANCH  17  18
ENDBRANCH   5  17
TORSDOF 4
