REMARK  2 active torsions:
REMARK  status: ('A' for Active; 'I' for Inactive)
REMARK    1  A    between atoms: C_4  and  C_1 
REMARK       I    between atoms: N_7  and  C_4 
REMARK    2  A    between atoms: C_12  and  N_7 
ROOT
ATOM      1  C   UNL d   1      -2.667  -1.524  -0.538  0.00  0.00     0.274 C 
ATOM      2  N   UNL d   1      -3.721  -0.823   0.024  0.00  0.00    -0.322 N 
ATOM      3  O   UNL d   1      -1.749  -1.041  -1.195  0.00  0.00    -0.266 OA
ATOM      4  H   UNL d   1      -4.329  -1.361   0.633  0.00  0.00     0.169 HD
ENDROOT
BRANCH   2   5
ATOM      5  C   UNL d   1      -3.934   0.570  -0.071  0.00  0.00     0.037 A 
ATOM      6  C   UNL d   1      -3.241   1.385  -0.971  0.00  0.00     0.069 A 
ATOM      7  C   UNL d   1      -3.418   2.766  -0.960  0.00  0.00     0.104 A 
ATOM      8  O   UNL d   1      -2.651   3.484  -1.842  0.00  0.00    -0.346 OA
ATOM      9  C   UNL d   1      -4.327   3.353  -0.081  0.00  0.00     0.102 A 
ATOM     10  C   UNL d   1      -2.552   4.848  -1.428  0.00  0.00     0.202 C 
ATOM     11  C   UNL d   1      -3.931   5.402  -1.108  0.00  0.00     0.202 C 
ATOM     12  O   UNL d   1      -4.535   4.706  -0.009  0.00  0.00    -0.346 OA
ATOM     13  C   UNL d   1      -5.056   2.549   0.792  0.00  0.00     0.042 A 
ATOM     14  C   UNL d   1      -4.867   1.160   0.792  0.00  0.00     0.032 A 
ENDBRANCH   2   5
BRANCH   1  15
ATOM     15  C   UNL d   1      -2.676  -2.962  -0.261  0.00  0.00     0.125 A 
ATOM     16  N   UNL d   1      -3.658  -3.578   0.420  0.00  0.00    -0.256 N 
ATOM     17  O   UNL d   1      -3.303  -4.921   0.450  0.00  0.00    -0.242 OA
ATOM     18  HN  UNL d   1      -4.488  -3.149   0.829  1.00  0.00     0.195 HD
ATOM     19  C   UNL d   1      -2.120  -5.095  -0.199  0.00  0.00     0.075 A 
ATOM     20  C   UNL d   1      -1.678  -3.885  -0.658  0.00  0.00     0.071 A 
ATOM     21  C   UNL d   1      -1.584  -6.465  -0.273  0.00  0.00     0.079 C 
ENDBRANCH   1  15
TORSDOF 2
