REMARK  3 active torsions:
REMARK  status: ('A' for Active; 'I' for Inactive)
REMARK    1  A    between atoms: C_14  and  C_3 
REMARK    2  A    between atoms: C_13  and  C_4 
REMARK    3  A    between atoms: C_7  and  C_15 
ROOT
ATOM      1  C   UNL d   1      -0.070  -2.611  -0.025  0.00  0.00    -0.002 A 
ATOM      2  C   UNL d   1      -0.463  -5.423  -0.023  0.00  0.00    -0.008 A 
ATOM      3  C   UNL d   1       0.846  -3.469   0.603  0.00  0.00     0.015 A 
ATOM      4  C   UNL d   1      -1.176  -3.187  -0.668  0.00  0.00     0.015 A 
ATOM      5  C   UNL d   1       0.651  -4.858   0.612  0.00  0.00     0.014 A 
ATOM      6  C   UNL d   1      -1.369  -4.573  -0.668  0.00  0.00     0.014 A 
ENDROOT
BRANCH   1   7
ATOM      7  C   UNL d   1       0.167  -1.157  -0.013  0.00  0.00     0.084 A 
ATOM      8  N   UNL d   1       1.358  -0.591   0.026  0.00  0.00    -0.352 N 
ATOM      9  C   UNL d   1       1.253   0.794   0.006  0.00  0.00     0.024 A 
ATOM     10  HN  UNL d   1       2.239  -1.103   0.065  1.00  0.00     0.166 HD
ATOM     11  C   UNL d   1      -0.051   1.258   0.003  0.00  0.00     0.077 A 
ATOM     12  S   UNL d   1      -1.152  -0.047   0.002  0.00  0.00    -0.081 SA
BRANCH   9  13
ATOM     13  C   UNL d   1       2.510   1.652  -0.017  0.00  0.00    -0.008 C 
ATOM     14  C   UNL d   1       3.787   0.788  -0.010  0.00  0.00     0.021 C 
ATOM     15  C   UNL d   1       2.530   2.521  -1.291  0.00  0.00     0.021 C 
ATOM     16  C   UNL d   1       2.549   2.573   1.219  0.00  0.00     0.021 C 
ENDBRANCH   9  13
ENDBRANCH   1   7
BRANCH   2  17
ATOM     17  C   UNL d   1      -0.686  -6.862  -0.061  0.00  0.00     0.063 A 
ATOM     18  N   UNL d   1      -1.339  -7.457  -1.137  0.00  0.00    -0.292 N 
ATOM     19  N   UNL d   1      -1.446  -8.767  -0.990  0.00  0.00    -0.061 NA
ATOM     20  HN  UNL d   1      -1.692  -6.943  -1.944  1.00  0.00     0.183 HD
ATOM     21  S   UNL d   1      -0.788  -9.314   0.445  0.00  0.00    -0.010 SA
ATOM     22  C   UNL d   1      -0.311  -7.741   0.941  0.00  0.00     0.096 A 
ENDBRANCH   2  17
TORSDOF 3
