REMARK  4 active torsions:
REMARK  status: ('A' for Active; 'I' for Inactive)
REMARK    1  A    between atoms: C_6  and  C_1 
REMARK    2  A    between atoms: C_3  and  C_2 
REMARK    3  A    between atoms: O_13  and  C_6 
REMARK    4  A    between atoms: C_14  and  O_13 
ROOT
ATOM      1  C   UNL d   1       1.035   0.001   0.085  0.00  0.00     0.120 C 
ATOM      2  C   UNL d   1       0.383  -1.138  -0.226  0.00  0.00     0.048 C 
ATOM      3  C   UNL d   1       0.269   1.180   0.330  0.00  0.00     0.105 C 
ATOM      4  N   UNL d   1      -0.378   2.115   0.552  0.00  0.00    -0.191 NA
ENDROOT
BRANCH   1   5
ATOM      5  C   UNL d   1       2.512   0.089   0.257  0.00  0.00     0.304 C 
ATOM      6  O   UNL d   1       3.247  -0.845   0.536  0.00  0.00    -0.258 OA
BRANCH   5   7
ATOM      7  O   UNL d   1       2.904   1.386   0.151  0.00  0.00    -0.317 OA
BRANCH   7   8
ATOM      8  C   UNL d   1       4.205   1.689   0.675  0.00  0.00     0.174 C 
ATOM      9  C   UNL d   1       4.055   2.012   2.151  0.00  0.00     0.034 C 
ENDBRANCH   7   8
ENDBRANCH   5   7
ENDBRANCH   1   5
BRANCH   2  10
ATOM     10  C   UNL d   1       1.025  -2.380  -0.474  0.00  0.00     0.008 A 
ATOM     11  S   UNL d   1       1.474  -2.815  -2.079  0.00  0.00    -0.078 SA
ATOM     12  C   UNL d   1       2.123  -4.287  -1.558  0.00  0.00     0.075 A 
ATOM     13 CL   UNL d   1       2.849  -5.349  -2.694  0.00  0.00    -0.076 Cl
ATOM     14  C   UNL d   1       1.994  -4.495  -0.210  0.00  0.00     0.033 A 
ATOM     15  C   UNL d   1       1.343  -3.391   0.419  0.00  0.00     0.021 A 
ENDBRANCH   2  10
TORSDOF 4
