REMARK  5 active torsions:
REMARK  status: ('A' for Active; 'I' for Inactive)
REMARK    1  A    between atoms: S_12  and  C_1 
REMARK    2  A    between atoms: C_11  and  C_19 
REMARK       I    between atoms: N_13  and  C_11 
REMARK    3  A    between atoms: C_19  and  S_12 
REMARK    4  A    between atoms: C_20  and  N_13 
REMARK    5  A    between atoms: C_14  and  C_15 
ROOT
ATOM      1  C   UNL d   1      -7.119  -2.971  -0.298  0.00  0.00     0.185 C 
ENDROOT
BRANCH   1   2
ATOM      2  C   UNL d   1      -6.285  -1.727  -0.589  0.00  0.00     0.231 C 
ATOM      3  N   UNL d   1      -6.812  -0.559  -0.052  0.00  0.00    -0.327 N 
ATOM      4  H   UNL d   1      -7.540  -0.679   0.646  0.00  0.00     0.169 HD
ATOM      5  O   UNL d   1      -5.236  -1.813  -1.232  0.00  0.00    -0.272 OA
BRANCH   3   6
ATOM      6  C   UNL d   1      -6.218   0.723  -0.102  0.00  0.00     0.034 A 
ATOM      7  C   UNL d   1      -5.180   1.057  -0.966  0.00  0.00     0.030 A 
ATOM      8  C   UNL d   1      -4.506   2.277  -0.830  0.00  0.00     0.010 A 
ATOM      9  C   UNL d   1      -4.847   3.200   0.173  0.00  0.00    -0.051 A 
ATOM     10  C   UNL d   1      -5.983   2.909   0.943  0.00  0.00     0.010 A 
ATOM     11  C   UNL d   1      -6.665   1.689   0.802  0.00  0.00     0.030 A 
BRANCH   9  12
ATOM     12  C   UNL d   1      -3.934   4.409   0.446  0.00  0.00    -0.024 C 
ATOM     13  C   UNL d   1      -4.405   5.293   1.621  0.00  0.00     0.019 C 
ATOM     14  C   UNL d   1      -2.525   3.885   0.816  0.00  0.00     0.019 C 
ATOM     15  C   UNL d   1      -3.822   5.311  -0.799  0.00  0.00     0.019 C 
ENDBRANCH   9  12
ENDBRANCH   3   6
ENDBRANCH   1   2
BRANCH   1  16
ATOM     16  S   UNL d   1      -6.170  -4.170   0.699  0.00  0.00    -0.085 SA
BRANCH  16  17
ATOM     17  C   UNL d   1      -5.944  -3.221   2.117  0.00  0.00     0.145 A 
ATOM     18  N   UNL d   1      -6.775  -2.322   2.583  0.00  0.00    -0.335 N 
ATOM     19  C   UNL d   1      -6.060  -1.673   3.556  0.00  0.00     0.062 A 
ATOM     20  HN  UNL d   1      -7.735  -2.145   2.289  1.00  0.00     0.168 HD
ATOM     21  C   UNL d   1      -6.431  -0.565   4.329  0.00  0.00     0.057 A 
ATOM     22  C   UNL d   1      -4.787  -2.216   3.696  0.00  0.00     0.062 A 
ATOM     23  C   UNL d   1      -5.476   0.003   5.180  0.00  0.00     0.058 A 
ATOM     24 CL   UNL d   1      -5.950   1.422   6.049  0.00  0.00    -0.082 Cl
ATOM     25  C   UNL d   1      -4.190  -0.550   5.292  0.00  0.00     0.058 A 
ATOM     26  C   UNL d   1      -3.825  -1.694   4.564  0.00  0.00     0.057 A 
ATOM     27 CL   UNL d   1      -2.976   0.157   6.303  0.00  0.00    -0.082 Cl
ATOM     28  N   UNL d   1      -4.764  -3.259   2.800  0.00  0.00    -0.335 N 
ATOM     29  H   UNL d   1      -3.986  -3.863   2.590  0.00  0.00     0.168 HD
ENDBRANCH  16  17
ENDBRANCH   1  16
TORSDOF 5
