REMARK  2 active torsions:
REMARK  status: ('A' for Active; 'I' for Inactive)
REMARK    1  A    between atoms: N_8  and  C_3 
REMARK    2  A    between atoms: N_16  and  C_9 
ROOT
ATOM      1  N   UNL d   1       1.207  -1.432  -0.040  0.00  0.00    -0.176 N 
ATOM      2  HN  UNL d   1       1.153  -2.446  -0.128  1.00  0.00     0.186 HD
ATOM      3  C   UNL d   1       2.397  -0.831   0.093  0.00  0.00     0.681 A 
ATOM      4  C   UNL d   1       0.098  -0.700  -0.055  0.00  0.00     0.136 A 
ATOM      5  C   UNL d   1       0.141   0.673   0.044  0.00  0.00     0.063 A 
ATOM      6  N   UNL d   1       2.531   0.502   0.153  0.00  0.00    -0.201 N 
ATOM      7  HN  UNL d   1       3.449   0.943   0.202  1.00  0.00     0.183 HD
ATOM      8  C   UNL d   1      -1.076   1.354   0.057  0.00  0.00     0.094 A 
ATOM      9  N   UNL d   1      -1.059  -1.344  -0.151  0.00  0.00    -0.337 N 
ATOM     10  HN  UNL d   1      -1.094  -2.359  -0.242  1.00  0.00     0.168 HD
ATOM     11  N   UNL d   1      -2.248   0.720  -0.020  0.00  0.00    -0.342 N 
ATOM     12  HN  UNL d   1      -3.138   1.217   0.000  1.00  0.00     0.167 HD
ATOM     13  C   UNL d   1       1.403   1.231   0.145  0.00  0.00     0.124 A 
ATOM     14  C   UNL d   1      -2.178  -0.610  -0.125  0.00  0.00     0.183 A 
ENDROOT
BRANCH   3  15
ATOM     15  N   UNL d   1       3.531  -1.616   0.178  0.00  0.00    -0.218 N 
ATOM     16  C   UNL d   1       3.382  -2.969   0.708  0.00  0.00     0.141 C 
ATOM     17  C   UNL d   1       4.445  -3.056   1.801  0.00  0.00     0.022 C 
ATOM     18  C   UNL d   1       5.541  -2.135   1.294  0.00  0.00     0.022 C 
ATOM     19  C   UNL d   1       4.758  -0.987   0.658  0.00  0.00     0.141 C 
ENDBRANCH   3  15
BRANCH   8  20
ATOM     20  N   UNL d   1      -1.158   2.742   0.196  0.00  0.00    -0.288 NA
ATOM     21  H   UNL d   1      -0.635   3.235  -0.519  0.00  0.00     0.125 HD
ATOM     22  H   UNL d   1      -2.146   2.991   0.164  0.00  0.00     0.125 HD
ENDBRANCH   8  20
TORSDOF 2
