REMARK  9 active torsions:
REMARK  status: ('A' for Active; 'I' for Inactive)
REMARK    1  A    between atoms: C_1  and  O_7 
REMARK    2  A    between atoms: C_2  and  O_8 
REMARK    3  A    between atoms: C_3  and  O_9 
REMARK    4  A    between atoms: C_6  and  C_14 
REMARK    5  A    between atoms: C_10  and  O_7 
REMARK    6  A    between atoms: C_11  and  O_8 
REMARK    7  A    between atoms: C_12  and  O_9 
REMARK    8  A    between atoms: C_13  and  O_15 
REMARK    9  A    between atoms: O_15  and  C_14 
ROOT
ATOM      1  C   UNL d   1       0.863   1.337  -0.310  0.00  0.00     0.198 C 
ATOM      2  C   UNL d   1       1.521   0.090   0.302  0.00  0.00     0.224 C 
ATOM      3  C   UNL d   1      -0.628   1.348   0.093  0.00  0.00     0.195 C 
ATOM      4  C   UNL d   1       0.744  -1.154  -0.157  0.00  0.00     0.339 C 
ATOM      5  O   UNL d   1      -0.646  -1.102   0.166  0.00  0.00    -0.344 OA
ATOM      6  C   UNL d   1      -1.334   0.047  -0.360  0.00  0.00     0.181 C 
ATOM      7  F   UNL d   1       1.243  -2.251   0.474  0.00  0.00    -0.217 F 
ENDROOT
BRANCH   6   8
ATOM      8  C   UNL d   1      -1.614  -0.122  -1.872  0.00  0.00     0.213 C 
BRANCH   8   9
ATOM      9  O   UNL d   1      -2.277   1.001  -2.468  0.00  0.00    -0.319 OA
BRANCH   9  10
ATOM     10  C   UNL d   1      -3.616   1.068  -2.249  0.00  0.00     0.254 C 
ATOM     11  O   UNL d   1      -4.266   0.252  -1.611  0.00  0.00    -0.266 OA
ATOM     12  C   UNL d   1      -4.201   2.301  -2.864  0.00  0.00     0.126 C 
ENDBRANCH   9  10
ENDBRANCH   8   9
ENDBRANCH   6   8
BRANCH   3  13
ATOM     13  O   UNL d   1      -1.303   2.510  -0.422  0.00  0.00    -0.311 OA
BRANCH  13  14
ATOM     14  C   UNL d   1      -1.140   3.654   0.296  0.00  0.00     0.255 C 
ATOM     15  O   UNL d   1      -0.461   3.758   1.308  0.00  0.00    -0.266 OA
ATOM     16  C   UNL d   1      -1.879   4.787  -0.345  0.00  0.00     0.126 C 
ENDBRANCH  13  14
ENDBRANCH   3  13
BRANCH   1  17
ATOM     17  O   UNL d   1       0.926   1.309  -1.757  0.00  0.00    -0.311 OA
BRANCH  17  18
ATOM     18  C   UNL d   1       2.080   1.699  -2.353  0.00  0.00     0.255 C 
ATOM     19  O   UNL d   1       3.094   2.038  -1.764  0.00  0.00    -0.266 OA
ATOM     20  C   UNL d   1       1.958   1.609  -3.844  0.00  0.00     0.126 C 
ENDBRANCH  17  18
ENDBRANCH   1  17
BRANCH   2  21
ATOM     21  O   UNL d   1       1.460   0.162   1.749  0.00  0.00    -0.308 OA
BRANCH  21  22
ATOM     22  C   UNL d   1       2.414   0.921   2.348  0.00  0.00     0.255 C 
ATOM     23  O   UNL d   1       3.288   1.538   1.757  0.00  0.00    -0.266 OA
ATOM     24  C   UNL d   1       2.230   0.942   3.834  0.00  0.00     0.126 C 
ENDBRANCH  21  22
ENDBRANCH   2  21
TORSDOF 9
