REMARK  2 active torsions:
REMARK  status: ('A' for Active; 'I' for Inactive)
REMARK    1  A    between atoms: N_11  and  C_4 
REMARK    2  A    between atoms: C_21  and  N_15 
ROOT
ATOM      1  N   UNL d   1      -0.177  -0.618   0.005  0.00  0.00    -0.236 N 
ATOM      2  C   UNL d   1       1.014  -1.359   0.024  0.00  0.00     0.105 A 
ATOM      3  C   UNL d   1      -0.150   0.783  -0.004  0.00  0.00     0.129 A 
ATOM      4  C   UNL d   1       2.204  -0.718   0.023  0.00  0.00     0.093 A 
ATOM      5  N   UNL d   1      -1.464  -1.077  -0.005  0.00  0.00    -0.296 N 
ATOM      6  HN  UNL d   1      -1.774  -2.048  -0.015  1.00  0.00     0.187 HD
ATOM      7  C   UNL d   1      -1.460   1.197  -0.005  0.00  0.00     0.076 A 
ATOM      8  N   UNL d   1       1.016   1.491  -0.003  0.00  0.00    -0.348 N 
ATOM      9  HN  UNL d   1       1.033   2.511  -0.014  1.00  0.00     0.167 HD
ATOM     10  C   UNL d   1       0.983  -2.789   0.031  0.00  0.00     0.036 A 
ATOM     11  C   UNL d   1      -2.228   0.019   0.000  0.00  0.00     0.026 A 
ATOM     12  C   UNL d   1       2.104   0.779   0.013  0.00  0.00     0.123 A 
ATOM     13  S   UNL d   1       0.999  -3.655   1.518  0.00  0.00    -0.100 SA
ATOM     14  C   UNL d   1       0.933  -3.659  -1.044  0.00  0.00     0.022 A 
ATOM     15  C   UNL d   1       0.946  -5.166   0.721  0.00  0.00     0.050 A 
ATOM     16  C   UNL d   1       0.915  -5.028  -0.648  0.00  0.00     0.008 A 
ATOM     17  C   UNL d   1      -3.707  -0.094   0.009  0.00  0.00     0.070 C 
ENDROOT
BRANCH   4  18
ATOM     18  N   UNL d   1       3.425  -1.340   0.090  0.00  0.00    -0.297 N 
ATOM     19  N   UNL d   1       4.363  -0.820  -0.548  0.00  0.00    -0.300 N 
ATOM     20  HN  UNL d   1       4.281   0.039  -1.092  1.00  0.00     0.187 HD
ATOM     21  HN  UNL d   1       3.560  -2.190   0.637  1.00  0.00     0.187 HD
BRANCH  19  22
ATOM     22  C   UNL d   1       5.555  -1.572  -0.421  0.00  0.00     0.048 A 
ATOM     23  C   UNL d   1       5.574  -2.974  -0.335  0.00  0.00     0.031 A 
ATOM     24  C   UNL d   1       6.779  -3.671  -0.230  0.00  0.00     0.002 A 
ATOM     25  C   UNL d   1       7.987  -2.977  -0.221  0.00  0.00     0.000 A 
ATOM     26  C   UNL d   1       7.988  -1.587  -0.321  0.00  0.00     0.002 A 
ATOM     27  C   UNL d   1       6.779  -0.891  -0.423  0.00  0.00     0.031 A 
ENDBRANCH  19  22
ENDBRANCH   4  18
TORSDOF 2
