REMARK  5 active torsions:
REMARK  status: ('A' for Active; 'I' for Inactive)
REMARK    1  A    between atoms: C_2  and  C_1 
REMARK       I    between atoms: N_5  and  C_2 
REMARK    2  A    between atoms: C_3  and  C_4 
REMARK    3  A    between atoms: C_7  and  N_5 
REMARK    4  A    between atoms: O_15  and  C_11 
REMARK    5  A    between atoms: C_20  and  O_15 
ROOT
ATOM      1  C   UNL d   1       1.501   3.011   0.350  0.00  0.00     0.258 C 
ATOM      2  N   UNL d   1       0.538   3.782  -0.276  0.00  0.00    -0.323 N 
ATOM      3  O   UNL d   1       1.340   2.270   1.312  0.00  0.00    -0.267 OA
ATOM      4  H   UNL d   1       0.829   4.419  -1.007  0.00  0.00     0.169 HD
ENDROOT
BRANCH   1   5
ATOM      5  C   UNL d   1       2.885   3.152  -0.154  0.00  0.00     0.062 A 
ATOM      6  C   UNL d   1       3.289   3.079  -1.493  0.00  0.00     0.066 A 
ATOM      7  C   UNL d   1       4.655   3.258  -1.782  0.00  0.00     0.034 A 
ATOM      8  C   UNL d   1       5.555   3.448  -0.747  0.00  0.00     0.088 A 
ATOM      9  N   UNL d   1       5.191   3.473   0.549  0.00  0.00    -0.374 N 
ATOM     10  C   UNL d   1       3.872   3.315   0.816  0.00  0.00     0.105 A 
ATOM     11  HN  UNL d   1       5.875   3.605   1.294  1.00  0.00     0.164 HD
BRANCH   6  12
ATOM     12  C   UNL d   1       2.362   2.804  -2.642  0.00  0.00     0.418 C 
ATOM     13  F   UNL d   1       1.191   2.208  -2.309  0.00  0.00    -0.166 F 
ATOM     14  F   UNL d   1       2.027   3.955  -3.290  0.00  0.00    -0.166 F 
ATOM     15  F   UNL d   1       2.926   1.996  -3.583  0.00  0.00    -0.166 F 
ENDBRANCH   6  12
ENDBRANCH   1   5
BRANCH   2  16
ATOM     16  C   UNL d   1      -0.855   3.783  -0.002  0.00  0.00     0.037 A 
ATOM     17  C   UNL d   1      -1.456   2.994   0.985  0.00  0.00     0.066 A 
ATOM     18  C   UNL d   1      -2.834   3.062   1.214  0.00  0.00     0.071 A 
ATOM     19  C   UNL d   1      -3.625   3.882   0.412  0.00  0.00     0.037 A 
ATOM     20  C   UNL d   1      -3.041   4.669  -0.581  0.00  0.00     0.005 A 
ATOM     21  C   UNL d   1      -1.660   4.625  -0.780  0.00  0.00     0.029 A 
BRANCH  18  22
ATOM     22  O   UNL d   1      -3.518   2.372   2.178  0.00  0.00    -0.347 OA
BRANCH  22  23
ATOM     23  C   UNL d   1      -2.805   1.974   3.358  0.00  0.00     0.120 C 
ATOM     24  C   UNL d   1      -2.421   3.188   4.203  0.00  0.00     0.040 C 
ATOM     25  C   UNL d   1      -3.752   1.079   4.157  0.00  0.00     0.040 C 
ENDBRANCH  22  23
ENDBRANCH  18  22
ENDBRANCH   2  16
TORSDOF 5
