REMARK  3 active torsions:
REMARK  status: ('A' for Active; 'I' for Inactive)
REMARK       I    between atoms: N_2  and  C_1 
REMARK    1  A    between atoms: C_3  and  C_1 
REMARK       I    between atoms: C_4  and  N_2 
REMARK    2  A    between atoms: C_8  and  C_4 
REMARK    3  A    between atoms: O_9  and  C_5 
ROOT
ATOM      1  C   UNL d   1       1.025   0.024  -0.179  0.00  0.00     0.261 C 
ATOM      2  N   UNL d   1       0.378  -1.096  -0.668  0.00  0.00    -0.293 N 
ATOM      3  C   UNL d   1       1.009  -2.198  -1.232  0.00  0.00     0.228 C 
ATOM      4  O   UNL d   1       2.235   0.225  -0.205  0.00  0.00    -0.267 OA
ATOM      5  O   UNL d   1       2.219  -2.310  -1.395  0.00  0.00    -0.273 OA
ATOM      6  H   UNL d   1      -0.628  -1.078  -0.706  0.00  0.00     0.172 HD
ENDROOT
BRANCH   1   7
ATOM      7  C   UNL d   1       0.166   1.109   0.369  0.00  0.00     0.065 A 
ATOM      8  C   UNL d   1       0.616   2.438   0.295  0.00  0.00     0.081 A 
ATOM      9  C   UNL d   1      -0.168   3.485   0.772  0.00  0.00     0.037 A 
ATOM     10  C   UNL d   1      -1.403   3.215   1.360  0.00  0.00     0.003 A 
ATOM     11  C   UNL d   1      -1.849   1.897   1.472  0.00  0.00     0.001 A 
ATOM     12  C   UNL d   1      -1.069   0.844   0.980  0.00  0.00     0.020 A 
BRANCH   8  13
ATOM     13  O   UNL d   1       1.830   2.788  -0.236  0.00  0.00    -0.360 OA
ATOM     14  H   UNL d   1       2.366   1.967  -0.334  0.00  0.00     0.217 HD
ENDBRANCH   8  13
ENDBRANCH   1   7
BRANCH   3  15
ATOM     15  C   UNL d   1       0.021  -3.292  -1.665  0.00  0.00     0.078 C 
ATOM     16  C   UNL d   1      -0.751  -3.865  -0.467  0.00  0.00     0.014 C 
ATOM     17  C   UNL d   1       0.111  -4.790   0.389  0.00  0.00     0.001 C 
ATOM     18  C   UNL d   1       0.688  -5.928  -0.442  0.00  0.00     0.000 C 
ATOM     19  C   UNL d   1       1.495  -5.401  -1.623  0.00  0.00     0.001 C 
ATOM     20  C   UNL d   1       0.697  -4.413  -2.475  0.00  0.00     0.014 C 
ENDBRANCH   3  15
TORSDOF 3
