REMARK  2 active torsions:
REMARK  status: ('A' for Active; 'I' for Inactive)
REMARK    1  A    between atoms: C_3  and  C_1 
REMARK    2  A    between atoms: C_6  and  C_3 
ROOT
ATOM      1  C   UNL d   1       2.925   1.191  -0.089  0.00  0.00     0.184 C 
ATOM      2  O   UNL d   1       4.145   1.094  -0.037  0.00  0.00    -0.288 OA
ENDROOT
BRANCH   1   3
ATOM      3  C   UNL d   1       2.017   0.018   0.044  0.00  0.00     0.086 C 
ATOM      4  C   UNL d   1       2.219  -1.216  -0.442  0.00  0.00     0.049 C 
ATOM      5  N   UNL d   1       1.333  -2.264  -0.244  0.00  0.00    -0.287 NA
ATOM      6  S   UNL d   1       3.610  -1.676  -1.407  0.00  0.00    -0.117 SA
ATOM      7  C   UNL d   1       1.903  -3.568  -0.580  0.00  0.00     0.103 C 
ATOM      8  H   UNL d   1       0.807  -2.216   0.623  0.00  0.00     0.128 HD
ATOM      9  C   UNL d   1       2.909  -3.339  -1.714  0.00  0.00     0.095 C 
ENDBRANCH   1   3
BRANCH   1  10
ATOM     10  C   UNL d   1       2.296   2.542  -0.166  0.00  0.00     0.014 A 
ATOM     11  C   UNL d   1       3.071   3.653   0.199  0.00  0.00     0.017 A 
ATOM     12  C   UNL d   1       2.534   4.942   0.149  0.00  0.00     0.025 A 
ATOM     13  C   UNL d   1       1.220   5.125  -0.275  0.00  0.00     0.034 A 
ATOM     14  C   UNL d   1       0.442   4.032  -0.655  0.00  0.00     0.025 A 
ATOM     15 CL   UNL d   1       0.555   6.710  -0.337  0.00  0.00    -0.084 Cl
ATOM     16  C   UNL d   1       0.979   2.740  -0.606  0.00  0.00     0.017 A 
ENDBRANCH   1  10
TORSDOF 2
