REMARK  3 active torsions:
REMARK  status: ('A' for Active; 'I' for Inactive)
REMARK    1  A    between atoms: C_7  and  C_10 
REMARK    2  A    between atoms: C_17  and  N_11 
REMARK    3  A    between atoms: C_18  and  C_12 
ROOT
ATOM      1  C   UNL d   1       2.010  -3.149   0.434  0.00  0.00     0.011 A 
ATOM      2  N   UNL d   1       3.989  -4.157  -0.016  0.00  0.00    -0.293 N 
ATOM      3  HN  UNL d   1       4.724  -4.717  -0.449  1.00  0.00     0.187 HD
ATOM      4  N   UNL d   1       4.094  -3.381   1.096  0.00  0.00    -0.266 N 
ATOM      5  C   UNL d   1       2.715  -4.033  -0.425  0.00  0.00     0.070 A 
ATOM      6  C   UNL d   1       2.889  -2.807   1.428  0.00  0.00     0.130 A 
ENDROOT
BRANCH   1   7
ATOM      7  C   UNL d   1       0.699  -2.609   0.315  0.00  0.00     0.038 C 
ATOM      8  C   UNL d   1       0.381  -1.433  -0.268  0.00  0.00     0.101 C 
ATOM      9  C   UNL d   1      -1.029  -1.007  -0.219  0.00  0.00     0.267 C 
ATOM     10  C   UNL d   1       1.393  -0.557  -0.900  0.00  0.00     0.267 C 
ATOM     11  N   UNL d   1      -1.257   0.309  -0.579  0.00  0.00    -0.270 N 
ATOM     12  O   UNL d   1      -1.914  -1.780   0.141  0.00  0.00    -0.267 OA
ATOM     13  C   UNL d   1      -2.622   0.807  -0.538  0.00  0.00     0.164 C 
ATOM     14  C   UNL d   1      -0.276   1.233  -0.909  0.00  0.00     0.333 C 
ATOM     15  N   UNL d   1       1.023   0.769  -1.000  0.00  0.00    -0.270 N 
ATOM     16  O   UNL d   1      -0.554   2.416  -1.128  0.00  0.00    -0.246 OA
ATOM     17  C   UNL d   1       2.036   1.720  -1.427  0.00  0.00     0.164 C 
ATOM     18  O   UNL d   1       2.469  -0.978  -1.314  0.00  0.00    -0.267 OA
ENDBRANCH   1   7
BRANCH   5  19
ATOM     19  C   UNL d   1       2.214  -4.716  -1.623  0.00  0.00    -0.007 A 
ATOM     20  C   UNL d   1       0.909  -5.233  -1.658  0.00  0.00     0.014 A 
ATOM     21  C   UNL d   1       0.412  -5.844  -2.811  0.00  0.00     0.001 A 
ATOM     22  C   UNL d   1       1.219  -5.959  -3.939  0.00  0.00     0.000 A 
ATOM     23  C   UNL d   1       2.524  -5.470  -3.913  0.00  0.00     0.001 A 
ATOM     24  C   UNL d   1       3.020  -4.851  -2.760  0.00  0.00     0.014 A 
ENDBRANCH   5  19
BRANCH   4  25
ATOM     25  C   UNL d   1       5.333  -3.228   1.784  0.00  0.00     0.056 A 
ATOM     26  C   UNL d   1       5.397  -2.562   3.018  0.00  0.00     0.031 A 
ATOM     27  C   UNL d   1       6.617  -2.436   3.686  0.00  0.00     0.002 A 
ATOM     28  C   UNL d   1       7.780  -2.958   3.123  0.00  0.00     0.000 A 
ATOM     29  C   UNL d   1       7.727  -3.605   1.890  0.00  0.00     0.002 A 
ATOM     30  C   UNL d   1       6.508  -3.746   1.222  0.00  0.00     0.031 A 
ENDBRANCH   4  25
TORSDOF 3
