REMARK  3 active torsions:
REMARK  status: ('A' for Active; 'I' for Inactive)
REMARK    1  A    between atoms: C_6  and  C_1 
REMARK    2  A    between atoms: C_17  and  C_4 
REMARK       I    between atoms: N_18  and  C_6 
REMARK    3  A    between atoms: C_16  and  N_18 
ROOT
ATOM      1  C   UNL d   1       2.449   1.571   0.041  0.00  0.00     0.273 C 
ATOM      2  N   UNL d   1       2.201   2.931   0.060  0.00  0.00    -0.322 N 
ATOM      3  O   UNL d   1       3.559   1.046   0.045  0.00  0.00    -0.266 OA
ATOM      4  H   UNL d   1       1.228   3.189   0.203  0.00  0.00     0.169 HD
ENDROOT
BRANCH   1   5
ATOM      5  C   UNL d   1       1.238   0.743   0.025  0.00  0.00     0.108 A 
ATOM      6  N   UNL d   1      -0.060   1.268  -0.018  0.00  0.00    -0.345 N 
ATOM      7  C   UNL d   1      -0.944   0.283  -0.071  0.00  0.00     0.091 A 
ATOM      8  HN  UNL d   1      -0.290   2.262  -0.010  1.00  0.00     0.167 HD
ATOM      9  S   UNL d   1      -0.266  -1.304  -0.065  0.00  0.00    -0.080 SA
ATOM     10  C   UNL d   1       1.298  -0.639   0.025  0.00  0.00     0.087 A 
BRANCH   7  11
ATOM     11  C   UNL d   1      -2.378   0.484  -0.114  0.00  0.00     0.038 A 
ATOM     12  S   UNL d   1      -3.064   2.060  -0.115  0.00  0.00    -0.099 SA
ATOM     13  C   UNL d   1      -4.661   1.449  -0.122  0.00  0.00     0.050 A 
ATOM     14  C   UNL d   1      -4.690   0.075  -0.143  0.00  0.00     0.008 A 
ATOM     15  C   UNL d   1      -3.377  -0.480  -0.149  0.00  0.00     0.022 A 
ENDBRANCH   7  11
ENDBRANCH   1   5
BRANCH   2  16
ATOM     16  C   UNL d   1       3.160   3.960  -0.115  0.00  0.00     0.037 A 
ATOM     17  C   UNL d   1       4.466   3.685  -0.571  0.00  0.00     0.061 A 
ATOM     18  C   UNL d   1       5.319   4.794  -0.797  0.00  0.00     0.069 A 
ATOM     19  N   UNL d   1       6.575   4.738  -1.268  0.00  0.00    -0.310 N 
ATOM     20  C   UNL d   1       4.850   6.193  -0.527  0.00  0.00     0.067 A 
ATOM     21  S   UNL d   1       7.109   6.308  -1.365  0.00  0.00     0.068 SA
ATOM     22  HN  UNL d   1       7.098   3.899  -1.518  1.00  0.00     0.176 HD
ATOM     23  N   UNL d   1       5.775   7.125  -0.801  0.00  0.00    -0.310 N 
ATOM     24  HN  UNL d   1       5.679   8.134  -0.686  1.00  0.00     0.176 HD
ATOM     25  C   UNL d   1       3.543   6.431  -0.038  0.00  0.00     0.035 A 
ATOM     26  C   UNL d   1       2.729   5.290   0.141  0.00  0.00     0.032 A 
ENDBRANCH   2  16
TORSDOF 3
