REMARK  5 active torsions:
REMARK  status: ('A' for Active; 'I' for Inactive)
REMARK    1  A    between atoms: N_2  and  C_1 
REMARK    2  A    between atoms: N_3  and  C_1 
REMARK    3  A    between atoms: C_8  and  N_3 
REMARK    4  A    between atoms: C_5  and  C_9 
REMARK    5  A    between atoms: O_16  and  C_11 
ROOT
ATOM      1  N   UNL d   1      -0.173  -0.820   0.223  0.00  0.00    -0.358 N 
ATOM      2  C   UNL d   1      -1.095  -0.679  -0.898  0.00  0.00     0.126 C 
ATOM      3  C   UNL d   1       0.358  -2.178   0.354  0.00  0.00     0.126 C 
ATOM      4  C   UNL d   1      -1.866  -3.128  -0.555  0.00  0.00     0.024 C 
ATOM      5  C   UNL d   1      -2.277  -1.644  -0.747  0.00  0.00     0.029 C 
ATOM      6  C   UNL d   1      -0.749  -3.220   0.509  0.00  0.00     0.029 C 
ENDROOT
BRANCH   1   7
ATOM      7  C   UNL d   1       0.726   0.208   0.506  0.00  0.00     0.174 C 
ATOM      8  S   UNL d   1       1.768   0.911  -0.600  0.00  0.00    -0.041 SA
BRANCH   7   9
ATOM      9  N   UNL d   1       0.823   0.549   1.836  0.00  0.00    -0.333 N 
ATOM     10  H   UNL d   1       1.698   1.000   2.090  0.00  0.00     0.168 HD
BRANCH   9  11
ATOM     11  C   UNL d   1      -0.238   0.722   2.753  0.00  0.00     0.035 A 
ATOM     12  C   UNL d   1      -1.569   0.822   2.348  0.00  0.00     0.053 A 
ATOM     13  C   UNL d   1      -2.571   1.118   3.267  0.00  0.00     0.036 A 
ATOM     14 CL   UNL d   1      -4.195   1.299   2.733  0.00  0.00    -0.084 Cl
ATOM     15  C   UNL d   1      -2.261   1.300   4.607  0.00  0.00     0.024 A 
ATOM     16  C   UNL d   1      -0.931   1.197   5.022  0.00  0.00     0.004 A 
ATOM     17  C   UNL d   1       0.080   0.917   4.098  0.00  0.00     0.029 A 
ENDBRANCH   9  11
ENDBRANCH   7   9
ENDBRANCH   1   7
BRANCH   4  18
ATOM     18  C   UNL d   1      -1.613  -3.923  -1.847  0.00  0.00    -0.021 A 
ATOM     19  C   UNL d   1      -1.682  -5.338  -1.882  0.00  0.00     0.074 A 
ATOM     20  C   UNL d   1      -1.473  -6.028  -3.093  0.00  0.00     0.037 A 
ATOM     21  C   UNL d   1      -1.294  -5.340  -4.286  0.00  0.00     0.003 A 
ATOM     22  C   UNL d   1      -1.279  -3.958  -4.281  0.00  0.00     0.001 A 
ATOM     23  C   UNL d   1      -1.419  -3.263  -3.076  0.00  0.00     0.010 A 
BRANCH  19  24
ATOM     24  O   UNL d   1      -1.983  -6.002  -0.714  0.00  0.00    -0.355 OA
ATOM     25  C   UNL d   1      -2.521  -7.317  -0.875  0.00  0.00     0.210 C 
ENDBRANCH  19  24
ENDBRANCH   4  18
TORSDOF 5
