REMARK  3 active torsions:
REMARK  status: ('A' for Active; 'I' for Inactive)
REMARK    1  A    between atoms: C_4  and  C_1 
REMARK    2  A    between atoms: N_6  and  C_2 
REMARK       I    between atoms: C_3  and  N_5 
REMARK       I    between atoms: N_7  and  C_3 
REMARK    3  A    between atoms: C_19  and  N_7 
ROOT
ATOM      1  C   UNL d   1      -3.037   6.167  -0.210  0.00  0.00     0.318 C 
ATOM      2  N   UNL d   1      -2.154   5.122  -0.044  0.00  0.00    -0.331 N 
ATOM      3  N   UNL d   1      -0.857   2.601  -0.192  0.00  0.00    -0.363 N 
ATOM      4  N   UNL d   1      -3.812   6.466   0.879  0.00  0.00    -0.338 N 
ATOM      5  O   UNL d   1      -3.117   6.800  -1.261  0.00  0.00    -0.247 OA
ATOM      6  C   UNL d   1      -1.214   4.826  -1.137  0.00  0.00     0.147 C 
ATOM      7  C   UNL d   1      -1.929   4.319   1.174  0.00  0.00     0.147 C 
ATOM      8  C   UNL d   1      -1.891   2.812   0.839  0.00  0.00     0.144 C 
ATOM      9  C   UNL d   1      -1.177   3.314  -1.446  0.00  0.00     0.144 C 
ATOM     10  H   UNL d   1      -4.067   5.664   1.432  0.00  0.00     0.164 HD
ENDROOT
BRANCH   3  11
ATOM     11  C   UNL d   1      -0.281   1.345  -0.251  0.00  0.00     0.118 A 
ATOM     12  C   UNL d   1       1.009   1.139  -0.749  0.00  0.00     0.091 A 
ATOM     13  C   UNL d   1       1.552  -0.164  -0.685  0.00  0.00     0.021 A 
ATOM     14  C   UNL d   1       0.837  -1.200  -0.111  0.00  0.00     0.018 A 
ATOM     15  C   UNL d   1      -0.415  -0.909   0.372  0.00  0.00     0.089 A 
ATOM     16  N   UNL d   1      -0.975   0.323   0.313  0.00  0.00    -0.352 N 
ATOM     17  HN  UNL d   1      -1.910   0.481   0.690  1.00  0.00     0.166 HD
BRANCH  12  18
ATOM     18  C   UNL d   1       1.885   2.220  -1.301  0.00  0.00     0.421 C 
ATOM     19  F   UNL d   1       1.561   3.504  -0.981  0.00  0.00    -0.166 F 
ATOM     20  F   UNL d   1       3.186   2.085  -0.897  0.00  0.00    -0.166 F 
ATOM     21  F   UNL d   1       1.935   2.185  -2.664  0.00  0.00    -0.166 F 
ENDBRANCH  12  18
ENDBRANCH   3  11
BRANCH   4  22
ATOM     22  C   UNL d   1      -4.824   7.524   0.833  0.00  0.00     0.086 C 
ATOM     23  C   UNL d   1      -4.224   8.923   0.621  0.00  0.00     0.025 C 
ATOM     24  C   UNL d   1      -3.353   9.357   1.797  0.00  0.00     0.002 C 
ATOM     25  C   UNL d   1      -4.118   9.299   3.116  0.00  0.00     0.000 C 
ATOM     26  C   UNL d   1      -4.810   7.957   3.341  0.00  0.00     0.002 C 
ATOM     27  C   UNL d   1      -5.640   7.518   2.134  0.00  0.00     0.025 C 
ENDBRANCH   4  22
TORSDOF 3
