REMARK  3 active torsions:
REMARK  status: ('A' for Active; 'I' for Inactive)
REMARK    1  A    between atoms: C_2  and  C_1 
REMARK       I    between atoms: N_3  and  C_1 
REMARK    2  A    between atoms: C_19  and  N_3 
REMARK    3  A    between atoms: C_7  and  C_19 
ROOT
ATOM      1  C   UNL d   1       0.225   1.007  -0.953  0.00  0.00     0.034 A 
ATOM      2  C   UNL d   1      -0.915   1.727  -0.578  0.00  0.00     0.049 A 
ATOM      3  C   UNL d   1      -1.618   2.486  -1.503  0.00  0.00     0.060 A 
ATOM      4  N   UNL d   1      -2.734   3.127  -1.108  0.00  0.00    -0.363 N 
ATOM      5  HN  UNL d   1      -3.058   3.097  -0.142  1.00  0.00     0.165 HD
ATOM      6  N   UNL d   1      -1.835   3.253  -3.779  0.00  0.00    -0.363 N 
ATOM      7  HN  UNL d   1      -1.508   3.314  -4.743  1.00  0.00     0.165 HD
ATOM      8  C   UNL d   1      -1.164   2.550  -2.846  0.00  0.00     0.059 A 
ATOM      9  C   UNL d   1       0.673   1.070  -2.272  0.00  0.00     0.019 A 
ATOM     10  C   UNL d   1      -0.018   1.851  -3.202  0.00  0.00     0.033 A 
ATOM     11  C   UNL d   1      -3.402   3.812  -2.062  0.00  0.00     0.105 A 
ATOM     12  C   UNL d   1      -2.963   3.872  -3.368  0.00  0.00     0.105 A 
ENDROOT
BRANCH   1  13
ATOM     13  C   UNL d   1       0.917   0.101   0.001  0.00  0.00     0.252 C 
ATOM     14  N   UNL d   1       0.873   0.462   1.327  0.00  0.00    -0.352 N 
ATOM     15  H   UNL d   1       0.595   1.399   1.587  0.00  0.00     0.163 HD
ATOM     16  O   UNL d   1       1.489  -0.902  -0.409  0.00  0.00    -0.268 OA
BRANCH  14  17
ATOM     17  C   UNL d   1       1.489  -0.367   2.336  0.00  0.00     0.169 C 
BRANCH  17  18
ATOM     18  C   UNL d   1       1.306   0.302   3.659  0.00  0.00     0.000 A 
ATOM     19  S   UNL d   1       2.501   1.381   4.248  0.00  0.00    -0.105 SA
ATOM     20  C   UNL d   1       1.596   1.715   5.659  0.00  0.00     0.050 A 
ATOM     21  C   UNL d   1       0.410   1.017   5.690  0.00  0.00     0.008 A 
ATOM     22  C   UNL d   1       0.243   0.197   4.536  0.00  0.00     0.017 A 
ENDBRANCH  17  18
ENDBRANCH  14  17
ENDBRANCH   1  13
TORSDOF 3
