REMARK  4 active torsions:
REMARK  status: ('A' for Active; 'I' for Inactive)
REMARK    1  A    between atoms: C_13  and  N_1 
REMARK    2  A    between atoms: C_14  and  C_2 
REMARK    3  A    between atoms: S_16  and  C_5 
REMARK    4  A    between atoms: N_8  and  C_15 
ROOT
ATOM      1  N   UNL d   1      -0.287  -1.127  -0.455  0.00  0.00    -0.275 N 
ATOM      2  C   UNL d   1       0.950  -0.633  -0.005  0.00  0.00     0.139 A 
ATOM      3  N   UNL d   1       0.771   0.588   0.473  0.00  0.00    -0.282 N 
ATOM      4  HN  UNL d   1       1.488   1.160   0.920  1.00  0.00     0.188 HD
ATOM      5  C   UNL d   1      -1.151  -0.050  -0.283  0.00  0.00     0.165 A 
ATOM      6  N   UNL d   1      -0.523   0.957   0.273  0.00  0.00    -0.278 N 
ATOM      7  HN  UNL d   1      -0.934   1.859   0.513  1.00  0.00     0.189 HD
ENDROOT
BRANCH   2   8
ATOM      8  C   UNL d   1       2.281  -1.257  -0.081  0.00  0.00     0.010 A 
ATOM      9  C   UNL d   1       2.665  -2.105  -1.126  0.00  0.00     0.017 A 
ATOM     10  C   UNL d   1       3.915  -2.730  -1.122  0.00  0.00     0.031 A 
ATOM     11  C   UNL d   1       4.854  -2.445  -0.128  0.00  0.00     0.039 A 
ATOM     12  C   UNL d   1       4.515  -1.528   0.874  0.00  0.00     0.031 A 
ATOM     13  C   UNL d   1       3.233  -0.958   0.903  0.00  0.00     0.017 A 
BRANCH  11  14
ATOM     14  N   UNL d   1       6.138  -3.071  -0.147  0.00  0.00    -0.320 N 
ATOM     15  C   UNL d   1       6.870  -3.509   0.968  0.00  0.00     0.013 A 
ATOM     16  C   UNL d   1       8.055  -4.063   0.521  0.00  0.00     0.027 A 
ATOM     17  C   UNL d   1       6.426  -3.482   2.393  0.00  0.00     0.068 C 
ATOM     18  C   UNL d   1       8.065  -4.001  -0.879  0.00  0.00     0.027 A 
ATOM     19  C   UNL d   1       6.897  -3.381  -1.283  0.00  0.00     0.013 A 
ATOM     20  C   UNL d   1       6.566  -3.018  -2.695  0.00  0.00     0.068 C 
ENDBRANCH  11  14
ENDBRANCH   2   8
BRANCH   1  21
ATOM     21  C   UNL d   1      -0.578  -2.435  -0.956  0.00  0.00     0.043 A 
ATOM     22  C   UNL d   1       0.052  -3.562  -0.401  0.00  0.00     0.031 A 
ATOM     23  C   UNL d   1      -0.167  -4.835  -0.939  0.00  0.00     0.021 A 
ATOM     24  C   UNL d   1      -1.050  -4.995  -2.002  0.00  0.00     0.011 A 
ATOM     25  C   UNL d   1      -1.706  -3.893  -2.542  0.00  0.00     0.021 A 
ATOM     26 BR   UNL d   1      -1.351  -6.715  -2.724  0.00  0.00    -0.051 Br
ATOM     27  C   UNL d   1      -1.457  -2.613  -2.034  0.00  0.00     0.031 A 
ENDBRANCH   1  21
BRANCH   5  28
ATOM     28  S   UNL d   1      -2.865  -0.009  -0.557  0.00  0.00    -0.105 SA
ATOM     29  H   UNL d   1      -3.133  -1.319  -0.594  0.00  0.00     0.110 HD
ENDBRANCH   5  28
TORSDOF 4
