REMARK  3 active torsions:
REMARK  status: ('A' for Active; 'I' for Inactive)
REMARK    1  A    between atoms: N_4  and  C_1 
REMARK       I    between atoms: C_6  and  N_4 
REMARK    2  A    between atoms: C_7  and  C_5 
REMARK    3  A    between atoms: C_14  and  C_6 
ROOT
ATOM      1  C   UNL d   1       0.187  -1.197  -0.002  0.00  0.00     0.153 A 
ATOM      2  N   UNL d   1       1.323  -0.588  -0.285  0.00  0.00    -0.335 N 
ATOM      3  HN  UNL d   1       2.172  -1.064  -0.591  1.00  0.00     0.168 HD
ATOM      4  C   UNL d   1       1.211   0.780  -0.112  0.00  0.00     0.058 A 
ATOM      5  S   UNL d   1      -1.046  -0.146   0.556  0.00  0.00    -0.063 SA
ATOM      6  C   UNL d   1      -0.015   1.203   0.350  0.00  0.00     0.084 A 
ENDROOT
BRANCH   1   7
ATOM      7  N   UNL d   1       0.035  -2.591  -0.114  0.00  0.00    -0.298 N 
ATOM      8  C   UNL d   1      -1.227  -3.202   0.019  0.00  0.00     0.259 C 
ATOM      9  O   UNL d   1      -2.308  -2.627   0.137  0.00  0.00    -0.267 OA
ATOM     10  C   UNL d   1       1.239  -3.353  -0.461  0.00  0.00     0.161 C 
BRANCH   8  11
ATOM     11  C   UNL d   1      -1.347  -4.691  -0.045  0.00  0.00     0.032 A 
ATOM     12  C   UNL d   1      -0.517  -5.559   0.678  0.00  0.00     0.020 A 
ATOM     13  C   UNL d   1      -0.681  -6.943   0.564  0.00  0.00     0.043 A 
ATOM     14  C   UNL d   1      -1.705  -7.456  -0.228  0.00  0.00     0.116 A 
ATOM     15  C   UNL d   1      -2.575  -6.609  -0.903  0.00  0.00     0.043 A 
ATOM     16  F   UNL d   1      -1.862  -8.781  -0.325  0.00  0.00    -0.206 F 
ATOM     17  C   UNL d   1      -2.396  -5.228  -0.814  0.00  0.00     0.020 A 
ENDBRANCH   8  11
ENDBRANCH   1   7
BRANCH   4  18
ATOM     18  C   UNL d   1       2.367   1.685  -0.418  0.00  0.00     0.033 A 
ATOM     19  S   UNL d   1       2.394   3.377  -0.166  0.00  0.00    -0.076 SA
ATOM     20  C   UNL d   1       3.983   3.486  -0.739  0.00  0.00     0.075 A 
ATOM     21 CL   UNL d   1       4.776   5.008  -0.774  0.00  0.00    -0.076 Cl
ATOM     22  C   UNL d   1       4.505   2.283  -1.139  0.00  0.00     0.033 A 
ATOM     23  C   UNL d   1       3.559   1.230  -0.949  0.00  0.00     0.023 A 
ENDBRANCH   4  18
TORSDOF 3
