REMARK  2 active torsions:
REMARK  status: ('A' for Active; 'I' for Inactive)
REMARK    1  A    between atoms: C_6  and  C_1 
REMARK    2  A    between atoms: C_9  and  C_4 
REMARK       I    between atoms: N_14  and  C_9 
ROOT
ATOM      1  C   UNL d   1      -0.436   1.675  -0.595  0.00  0.00     0.114 C 
ATOM      2  C   UNL d   1      -0.580   2.780   0.164  0.00  0.00     0.061 C 
ATOM      3  C   UNL d   1       0.612   1.511  -1.543  0.00  0.00     0.105 C 
ATOM      4  N   UNL d   1       1.410   1.305  -2.362  0.00  0.00    -0.191 NA
ENDROOT
BRANCH   1   5
ATOM      5  C   UNL d   1      -1.455   0.597  -0.451  0.00  0.00     0.260 C 
ATOM      6  O   UNL d   1      -2.430   0.695   0.288  0.00  0.00    -0.267 OA
ATOM      7  N   UNL d   1      -1.263  -0.539  -1.180  0.00  0.00    -0.365 N 
ATOM      8  H   UNL d   1      -0.479  -0.709  -1.800  0.00  0.00     0.159 HD
ATOM      9  H   UNL d   1      -1.942  -1.282  -1.075  0.00  0.00     0.159 HD
ENDBRANCH   1   5
BRANCH   2  10
ATOM     10  C   UNL d   1       0.326   3.889   0.189  0.00  0.00     0.073 A 
ATOM     11  N   UNL d   1       1.647   3.736   0.023  0.00  0.00    -0.298 N 
ATOM     12  N   UNL d   1       2.137   4.983   0.052  0.00  0.00    -0.306 N 
ATOM     13  HN  UNL d   1       2.163   2.865  -0.099  1.00  0.00     0.187 HD
ATOM     14  C   UNL d   1       3.549   5.195  -0.155  0.00  0.00     0.177 C 
ATOM     15  C   UNL d   1       1.188   5.936   0.267  0.00  0.00     0.135 A 
ATOM     16  C   UNL d   1      -0.003   5.256   0.383  0.00  0.00     0.079 A 
ATOM     17 CL   UNL d   1      -1.536   5.930   0.645  0.00  0.00    -0.080 Cl
ENDBRANCH   2  10
TORSDOF 2
