REMARK  6 active torsions:
REMARK  status: ('A' for Active; 'I' for Inactive)
REMARK    1  A    between atoms: C_2  and  C_1 
REMARK       I    between atoms: N_9  and  C_2 
REMARK    2  A    between atoms: C_3  and  N_10 
REMARK    3  A    between atoms: N_4  and  C_13 
REMARK    4  A    between atoms: O_14  and  C_12 
REMARK    5  A    between atoms: C_24  and  O_14 
REMARK    6  A    between atoms: O_34  and  C_25 
ROOT
ATOM      1  C   UNL d   1       2.723  -0.826  -0.566  0.00  0.00     0.256 C 
ATOM      2  N   UNL d   1       3.325   0.407  -0.242  0.00  0.00    -0.345 N 
ATOM      3  N   UNL d   1       4.198   3.183   0.458  0.00  0.00     0.105 N 
ATOM      4  O   UNL d   1       1.547  -1.056  -0.280  0.00  0.00    -0.267 OA
ATOM      5  C   UNL d   1       2.574   1.263   0.677  0.00  0.00     0.156 C 
ATOM      6  C   UNL d   1       4.721   0.831  -0.472  0.00  0.00     0.156 C 
ATOM      7  C   UNL d   1       4.943   2.368  -0.517  0.00  0.00     0.293 C 
ATOM      8  C   UNL d   1       2.785   2.752   0.376  0.00  0.00     0.293 C 
ENDROOT
BRANCH   1   9
ATOM      9  C   UNL d   1       3.488  -1.956  -1.175  0.00  0.00     0.068 A 
ATOM     10  C   UNL d   1       4.763  -2.247  -0.669  0.00  0.00     0.056 A 
ATOM     11  C   UNL d   1       5.470  -3.367  -1.120  0.00  0.00     0.104 A 
ATOM     12  C   UNL d   1       4.879  -4.261  -2.014  0.00  0.00     0.039 A 
ATOM     13  C   UNL d   1       3.580  -4.018  -2.473  0.00  0.00     0.041 A 
ATOM     14  C   UNL d   1       2.881  -2.858  -2.090  0.00  0.00     0.091 A 
BRANCH  11  15
ATOM     15  N   UNL d   1       6.831  -3.599  -0.628  0.00  0.00    -0.116 N 
ATOM     16  O   UNL d   1       7.378  -2.680  -0.006  0.00  0.00    -0.532 OA
ATOM     17  O   UNL d   1       7.353  -4.699  -0.874  0.00  0.00    -0.532 OA
ENDBRANCH  11  15
BRANCH  14  18
ATOM     18  O   UNL d   1       1.591  -2.581  -2.512  0.00  0.00    -0.310 OA
BRANCH  18  19
ATOM     19  C   UNL d   1       0.984  -3.323  -3.500  0.00  0.00     0.076 A 
ATOM     20  C   UNL d   1      -0.264  -3.887  -3.215  0.00  0.00     0.040 A 
ATOM     21  C   UNL d   1      -0.992  -4.564  -4.206  0.00  0.00     0.039 A 
ATOM     22  C   UNL d   1      -0.474  -4.672  -5.499  0.00  0.00     0.068 A 
ATOM     23  C   UNL d   1       0.769  -4.097  -5.779  0.00  0.00     0.039 A 
ATOM     24  C   UNL d   1       1.490  -3.409  -4.795  0.00  0.00     0.040 A 
BRANCH  22  25
ATOM     25  O   UNL d   1      -1.071  -5.294  -6.564  0.00  0.00    -0.356 OA
ATOM     26  C   UNL d   1      -2.339  -5.897  -6.339  0.00  0.00     0.210 C 
ENDBRANCH  22  25
ENDBRANCH  18  19
ENDBRANCH  14  18
ENDBRANCH   1   9
BRANCH   3  27
ATOM     27  C   UNL d   1       4.718   3.262   1.850  0.00  0.00     0.290 C 
ATOM     28  C   UNL d   1       4.041   4.443   2.587  0.00  0.00    -0.009 C 
ATOM     29  C   UNL d   1       4.937   5.522   2.715  0.00  0.00    -0.017 C 
ATOM     30  C   UNL d   1       2.750   4.555   3.084  0.00  0.00     0.010 C 
ATOM     31  C   UNL d   1       4.500   6.771   3.127  0.00  0.00     0.013 C 
ATOM     32  C   UNL d   1       6.271   5.035   2.461  0.00  0.00    -0.017 A 
ATOM     33  C   UNL d   1       3.163   6.916   3.499  0.00  0.00     0.001 C 
ATOM     34  C   UNL d   1       2.308   5.807   3.525  0.00  0.00     0.001 C 
ATOM     35  C   UNL d   1       6.192   3.705   1.982  0.00  0.00    -0.009 A 
ATOM     36  C   UNL d   1       7.483   5.597   2.844  0.00  0.00     0.013 A 
ATOM     37  C   UNL d   1       7.345   2.935   1.885  0.00  0.00     0.010 A 
ATOM     38  C   UNL d   1       8.567   3.499   2.277  0.00  0.00     0.001 A 
ATOM     39  C   UNL d   1       8.635   4.816   2.759  0.00  0.00     0.001 A 
ENDBRANCH   3  27
TORSDOF 6
