REMARK  5 active torsions:
REMARK  status: ('A' for Active; 'I' for Inactive)
REMARK    1  A    between atoms: C_3  and  C_1 
REMARK    2  A    between atoms: C_7  and  C_1 
REMARK    3  A    between atoms: C_10  and  C_2 
REMARK    4  A    between atoms: N_4  and  C_3 
REMARK    5  A    between atoms: O_16  and  C_11 
ROOT
ATOM      1  C   UNL d   1       1.073   0.068  -0.006  0.00  0.00     0.054 C 
ATOM      2  C   UNL d   1       0.413  -1.109   0.032  0.00  0.00     0.035 C 
ENDROOT
BRANCH   1   3
ATOM      3  C   UNL d   1       2.593   0.068  -0.006  0.00  0.00    -0.035 C 
BRANCH   3   4
ATOM      4  N   UNL d   1       3.854   0.068  -0.006  0.00  0.00    -0.365 N 
ATOM      5  HN2 UNL d   1       2.834   0.068  -0.006  1.00  0.00     0.165 HD
ATOM      6  HN1 UNL d   1       4.874   0.068  -0.006  1.00  0.00     0.165 HD
ENDBRANCH   3   4
ENDBRANCH   1   3
BRANCH   1   7
ATOM      7  C   UNL d   1       0.360   1.371  -0.023  0.00  0.00     0.051 A 
ATOM      8  N   UNL d   1      -0.998   1.321  -0.017  0.00  0.00    -0.365 N 
ATOM      9  C   UNL d   1      -1.679   2.489  -0.007  0.00  0.00     0.088 A 
ATOM     10  HN  UNL d   1      -1.489   0.427  -0.019  1.00  0.00     0.165 HD
ATOM     11  C   UNL d   1      -1.075   3.732  -0.003  0.00  0.00     0.017 A 
ATOM     12  C   UNL d   1       0.311   3.781  -0.012  0.00  0.00     0.004 A 
ATOM     13  C   UNL d   1       1.039   2.591  -0.023  0.00  0.00     0.031 A 
ENDBRANCH   1   7
BRANCH   2  14
ATOM     14  C   UNL d   1       1.070  -2.419   0.117  0.00  0.00    -0.035 A 
ATOM     15  C   UNL d   1       1.358  -2.968   1.371  0.00  0.00     0.014 A 
ATOM     16  C   UNL d   1       2.028  -4.193   1.475  0.00  0.00     0.037 A 
ATOM     17  C   UNL d   1       2.418  -4.878   0.326  0.00  0.00     0.068 A 
ATOM     18  C   UNL d   1       2.119  -4.333  -0.927  0.00  0.00     0.037 A 
ATOM     19  C   UNL d   1       1.450  -3.109  -1.035  0.00  0.00     0.014 A 
BRANCH  17  20
ATOM     20  O   UNL d   1       3.088  -6.070   0.288  0.00  0.00    -0.356 OA
ATOM     21  C   UNL d   1       3.467  -6.633   1.537  0.00  0.00     0.210 C 
ENDBRANCH  17  20
ENDBRANCH   2  14
TORSDOF 5
