REMARK  3 active torsions:
REMARK  status: ('A' for Active; 'I' for Inactive)
REMARK    1  A    between atoms: C_7  and  C_1 
REMARK       I    between atoms: N_9  and  C_1 
REMARK    2  A    between atoms: C_2  and  C_11 
REMARK    3  A    between atoms: C_13  and  N_9 
ROOT
ATOM      1  C   UNL d   1      -3.310   0.240  -0.758  0.00  0.00     0.019 A 
ATOM      2  C   UNL d   1      -1.140  -0.888  -0.765  0.00  0.00     0.035 A 
ATOM      3  C   UNL d   1      -1.907   0.278  -0.764  0.00  0.00     0.045 A 
ATOM      4  C   UNL d   1      -3.945  -1.007  -0.804  0.00  0.00     0.016 A 
ATOM      5  C   UNL d   1      -3.191  -2.182  -0.855  0.00  0.00     0.003 A 
ATOM      6  C   UNL d   1      -1.793  -2.123  -0.837  0.00  0.00     0.029 A 
ENDROOT
BRANCH   2   7
ATOM      7  N   UNL d   1       0.269  -0.891  -0.656  0.00  0.00    -0.322 N 
ATOM      8  C   UNL d   1       1.080   0.190  -0.330  0.00  0.00     0.263 C 
ATOM      9  O   UNL d   1       0.667   1.335  -0.158  0.00  0.00    -0.267 OA
ATOM     10  H   UNL d   1       0.734  -1.788  -0.704  0.00  0.00     0.169 HD
BRANCH   8  11
ATOM     11  C   UNL d   1       2.495  -0.112  -0.149  0.00  0.00     0.072 A 
ATOM     12  S   UNL d   1       3.175  -1.655  -0.446  0.00  0.00    -0.097 SA
ATOM     13  C   UNL d   1       4.739  -1.128   0.008  0.00  0.00     0.050 A 
ATOM     14  C   UNL d   1       4.751   0.197   0.380  0.00  0.00     0.009 A 
ATOM     15  C   UNL d   1       3.459   0.782   0.286  0.00  0.00     0.025 A 
ENDBRANCH   8  11
ENDBRANCH   2   7
BRANCH   1  16
ATOM     16  C   UNL d   1      -4.091   1.467  -0.669  0.00  0.00     0.173 A 
ATOM     17  N   UNL d   1      -5.396   1.656  -0.630  0.00  0.00    -0.278 N 
ATOM     18  N   UNL d   1      -5.594   3.017  -0.489  0.00  0.00    -0.288 N 
ATOM     19  HN  UNL d   1      -6.118   0.938  -0.691  1.00  0.00     0.189 HD
ATOM     20  C   UNL d   1      -4.398   3.554  -0.450  0.00  0.00     0.251 A 
ATOM     21  HN  UNL d   1      -6.488   3.504  -0.427  1.00  0.00     0.188 HD
ATOM     22  O   UNL d   1      -3.394   2.647  -0.563  0.00  0.00    -0.286 OA
ENDBRANCH   1  16
TORSDOF 3
