REMARK  6 active torsions:
REMARK  status: ('A' for Active; 'I' for Inactive)
REMARK    1  A    between atoms: C_5  and  C_1 
REMARK       I    between atoms: C_3  and  N_7 
REMARK    2  A    between atoms: C_6  and  C_3 
REMARK    3  A    between atoms: C_4  and  C_6 
REMARK    4  A    between atoms: N_7  and  C_15 
REMARK    5  A    between atoms: O_19  and  C_11 
REMARK    6  A    between atoms: C_15  and  C_16 
ROOT
ATOM      1  C   UNL d   1       0.038   9.080  -1.011  0.00  0.00     0.222 C 
ATOM      2  N   UNL d   1       0.298   7.727  -0.926  0.00  0.00    -0.357 N 
ATOM      3  O   UNL d   1      -0.903   9.604  -0.426  0.00  0.00    -0.273 OA
ATOM      4  H   UNL d   1       1.146   7.353  -1.334  0.00  0.00     0.162 HD
ENDROOT
BRANCH   2   5
ATOM      5  C   UNL d   1      -0.388   6.910   0.054  0.00  0.00     0.161 C 
BRANCH   5   6
ATOM      6  C   UNL d   1      -0.815   5.556  -0.453  0.00  0.00    -0.040 A 
ATOM      7  C   UNL d   1      -0.774   4.451   0.408  0.00  0.00     0.010 A 
ATOM      8  C   UNL d   1      -1.261   3.203   0.002  0.00  0.00     0.013 A 
ATOM      9  C   UNL d   1      -1.810   3.021  -1.274  0.00  0.00    -0.019 A 
ATOM     10  C   UNL d   1      -1.871   4.134  -2.126  0.00  0.00     0.013 A 
ATOM     11  C   UNL d   1      -1.385   5.386  -1.721  0.00  0.00     0.010 A 
BRANCH   9  12
ATOM     12  C   UNL d   1      -2.316   1.695  -1.675  0.00  0.00     0.015 A 
ATOM     13  S   UNL d   1      -2.108   1.124  -3.284  0.00  0.00    -0.101 SA
ATOM     14  C   UNL d   1      -2.854  -0.372  -2.935  0.00  0.00     0.050 A 
ATOM     15  C   UNL d   1      -3.257  -0.453  -1.623  0.00  0.00     0.008 A 
ATOM     16  C   UNL d   1      -2.951   0.737  -0.899  0.00  0.00     0.020 A 
ENDBRANCH   9  12
ENDBRANCH   5   6
ENDBRANCH   2   5
BRANCH   1  17
ATOM     17  C   UNL d   1       1.007   9.889  -1.862  0.00  0.00     0.144 C 
BRANCH  17  18
ATOM     18  C   UNL d   1       1.801  10.961  -1.134  0.00  0.00    -0.016 A 
ATOM     19  C   UNL d   1       2.468  12.019  -1.784  0.00  0.00     0.074 A 
ATOM     20  C   UNL d   1       3.093  13.021  -1.015  0.00  0.00     0.037 A 
ATOM     21  C   UNL d   1       3.091  12.991   0.376  0.00  0.00     0.003 A 
ATOM     22  C   UNL d   1       2.478  11.935   1.027  0.00  0.00     0.001 A 
ATOM     23  C   UNL d   1       1.857  10.930   0.281  0.00  0.00     0.010 A 
BRANCH  19  24
ATOM     24  O   UNL d   1       2.569  12.301  -3.117  0.00  0.00    -0.355 OA
ATOM     25  C   UNL d   1       2.435  11.284  -4.091  0.00  0.00     0.210 C 
ENDBRANCH  19  24
ENDBRANCH  17  18
ENDBRANCH   1  17
TORSDOF 6
