REMARK  2 active torsions:
REMARK  status: ('A' for Active; 'I' for Inactive)
REMARK    1  A    between atoms: C_8  and  C_1 
REMARK    2  A    between atoms: O_11  and  C_6 
ROOT
ATOM      1  C   UNL d   1      -0.646   1.139   0.059  0.00  0.00     0.117 A 
ATOM      2  N   UNL d   1       0.320   0.981  -0.866  0.00  0.00    -0.323 N 
ATOM      3  HN  UNL d   1       0.528   1.693  -1.566  1.00  0.00     0.169 HD
ATOM      4  N   UNL d   1      -0.951   0.221   1.003  0.00  0.00    -0.345 N 
ATOM      5  HN  UNL d   1      -1.691   0.390   1.684  1.00  0.00     0.167 HD
ATOM      6  C   UNL d   1       0.984  -0.174  -0.800  0.00  0.00     0.143 A 
ATOM      7  C   UNL d   1       0.763  -1.175   0.105  0.00  0.00     0.080 A 
ATOM      8  C   UNL d   1      -0.240  -0.928   1.013  0.00  0.00     0.011 A 
ATOM      9  C   UNL d   1      -0.599  -1.935   2.061  0.00  0.00     0.068 C 
ENDROOT
BRANCH   1  10
ATOM     10  C   UNL d   1      -1.430   2.392   0.030  0.00  0.00     0.009 A 
ATOM     11  C   UNL d   1      -2.443   2.651   0.975  0.00  0.00     0.022 A 
ATOM     12  C   UNL d   1      -3.203   3.832   0.945  0.00  0.00    -0.061 A 
ATOM     13  C   UNL d   1      -4.294   4.071   1.946  0.00  0.00     0.048 C 
ATOM     14  C   UNL d   1      -2.951   4.778  -0.052  0.00  0.00     0.007 A 
ATOM     15  C   UNL d   1      -1.953   4.553  -0.995  0.00  0.00     0.002 A 
ATOM     16  C   UNL d   1      -1.204   3.375  -0.953  0.00  0.00     0.015 A 
ENDBRANCH   1  10
BRANCH   6  17
ATOM     17  O   UNL d   1       1.951  -0.309  -1.744  0.00  0.00    -0.346 OA
ATOM     18  H   UNL d   1       1.858   0.539  -2.213  0.00  0.00     0.219 HD
ENDBRANCH   6  17
TORSDOF 2
