REMARK  7 active torsions:
REMARK  status: ('A' for Active; 'I' for Inactive)
REMARK    1  A    between atoms: C_11  and  N_3 
REMARK    2  A    between atoms: N_14  and  C_9 
REMARK    3  A    between atoms: C_15  and  C_11 
REMARK    4  A    between atoms: C_23  and  N_14 
REMARK    5  A    between atoms: C_25  and  C_23 
REMARK    6  A    between atoms: C_27  and  C_25 
REMARK    7  A    between atoms: C_26  and  C_27 
ROOT
ATOM      1  C   UNL d   1      -0.227  -0.843  -0.025  0.00  0.00     0.160 A 
ATOM      2  C   UNL d   1      -0.467   0.500  -0.079  0.00  0.00     0.164 A 
ATOM      3  N   UNL d   1       1.875   0.871   0.001  0.00  0.00    -0.260 N 
ATOM      4  N   UNL d   1      -1.362  -1.570  -0.011  0.00  0.00    -0.174 N 
ATOM      5  HN  UNL d   1      -1.443  -2.586   0.024  1.00  0.00     0.186 HD
ATOM      6  N   UNL d   1       1.036  -1.363   0.048  0.00  0.00    -0.287 N 
ATOM      7  C   UNL d   1       2.127  -0.507   0.130  0.00  0.00     0.333 A 
ATOM      8  C   UNL d   1       0.598   1.455  -0.090  0.00  0.00     0.283 A 
ATOM      9  C   UNL d   1      -2.343  -0.698  -0.051  0.00  0.00     0.682 A 
ATOM     10  N   UNL d   1      -1.842   0.598  -0.094  0.00  0.00    -0.178 N 
ATOM     11  O   UNL d   1       3.263  -0.951   0.321  0.00  0.00    -0.246 OA
ATOM     12  O   UNL d   1       0.413   2.672  -0.157  0.00  0.00    -0.265 OA
ATOM     13  C   UNL d   1       1.257  -2.796   0.069  0.00  0.00     0.163 C 
ATOM     14  C   UNL d   1      -2.632   1.800  -0.055  0.00  0.00     0.176 C 
ENDROOT
BRANCH   3  15
ATOM     15  C   UNL d   1       3.039   1.751   0.009  0.00  0.00     0.175 C 
BRANCH  15  16
ATOM     16  C   UNL d   1       3.674   1.890  -1.362  0.00  0.00    -0.038 A 
ATOM     17  C   UNL d   1       3.281   2.923  -2.226  0.00  0.00     0.027 A 
ATOM     18  C   UNL d   1       3.831   3.015  -3.507  0.00  0.00     0.011 A 
ATOM     19 BR   UNL d   1       3.274   4.401  -4.667  0.00  0.00    -0.051 Br
ATOM     20  C   UNL d   1       4.778   2.091  -3.944  0.00  0.00     0.019 A 
ATOM     21  C   UNL d   1       5.190   1.072  -3.088  0.00  0.00     0.002 A 
ATOM     22  C   UNL d   1       4.644   0.974  -1.806  0.00  0.00     0.009 A 
ENDBRANCH  15  16
ENDBRANCH   3  15
BRANCH   9  23
ATOM     23  N   UNL d   1      -3.658  -1.014  -0.014  0.00  0.00    -0.226 N 
ATOM     24  H   UNL d   1      -4.397  -0.322  -0.025  0.00  0.00     0.177 HD
BRANCH  23  25
ATOM     25  C   UNL d   1      -3.982  -2.328   0.541  0.00  0.00     0.138 C 
BRANCH  25  26
ATOM     26  C   UNL d   1      -5.476  -2.640   0.519  0.00  0.00     0.020 C 
BRANCH  26  27
ATOM     27  C   UNL d   1      -6.029  -2.811  -0.895  0.00  0.00     0.001 C 
BRANCH  27  28
ATOM     28  C   UNL d   1      -7.500  -3.228  -0.868  0.00  0.00    -0.004 C 
ATOM     29  C   UNL d   1      -8.066  -3.357  -2.273  0.00  0.00     0.005 C 
ENDBRANCH  27  28
ENDBRANCH  26  27
ENDBRANCH  25  26
ENDBRANCH  23  25
ENDBRANCH   9  23
TORSDOF 7
