REMARK  5 active torsions:
REMARK  status: ('A' for Active; 'I' for Inactive)
REMARK    1  A    between atoms: C_17  and  C_1 
REMARK    2  A    between atoms: C_2  and  C_18 
REMARK    3  A    between atoms: O_22  and  C_5 
REMARK    4  A    between atoms: O_21  and  C_6 
REMARK    5  A    between atoms: N_11  and  N_13 
ROOT
ATOM      1  N   UNL d   1       0.399   5.664   0.169  0.00  0.00    -0.311 N 
ATOM      2  HN  UNL d   1      -0.559   5.964   0.351  1.00  0.00     0.186 HD
ATOM      3  C   UNL d   1       1.397   6.469  -0.033  0.00  0.00     0.121 C 
ENDROOT
BRANCH   1   4
ATOM      4  N   UNL d   1       0.810   4.336   0.103  0.00  0.00    -0.311 N 
ATOM      5  C   UNL d   1      -0.181   3.523   0.304  0.00  0.00     0.121 C 
ATOM      6  HN  UNL d   1       1.769   4.039  -0.079  1.00  0.00     0.186 HD
BRANCH   5   7
ATOM      7  C   UNL d   1       0.013   2.056   0.319  0.00  0.00     0.017 A 
ATOM      8  C   UNL d   1      -1.064   1.192   0.540  0.00  0.00     0.099 A 
ATOM      9  C   UNL d   1      -0.847  -0.193   0.573  0.00  0.00     0.069 A 
ATOM     10 CL   UNL d   1      -2.164  -1.274   0.852  0.00  0.00    -0.081 Cl
ATOM     11  C   UNL d   1       0.429  -0.717   0.387  0.00  0.00     0.050 A 
ATOM     12  C   UNL d   1       1.496   0.149   0.164  0.00  0.00     0.036 A 
ATOM     13  C   UNL d   1       1.298   1.529   0.127  0.00  0.00     0.039 A 
ATOM     14 CL   UNL d   1       3.077  -0.490  -0.063  0.00  0.00    -0.084 Cl
BRANCH   8  15
ATOM     15  O   UNL d   1      -2.323   1.700   0.725  0.00  0.00    -0.358 OA
ATOM     16  H   UNL d   1      -2.934   0.949   0.862  0.00  0.00     0.217 HD
ENDBRANCH   8  15
ENDBRANCH   5   7
ENDBRANCH   1   4
BRANCH   3  17
ATOM     17  C   UNL d   1       1.232   7.938   0.003  0.00  0.00     0.017 A 
ATOM     18  C   UNL d   1       2.322   8.781  -0.237  0.00  0.00     0.099 A 
ATOM     19  C   UNL d   1       2.144  10.171  -0.215  0.00  0.00     0.069 A 
ATOM     20 CL   UNL d   1       3.475  11.225  -0.526  0.00  0.00    -0.081 Cl
ATOM     21  C   UNL d   1       0.892  10.722   0.051  0.00  0.00     0.050 A 
ATOM     22  C   UNL d   1      -0.186   9.876   0.301  0.00  0.00     0.036 A 
ATOM     23  C   UNL d   1      -0.025   8.491   0.276  0.00  0.00     0.039 A 
ATOM     24 CL   UNL d   1      -1.732  10.550   0.640  0.00  0.00    -0.084 Cl
BRANCH  18  25
ATOM     25  O   UNL d   1       3.557   8.245  -0.492  0.00  0.00    -0.358 OA
ATOM     26  H   UNL d   1       4.180   8.982  -0.644  0.00  0.00     0.217 HD
ENDBRANCH  18  25
ENDBRANCH   3  17
TORSDOF 5
