REMARK  5 active torsions:
REMARK  status: ('A' for Active; 'I' for Inactive)
REMARK       I    between atoms: C_4  and  N_1 
REMARK    1  A    between atoms: N_2  and  C_6 
REMARK    2  A    between atoms: C_14  and  C_4 
REMARK    3  A    between atoms: C_9  and  S_19 
REMARK    4  A    between atoms: C_22  and  C_14 
REMARK    5  A    between atoms: S_19  and  C_22 
ROOT
ATOM      1  N   UNL d   1       1.504   1.240   0.020  0.00  0.00    -0.317 N 
ATOM      2  C   UNL d   1       0.178   0.762  -0.000  0.00  0.00     0.043 A 
ATOM      3  C   UNL d   1       1.879   2.573   0.085  0.00  0.00     0.225 C 
ATOM      4  C   UNL d   1       0.168  -0.634  -0.025  0.00  0.00    -0.027 A 
ATOM      5  C   UNL d   1      -2.224  -0.633  -0.007  0.00  0.00     0.103 A 
ATOM      6  C   UNL d   1       2.412   0.078   0.063  0.00  0.00     0.137 A 
ATOM      7  C   UNL d   1      -1.021  -1.354  -0.027  0.00  0.00     0.045 A 
ATOM      8  C   UNL d   1      -1.010   1.477   0.010  0.00  0.00     0.033 A 
ATOM      9  C   UNL d   1       1.556  -1.189  -0.072  0.00  0.00     0.061 A 
ATOM     10  C   UNL d   1      -2.223   0.775   0.007  0.00  0.00     0.038 A 
ATOM     11  O   UNL d   1       1.086   3.514   0.077  0.00  0.00    -0.273 OA
ENDROOT
BRANCH   3  12
ATOM     12  C   UNL d   1       3.376   2.844   0.127  0.00  0.00     0.114 C 
BRANCH  12  13
ATOM     13  C   UNL d   1       3.647   4.258   0.641  0.00  0.00     0.089 C 
BRANCH  13  14
ATOM     14  S   UNL d   1       5.450   4.542   0.776  0.00  0.00    -0.128 SA
BRANCH  14  15
ATOM     15  C   UNL d   1       5.464   6.229   1.393  0.00  0.00     0.024 A 
ATOM     16  C   UNL d   1       5.964   7.215   0.527  0.00  0.00     0.044 A 
ATOM     17  C   UNL d   1       6.047   8.546   0.941  0.00  0.00     0.035 A 
ATOM     18 CL   UNL d   1       6.678   9.737  -0.129  0.00  0.00    -0.084 Cl
ATOM     19  C   UNL d   1       5.633   8.918   2.217  0.00  0.00     0.025 A 
ATOM     20  C   UNL d   1       5.148   7.947   3.092  0.00  0.00     0.027 A 
ATOM     21  C   UNL d   1       5.073   6.606   2.692  0.00  0.00     0.051 A 
ATOM     22 CL   UNL d   1       4.533   5.467   3.876  0.00  0.00    -0.083 Cl
ENDBRANCH  14  15
ENDBRANCH  13  14
ENDBRANCH  12  13
ENDBRANCH   3  12
BRANCH   5  23
ATOM     23  N   UNL d   1      -3.502  -1.355  -0.000  0.00  0.00    -0.116 N 
ATOM     24  O   UNL d   1      -3.464  -2.595   0.015  0.00  0.00    -0.532 OA
ATOM     25  O   UNL d   1      -4.545  -0.686  -0.010  0.00  0.00    -0.532 OA
ENDBRANCH   5  23
TORSDOF 5
