REMARK  5 active torsions:
REMARK  status: ('A' for Active; 'I' for Inactive)
REMARK    1  A    between atoms: C_8  and  C_1 
REMARK    2  A    between atoms: C_2  and  O_7 
REMARK    3  A    between atoms: C_6  and  C_2 
REMARK    4  A    between atoms: C_13  and  C_3 
REMARK    5  A    between atoms: O_7  and  C_14 
ROOT
ATOM      1  C   UNL d   1       1.033  -1.333   1.075  0.00  0.00     0.072 C 
ATOM      2  C   UNL d   1       0.189  -1.178   0.030  0.00  0.00     0.036 C 
ATOM      3  C   UNL d   1       0.505  -1.565   2.380  0.00  0.00     0.102 C 
ATOM      4  N   UNL d   1       0.115  -1.753   3.460  0.00  0.00    -0.191 NA
ENDROOT
BRANCH   1   5
ATOM      5  C   UNL d   1       2.518  -1.274   0.900  0.00  0.00     0.052 A 
ATOM      6  N   UNL d   1       2.988  -1.051  -0.356  0.00  0.00    -0.365 N 
ATOM      7  C   UNL d   1       4.332  -1.006  -0.541  0.00  0.00     0.088 A 
ATOM      8  HN  UNL d   1       2.348  -0.921  -1.139  1.00  0.00     0.165 HD
ATOM      9  C   UNL d   1       5.259  -1.171   0.472  0.00  0.00     0.017 A 
ATOM     10  C   UNL d   1       4.782  -1.397   1.753  0.00  0.00     0.004 A 
ATOM     11  C   UNL d   1       3.404  -1.450   1.972  0.00  0.00     0.031 A 
ENDBRANCH   1   5
BRANCH   2  12
ATOM     12  C   UNL d   1      -1.284  -1.260   0.083  0.00  0.00    -0.035 A 
ATOM     13  C   UNL d   1      -2.071  -0.114   0.264  0.00  0.00     0.014 A 
ATOM     14  C   UNL d   1      -3.473  -0.191   0.202  0.00  0.00     0.038 A 
ATOM     15  C   UNL d   1      -4.095  -1.417  -0.045  0.00  0.00     0.079 A 
ATOM     16  C   UNL d   1      -3.321  -2.576  -0.131  0.00  0.00     0.038 A 
ATOM     17  C   UNL d   1      -1.923  -2.495  -0.085  0.00  0.00     0.014 A 
BRANCH  15  18
ATOM     18  O   UNL d   1      -5.508  -1.422  -0.175  0.00  0.00    -0.275 OA
BRANCH  18  19
ATOM     19  C   UNL d   1      -6.059  -2.206  -1.185  0.00  0.00     0.298 C 
ATOM     20  O   UNL d   1      -5.438  -2.914  -1.970  0.00  0.00    -0.259 OA
BRANCH  19  21
ATOM     21  C   UNL d   1      -7.552  -2.127  -1.249  0.00  0.00     0.040 A 
ATOM     22  C   UNL d   1      -8.332  -1.218  -0.520  0.00  0.00     0.024 A 
ATOM     23  C   UNL d   1      -9.737  -1.214  -0.662  0.00  0.00    -0.061 A 
ATOM     24  C   UNL d   1     -10.610  -0.264   0.106  0.00  0.00     0.048 C 
ATOM     25  C   UNL d   1     -10.347  -2.112  -1.550  0.00  0.00     0.007 A 
ATOM     26  C   UNL d   1      -9.579  -3.015  -2.278  0.00  0.00     0.002 A 
ATOM     27  C   UNL d   1      -8.193  -3.022  -2.125  0.00  0.00     0.017 A 
ENDBRANCH  19  21
ENDBRANCH  18  19
ENDBRANCH  15  18
ENDBRANCH   2  12
TORSDOF 5
