REMARK  3 active torsions:
REMARK  status: ('A' for Active; 'I' for Inactive)
REMARK    1  A    between atoms: N_5  and  C_4 
REMARK    2  A    between atoms: C_6  and  N_5 
REMARK    3  A    between atoms: O_13  and  N_7 
ROOT
ATOM      1  N   UNL d   1       1.176  -0.717  -0.099  0.00  0.00    -0.345 N 
ATOM      2  HN  UNL d   1       2.049  -1.241  -0.164  1.00  0.00     0.167 HD
ATOM      3  C   UNL d   1       1.182   0.642  -0.170  0.00  0.00     0.024 A 
ATOM      4  C   UNL d   1      -0.001  -1.365   0.059  0.00  0.00     0.106 A 
ATOM      5  C   UNL d   1       0.011   1.396  -0.116  0.00  0.00     0.033 A 
ATOM      6  C   UNL d   1      -1.198   0.722   0.014  0.00  0.00     0.025 A 
ATOM      7  C   UNL d   1      -1.201  -0.666   0.103  0.00  0.00     0.050 A 
ATOM      8 BR   UNL d   1      -0.015   3.285  -0.206  0.00  0.00    -0.049 Br
ATOM      9  C   UNL d   1       2.533   1.284  -0.302  0.00  0.00     0.069 C 
ENDROOT
BRANCH   4  10
ATOM     10  N   UNL d   1       0.071  -2.749   0.175  0.00  0.00    -0.337 N 
ATOM     11  H   UNL d   1       1.004  -3.109   0.037  0.00  0.00     0.168 HD
BRANCH  10  12
ATOM     12  C   UNL d   1      -0.842  -3.577   0.743  0.00  0.00     0.205 C 
ATOM     13  N   UNL d   1      -0.686  -4.851   0.917  0.00  0.00    -0.265 N 
ATOM     14  HN  UNL d   1       0.133  -5.394   0.645  1.00  0.00     0.194 HD
BRANCH  13  15
ATOM     15  O   UNL d   1      -1.834  -5.356   1.544  0.00  0.00    -0.289 OA
ATOM     16  H   UNL d   1      -1.636  -6.311   1.605  0.00  0.00     0.244 HD
ENDBRANCH  13  15
ENDBRANCH  10  12
ENDBRANCH   4  10
TORSDOF 3
