REMARK  3 active torsions:
REMARK  status: ('A' for Active; 'I' for Inactive)
REMARK    1  A    between atoms: N_6  and  C_1 
REMARK    2  A    between atoms: N_4  and  N_6 
REMARK    3  A    between atoms: C_9  and  C_8 
ROOT
ATOM      1  N   UNL d   1      -2.705   2.503  -0.336  0.00  0.00    -0.290 N 
ATOM      2  HN  UNL d   1      -1.688   2.556  -0.281  1.00  0.00     0.187 HD
ATOM      3  C   UNL d   1      -3.400   3.591  -0.500  0.00  0.00     0.032 C 
ATOM      4  C   UNL d   1      -4.908   3.687  -0.597  0.00  0.00     0.070 C 
ENDROOT
BRANCH   1   5
ATOM      5  N   UNL d   1      -3.324   1.293  -0.237  0.00  0.00    -0.132 N 
ATOM      6  H   UNL d   1      -4.330   1.193  -0.174  0.00  0.00     0.205 HD
BRANCH   5   7
ATOM      7  C   UNL d   1      -2.671   0.086  -0.164  0.00  0.00     0.688 C 
ATOM      8  N   UNL d   1      -3.316  -1.024  -0.066  0.00  0.00    -0.225 N 
ATOM      9  C   UNL d   1      -2.517  -2.254   0.056  0.00  0.00     0.139 C 
ATOM     10  HN  UNL d   1      -4.336  -1.050  -0.073  1.00  0.00     0.177 HD
ATOM     11  C   UNL d   1      -1.102  -2.126  -0.494  0.00  0.00     0.040 C 
ATOM     12  C   UNL d   1      -0.458  -0.885   0.094  0.00  0.00     0.139 C 
ATOM     13  N   UNL d   1      -1.315   0.223  -0.211  0.00  0.00    -0.225 N 
ATOM     14  H   UNL d   1      -1.019   1.163   0.031  0.00  0.00     0.177 HD
ENDBRANCH   5   7
ENDBRANCH   1   5
BRANCH   3  15
ATOM     15  C   UNL d   1      -2.637   4.873  -0.644  0.00  0.00    -0.013 A 
ATOM     16  C   UNL d   1      -1.369   4.845  -1.240  0.00  0.00     0.013 A 
ATOM     17  C   UNL d   1      -0.650   6.028  -1.420  0.00  0.00     0.001 A 
ATOM     18  C   UNL d   1      -1.188   7.242  -0.996  0.00  0.00     0.000 A 
ATOM     19  C   UNL d   1      -2.441   7.274  -0.384  0.00  0.00     0.001 A 
ATOM     20  C   UNL d   1      -3.167   6.093  -0.207  0.00  0.00     0.013 A 
ENDBRANCH   3  15
TORSDOF 3
