REMARK  2 active torsions:
REMARK  status: ('A' for Active; 'I' for Inactive)
REMARK    1  A    between atoms: C_8  and  C_1 
REMARK    2  A    between atoms: N_9  and  C_5 
ROOT
ATOM      1  C   UNL d   1      -0.388  -1.100  -0.028  0.00  0.00    -0.006 A 
ATOM      2  C   UNL d   1      -0.071   1.274  -0.707  0.00  0.00     0.111 A 
ATOM      3  S   UNL d   1      -0.879  -0.089  -1.336  0.00  0.00    -0.081 SA
ATOM      4  C   UNL d   1       0.379  -0.374   0.871  0.00  0.00     0.046 A 
ATOM      5  C   UNL d   1       0.562   0.984   0.481  0.00  0.00     0.054 A 
ATOM      6  C   UNL d   1      -0.083   2.534  -1.374  0.00  0.00     0.109 C 
ATOM      7  N   UNL d   1      -0.085   3.566  -1.910  0.00  0.00    -0.191 NA
ENDROOT
BRANCH   5   8
ATOM      8  N   UNL d   1       1.281   1.856   1.218  0.00  0.00    -0.397 N 
ATOM      9  H   UNL d   1       1.737   1.598   2.088  0.00  0.00     0.156 HD
ATOM     10  H   UNL d   1       1.430   2.828   0.953  0.00  0.00     0.156 HD
ENDBRANCH   5   8
BRANCH   1  11
ATOM     11  C   UNL d   1      -0.810  -2.574   0.009  0.00  0.00    -0.018 C 
ATOM     12  C   UNL d   1      -0.258  -3.318  -1.225  0.00  0.00     0.020 C 
ATOM     13  C   UNL d   1      -0.266  -3.284   1.268  0.00  0.00     0.020 C 
ATOM     14  C   UNL d   1      -2.348  -2.693   0.035  0.00  0.00     0.020 C 
ENDBRANCH   1  11
TORSDOF 2
