REMARK  2 active torsions:
REMARK  status: ('A' for Active; 'I' for Inactive)
REMARK    1  A    between atoms: N_8  and  C_3 
REMARK    2  A    between atoms: N_16  and  C_14 
ROOT
ATOM      1  C   UNL d   1      -2.477   2.734   0.045  0.00  0.00     0.136 A 
ATOM      2  N   UNL d   1      -1.111   2.429   0.111  0.00  0.00    -0.280 N 
ATOM      3  C   UNL d   1      -0.106   3.410   0.339  0.00  0.00     0.115 C 
ATOM      4  C   UNL d   1      -2.875   4.105   0.141  0.00  0.00     0.095 C 
ATOM      5  N   UNL d   1      -3.216   1.655  -0.104  0.00  0.00    -0.339 N 
ATOM      6  HN  UNL d   1      -4.231   1.611  -0.192  1.00  0.00     0.167 HD
ATOM      7  C   UNL d   1      -1.936   5.048   0.390  0.00  0.00    -0.034 C 
ATOM      8  C   UNL d   1      -0.542   4.666   0.579  0.00  0.00     0.057 C 
ATOM      9  C   UNL d   1      -1.021   1.045  -0.013  0.00  0.00     0.069 A 
ATOM     10  C   UNL d   1      -2.341   0.608  -0.117  0.00  0.00     0.061 A 
ATOM     11  C   UNL d   1      -4.248   4.444  -0.064  0.00  0.00     0.104 C 
ATOM     12  N   UNL d   1      -5.344   4.783  -0.230  0.00  0.00    -0.191 NA
ATOM     13  C   UNL d   1      -2.176   6.533   0.444  0.00  0.00     0.050 C 
ATOM     14  C   UNL d   1       0.052   0.139  -0.006  0.00  0.00     0.032 A 
ATOM     15  C   UNL d   1      -2.625  -0.763  -0.206  0.00  0.00     0.032 A 
ATOM     16  C   UNL d   1      -0.250  -1.228  -0.093  0.00  0.00     0.002 A 
ATOM     17  C   UNL d   1      -1.567  -1.675  -0.186  0.00  0.00     0.002 A 
ENDROOT
BRANCH   3  18
ATOM     18  N   UNL d   1       1.220   3.042   0.417  0.00  0.00    -0.338 N 
ATOM     19  C   UNL d   1       2.188   3.849   0.125  0.00  0.00     0.179 C 
ATOM     20  HN  UNL d   1       1.447   2.094   0.717  1.00  0.00     0.168 HD
BRANCH  19  21
ATOM     21  N   UNL d   1       2.266   5.144  -0.363  0.00  0.00    -0.386 N 
ATOM     22  C   UNL d   1       3.447   5.946  -0.058  0.00  0.00     0.149 C 
ATOM     23  C   UNL d   1       1.582   5.537  -1.592  0.00  0.00     0.149 C 
ENDBRANCH  19  21
ENDBRANCH   3  18
TORSDOF 2
