REMARK  6 active torsions:
REMARK  status: ('A' for Active; 'I' for Inactive)
REMARK    1  A    between atoms: C_3  and  C_14 
REMARK       I    between atoms: N_6  and  C_3 
REMARK       I    between atoms: C_4  and  N_7 
REMARK    2  A    between atoms: C_15  and  C_4 
REMARK    3  A    between atoms: O_9  and  C_5 
REMARK    4  A    between atoms: N_7  and  N_6 
REMARK    5  A    between atoms: C_14  and  O_9 
REMARK    6  A    between atoms: C_16  and  C_15 
ROOT
ATOM      1  C   UNL d   1       1.049   5.226  -0.009  0.00  0.00     0.260 C 
ATOM      2  N   UNL d   1       0.372   5.623   1.133  0.00  0.00    -0.266 N 
ATOM      3  O   UNL d   1       1.338   6.004  -0.915  0.00  0.00    -0.269 OA
ATOM      4  H   UNL d   1      -0.076   4.933   1.736  0.00  0.00     0.190 HD
ENDROOT
BRANCH   1   5
ATOM      5  C   UNL d   1       1.525   3.768   0.022  0.00  0.00     0.280 C 
BRANCH   5   6
ATOM      6  O   UNL d   1       0.450   2.839   0.104  0.00  0.00    -0.341 OA
BRANCH   6   7
ATOM      7  C   UNL d   1       0.785   1.508   0.105  0.00  0.00     0.076 A 
ATOM      8  C   UNL d   1      -0.268   0.596   0.132  0.00  0.00    -0.018 A 
ATOM      9  C   UNL d   1      -0.046  -0.789   0.162  0.00  0.00    -0.043 A 
ATOM     10  C   UNL d   1      -1.730   0.913   0.120  0.00  0.00     0.042 A 
ATOM     11  C   UNL d   1       1.243  -1.314   0.161  0.00  0.00    -0.055 A 
ATOM     12  C   UNL d   1      -1.333  -1.552   0.191  0.00  0.00     0.040 A 
ATOM     13  C   UNL d   1       1.526  -2.783   0.200  0.00  0.00     0.049 C 
ATOM     14  C   UNL d   1       2.306  -0.403   0.117  0.00  0.00     0.010 A 
ATOM     15  C   UNL d   1       2.082   0.988   0.090  0.00  0.00     0.038 A 
ATOM     16  C   UNL d   1      -2.409  -0.461   0.184  0.00  0.00     0.009 A 
ENDBRANCH   6   7
ENDBRANCH   5   6
ENDBRANCH   1   5
BRANCH   2  17
ATOM     17  N   UNL d   1      -0.152   6.927   1.190  0.00  0.00    -0.267 N 
ATOM     18  C   UNL d   1      -1.336   7.128   1.871  0.00  0.00     0.240 C 
ATOM     19  O   UNL d   1      -1.929   6.211   2.441  0.00  0.00    -0.272 OA
ATOM     20  H   UNL d   1       0.351   7.657   0.691  0.00  0.00     0.190 HD
BRANCH  18  21
ATOM     21  C   UNL d   1      -1.840   8.562   1.880  0.00  0.00     0.143 C 
BRANCH  21  22
ATOM     22  C   UNL d   1      -1.377   9.361   3.077  0.00  0.00    -0.049 A 
ATOM     23  C   UNL d   1      -0.679  10.565   2.906  0.00  0.00     0.007 A 
ATOM     24  C   UNL d   1      -0.275  11.316   4.013  0.00  0.00     0.001 A 
ATOM     25  C   UNL d   1      -0.566  10.875   5.303  0.00  0.00     0.000 A 
ATOM     26  C   UNL d   1      -1.270   9.688   5.486  0.00  0.00     0.001 A 
ATOM     27  C   UNL d   1      -1.679   8.937   4.381  0.00  0.00     0.007 A 
ENDBRANCH  21  22
ENDBRANCH  18  21
ENDBRANCH   2  17
TORSDOF 6
