REMARK  4 active torsions:
REMARK  status: ('A' for Active; 'I' for Inactive)
REMARK    1  A    between atoms: C_2  and  C_1 
REMARK    2  A    between atoms: N_6  and  C_3 
REMARK       I    between atoms: C_8  and  N_6 
REMARK       I    between atoms: N_13  and  C_8 
REMARK    3  A    between atoms: C_20  and  N_13 
REMARK    4  A    between atoms: C_15  and  C_16 
ROOT
ATOM      1  N   UNL d   1      -3.202   0.428  -3.750  0.00  0.00    -0.302 N 
ATOM      2  C   UNL d   1      -3.048  -0.207  -2.521  0.00  0.00     0.325 C 
ATOM      3  N   UNL d   1      -1.790  -0.292  -1.978  0.00  0.00    -0.309 N 
ATOM      4  O   UNL d   1      -4.062  -0.656  -1.986  0.00  0.00    -0.247 OA
ATOM      5  H   UNL d   1      -4.177   0.463  -4.035  0.00  0.00     0.171 HD
ATOM      6  H   UNL d   1      -1.089   0.237  -2.473  0.00  0.00     0.170 HD
ENDROOT
BRANCH   1   7
ATOM      7  C   UNL d   1      -2.296   0.913  -4.694  0.00  0.00     0.090 A 
ATOM      8  C   UNL d   1      -2.516   1.465  -5.961  0.00  0.00     0.032 A 
ATOM      9  C   UNL d   1      -1.258   1.774  -6.605  0.00  0.00     0.024 A 
ATOM     10  C   UNL d   1      -0.161   1.484  -5.844  0.00  0.00     0.053 A 
ATOM     11  S   UNL d   1      -0.616   0.836  -4.352  0.00  0.00    -0.083 SA
BRANCH   8  12
ATOM     12  C   UNL d   1      -3.834   1.748  -6.690  0.00  0.00     0.088 A 
ATOM     13  N   UNL d   1      -5.047   1.587  -6.208  0.00  0.00    -0.349 N 
ATOM     14  C   UNL d   1      -6.003   2.000  -7.161  0.00  0.00     0.050 A 
ATOM     15  HN  UNL d   1      -5.265   1.218  -5.282  1.00  0.00     0.166 HD
ATOM     16  C   UNL d   1      -7.416   2.020  -7.016  0.00  0.00     0.031 A 
ATOM     17  C   UNL d   1      -5.491   2.461  -8.373  0.00  0.00     0.033 A 
ATOM     18  C   UNL d   1      -8.235   2.478  -8.066  0.00  0.00     0.002 A 
ATOM     19  C   UNL d   1      -7.678   2.922  -9.261  0.00  0.00     0.002 A 
ATOM     20  C   UNL d   1      -6.296   2.915  -9.433  0.00  0.00     0.021 A 
ATOM     21  S   UNL d   1      -3.791   2.361  -8.319  0.00  0.00    -0.069 SA
ENDBRANCH   8  12
ENDBRANCH   1   7
BRANCH   3  22
ATOM     22  C   UNL d   1      -1.318  -1.017  -0.852  0.00  0.00     0.036 A 
ATOM     23  C   UNL d   1      -2.092  -1.854  -0.052  0.00  0.00     0.030 A 
ATOM     24  C   UNL d   1      -1.503  -2.621   0.980  0.00  0.00     0.010 A 
ATOM     25  C   UNL d   1      -0.119  -2.590   1.246  0.00  0.00    -0.051 A 
ATOM     26  C   UNL d   1       0.635  -1.691   0.480  0.00  0.00     0.010 A 
ATOM     27  C   UNL d   1       0.048  -0.924  -0.549  0.00  0.00     0.030 A 
BRANCH  25  28
ATOM     28  C   UNL d   1       0.521  -3.545   2.284  0.00  0.00    -0.024 C 
ATOM     29  C   UNL d   1       2.067  -3.477   2.330  0.00  0.00     0.019 C 
ATOM     30  C   UNL d   1       0.015  -3.240   3.709  0.00  0.00     0.019 C 
ATOM     31  C   UNL d   1       0.156  -5.008   1.939  0.00  0.00     0.019 C 
ENDBRANCH  25  28
ENDBRANCH   3  22
TORSDOF 4
