REMARK  6 active torsions:
REMARK  status: ('A' for Active; 'I' for Inactive)
REMARK    1  A    between atoms: C_7  and  C_1 
REMARK    2  A    between atoms: S_8  and  C_2 
REMARK    3  A    between atoms: C_6  and  S_8 
REMARK    4  A    between atoms: C_9  and  C_6 
REMARK    5  A    between atoms: C_16  and  C_21 
REMARK    6  A    between atoms: C_17  and  C_20 
ROOT
ATOM      1  C   UNL d   1      -0.199   0.975   0.096  0.00  0.00     0.177 A 
ATOM      2  C   UNL d   1      -0.361  -1.159   0.141  0.00  0.00     0.211 A 
ATOM      3  O   UNL d   1      -1.139  -0.029   0.143  0.00  0.00    -0.267 OA
ATOM      4  N   UNL d   1       1.028   0.498   0.057  0.00  0.00    -0.277 N 
ATOM      5  HN  UNL d   1       1.890   1.042   0.017  1.00  0.00     0.189 HD
ATOM      6  N   UNL d   1       0.924  -0.879   0.082  0.00  0.00    -0.272 N 
ATOM      7  HN  UNL d   1       1.694  -1.549   0.059  1.00  0.00     0.189 HD
ENDROOT
BRANCH   2   8
ATOM      8  S   UNL d   1      -1.018  -2.762   0.047  0.00  0.00    -0.002 SA
BRANCH   8   9
ATOM      9  C   UNL d   1      -0.639  -3.288   1.683  0.00  0.00     0.229 C 
ATOM     10  O   UNL d   1      -0.632  -2.513   2.629  0.00  0.00    -0.279 OA
BRANCH   9  11
ATOM     11  C   UNL d   1      -0.445  -4.752   1.877  0.00  0.00     0.044 A 
ATOM     12  C   UNL d   1      -1.000  -5.420   2.973  0.00  0.00     0.020 A 
ATOM     13  N   UNL d   1      -0.852  -6.764   3.161  0.00  0.00    -0.355 N 
ATOM     14  C   UNL d   1      -1.823  -4.729   4.023  0.00  0.00     0.069 C 
ATOM     15  C   UNL d   1      -0.126  -7.488   2.263  0.00  0.00     0.117 A 
ATOM     16  HN  UNL d   1      -1.280  -7.221   3.966  1.00  0.00     0.166 HD
ATOM     17  C   UNL d   1       0.472  -6.881   1.162  0.00  0.00     0.035 A 
ATOM     18  C   UNL d   1       0.314  -5.506   0.970  0.00  0.00     0.020 A 
BRANCH  15  19
ATOM     19  C   UNL d   1       0.036  -8.993   2.460  0.00  0.00     0.432 C 
ATOM     20  F   UNL d   1      -0.606  -9.493   3.553  0.00  0.00    -0.165 F 
ATOM     21  F   UNL d   1      -0.434  -9.707   1.395  0.00  0.00    -0.165 F 
ATOM     22  F   UNL d   1       1.344  -9.362   2.594  0.00  0.00    -0.165 F 
ENDBRANCH  15  19
ENDBRANCH   9  11
ENDBRANCH   8   9
ENDBRANCH   2   8
BRANCH   1  23
ATOM     23  C   UNL d   1      -0.695   2.350   0.071  0.00  0.00     0.039 A 
ATOM     24  C   UNL d   1       0.131   3.454  -0.181  0.00  0.00     0.020 A 
ATOM     25  N   UNL d   1      -0.330   4.740  -0.192  0.00  0.00    -0.355 N 
ATOM     26  C   UNL d   1       1.599   3.324  -0.480  0.00  0.00     0.069 C 
ATOM     27  C   UNL d   1      -1.647   4.981   0.049  0.00  0.00     0.117 A 
ATOM     28  HN  UNL d   1       0.308   5.513  -0.379  1.00  0.00     0.166 HD
ATOM     29  C   UNL d   1      -2.533   3.937   0.295  0.00  0.00     0.035 A 
ATOM     30  C   UNL d   1      -2.053   2.626   0.306  0.00  0.00     0.020 A 
BRANCH  27  31
ATOM     31  C   UNL d   1      -2.168   6.414   0.055  0.00  0.00     0.432 C 
ATOM     32  F   UNL d   1      -1.218   7.363  -0.178  0.00  0.00    -0.165 F 
ATOM     33  F   UNL d   1      -3.137   6.619  -0.886  0.00  0.00    -0.165 F 
ATOM     34  F   UNL d   1      -2.744   6.752   1.247  0.00  0.00    -0.165 F 
ENDBRANCH  27  31
ENDBRANCH   1  23
TORSDOF 6
