REMARK  8 active torsions:
REMARK  status: ('A' for Active; 'I' for Inactive)
REMARK    1  A    between atoms: N_2  and  C_1 
REMARK    2  A    between atoms: N_7  and  C_1 
REMARK    3  A    between atoms: C_3  and  N_2 
REMARK       I    between atoms: C_4  and  N_9 
REMARK    4  A    between atoms: C_19  and  C_4 
REMARK    5  A    between atoms: N_9  and  N_7 
REMARK    6  A    between atoms: C_16  and  C_20 
REMARK    7  A    between atoms: S_17  and  C_19 
REMARK    8  A    between atoms: C_20  and  S_17 
ROOT
ATOM      1  C   UNL d   1      -2.113   2.404  -0.376  0.00  0.00     0.245 C 
ATOM      2  N   UNL d   1      -1.560   1.138  -0.240  0.00  0.00    -0.267 N 
ATOM      3  O   UNL d   1      -1.416   3.402  -0.522  0.00  0.00    -0.271 OA
ATOM      4  H   UNL d   1      -2.101   0.362   0.129  0.00  0.00     0.190 HD
ENDROOT
BRANCH   1   5
ATOM      5  C   UNL d   1      -3.631   2.409  -0.258  0.00  0.00     0.178 C 
BRANCH   5   6
ATOM      6  S   UNL d   1      -4.430   3.717  -1.232  0.00  0.00    -0.155 SA
BRANCH   6   7
ATOM      7  C   UNL d   1      -3.935   3.183  -2.896  0.00  0.00     0.113 C 
BRANCH   7   8
ATOM      8  C   UNL d   1      -4.373   4.146  -3.980  0.00  0.00    -0.038 A 
ATOM      9  C   UNL d   1      -5.576   3.985  -4.727  0.00  0.00    -0.019 A 
ATOM     10  C   UNL d   1      -5.818   4.857  -5.821  0.00  0.00    -0.025 A 
ATOM     11  C   UNL d   1      -6.553   2.999  -4.456  0.00  0.00     0.013 A 
ATOM     12  C   UNL d   1      -6.960   4.687  -6.622  0.00  0.00     0.012 A 
ATOM     13  C   UNL d   1      -4.914   5.889  -6.109  0.00  0.00     0.012 A 
ATOM     14  C   UNL d   1      -7.888   3.686  -6.346  0.00  0.00     0.001 A 
ATOM     15  C   UNL d   1      -7.692   2.851  -5.254  0.00  0.00     0.001 A 
ATOM     16  C   UNL d   1      -3.776   6.080  -5.337  0.00  0.00     0.001 A 
ATOM     17  C   UNL d   1      -3.506   5.213  -4.281  0.00  0.00     0.009 A 
ENDBRANCH   7   8
ENDBRANCH   6   7
ENDBRANCH   5   6
ENDBRANCH   1   5
BRANCH   2  18
ATOM     18  N   UNL d   1      -0.184   1.076   0.003  0.00  0.00    -0.274 N 
ATOM     19  H   UNL d   1       0.261   1.988   0.120  0.00  0.00     0.189 HD
BRANCH  18  20
ATOM     20  C   UNL d   1       0.607   0.094  -0.545  0.00  0.00     0.186 C 
ATOM     21  S   UNL d   1       0.150  -0.966  -1.749  0.00  0.00    -0.040 SA
BRANCH  20  22
ATOM     22  N   UNL d   1       1.849  -0.031   0.012  0.00  0.00    -0.361 N 
ATOM     23  H   UNL d   1       2.478  -0.633  -0.509  0.00  0.00     0.162 HD
BRANCH  22  24
ATOM     24  C   UNL d   1       2.385   0.687   1.159  0.00  0.00     0.092 C 
ATOM     25  C   UNL d   1       1.500   0.771   2.441  0.00  0.00     0.031 C 
ATOM     26  C   UNL d   1       1.278  -0.591   3.067  0.00  0.00    -0.024 C 
ATOM     27  C   UNL d   1       2.553   1.300   3.424  0.00  0.00     0.019 C 
ATOM     28  C   UNL d   1       2.452  -0.991   3.578  0.00  0.00    -0.026 C 
ATOM     29  C   UNL d   1       3.463   0.082   3.253  0.00  0.00     0.010 C 
ATOM     30  C   UNL d   1       3.699   0.060   1.722  0.00  0.00     0.034 C 
ENDBRANCH  22  24
ENDBRANCH  20  22
ENDBRANCH  18  20
ENDBRANCH   2  18
TORSDOF 8
