REMARK  3 active torsions:
REMARK  status: ('A' for Active; 'I' for Inactive)
REMARK    1  A    between atoms: C_4  and  N_1 
REMARK    2  A    between atoms: C_6  and  C_8 
REMARK    3  A    between atoms: C_7  and  C_9 
ROOT
ATOM      1  C   UNL d   1       2.819  -1.594   0.220  0.00  0.00     0.046 A 
ATOM      2  C   UNL d   1       5.155  -2.018   0.873  0.00  0.00     0.050 A 
ATOM      3  C   UNL d   1       3.817  -3.836  -0.029  0.00  0.00     0.050 A 
ATOM      4  C   UNL d   1       4.052  -1.153   0.728  0.00  0.00     0.046 A 
ATOM      5  C   UNL d   1       2.735  -2.947  -0.157  0.00  0.00     0.046 A 
ATOM      6  C   UNL d   1       5.028  -3.358   0.483  0.00  0.00     0.032 A 
ENDROOT
BRANCH   1   7
ATOM      7  N   UNL d   1       1.692  -0.715   0.103  0.00  0.00    -0.252 N 
ATOM      8  C   UNL d   1       1.763   0.662   0.152  0.00  0.00     0.232 C 
ATOM      9  C   UNL d   1       0.399   1.247  -0.085  0.00  0.00     0.123 C 
ATOM     10  O   UNL d   1       2.742   1.381   0.292  0.00  0.00    -0.273 OA
ATOM     11  C   UNL d   1      -0.532   0.050  -0.060  0.00  0.00     0.050 C 
ATOM     12  C   UNL d   1       0.393  -1.142  -0.080  0.00  0.00     0.240 C 
ATOM     13  C   UNL d   1      -1.538   0.019  -1.209  0.00  0.00     0.020 C 
ATOM     14  C   UNL d   1      -1.431   0.017   1.180  0.00  0.00     0.020 C 
ATOM     15  O   UNL d   1      -0.032  -2.287  -0.174  0.00  0.00    -0.272 OA
ATOM     16  C   UNL d   1      -2.714   0.858  -0.725  0.00  0.00     0.001 C 
ATOM     17  C   UNL d   1      -2.653   0.847   0.801  0.00  0.00     0.001 C 
ENDBRANCH   1   7
BRANCH   2  18
ATOM     18  C   UNL d   1       6.455  -1.526   1.468  0.00  0.00     0.417 C 
ATOM     19  F   UNL d   1       6.425  -0.222   1.856  0.00  0.00    -0.166 F 
ATOM     20  F   UNL d   1       6.812  -2.235   2.574  0.00  0.00    -0.166 F 
ATOM     21  F   UNL d   1       7.498  -1.637   0.600  0.00  0.00    -0.166 F 
ENDBRANCH   2  18
BRANCH   3  22
ATOM     22  C   UNL d   1       3.674  -5.288  -0.427  0.00  0.00     0.417 C 
ATOM     23  F   UNL d   1       2.424  -5.622  -0.850  0.00  0.00    -0.166 F 
ATOM     24  F   UNL d   1       4.515  -5.630  -1.441  0.00  0.00    -0.166 F 
ATOM     25  F   UNL d   1       3.960  -6.134   0.600  0.00  0.00    -0.166 F 
ENDBRANCH   3  22
TORSDOF 3
