REMARK  4 active torsions:
REMARK  status: ('A' for Active; 'I' for Inactive)
REMARK    1  A    between atoms: C_7  and  N_2 
REMARK    2  A    between atoms: C_9  and  C_4 
REMARK    3  A    between atoms: O_8  and  C_9 
REMARK    4  A    between atoms: C_10  and  O_8 
ROOT
ATOM      1  C   UNL d   1      -0.666   0.007  -0.157  0.00  0.00     0.368 C 
ATOM      2  N   UNL d   1       0.148  -1.116  -0.154  0.00  0.00    -0.291 N 
ATOM      3  O   UNL d   1       0.096   1.121   0.081  0.00  0.00    -0.294 OA
ATOM      4  C   UNL d   1       1.478   0.755  -0.054  0.00  0.00     0.176 C 
ATOM      5  C   UNL d   1       1.477  -0.735   0.216  0.00  0.00     0.169 C 
ATOM      6  O   UNL d   1      -1.876   0.073  -0.302  0.00  0.00    -0.238 OA
ENDROOT
BRANCH   4   7
ATOM      7  C   UNL d   1       1.966   1.100  -1.468  0.00  0.00     0.210 C 
BRANCH   7   8
ATOM      8  O   UNL d   1       1.972   2.525  -1.606  0.00  0.00    -0.349 OA
BRANCH   8   9
ATOM      9  C   UNL d   1       2.279   3.030  -2.839  0.00  0.00     0.069 A 
ATOM     10  C   UNL d   1       2.797   2.306  -3.914  0.00  0.00     0.038 A 
ATOM     11  C   UNL d   1       3.095   2.953  -5.118  0.00  0.00     0.022 A 
ATOM     12  C   UNL d   1       2.873   4.323  -5.247  0.00  0.00     0.011 A 
ATOM     13  C   UNL d   1       2.352   5.053  -4.182  0.00  0.00     0.022 A 
ATOM     14 BR   UNL d   1       3.287   5.193  -6.872  0.00  0.00    -0.051 Br
ATOM     15  C   UNL d   1       2.059   4.404  -2.980  0.00  0.00     0.038 A 
ENDBRANCH   8   9
ENDBRANCH   7   8
ENDBRANCH   4   7
BRANCH   2  16
ATOM     16  C   UNL d   1      -0.257  -2.454  -0.373  0.00  0.00     0.039 A 
ATOM     17  C   UNL d   1      -1.442  -2.749  -1.059  0.00  0.00     0.030 A 
ATOM     18  C   UNL d   1      -1.814  -4.071  -1.320  0.00  0.00     0.002 A 
ATOM     19  C   UNL d   1      -1.017  -5.122  -0.877  0.00  0.00     0.000 A 
ATOM     20  C   UNL d   1       0.154  -4.848  -0.176  0.00  0.00     0.002 A 
ATOM     21  C   UNL d   1       0.537  -3.524   0.064  0.00  0.00     0.030 A 
ENDBRANCH   2  16
TORSDOF 4
