REMARK  5 active torsions:
REMARK  status: ('A' for Active; 'I' for Inactive)
REMARK    1  A    between atoms: N_7  and  C_1 
REMARK    2  A    between atoms: O_15  and  C_2 
REMARK    3  A    between atoms: C_12  and  N_9 
REMARK    4  A    between atoms: C_11  and  O_13 
REMARK    5  A    between atoms: O_13  and  C_14 
ROOT
ATOM      1  N   UNL d   1      -0.212  -2.647   0.663  0.00  0.00    -0.294 N 
ATOM      2  HN  UNL d   1      -1.015  -2.956   1.211  1.00  0.00     0.187 HD
ATOM      3  N   UNL d   1       0.616  -3.431   0.155  0.00  0.00    -0.297 N 
ATOM      4  HN  UNL d   1       1.481  -3.122  -0.289  1.00  0.00     0.187 HD
ENDROOT
BRANCH   3   5
ATOM      5  C   UNL d   1       0.237  -4.789   0.254  0.00  0.00     0.081 A 
ATOM      6  C   UNL d   1       1.211  -5.804   0.196  0.00  0.00     0.106 A 
ATOM      7  C   UNL d   1       0.836  -7.148   0.334  0.00  0.00     0.039 A 
ATOM      8  C   UNL d   1      -0.504  -7.506   0.485  0.00  0.00     0.003 A 
ATOM      9  C   UNL d   1      -1.479  -6.522   0.501  0.00  0.00     0.002 A 
ATOM     10  C   UNL d   1      -1.112  -5.180   0.382  0.00  0.00     0.034 A 
BRANCH   6  11
ATOM     11  O   UNL d   1       2.564  -5.622   0.134  0.00  0.00    -0.253 OA
BRANCH  11  12
ATOM     12  C   UNL d   1       3.103  -4.722  -0.824  0.00  0.00     0.530 C 
ATOM     13  F   UNL d   1       2.188  -4.176  -1.656  0.00  0.00    -0.144 F 
ATOM     14  F   UNL d   1       3.768  -3.739  -0.185  0.00  0.00    -0.144 F 
ATOM     15  F   UNL d   1       3.992  -5.399  -1.587  0.00  0.00    -0.144 F 
ENDBRANCH  11  12
ENDBRANCH   6  11
ENDBRANCH   3   5
BRANCH   1  16
ATOM     16  C   UNL d   1       0.074  -1.301   0.406  0.00  0.00     0.124 A 
ATOM     17  C   UNL d   1       0.708  -0.753  -0.684  0.00  0.00     0.187 A 
ATOM     18  N   UNL d   1       0.699   0.600  -0.452  0.00  0.00    -0.274 N 
ATOM     19  C   UNL d   1       1.286   1.629  -1.276  0.00  0.00     0.180 C 
ATOM     20  N   UNL d   1       0.060   0.954   0.687  0.00  0.00    -0.299 N 
ATOM     21  C   UNL d   1      -0.331  -0.219   1.212  0.00  0.00     0.054 A 
ATOM     22  HN  UNL d   1      -0.090   1.891   1.060  1.00  0.00     0.187 HD
ATOM     23  C   UNL d   1      -1.107  -0.257   2.475  0.00  0.00     0.072 C 
BRANCH  17  24
ATOM     24  O   UNL d   1       1.243  -1.285  -1.781  0.00  0.00    -0.343 OA
ATOM     25  H   UNL d   1       1.125  -2.254  -1.698  0.00  0.00     0.219 HD
ENDBRANCH  17  24
ENDBRANCH   1  16
TORSDOF 5
