REMARK  6 active torsions:
REMARK  status: ('A' for Active; 'I' for Inactive)
REMARK    1  A    between atoms: N_4  and  C_1 
REMARK       I    between atoms: C_5  and  N_4 
REMARK       I    between atoms: N_11  and  C_5 
REMARK    2  A    between atoms: C_8  and  C_6 
REMARK    3  A    between atoms: C_10  and  C_8 
REMARK    4  A    between atoms: O_15  and  C_10 
REMARK    5  A    between atoms: C_14  and  N_11 
REMARK    6  A    between atoms: C_16  and  O_15 
ROOT
ATOM      1  C   UNL d   1       0.338  -0.485  -0.443  0.00  0.00     0.152 A 
ATOM      2  N   UNL d   1       1.468   0.122  -0.718  0.00  0.00    -0.339 N 
ATOM      3  HN  UNL d   1       2.339  -0.355  -0.952  1.00  0.00     0.168 HD
ATOM      4  C   UNL d   1       1.318   1.506  -0.648  0.00  0.00     0.027 A 
ATOM      5  S   UNL d   1      -0.970   0.531  -0.069  0.00  0.00    -0.064 SA
ATOM      6  C   UNL d   1       0.040   1.901  -0.287  0.00  0.00     0.078 A 
ENDROOT
BRANCH   1   7
ATOM      7  N   UNL d   1       0.258  -1.846  -0.404  0.00  0.00    -0.288 N 
ATOM      8  C   UNL d   1      -0.769  -2.730  -0.300  0.00  0.00     0.326 C 
ATOM      9  N   UNL d   1      -2.045  -2.276  -0.522  0.00  0.00    -0.309 N 
ATOM     10  O   UNL d   1      -0.465  -3.910  -0.126  0.00  0.00    -0.247 OA
ATOM     11  H   UNL d   1      -2.110  -1.346  -0.908  0.00  0.00     0.170 HD
ATOM     12  H   UNL d   1       1.158  -2.305  -0.475  0.00  0.00     0.172 HD
BRANCH   9  13
ATOM     13  C   UNL d   1      -3.145  -3.131  -0.771  0.00  0.00     0.036 A 
ATOM     14  C   UNL d   1      -3.272  -4.399  -0.197  0.00  0.00     0.029 A 
ATOM     15  C   UNL d   1      -4.279  -5.270  -0.619  0.00  0.00     0.002 A 
ATOM     16  C   UNL d   1      -5.170  -4.875  -1.614  0.00  0.00     0.000 A 
ATOM     17  C   UNL d   1      -5.093  -3.587  -2.140  0.00  0.00     0.002 A 
ATOM     18  C   UNL d   1      -4.101  -2.705  -1.699  0.00  0.00     0.029 A 
ENDBRANCH   9  13
ENDBRANCH   1   7
BRANCH   4  19
ATOM     19  C   UNL d   1       2.514   2.340  -1.006  0.00  0.00     0.168 C 
BRANCH  19  20
ATOM     20  C   UNL d   1       2.501   3.783  -0.550  0.00  0.00     0.264 C 
ATOM     21  O   UNL d   1       1.694   4.303   0.214  0.00  0.00    -0.265 OA
BRANCH  20  22
ATOM     22  O   UNL d   1       3.565   4.436  -1.101  0.00  0.00    -0.322 OA
BRANCH  22  23
ATOM     23  C   UNL d   1       3.768   5.800  -0.690  0.00  0.00     0.174 C 
ATOM     24  C   UNL d   1       3.072   6.757  -1.640  0.00  0.00     0.034 C 
ENDBRANCH  22  23
ENDBRANCH  20  22
ENDBRANCH  19  20
ENDBRANCH   4  19
TORSDOF 6
