REMARK  5 active torsions:
REMARK  status: ('A' for Active; 'I' for Inactive)
REMARK    1  A    between atoms: C_10  and  N_1 
REMARK    2  A    between atoms: C_9  and  C_6 
REMARK    3  A    between atoms: C_13  and  C_9 
REMARK    4  A    between atoms: N_14  and  N_11 
REMARK    5  A    between atoms: C_15  and  N_14 
ROOT
ATOM      1  N   UNL d   1      -0.484  -0.994  -0.983  0.00  0.00    -0.227 N 
ATOM      2  N   UNL d   1       0.666  -0.197   0.656  0.00  0.00    -0.226 N 
ATOM      3  HN  UNL d   1       1.453   0.055   1.255  1.00  0.00     0.210 HD
ATOM      4  N   UNL d   1       0.768  -0.890  -0.461  0.00  0.00    -0.220 N 
ATOM      5  HN  UNL d   1       1.625  -1.276  -0.859  1.00  0.00     0.210 HD
ATOM      6  C   UNL d   1      -1.346  -0.354  -0.092  0.00  0.00     0.125 A 
ATOM      7  N   UNL d   1      -0.627   0.136   0.903  0.00  0.00    -0.271 N 
ATOM      8  HN  UNL d   1      -0.977   0.663   1.703  1.00  0.00     0.190 HD
ENDROOT
BRANCH   6   9
ATOM      9  C   UNL d   1      -2.819  -0.237  -0.144  0.00  0.00     0.126 C 
BRANCH   9  10
ATOM     10  C   UNL d   1      -3.439  -1.554   0.224  0.00  0.00     0.087 C 
ATOM     11  N   UNL d   1      -4.289  -2.128  -0.568  0.00  0.00    -0.315 N 
ATOM     12  HN  UNL d   1      -4.539  -1.743  -1.479  1.00  0.00     0.185 HD
BRANCH  11  13
ATOM     13  N   UNL d   1      -4.819  -3.277  -0.089  0.00  0.00    -0.301 N 
ATOM     14  H   UNL d   1      -4.427  -3.763   0.715  0.00  0.00     0.187 HD
BRANCH  13  15
ATOM     15  C   UNL d   1      -5.746  -4.008  -0.852  0.00  0.00     0.048 A 
ATOM     16  C   UNL d   1      -6.123  -3.634  -2.150  0.00  0.00     0.032 A 
ATOM     17  C   UNL d   1      -7.101  -4.349  -2.850  0.00  0.00     0.026 A 
ATOM     18  C   UNL d   1      -7.733  -5.432  -2.246  0.00  0.00     0.034 A 
ATOM     19  C   UNL d   1      -7.392  -5.807  -0.950  0.00  0.00     0.026 A 
ATOM     20 CL   UNL d   1      -8.948  -6.303  -3.097  0.00  0.00    -0.084 Cl
ATOM     21  C   UNL d   1      -6.407  -5.095  -0.259  0.00  0.00     0.032 A 
ENDBRANCH  13  15
ENDBRANCH  11  13
ENDBRANCH   9  10
ENDBRANCH   6   9
BRANCH   1  22
ATOM     22  C   UNL d   1      -0.677  -1.689  -2.212  0.00  0.00     0.059 A 
ATOM     23  C   UNL d   1       0.419  -2.368  -2.779  0.00  0.00     0.031 A 
ATOM     24  C   UNL d   1       0.281  -3.092  -3.966  0.00  0.00     0.002 A 
ATOM     25  C   UNL d   1      -0.950  -3.143  -4.609  0.00  0.00     0.000 A 
ATOM     26  C   UNL d   1      -2.036  -2.462  -4.072  0.00  0.00     0.002 A 
ATOM     27  C   UNL d   1      -1.902  -1.734  -2.883  0.00  0.00     0.031 A 
ENDBRANCH   1  22
TORSDOF 5
