REMARK  1 active torsions:
REMARK  status: ('A' for Active; 'I' for Inactive)
REMARK    1  A    between atoms: C_2  and  N_1 
ROOT
ATOM      1  C   UNL d   1       1.305   2.305   0.134  0.00  0.00     0.103 A 
ATOM      2  C   UNL d   1       2.243   2.638  -0.861  0.00  0.00     0.066 A 
ATOM      3  C   UNL d   1       1.110   3.205   1.198  0.00  0.00     0.066 A 
ATOM      4  C   UNL d   1       2.965   3.835  -0.791  0.00  0.00     0.050 A 
ATOM      5  C   UNL d   1       1.841   4.395   1.272  0.00  0.00     0.050 A 
ATOM      6  C   UNL d   1       2.763   4.703   0.277  0.00  0.00     0.037 A 
ATOM      7 CL   UNL d   1       2.470   1.675  -2.283  0.00  0.00    -0.082 Cl
ATOM      8 CL   UNL d   1       0.060   2.856   2.533  0.00  0.00    -0.082 Cl
ATOM      9 CL   UNL d   1       3.656   6.169   0.368  0.00  0.00    -0.084 Cl
ENDROOT
BRANCH   1  10
ATOM     10  N   UNL d   1       0.590   1.093   0.078  0.00  0.00    -0.221 N 
ATOM     11  C   UNL d   1       1.153  -0.187   0.083  0.00  0.00     0.248 A 
ATOM     12  C   UNL d   1      -0.032  -1.105   0.098  0.00  0.00     0.158 A 
ATOM     13  O   UNL d   1       2.323  -0.525   0.135  0.00  0.00    -0.271 OA
ATOM     14  C   UNL d   1      -1.159  -0.121   0.038  0.00  0.00     0.009 A 
ATOM     15  N   UNL d   1      -0.785   1.122   0.065  0.00  0.00    -0.299 N 
ATOM     16  C   UNL d   1      -2.580  -0.561  -0.039  0.00  0.00     0.065 C 
ATOM     17  HN  UNL d   1      -1.384   1.947   0.075  1.00  0.00     0.187 HD
ENDBRANCH   1  10
TORSDOF 1
