REMARK  6 active torsions:
REMARK  status: ('A' for Active; 'I' for Inactive)
REMARK    1  A    between atoms: C_2  and  C_1 
REMARK    2  A    between atoms: C_3  and  C_1 
REMARK    3  A    between atoms: C_4  and  C_2 
REMARK       I    between atoms: N_5  and  C_3 
REMARK    4  A    between atoms: O_13  and  C_4 
REMARK    5  A    between atoms: C_12  and  N_5 
REMARK    6  A    between atoms: C_16  and  C_12 
ROOT
ATOM      1  C   UNL d   1       0.802  -1.351   2.358  0.00  0.00     0.297 C 
ATOM      2  N   UNL d   1      -0.362  -0.749   1.918  0.00  0.00    -0.351 N 
ATOM      3  O   UNL d   1       1.569  -0.803   3.151  0.00  0.00    -0.266 OA
ATOM      4  H   UNL d   1      -1.018  -1.292   1.364  0.00  0.00     0.162 HD
ENDROOT
BRANCH   1   5
ATOM      5  C   UNL d   1       1.107  -2.715   1.732  0.00  0.00     0.396 C 
ATOM      6  F   UNL d   1      -0.038  -3.353   1.347  0.00  0.00    -0.188 F 
ATOM      7  F   UNL d   1       1.819  -2.547   0.573  0.00  0.00    -0.188 F 
BRANCH   5   8
ATOM      8  C   UNL d   1       1.917  -3.554   2.709  0.00  0.00     0.399 C 
ATOM      9  F   UNL d   1       2.241  -4.757   2.148  0.00  0.00    -0.186 F 
ATOM     10  F   UNL d   1       3.124  -2.966   2.994  0.00  0.00    -0.186 F 
BRANCH   8  11
ATOM     11  C   UNL d   1       1.109  -3.732   3.983  0.00  0.00     0.223 C 
ATOM     12  O   UNL d   1       0.005  -4.253   4.048  0.00  0.00    -0.645 OA
BRANCH  11  13
ATOM     13  O   UNL d   1       1.729  -3.241   5.093  0.00  0.00    -0.772 OA
ATOM     14  H   UNL d   1       2.598  -2.826   4.887  0.00  0.00     0.167 HD
ENDBRANCH  11  13
ENDBRANCH   8  11
ENDBRANCH   5   8
ENDBRANCH   1   5
BRANCH   2  15
ATOM     15  C   UNL d   1      -0.747   0.585   2.328  0.00  0.00     0.161 C 
BRANCH  15  16
ATOM     16  C   UNL d   1      -1.671   0.594   3.520  0.00  0.00    -0.039 A 
ATOM     17  C   UNL d   1      -2.962   1.135   3.412  0.00  0.00     0.032 A 
ATOM     18  C   UNL d   1      -3.800   1.192   4.528  0.00  0.00     0.034 A 
ATOM     19 CL   UNL d   1      -5.373   1.874   4.378  0.00  0.00    -0.084 Cl
ATOM     20  C   UNL d   1      -3.371   0.712   5.763  0.00  0.00     0.024 A 
ATOM     21  C   UNL d   1      -2.091   0.176   5.884  0.00  0.00     0.002 A 
ATOM     22  C   UNL d   1      -1.246   0.123   4.772  0.00  0.00     0.009 A 
ENDBRANCH  15  16
ENDBRANCH   2  15
TORSDOF 6
