REMARK  6 active torsions:
REMARK  status: ('A' for Active; 'I' for Inactive)
REMARK    1  A    between atoms: N_4  and  C_1 
REMARK    2  A    between atoms: N_6  and  C_1 
REMARK       I    between atoms: C_2  and  N_3 
REMARK    3  A    between atoms: C_8  and  C_2 
REMARK    4  A    between atoms: N_3  and  N_4 
REMARK    5  A    between atoms: C_9  and  N_6 
REMARK    6  A    between atoms: C_10  and  C_9 
ROOT
ATOM      1  N   UNL d   1       0.499  -0.590   1.307  0.00  0.00    -0.274 N 
ATOM      2  H   UNL d   1       0.879  -1.483   1.626  0.00  0.00     0.189 HD
ENDROOT
BRANCH   1   3
ATOM      3  N   UNL d   1      -0.842  -0.365   1.639  0.00  0.00    -0.264 N 
ATOM      4  C   UNL d   1      -1.622  -1.404   2.100  0.00  0.00     0.270 C 
ATOM      5  O   UNL d   1      -1.217  -2.559   2.209  0.00  0.00    -0.266 OA
ATOM      6  H   UNL d   1      -1.126   0.605   1.706  0.00  0.00     0.190 HD
BRANCH   4   7
ATOM      7  C   UNL d   1      -2.994  -1.022   2.541  0.00  0.00     0.033 A 
ATOM      8  C   UNL d   1      -3.661   0.091   2.006  0.00  0.00     0.017 A 
ATOM      9  C   UNL d   1      -4.924   0.447   2.484  0.00  0.00     0.001 A 
ATOM     10  C   UNL d   1      -5.531  -0.310   3.484  0.00  0.00     0.000 A 
ATOM     11  C   UNL d   1      -4.884  -1.433   4.001  0.00  0.00     0.001 A 
ATOM     12  C   UNL d   1      -3.620  -1.793   3.527  0.00  0.00     0.017 A 
ENDBRANCH   4   7
ENDBRANCH   1   3
BRANCH   1  13
ATOM     13  C   UNL d   1       1.011  -0.081   0.137  0.00  0.00     0.186 C 
ATOM     14  S   UNL d   1       0.142   0.685  -1.069  0.00  0.00    -0.040 SA
BRANCH  13  15
ATOM     15  N   UNL d   1       2.370  -0.147   0.010  0.00  0.00    -0.362 N 
ATOM     16  H   UNL d   1       2.707   0.251  -0.858  0.00  0.00     0.162 HD
BRANCH  15  17
ATOM     17  C   UNL d   1       3.291  -0.054   1.132  0.00  0.00     0.160 C 
BRANCH  17  18
ATOM     18  C   UNL d   1       3.908  -1.359   1.557  0.00  0.00    -0.041 A 
ATOM     19  C   UNL d   1       4.059  -2.442   0.680  0.00  0.00     0.009 A 
ATOM     20  C   UNL d   1       4.716  -3.603   1.092  0.00  0.00     0.001 A 
ATOM     21  C   UNL d   1       5.238  -3.693   2.380  0.00  0.00     0.000 A 
ATOM     22  C   UNL d   1       5.101  -2.625   3.262  0.00  0.00     0.001 A 
ATOM     23  C   UNL d   1       4.442  -1.464   2.852  0.00  0.00     0.009 A 
ENDBRANCH  17  18
ENDBRANCH  15  17
ENDBRANCH  13  15
ENDBRANCH   1  13
TORSDOF 6
