REMARK  6 active torsions:
REMARK  status: ('A' for Active; 'I' for Inactive)
REMARK    1  A    between atoms: C_2  and  C_4 
REMARK    2  A    between atoms: C_20  and  C_10 
REMARK    3  A    between atoms: C_19  and  N_11 
REMARK    4  A    between atoms: C_17  and  C_12 
REMARK    5  A    between atoms: C_21  and  C_16 
REMARK    6  A    between atoms: C_22  and  C_17 
ROOT
ATOM      1  N   UNL d   1      -0.796   1.029  -0.050  0.00  0.00    -0.280 N 
ATOM      2  C   UNL d   1       0.062  -0.024   0.056  0.00  0.00     0.156 A 
ATOM      3  C   UNL d   1      -0.307   2.385  -0.132  0.00  0.00     0.157 A 
ATOM      4  C   UNL d   1      -2.132   0.747   0.087  0.00  0.00     0.267 C 
ATOM      5  N   UNL d   1       1.347   0.035   0.081  0.00  0.00    -0.336 N 
ATOM      6  HN  UNL d   1       1.915  -0.809   0.151  1.00  0.00     0.168 HD
ATOM      7  C   UNL d   1      -2.335  -0.727   0.108  0.00  0.00     0.077 C 
ATOM      8  S   UNL d   1      -0.814  -1.531   0.170  0.00  0.00    -0.048 SA
ATOM      9  C   UNL d   1       1.185   2.405  -0.063  0.00  0.00     0.034 A 
ATOM     10  C   UNL d   1       1.923   1.283   0.011  0.00  0.00     0.043 A 
ATOM     11  O   UNL d   1      -3.035   1.564   0.203  0.00  0.00    -0.266 OA
ENDROOT
BRANCH   3  12
ATOM     12  C   UNL d   1      -0.780   3.045  -1.403  0.00  0.00     0.015 A 
ATOM     13  C   UNL d   1      -1.049   4.433  -1.650  0.00  0.00     0.069 A 
ATOM     14  N   UNL d   1      -1.358   4.635  -2.939  0.00  0.00    -0.293 N 
ATOM     15  N   UNL d   1      -1.368   3.416  -3.523  0.00  0.00    -0.267 N 
ATOM     16  HN  UNL d   1      -1.548   5.531  -3.390  1.00  0.00     0.187 HD
ATOM     17  C   UNL d   1      -1.006   2.441  -2.628  0.00  0.00     0.128 A 
BRANCH  13  18
ATOM     18  C   UNL d   1      -0.975   5.580  -0.733  0.00  0.00    -0.007 A 
ATOM     19  C   UNL d   1      -1.368   5.482   0.608  0.00  0.00     0.014 A 
ATOM     20  C   UNL d   1      -1.258   6.575   1.472  0.00  0.00     0.001 A 
ATOM     21  C   UNL d   1      -0.801   7.800   0.994  0.00  0.00     0.000 A 
ATOM     22  C   UNL d   1      -0.452   7.931  -0.348  0.00  0.00     0.001 A 
ATOM     23  C   UNL d   1      -0.531   6.827  -1.203  0.00  0.00     0.014 A 
ENDBRANCH  13  18
BRANCH  15  24
ATOM     24  C   UNL d   1      -1.699   3.262  -4.901  0.00  0.00     0.056 A 
ATOM     25  C   UNL d   1      -1.750   1.992  -5.497  0.00  0.00     0.031 A 
ATOM     26  C   UNL d   1      -2.078   1.864  -6.851  0.00  0.00     0.002 A 
ATOM     27  C   UNL d   1      -2.351   2.994  -7.618  0.00  0.00     0.000 A 
ATOM     28  C   UNL d   1      -2.302   4.258  -7.034  0.00  0.00     0.002 A 
ATOM     29  C   UNL d   1      -1.980   4.394  -5.680  0.00  0.00     0.031 A 
ENDBRANCH  15  24
ENDBRANCH   3  12
BRANCH  10  30
ATOM     30  C   UNL d   1       3.407   1.370   0.051  0.00  0.00    -0.010 A 
ATOM     31  C   UNL d   1       4.148   0.415   0.766  0.00  0.00     0.013 A 
ATOM     32  C   UNL d   1       5.545   0.463   0.799  0.00  0.00     0.001 A 
ATOM     33  C   UNL d   1       6.226   1.466   0.114  0.00  0.00     0.000 A 
ATOM     34  C   UNL d   1       5.513   2.418  -0.607  0.00  0.00     0.001 A 
ATOM     35  C   UNL d   1       4.116   2.366  -0.644  0.00  0.00     0.013 A 
ENDBRANCH  10  30
BRANCH   7  36
ATOM     36  C   UNL d   1      -3.562  -1.258   0.049  0.00  0.00     0.036 C 
BRANCH  36  37
ATOM     37  C   UNL d   1      -3.886  -2.685   0.039  0.00  0.00    -0.035 A 
ATOM     38  C   UNL d   1      -4.148  -3.352   1.240  0.00  0.00     0.011 A 
ATOM     39  C   UNL d   1      -4.503  -4.702   1.230  0.00  0.00     0.001 A 
ATOM     40  C   UNL d   1      -4.596  -5.391   0.021  0.00  0.00     0.000 A 
ATOM     41  C   UNL d   1      -4.332  -4.731  -1.179  0.00  0.00     0.001 A 
ATOM     42  C   UNL d   1      -3.976  -3.381  -1.171  0.00  0.00     0.011 A 
ENDBRANCH  36  37
ENDBRANCH   7  36
TORSDOF 6
