REMARK  4 active torsions:
REMARK  status: ('A' for Active; 'I' for Inactive)
REMARK    1  A    between atoms: C_3  and  N_1 
REMARK    2  A    between atoms: C_2  and  C_8 
REMARK    3  A    between atoms: C_13  and  C_2 
REMARK    4  A    between atoms: O_14  and  N_6 
ROOT
ATOM      1  C   UNL d   1       0.317  -1.345   0.344  0.00  0.00     0.102 A 
ATOM      2  C   UNL d   1      -1.233  -3.465   1.323  0.00  0.00    -0.011 A 
ATOM      3  C   UNL d   1      -0.306  -2.222  -0.553  0.00  0.00     0.037 A 
ATOM      4  C   UNL d   1       0.175  -1.524   1.726  0.00  0.00     0.037 A 
ATOM      5  C   UNL d   1      -0.607  -2.578   2.211  0.00  0.00     0.016 A 
ATOM      6  C   UNL d   1      -1.067  -3.286  -0.058  0.00  0.00     0.016 A 
ENDROOT
BRANCH   2   7
ATOM      7  C   UNL d   1      -2.042  -4.613   1.848  0.00  0.00     0.045 C 
ATOM      8  N   UNL d   1      -3.186  -5.025   1.377  0.00  0.00    -0.272 N 
ATOM      9  HN  UNL d   1      -3.666  -5.855   1.727  1.00  0.00     0.194 HD
BRANCH   8  10
ATOM     10  O   UNL d   1      -3.694  -4.228   0.351  0.00  0.00    -0.290 OA
ATOM     11  H   UNL d   1      -4.530  -4.681   0.133  0.00  0.00     0.244 HD
ENDBRANCH   8  10
BRANCH   7  12
ATOM     12  C   UNL d   1      -1.471  -5.382   3.050  0.00  0.00     0.030 C 
ATOM     13  C   UNL d   1      -2.426  -5.266   4.238  0.00  0.00     0.016 C 
ATOM     14  C   UNL d   1      -1.227  -6.844   2.684  0.00  0.00     0.016 C 
ENDBRANCH   7  12
ENDBRANCH   2   7
BRANCH   1  15
ATOM     15  N   UNL d   1       1.126  -0.231  -0.168  0.00  0.00    -0.116 N 
ATOM     16  O   UNL d   1       1.158  -0.058  -1.393  0.00  0.00    -0.532 OA
ATOM     17  O   UNL d   1       1.732   0.466   0.658  0.00  0.00    -0.532 OA
ENDBRANCH   1  15
TORSDOF 4
