REMARK  2 active torsions:
REMARK  status: ('A' for Active; 'I' for Inactive)
REMARK    1  A    between atoms: C_6  and  C_1 
REMARK    2  A    between atoms: C_10  and  C_6 
ROOT
ATOM      1  C   UNL d   1      -2.377   0.104   0.002  0.00  0.00     0.128 A 
ATOM      2  O   UNL d   1      -1.569  -0.999  -0.006  0.00  0.00    -0.304 OA
ATOM      3  C   UNL d   1      -0.277  -0.567  -0.019  0.00  0.00     0.108 A 
ATOM      4  C   UNL d   1      -0.243   0.823  -0.023  0.00  0.00     0.004 A 
ATOM      5  C   UNL d   1      -1.599   1.246  -0.038  0.00  0.00     0.055 A 
ATOM      6  C   UNL d   1       0.864  -1.369  -0.018  0.00  0.00     0.070 A 
ATOM      7  C   UNL d   1       2.101  -0.724  -0.010  0.00  0.00     0.050 A 
ATOM      8  C   UNL d   1       1.010   1.464  -0.010  0.00  0.00     0.038 A 
ATOM      9  C   UNL d   1       2.167   0.670  -0.003  0.00  0.00     0.036 A 
ATOM     10 CL   UNL d   1       0.763  -3.082  -0.016  0.00  0.00    -0.081 Cl
ATOM     11 CL   UNL d   1       3.708   1.440   0.019  0.00  0.00    -0.084 Cl
ENDROOT
BRANCH   1  12
ATOM     12  C   UNL d   1      -3.814  -0.070   0.026  0.00  0.00     0.215 C 
ATOM     13  O   UNL d   1      -4.598   0.760  -0.427  0.00  0.00    -0.284 OA
BRANCH  12  14
ATOM     14  C   UNL d   1      -4.378  -1.295   0.666  0.00  0.00     0.017 A 
ATOM     15  C   UNL d   1      -5.575  -1.834   0.179  0.00  0.00     0.017 A 
ATOM     16  C   UNL d   1      -6.133  -2.963   0.787  0.00  0.00     0.025 A 
ATOM     17  C   UNL d   1      -5.502  -3.544   1.887  0.00  0.00     0.034 A 
ATOM     18  C   UNL d   1      -4.319  -3.006   2.387  0.00  0.00     0.025 A 
ATOM     19 CL   UNL d   1      -6.193  -4.926   2.642  0.00  0.00    -0.084 Cl
ATOM     20  C   UNL d   1      -3.759  -1.879   1.783  0.00  0.00     0.017 A 
ENDBRANCH  12  14
ENDBRANCH   1  12
TORSDOF 2
