REMARK  5 active torsions:
REMARK  status: ('A' for Active; 'I' for Inactive)
REMARK    1  A    between atoms: C_5  and  C_1 
REMARK    2  A    between atoms: C_12  and  C_3 
REMARK    3  A    between atoms: C_6  and  C_5 
REMARK    4  A    between atoms: N_11  and  C_8 
REMARK    5  A    between atoms: C_14  and  N_11 
ROOT
ATOM      1  C   UNL d   1      -0.942  -3.712  -0.060  0.00  0.00     0.110 C 
ATOM      2  C   UNL d   1      -0.659  -4.948   0.395  0.00  0.00     0.115 C 
ATOM      3  C   UNL d   1      -2.248  -3.446  -0.548  0.00  0.00     0.105 C 
ATOM      4  N   UNL d   1      -3.333  -3.252  -0.917  0.00  0.00    -0.191 NA
ENDROOT
BRANCH   1   5
ATOM      5  C   UNL d   1       0.133  -2.676  -0.075  0.00  0.00     0.206 C 
ATOM      6  O   UNL d   1       1.320  -3.000  -0.052  0.00  0.00    -0.286 OA
BRANCH   5   7
ATOM      7  C   UNL d   1      -0.281  -1.279  -0.084  0.00  0.00     0.048 A 
ATOM      8  C   UNL d   1      -1.455  -0.654   0.441  0.00  0.00     0.056 A 
ATOM      9  C   UNL d   1      -1.319   0.706   0.256  0.00  0.00     0.086 A 
ATOM     10  O   UNL d   1      -0.138   0.959  -0.373  0.00  0.00    -0.314 OA
ATOM     11  C   UNL d   1       0.492  -0.232  -0.567  0.00  0.00     0.064 A 
ATOM     12  C   UNL d   1       1.819  -0.137  -1.217  0.00  0.00     0.077 C 
BRANCH   9  13
ATOM     13  C   UNL d   1      -2.128   1.861   0.627  0.00  0.00    -0.002 A 
ATOM     14  C   UNL d   1      -1.548   3.126   0.794  0.00  0.00     0.014 A 
ATOM     15  C   UNL d   1      -2.312   4.212   1.230  0.00  0.00     0.001 A 
ATOM     16  C   UNL d   1      -3.670   4.047   1.496  0.00  0.00     0.000 A 
ATOM     17  C   UNL d   1      -4.266   2.801   1.314  0.00  0.00     0.001 A 
ATOM     18  C   UNL d   1      -3.500   1.715   0.883  0.00  0.00     0.014 A 
ENDBRANCH   9  13
ENDBRANCH   5   7
ENDBRANCH   1   5
BRANCH   2  19
ATOM     19  N   UNL d   1       0.523  -5.447   0.888  0.00  0.00    -0.364 N 
ATOM     20  H   UNL d   1       1.328  -4.817   0.822  0.00  0.00     0.165 HD
BRANCH  19  21
ATOM     21  C   UNL d   1       0.810  -6.744   1.349  0.00  0.00     0.031 A 
ATOM     22  C   UNL d   1      -0.106  -7.801   1.297  0.00  0.00     0.030 A 
ATOM     23  C   UNL d   1       0.203  -9.055   1.834  0.00  0.00     0.009 A 
ATOM     24  C   UNL d   1       1.436  -9.281   2.449  0.00  0.00    -0.062 A 
ATOM     25  C   UNL d   1       2.360  -8.236   2.508  0.00  0.00     0.009 A 
ATOM     26  C   UNL d   1       1.733 -10.624   3.043  0.00  0.00     0.048 C 
ATOM     27  C   UNL d   1       2.046  -6.983   1.966  0.00  0.00     0.030 A 
ENDBRANCH  19  21
ENDBRANCH   2  19
TORSDOF 5
