REMARK  2 active torsions:
REMARK  status: ('A' for Active; 'I' for Inactive)
REMARK    1  A    between atoms: N_2  and  C_5 
REMARK    2  A    between atoms: C_21  and  N_23 
ROOT
ATOM      1  C   UNL d   1       1.399   0.683   0.134  0.00  0.00     0.144 A 
ATOM      2  N   UNL d   1       2.670   1.207  -0.014  0.00  0.00    -0.239 N 
ATOM      3  C   UNL d   1       1.502  -0.680   0.013  0.00  0.00     0.084 A 
ATOM      4  N   UNL d   1       0.232   1.365   0.253  0.00  0.00    -0.339 N 
ATOM      5  N   UNL d   1       3.568   0.227  -0.303  0.00  0.00    -0.296 N 
ATOM      6  HN  UNL d   1       4.554   0.338  -0.541  1.00  0.00     0.187 HD
ATOM      7  C   UNL d   1       0.319  -1.516   0.051  0.00  0.00     0.200 C 
ATOM      8  C   UNL d   1       2.874  -0.922  -0.207  0.00  0.00     0.040 A 
ATOM      9  C   UNL d   1      -0.978   0.644   0.118  0.00  0.00     0.048 A 
ATOM     10  C   UNL d   1      -0.984  -0.771   0.051  0.00  0.00     0.042 A 
ATOM     11  O   UNL d   1       0.357  -2.741   0.044  0.00  0.00    -0.286 OA
ATOM     12  C   UNL d   1       3.574  -2.218  -0.390  0.00  0.00     0.071 C 
ATOM     13  C   UNL d   1      -2.197   1.332   0.104  0.00  0.00     0.030 A 
ATOM     14  C   UNL d   1      -2.190  -1.467  -0.074  0.00  0.00     0.018 A 
ATOM     15  C   UNL d   1      -3.396   0.632  -0.033  0.00  0.00     0.002 A 
ATOM     16  C   UNL d   1      -3.393  -0.761  -0.127  0.00  0.00     0.001 A 
ATOM     17  H   UNL d   1       0.161   2.360   0.055  0.00  0.00     0.167 HD
ENDROOT
BRANCH   2  18
ATOM     18  C   UNL d   1       3.067   2.570   0.043  0.00  0.00     0.058 A 
ATOM     19  C   UNL d   1       2.385   3.477   0.868  0.00  0.00     0.034 A 
ATOM     20  C   UNL d   1       2.731   4.830   0.860  0.00  0.00     0.038 A 
ATOM     21  C   UNL d   1       3.760   5.275   0.021  0.00  0.00     0.103 A 
ATOM     22  C   UNL d   1       4.469   4.370  -0.782  0.00  0.00     0.038 A 
ATOM     23  C   UNL d   1       4.134   3.011  -0.754  0.00  0.00     0.034 A 
BRANCH  21  24
ATOM     24  N   UNL d   1       4.092   6.704  -0.017  0.00  0.00    -0.116 N 
ATOM     25  O   UNL d   1       3.428   7.468   0.701  0.00  0.00    -0.532 OA
ATOM     26  O   UNL d   1       5.005   7.067  -0.771  0.00  0.00    -0.532 OA
ENDBRANCH  21  24
ENDBRANCH   2  18
TORSDOF 2
