REMARK  5 active torsions:
REMARK  status: ('A' for Active; 'I' for Inactive)
REMARK    1  A    between atoms: C_3  and  C_1 
REMARK    2  A    between atoms: C_7  and  C_2 
REMARK       I    between atoms: N_10  and  C_3 
REMARK    3  A    between atoms: C_6  and  C_12 
REMARK    4  A    between atoms: C_14  and  N_10 
REMARK    5  A    between atoms: C_12  and  C_15 
ROOT
ATOM      1  C   UNL d   1      -1.263  -3.751  -0.332  0.00  0.00     0.041 C 
ATOM      2  C   UNL d   1      -2.170  -2.951  -1.073  0.00  0.00    -0.029 C 
ATOM      3  C   UNL d   1      -1.722  -4.976   0.194  0.00  0.00     0.030 C 
ATOM      4  C   UNL d   1      -3.396  -3.551  -1.452  0.00  0.00     0.009 C 
ATOM      5  C   UNL d   1      -3.833  -4.760  -0.916  0.00  0.00     0.001 C 
ATOM      6  C   UNL d   1      -3.013  -5.447  -0.043  0.00  0.00     0.002 C 
ENDROOT
BRANCH   1   7
ATOM      7  N   UNL d   1       0.140  -3.554  -0.173  0.00  0.00    -0.322 N 
ATOM      8  C   UNL d   1       0.804  -2.376   0.074  0.00  0.00     0.261 C 
ATOM      9  O   UNL d   1       0.218  -1.390   0.510  0.00  0.00    -0.267 OA
ATOM     10  H   UNL d   1       0.683  -4.396  -0.044  0.00  0.00     0.169 HD
BRANCH   8  11
ATOM     11  C   UNL d   1       2.259  -2.343  -0.121  0.00  0.00     0.093 A 
ATOM     12  C   UNL d   1       3.330  -3.247  -0.497  0.00  0.00     0.085 A 
ATOM     13  N   UNL d   1       4.502  -2.578  -0.516  0.00  0.00    -0.259 N 
ATOM     14  O   UNL d   1       4.253  -1.295  -0.154  0.00  0.00    -0.241 OA
ATOM     15  HN  UNL d   1       5.413  -2.968  -0.760  1.00  0.00     0.195 HD
ATOM     16  C   UNL d   1       2.938  -1.143   0.081  0.00  0.00     0.090 A 
ATOM     17  C   UNL d   1       2.535   0.224   0.478  0.00  0.00     0.080 C 
BRANCH  12  18
ATOM     18  C   UNL d   1       3.463  -4.683  -0.821  0.00  0.00     0.015 A 
ATOM     19  C   UNL d   1       2.747  -5.364  -1.813  0.00  0.00     0.046 A 
ATOM     20 CL   UNL d   1       1.505  -4.625  -2.753  0.00  0.00    -0.083 Cl
ATOM     21  C   UNL d   1       3.095  -6.684  -2.163  0.00  0.00     0.025 A 
ATOM     22  C   UNL d   1       4.191  -7.322  -1.580  0.00  0.00     0.002 A 
ATOM     23  C   UNL d   1       4.934  -6.656  -0.618  0.00  0.00     0.001 A 
ATOM     24  C   UNL d   1       4.562  -5.364  -0.233  0.00  0.00     0.015 A 
ENDBRANCH  12  18
ENDBRANCH   8  11
ENDBRANCH   1   7
BRANCH   2  25
ATOM     25  C   UNL d   1      -1.953  -1.538  -1.603  0.00  0.00     0.081 C 
BRANCH  25  26
ATOM     26  C   UNL d   1      -3.134  -0.481  -1.428  0.00  0.00     0.260 C 
ATOM     27  N   UNL d   1      -2.817   0.882  -1.957  0.00  0.00     0.093 N 
ATOM     28  C   UNL d   1      -1.942   1.619  -1.036  0.00  0.00     0.277 C 
ATOM     29  C   UNL d   1      -2.280   0.887  -3.311  0.00  0.00     0.310 C 
ATOM     30  C   UNL d   1      -2.642   1.895   0.296  0.00  0.00     0.069 C 
ATOM     31  C   UNL d   1      -3.417   0.720   0.826  0.00  0.00    -0.048 A 
ATOM     32  C   UNL d   1      -3.726  -0.371  -0.011  0.00  0.00    -0.018 A 
ATOM     33  C   UNL d   1      -3.957   0.794   2.127  0.00  0.00     0.008 A 
ATOM     34  C   UNL d   1      -4.650  -1.312   0.469  0.00  0.00     0.010 A 
ATOM     35  C   UNL d   1      -5.178  -1.243   1.763  0.00  0.00     0.001 A 
ATOM     36  C   UNL d   1      -4.815  -0.194   2.597  0.00  0.00     0.001 A 
ENDBRANCH  25  26
ENDBRANCH   2  25
TORSDOF 5
