REMARK  2 active torsions:
REMARK  status: ('A' for Active; 'I' for Inactive)
REMARK    1  A    between atoms: C_11  and  N_2 
REMARK    2  A    between atoms: C_8  and  C_13 
ROOT
ATOM      1  N   UNL d   1       4.640  -0.817  -0.069  0.00  0.00    -0.365 N 
ATOM      2  HN  UNL d   1       4.679   0.201  -0.107  1.00  0.00     0.165 HD
ATOM      3  C   UNL d   1       3.497  -1.421   0.007  0.00  0.00     0.100 C 
ENDROOT
BRANCH   3   4
ATOM      4  C   UNL d   1       2.221  -0.679   0.009  0.00  0.00    -0.018 A 
ATOM      5  C   UNL d   1       1.025  -1.404   0.038  0.00  0.00     0.052 A 
ATOM      6  C   UNL d   1      -0.151  -0.685   0.046  0.00  0.00     0.105 A 
ATOM      7  C   UNL d   1      -0.163   0.692   0.019  0.00  0.00     0.105 A 
ATOM      8  O   UNL d   1      -1.403  -1.213   0.080  0.00  0.00    -0.323 OA
ATOM      9  O   UNL d   1      -1.424   1.198   0.034  0.00  0.00    -0.323 OA
ATOM     10  C   UNL d   1       1.003   1.429  -0.020  0.00  0.00     0.040 A 
ATOM     11  C   UNL d   1      -2.203  -0.012   0.126  0.00  0.00     0.352 A 
ATOM     12  C   UNL d   1       2.212   0.732  -0.022  0.00  0.00     0.016 A 
ENDBRANCH   3   4
BRANCH   1  13
ATOM     13  C   UNL d   1       5.828  -1.570  -0.101  0.00  0.00     0.034 A 
ATOM     14  C   UNL d   1       5.933  -2.828  -0.702  0.00  0.00     0.071 A 
ATOM     15  C   UNL d   1       7.156  -3.489  -0.731  0.00  0.00     0.118 A 
ATOM     16  F   UNL d   1       7.230  -4.700  -1.299  0.00  0.00    -0.206 F 
ATOM     17  C   UNL d   1       8.299  -2.915  -0.195  0.00  0.00     0.042 A 
ATOM     18  C   UNL d   1       8.218  -1.652   0.387  0.00  0.00     0.005 A 
ATOM     19  C   UNL d   1       6.987  -0.989   0.433  0.00  0.00     0.029 A 
ENDBRANCH   1  13
TORSDOF 2
