REMARK  4 active torsions:
REMARK  status: ('A' for Active; 'I' for Inactive)
REMARK    1  A    between atoms: C_8  and  N_1 
REMARK    2  A    between atoms: C_10  and  C_2 
REMARK    3  A    between atoms: C_9  and  C_7 
REMARK    4  A    between atoms: C_11  and  C_12 
ROOT
ATOM      1  N   UNL d   1      -0.170  -1.166  -0.505  0.00  0.00    -0.223 N 
ATOM      2  C   UNL d   1       1.031  -0.580  -0.102  0.00  0.00     0.148 A 
ATOM      3  N   UNL d   1      -1.169  -0.283  -0.295  0.00  0.00     0.001 NA
ATOM      4  N   UNL d   1      -0.609   0.784   0.245  0.00  0.00    -0.007 NA
ATOM      5  N   UNL d   1       0.740   0.617   0.387  0.00  0.00    -0.269 N 
ATOM      6  HN  UNL d   1       1.397   1.284   0.793  1.00  0.00     0.185 HD
ENDROOT
BRANCH   1   7
ATOM      7  C   UNL d   1      -0.456  -2.495  -0.910  0.00  0.00     0.071 A 
ATOM      8  C   UNL d   1      -1.419  -2.794  -1.900  0.00  0.00     0.076 A 
ATOM      9  C   UNL d   1      -1.632  -4.149  -2.228  0.00  0.00     0.018 A 
ATOM     10  C   UNL d   1      -0.907  -5.176  -1.621  0.00  0.00     0.001 A 
ATOM     11  C   UNL d   1       0.033  -4.870  -0.648  0.00  0.00     0.002 A 
ATOM     12  C   UNL d   1       0.245  -3.542  -0.280  0.00  0.00     0.032 A 
BRANCH   8  13
ATOM     13  C   UNL d   1      -2.203  -1.778  -2.712  0.00  0.00     0.419 C 
ATOM     14  F   UNL d   1      -1.684  -0.526  -2.755  0.00  0.00    -0.166 F 
ATOM     15  F   UNL d   1      -2.280  -2.153  -4.027  0.00  0.00    -0.166 F 
ATOM     16  F   UNL d   1      -3.494  -1.666  -2.296  0.00  0.00    -0.166 F 
ENDBRANCH   8  13
ENDBRANCH   1   7
BRANCH   2  17
ATOM     17  C   UNL d   1       2.380  -1.151  -0.187  0.00  0.00     0.011 A 
ATOM     18  C   UNL d   1       2.788  -1.964  -1.246  0.00  0.00     0.016 A 
ATOM     19  C   UNL d   1       4.032  -2.606  -1.216  0.00  0.00     0.009 A 
ATOM     20  C   UNL d   1       4.935  -2.413  -0.155  0.00  0.00    -0.051 A 
ATOM     21  C   UNL d   1       4.548  -1.521   0.857  0.00  0.00     0.009 A 
ATOM     22  C   UNL d   1       3.291  -0.899   0.841  0.00  0.00     0.016 A 
BRANCH  20  23
ATOM     23  C   UNL d   1       6.273  -3.173  -0.128  0.00  0.00    -0.024 C 
ATOM     24  C   UNL d   1       7.179  -2.792   1.064  0.00  0.00     0.019 C 
ATOM     25  C   UNL d   1       5.999  -4.690  -0.028  0.00  0.00     0.019 C 
ATOM     26  C   UNL d   1       7.071  -2.888  -1.418  0.00  0.00     0.019 C 
ENDBRANCH  20  23
ENDBRANCH   2  17
TORSDOF 4
