REMARK  10 active torsions:
REMARK  status: ('A' for Active; 'I' for Inactive)
REMARK    1  A    between atoms: S_9  and  C_2 
REMARK    2  A    between atoms: S_10  and  C_5 
REMARK    3  A    between atoms: C_15  and  S_9 
REMARK    4  A    between atoms: C_16  and  S_10 
REMARK    5  A    between atoms: C_11  and  C_16 
REMARK    6  A    between atoms: C_13  and  C_11 
REMARK    7  A    between atoms: C_12  and  C_15 
REMARK    8  A    between atoms: C_14  and  C_12 
REMARK    9  A    between atoms: O_23  and  C_21 
REMARK   10  A    between atoms: O_24  and  C_22 
ROOT
ATOM      1  C   UNL d   1      -0.340  -1.217  -0.003  0.00  0.00     0.103 A 
ATOM      2  C   UNL d   1       0.920  -0.701  -0.279  0.00  0.00     0.082 A 
ATOM      3  N   UNL d   1      -0.761   1.074   0.306  0.00  0.00    -0.319 N 
ATOM      4  HN  UNL d   1      -1.286   1.926   0.504  1.00  0.00     0.175 HD
ATOM      5  C   UNL d   1      -1.252  -0.162   0.332  0.00  0.00     0.099 A 
ATOM      6  S   UNL d   1       0.835   1.003  -0.097  0.00  0.00    -0.005 SA
ATOM      7  C   UNL d   1      -0.658  -2.610  -0.045  0.00  0.00     0.104 C 
ATOM      8  N   UNL d   1      -0.905  -3.744  -0.094  0.00  0.00    -0.191 NA
ENDROOT
BRANCH   2   9
ATOM      9  S   UNL d   1       2.397  -1.585  -0.672  0.00  0.00    -0.112 SA
BRANCH   9  10
ATOM     10  C   UNL d   1       3.347  -0.391  -1.659  0.00  0.00     0.164 C 
BRANCH  10  11
ATOM     11  C   UNL d   1       4.720  -0.929  -2.013  0.00  0.00     0.169 C 
ATOM     12  O   UNL d   1       5.693  -0.732  -1.286  0.00  0.00    -0.291 OA
BRANCH  11  13
ATOM     13  C   UNL d   1       4.918  -1.647  -3.305  0.00  0.00     0.013 A 
ATOM     14  C   UNL d   1       3.905  -2.422  -3.881  0.00  0.00     0.051 A 
ATOM     15  C   UNL d   1       4.143  -3.116  -5.070  0.00  0.00     0.069 A 
ATOM     16  C   UNL d   1       5.390  -3.011  -5.691  0.00  0.00     0.037 A 
ATOM     17  C   UNL d   1       6.401  -2.231  -5.129  0.00  0.00     0.004 A 
ATOM     18  C   UNL d   1       6.169  -1.556  -3.932  0.00  0.00     0.015 A 
BRANCH  15  19
ATOM     19  O   UNL d   1       3.249  -3.928  -5.713  0.00  0.00    -0.356 OA
ATOM     20  C   UNL d   1       1.989  -4.130  -5.081  0.00  0.00     0.210 C 
ENDBRANCH  15  19
ENDBRANCH  11  13
ENDBRANCH  10  11
ENDBRANCH   9  10
ENDBRANCH   2   9
BRANCH   5  21
ATOM     21  S   UNL d   1      -2.950  -0.396   0.751  0.00  0.00    -0.102 SA
BRANCH  21  22
ATOM     22  C   UNL d   1      -3.308   1.143   1.663  0.00  0.00     0.164 C 
BRANCH  22  23
ATOM     23  C   UNL d   1      -4.756   1.227   2.125  0.00  0.00     0.169 C 
ATOM     24  O   UNL d   1      -5.619   0.406   1.817  0.00  0.00    -0.291 OA
BRANCH  23  25
ATOM     25  C   UNL d   1      -5.160   2.394   2.981  0.00  0.00     0.013 A 
ATOM     26  C   UNL d   1      -6.509   2.503   3.369  0.00  0.00     0.051 A 
ATOM     27  C   UNL d   1      -6.940   3.576   4.152  0.00  0.00     0.069 A 
ATOM     28  C   UNL d   1      -6.016   4.540   4.557  0.00  0.00     0.037 A 
ATOM     29  C   UNL d   1      -4.676   4.441   4.184  0.00  0.00     0.004 A 
ATOM     30  C   UNL d   1      -4.247   3.372   3.395  0.00  0.00     0.015 A 
BRANCH  27  31
ATOM     31  O   UNL d   1      -8.219   3.800   4.582  0.00  0.00    -0.356 OA
ATOM     32  C   UNL d   1      -9.211   2.860   4.189  0.00  0.00     0.210 C 
ENDBRANCH  27  31
ENDBRANCH  23  25
ENDBRANCH  22  23
ENDBRANCH  21  22
ENDBRANCH   5  21
TORSDOF 10
