REMARK  2 active torsions:
REMARK  status: ('A' for Active; 'I' for Inactive)
REMARK    1  A    between atoms: C_8  and  C_6 
REMARK    2  A    between atoms: O_11  and  C_8 
ROOT
ATOM      1  C   UNL d   1      -0.842   0.782   0.452  0.00  0.00     0.065 A 
ATOM      2  C   UNL d   1      -0.849  -0.728   0.450  0.00  0.00     0.017 A 
ATOM      3  C   UNL d   1      -0.837   0.009  -0.844  0.00  0.00     0.004 A 
ATOM      4  C   UNL d   1       0.569   1.188   0.682  0.00  0.00     0.137 C 
ATOM      5  C   UNL d   1       1.298   0.007   0.041  0.00  0.00     0.071 C 
ATOM      6  C   UNL d   1       0.574  -1.189   0.745  0.00  0.00     0.100 C 
ATOM      7  C   UNL d   1       0.592   0.034  -1.360  0.00  0.00     0.019 C 
ATOM      8  O   UNL d   1       0.980   2.227   1.145  0.00  0.00    -0.297 OA
ENDROOT
BRANCH   6   9
ATOM      9  C   UNL d   1       0.898  -1.319   2.218  0.00  0.00     0.145 C 
ATOM     10  O   UNL d   1       0.112  -1.081   3.120  0.00  0.00    -0.650 OA
BRANCH   9  11
ATOM     11  O   UNL d   1       2.149  -1.772   2.455  0.00  0.00    -0.776 OA
ATOM     12  H   UNL d   1       2.679  -1.975   1.663  0.00  0.00     0.167 HD
ENDBRANCH   9  11
ENDBRANCH   6   9
TORSDOF 2
