REMARK  4 active torsions:
REMARK  status: ('A' for Active; 'I' for Inactive)
REMARK    1  A    between atoms: C_9  and  C_1 
REMARK    2  A    between atoms: S_10  and  C_3 
REMARK    3  A    between atoms: N_8  and  C_11 
REMARK    4  A    between atoms: C_12  and  S_10 
ROOT
ATOM      1  C   UNL d   1      -0.401   0.973   0.258  0.00  0.00     0.209 A 
ATOM      2  N   UNL d   1      -0.040  -0.197   0.896  0.00  0.00    -0.312 N 
ATOM      3  C   UNL d   1       0.217  -1.096  -0.106  0.00  0.00     0.169 A 
ATOM      4  N   UNL d   1      -0.296   0.781  -1.049  0.00  0.00    -0.279 N 
ATOM      5  HN  UNL d   1      -0.468   1.483  -1.769  1.00  0.00     0.188 HD
ATOM      6  N   UNL d   1       0.083  -0.517  -1.273  0.00  0.00    -0.278 N 
ATOM      7  HN  UNL d   1       0.232  -0.952  -2.184  1.00  0.00     0.189 HD
ATOM      8  C   UNL d   1       0.027  -0.459   2.312  0.00  0.00     0.160 C 
ENDROOT
BRANCH   3   9
ATOM      9  S   UNL d   1       0.498  -2.782   0.140  0.00  0.00    -0.035 SA
BRANCH   9  10
ATOM     10  C   UNL d   1       2.275  -2.775   0.037  0.00  0.00     0.077 A 
ATOM     11  N   UNL d   1       2.954  -2.179   1.049  0.00  0.00    -0.358 N 
ATOM     12  C   UNL d   1       4.310  -2.295   1.043  0.00  0.00     0.124 A 
ATOM     13  HN  UNL d   1       2.468  -1.665   1.784  1.00  0.00     0.166 HD
ATOM     14  C   UNL d   1       5.010  -2.992   0.070  0.00  0.00     0.118 A 
ATOM     15  C   UNL d   1       4.302  -3.586  -0.973  0.00  0.00     0.040 A 
ATOM     16  C   UNL d   1       2.909  -3.474  -0.988  0.00  0.00     0.040 A 
BRANCH  14  17
ATOM     17  N   UNL d   1       6.457  -3.122   0.170  0.00  0.00    -0.114 N 
ATOM     18  O   UNL d   1       7.019  -2.581   1.131  0.00  0.00    -0.532 OA
ATOM     19  O   UNL d   1       7.036  -3.779  -0.708  0.00  0.00    -0.532 OA
ENDBRANCH  14  17
ENDBRANCH   9  10
ENDBRANCH   3   9
BRANCH   1  20
ATOM     20  C   UNL d   1      -0.857   2.233   0.907  0.00  0.00     0.450 C 
ATOM     21  F   UNL d   1      -0.928   2.153   2.263  0.00  0.00    -0.163 F 
ATOM     22  F   UNL d   1      -0.031   3.275   0.633  0.00  0.00    -0.163 F 
ATOM     23  F   UNL d   1      -2.100   2.596   0.494  0.00  0.00    -0.163 F 
ENDBRANCH   1  20
TORSDOF 4
