REMARK  6 active torsions:
REMARK  status: ('A' for Active; 'I' for Inactive)
REMARK    1  A    between atoms: C_13  and  N_1 
REMARK    2  A    between atoms: S_3  and  C_14 
REMARK    3  A    between atoms: N_7  and  S_3 
REMARK    4  A    between atoms: C_9  and  C_4 
REMARK    5  A    between atoms: C_8  and  N_7 
REMARK    6  A    between atoms: C_12  and  C_9 
ROOT
ATOM      1  C   UNL d   1       0.405  -2.633  -0.038  0.00  0.00     0.044 A 
ATOM      2  C   UNL d   1       1.094  -5.343   0.127  0.00  0.00     0.075 A 
ATOM      3  C   UNL d   1       1.599  -4.440   1.064  0.00  0.00     0.027 A 
ATOM      4  C   UNL d   1       0.276  -4.899  -0.916  0.00  0.00     0.027 A 
ATOM      5  C   UNL d   1       1.265  -3.088   0.972  0.00  0.00     0.031 A 
ATOM      6  C   UNL d   1      -0.077  -3.549  -0.988  0.00  0.00     0.031 A 
ENDROOT
BRANCH   1   7
ATOM      7  N   UNL d   1       0.070  -1.257  -0.132  0.00  0.00    -0.262 N 
ATOM      8  C   UNL d   1      -1.230  -0.772  -0.159  0.00  0.00     0.153 A 
ATOM      9  S   UNL d   1      -1.208   0.984  -0.311  0.00  0.00    -0.054 SA
ATOM     10  S   UNL d   1      -2.676  -1.596   0.018  0.00  0.00    -0.052 SA
ATOM     11  C   UNL d   1       0.509   1.050  -0.413  0.00  0.00     0.077 A 
ATOM     12  C   UNL d   1       1.090  -0.308  -0.191  0.00  0.00     0.271 A 
ATOM     13  O   UNL d   1       2.292  -0.520  -0.101  0.00  0.00    -0.266 OA
BRANCH  11  14
ATOM     14  C   UNL d   1       1.172   2.171  -0.731  0.00  0.00     0.038 C 
BRANCH  14  15
ATOM     15  C   UNL d   1       2.617   2.208  -0.988  0.00  0.00    -0.011 A 
ATOM     16  C   UNL d   1       3.145   1.981  -2.272  0.00  0.00     0.044 A 
ATOM     17  C   UNL d   1       4.526   1.906  -2.465  0.00  0.00     0.026 A 
ATOM     18 CL   UNL d   1       2.121   1.767  -3.651  0.00  0.00    -0.083 Cl
ATOM     19  C   UNL d   1       5.390   2.057  -1.379  0.00  0.00     0.025 A 
ATOM     20  C   UNL d   1       4.870   2.301  -0.109  0.00  0.00     0.035 A 
ATOM     21  C   UNL d   1       3.493   2.385   0.092  0.00  0.00     0.037 A 
ATOM     22 CL   UNL d   1       5.938   2.479   1.228  0.00  0.00    -0.084 Cl
ENDBRANCH  14  15
ENDBRANCH  11  14
ENDBRANCH   1   7
BRANCH   2  23
ATOM     23  S   UNL d   1       1.617  -7.036   0.184  0.00  0.00     0.247 S 
ATOM     24  O   UNL d   1       1.537  -7.558  -1.166  0.00  0.00    -0.205 OA
ATOM     25  O   UNL d   1       2.860  -7.122   0.918  0.00  0.00    -0.205 OA
BRANCH  23  26
ATOM     26  N   UNL d   1       0.380  -7.812   1.027  0.00  0.00    -0.160 NA
ATOM     27  H   UNL d   1       0.233  -8.714   0.582  0.00  0.00     0.148 HD
BRANCH  26  28
ATOM     28  C   UNL d   1       0.642  -7.895   2.409  0.00  0.00     0.136 A 
ATOM     29  N   UNL d   1       0.409  -6.876   3.198  0.00  0.00    -0.350 N 
ATOM     30  C   UNL d   1       0.639  -7.259   4.507  0.00  0.00     0.097 A 
ATOM     31  HN  UNL d   1       0.108  -5.949   2.896  1.00  0.00     0.166 HD
ATOM     32  C   UNL d   1       1.087  -8.553   4.679  0.00  0.00     0.069 A 
ATOM     33  S   UNL d   1       1.123  -9.351   3.161  0.00  0.00    -0.070 SA
ENDBRANCH  26  28
ENDBRANCH  23  26
ENDBRANCH   2  23
TORSDOF 6
