REMARK  7 active torsions:
REMARK  status: ('A' for Active; 'I' for Inactive)
REMARK    1  A    between atoms: N_4  and  C_1 
REMARK    2  A    between atoms: C_2  and  N_4 
REMARK    3  A    between atoms: N_10  and  C_2 
REMARK    4  A    between atoms: C_16  and  N_10 
REMARK    5  A    between atoms: C_14  and  C_16 
REMARK    6  A    between atoms: C_17  and  C_14 
REMARK    7  A    between atoms: O_15  and  C_17 
ROOT
ATOM      1  N   UNL d   1       2.529   2.185   0.249  0.00  0.00    -0.332 N 
ATOM      2  H   UNL d   1       2.129   3.096   0.060  0.00  0.00     0.168 HD
ENDROOT
BRANCH   1   3
ATOM      3  C   UNL d   1       3.812   2.096  -0.232  0.00  0.00     0.172 C 
ATOM      4  S   UNL d   1       4.442   0.904  -1.215  0.00  0.00    -0.041 SA
BRANCH   3   5
ATOM      5  N   UNL d   1       4.607   3.167   0.082  0.00  0.00    -0.367 N 
ATOM      6  H   UNL d   1       5.560   3.089  -0.258  0.00  0.00     0.161 HD
BRANCH   5   7
ATOM      7  C   UNL d   1       4.362   4.171   1.110  0.00  0.00     0.124 C 
BRANCH   7   8
ATOM      8  C   UNL d   1       4.451   3.608   2.529  0.00  0.00     0.046 C 
BRANCH   8   9
ATOM      9  C   UNL d   1       5.839   3.092   2.879  0.00  0.00     0.165 C 
BRANCH   9  10
ATOM     10  O   UNL d   1       6.776   4.160   2.806  0.00  0.00    -0.401 OA
ATOM     11  H   UNL d   1       7.638   3.796   3.070  0.00  0.00     0.209 HD
ENDBRANCH   9  10
ENDBRANCH   8   9
ENDBRANCH   7   8
ENDBRANCH   5   7
ENDBRANCH   3   5
ENDBRANCH   1   3
BRANCH   1  12
ATOM     12  C   UNL d   1       1.602   1.143   0.487  0.00  0.00     0.058 A 
ATOM     13  C   UNL d   1       0.272   1.414   0.133  0.00  0.00     0.057 A 
ATOM     14  C   UNL d   1      -0.738   0.476   0.371  0.00  0.00     0.058 A 
ATOM     15 CL   UNL d   1      -2.347   0.899  -0.095  0.00  0.00    -0.082 Cl
ATOM     16  C   UNL d   1      -0.428  -0.742   0.980  0.00  0.00     0.057 A 
ATOM     17  C   UNL d   1       0.887  -1.007   1.369  0.00  0.00     0.051 A 
ATOM     18 CL   UNL d   1      -1.627  -1.935   1.326  0.00  0.00    -0.082 Cl
ATOM     19  C   UNL d   1       1.897  -0.065   1.145  0.00  0.00     0.062 A 
ATOM     20 CL   UNL d   1       3.421  -0.387   1.902  0.00  0.00    -0.082 Cl
ENDBRANCH   1  12
TORSDOF 7
