REMARK  2 active torsions:
REMARK  status: ('A' for Active; 'I' for Inactive)
REMARK    1  A    between atoms: C_14  and  C_5 
REMARK    2  A    between atoms: C_12  and  C_15 
ROOT
ATOM      1  C   UNL d   1       2.593  -0.038   0.002  0.00  0.00     0.081 A 
ATOM      2  C   UNL d   1       4.024  -0.051   0.089  0.00  0.00     0.183 A 
ATOM      3  S   UNL d   1       1.728   1.326   0.567  0.00  0.00    -0.083 SA
ATOM      4  C   UNL d   1       1.737  -1.016  -0.463  0.00  0.00     0.067 A 
ATOM      5  C   UNL d   1       6.018   0.356   0.761  0.00  0.00     0.175 A 
ATOM      6  O   UNL d   1       4.722   0.732   0.979  0.00  0.00    -0.272 OA
ATOM      7  N   UNL d   1       4.837  -0.815  -0.616  0.00  0.00    -0.277 N 
ATOM      8  HN  UNL d   1       4.568  -1.471  -1.349  1.00  0.00     0.189 HD
ATOM      9  N   UNL d   1       6.124  -0.560  -0.173  0.00  0.00    -0.277 N 
ATOM     10  HN  UNL d   1       6.983  -0.998  -0.506  1.00  0.00     0.189 HD
ATOM     11  C   UNL d   1       0.345  -0.663  -0.315  0.00  0.00     0.004 A 
ATOM     12  C   UNL d   1       0.204   0.612   0.239  0.00  0.00     0.017 A 
ATOM     13 CL   UNL d   1       2.212  -2.542  -1.102  0.00  0.00    -0.082 Cl
ATOM     14  C   UNL d   1      -0.843  -1.381  -0.618  0.00  0.00     0.014 A 
ATOM     15  C   UNL d   1      -1.060   1.183   0.483  0.00  0.00     0.020 A 
ATOM     16  C   UNL d   1      -2.100  -0.823  -0.368  0.00  0.00     0.001 A 
ATOM     17  C   UNL d   1      -2.205   0.449   0.174  0.00  0.00     0.001 A 
ENDROOT
BRANCH   5  18
ATOM     18  C   UNL d   1       7.006   0.974   1.639  0.00  0.00     0.032 A 
ATOM     19  C   UNL d   1       8.288   1.378   1.222  0.00  0.00     0.062 A 
ATOM     20  C   UNL d   1       9.165   1.944   2.178  0.00  0.00     0.017 A 
ATOM     21  C   UNL d   1       8.784   2.126   3.506  0.00  0.00     0.001 A 
ATOM     22  C   UNL d   1       7.516   1.742   3.914  0.00  0.00     0.001 A 
ATOM     23  C   UNL d   1       6.640   1.168   2.990  0.00  0.00     0.017 A 
BRANCH  19  24
ATOM     24  C   UNL d   1       8.810   1.293  -0.195  0.00  0.00     0.418 C 
ATOM     25  F   UNL d   1       7.924   0.920  -1.149  0.00  0.00    -0.166 F 
ATOM     26  F   UNL d   1       9.285   2.504  -0.616  0.00  0.00    -0.166 F 
ATOM     27  F   UNL d   1       9.868   0.439  -0.300  0.00  0.00    -0.166 F 
ENDBRANCH  19  24
ENDBRANCH   5  18
TORSDOF 2
