REMARK  2 active torsions:
REMARK  status: ('A' for Active; 'I' for Inactive)
REMARK    1  A    between atoms: N_8  and  N_2 
REMARK    2  A    between atoms: C_12  and  N_8 
ROOT
ATOM      1  C   UNL d   1      -1.206   0.863   0.142  0.00  0.00     0.104 C 
ATOM      2  N   UNL d   1      -1.331   2.161   0.202  0.00  0.00    -0.312 N 
ATOM      3  HN  UNL d   1      -0.511   2.750   0.351  1.00  0.00     0.181 HD
ATOM      4  C   UNL d   1      -2.281  -0.179   0.070  0.00  0.00     0.006 A 
ATOM      5  C   UNL d   1       0.246   0.366   0.087  0.00  0.00     0.200 C 
ATOM      6  C   UNL d   1       0.484  -1.038  -0.302  0.00  0.00     0.058 C 
ATOM      7  C   UNL d   1      -0.531  -1.883  -0.501  0.00  0.00     0.016 C 
ATOM      8  C   UNL d   1      -1.926  -1.482  -0.317  0.00  0.00    -0.023 A 
ATOM      9  O   UNL d   1       1.191   1.102   0.313  0.00  0.00    -0.286 OA
ATOM     10  C   UNL d   1      -3.623   0.091   0.375  0.00  0.00     0.014 A 
ATOM     11  C   UNL d   1      -2.929  -2.448  -0.503  0.00  0.00     0.012 A 
ATOM     12  C   UNL d   1      -4.614  -0.873   0.180  0.00  0.00     0.001 A 
ATOM     13  C   UNL d   1      -4.270  -2.136  -0.281  0.00  0.00     0.001 A 
ENDROOT
BRANCH   2  14
ATOM     14  N   UNL d   1      -2.558   2.721   0.065  0.00  0.00    -0.205 NA
ATOM     15  H   UNL d   1      -2.855   2.844  -0.903  0.00  0.00     0.153 HD
BRANCH  14  16
ATOM     16  C   UNL d   1      -2.814   3.893   0.823  0.00  0.00     0.029 A 
ATOM     17  C   UNL d   1      -3.827   4.770   0.413  0.00  0.00     0.048 A 
ATOM     18  C   UNL d   1      -4.173   5.867   1.203  0.00  0.00     0.035 A 
ATOM     19 CL   UNL d   1      -5.411   6.940   0.672  0.00  0.00    -0.084 Cl
ATOM     20  C   UNL d   1      -3.539   6.095   2.421  0.00  0.00     0.024 A 
ATOM     21  C   UNL d   1      -2.549   5.216   2.854  0.00  0.00     0.003 A 
ATOM     22  C   UNL d   1      -2.197   4.119   2.062  0.00  0.00     0.025 A 
ENDBRANCH  14  16
ENDBRANCH   2  14
TORSDOF 2
