REMARK  6 active torsions:
REMARK  status: ('A' for Active; 'I' for Inactive)
REMARK    1  A    between atoms: C_8  and  C_1 
REMARK    2  A    between atoms: C_7  and  C_2 
REMARK    3  A    between atoms: O_17  and  C_8 
REMARK    4  A    between atoms: O_16  and  C_9 
REMARK    5  A    between atoms: O_19  and  C_10 
REMARK    6  A    between atoms: O_18  and  C_11 
ROOT
ATOM      1  C   UNL d   1      -0.089   2.221  -1.097  0.00  0.00     0.066 C 
ATOM      2  C   UNL d   1       1.058   1.935  -0.160  0.00  0.00     0.158 C 
ATOM      3  C   UNL d   1      -0.007   1.911  -2.409  0.00  0.00     0.022 C 
ATOM      4  C   UNL d   1       2.328   1.273  -2.191  0.00  0.00     0.172 C 
ATOM      5  N   UNL d   1       1.178   1.398  -2.899  0.00  0.00    -0.337 N 
ATOM      6  N   UNL d   1       2.277   1.607  -0.883  0.00  0.00    -0.354 N 
ATOM      7  S   UNL d   1       3.743   0.778  -2.901  0.00  0.00    -0.041 SA
ATOM      8  C   UNL d   1      -1.075   2.034  -3.467  0.00  0.00     0.069 C 
ATOM      9  H   UNL d   1       1.247   1.171  -3.888  0.00  0.00     0.168 HD
ATOM     10  H   UNL d   1       3.144   1.536  -0.364  0.00  0.00     0.163 HD
ENDROOT
BRANCH   2  11
ATOM     11  C   UNL d   1       1.422   3.016   0.843  0.00  0.00    -0.025 A 
ATOM     12  C   UNL d   1       1.395   2.732   2.218  0.00  0.00     0.049 A 
ATOM     13  C   UNL d   1       1.851   3.655   3.172  0.00  0.00     0.104 A 
ATOM     14  C   UNL d   1       2.345   4.908   2.744  0.00  0.00     0.135 A 
ATOM     15  C   UNL d   1       2.367   5.193   1.359  0.00  0.00     0.104 A 
ATOM     16  C   UNL d   1       1.887   4.265   0.429  0.00  0.00     0.049 A 
BRANCH  13  17
ATOM     17  O   UNL d   1       1.848   3.372   4.514  0.00  0.00    -0.353 OA
ATOM     18  C   UNL d   1       1.336   2.122   4.955  0.00  0.00     0.210 C 
ENDBRANCH  13  17
BRANCH  14  19
ATOM     19  O   UNL d   1       2.794   5.925   3.547  0.00  0.00    -0.351 OA
ATOM     20  C   UNL d   1       2.902   5.739   4.948  0.00  0.00     0.210 C 
ENDBRANCH  14  19
BRANCH  15  21
ATOM     21  O   UNL d   1       2.793   6.363   0.776  0.00  0.00    -0.353 OA
ATOM     22  C   UNL d   1       3.986   6.923   1.315  0.00  0.00     0.210 C 
ENDBRANCH  15  21
ENDBRANCH   2  11
BRANCH   1  23
ATOM     23  C   UNL d   1      -1.323   2.815  -0.520  0.00  0.00     0.293 C 
ATOM     24  O   UNL d   1      -2.105   3.519  -1.145  0.00  0.00    -0.259 OA
BRANCH  23  25
ATOM     25  O   UNL d   1      -1.466   2.483   0.789  0.00  0.00    -0.323 OA
ATOM     26  C   UNL d   1      -2.558   3.136   1.449  0.00  0.00     0.213 C 
ENDBRANCH  23  25
ENDBRANCH   1  23
TORSDOF 6
