REMARK  3 active torsions:
REMARK  status: ('A' for Active; 'I' for Inactive)
REMARK    1  A    between atoms: C_4  and  C_1 
REMARK       I    between atoms: N_8  and  C_4 
REMARK    2  A    between atoms: C_12  and  N_8 
REMARK    3  A    between atoms: C_9  and  C_12 
ROOT
ATOM      1  C   UNL d   1       4.633  -0.938  -0.096  0.00  0.00     0.268 C 
ATOM      2  N   UNL d   1       5.574   0.060  -0.104  0.00  0.00    -0.351 N 
ATOM      3  O   UNL d   1       4.922  -2.128  -0.155  0.00  0.00    -0.266 OA
ATOM      4  H   UNL d   1       5.269   1.023  -0.104  0.00  0.00     0.163 HD
ENDROOT
BRANCH   1   5
ATOM      5  C   UNL d   1       3.261  -0.481  -0.012  0.00  0.00     0.102 A 
ATOM      6  N   UNL d   1       2.209  -1.372   0.065  0.00  0.00    -0.351 N 
ATOM      7  C   UNL d   1       1.006  -0.712   0.158  0.00  0.00     0.043 A 
ATOM      8  H   UNL d   1       2.328  -2.377   0.067  0.00  0.00     0.166 HD
ATOM      9  C   UNL d   1      -0.297  -1.212   0.272  0.00  0.00     0.032 A 
ATOM     10  C   UNL d   1       1.287   0.652   0.120  0.00  0.00    -0.005 A 
ATOM     11  C   UNL d   1      -1.340  -0.283   0.356  0.00  0.00     0.026 A 
ATOM     12  C   UNL d   1      -1.080   1.085   0.319  0.00  0.00     0.035 A 
ATOM     13  C   UNL d   1       0.224   1.572   0.198  0.00  0.00     0.037 A 
ATOM     14 CL   UNL d   1      -2.388   2.202   0.430  0.00  0.00    -0.084 Cl
ATOM     15  C   UNL d   1       2.699   0.785   0.007  0.00  0.00     0.049 A 
ENDBRANCH   1   5
BRANCH   2  16
ATOM     16  C   UNL d   1       6.986  -0.176  -0.285  0.00  0.00     0.163 C 
BRANCH  16  17
ATOM     17  C   UNL d   1       7.817   0.500   0.781  0.00  0.00    -0.019 A 
ATOM     18  C   UNL d   1       7.818   1.892   0.986  0.00  0.00     0.043 A 
ATOM     19  C   UNL d   1       8.617   2.473   1.975  0.00  0.00     0.048 A 
ATOM     20 CL   UNL d   1       6.843   2.955   0.029  0.00  0.00    -0.084 Cl
ATOM     21  C   UNL d   1       9.436   1.669   2.762  0.00  0.00     0.035 A 
ATOM     22  C   UNL d   1       9.460   0.291   2.572  0.00  0.00     0.024 A 
ATOM     23 CL   UNL d   1      10.428   2.383   3.972  0.00  0.00    -0.084 Cl
ATOM     24  C   UNL d   1       8.653  -0.290   1.591  0.00  0.00     0.012 A 
ENDBRANCH  16  17
ENDBRANCH   2  16
TORSDOF 3
