REMARK  4 active torsions:
REMARK  status: ('A' for Active; 'I' for Inactive)
REMARK    1  A    between atoms: C_3  and  C_1 
REMARK    2  A    between atoms: C_15  and  N_2 
REMARK    3  A    between atoms: C_14  and  C_10 
REMARK    4  A    between atoms: C_16  and  C_17 
ROOT
ATOM      1  C   UNL d   1      -0.429  -2.861   0.176  0.00  0.00     0.186 A 
ATOM      2  N   UNL d   1       0.171  -3.628   1.062  0.00  0.00    -0.318 N 
ATOM      3  HN  UNL d   1       0.871  -3.369   1.757  1.00  0.00     0.169 HD
ATOM      4  C   UNL d   1      -0.379  -4.869   0.818  0.00  0.00     0.138 A 
ATOM      5  N   UNL d   1      -1.249  -4.887  -0.203  0.00  0.00    -0.242 N 
ATOM      6  HN  UNL d   1      -1.757  -5.685  -0.585  1.00  0.00     0.196 HD
ATOM      7  O   UNL d   1      -1.296  -3.566  -0.614  0.00  0.00    -0.217 OA
ENDROOT
BRANCH   1   8
ATOM      8  C   UNL d   1      -0.213  -1.397   0.040  0.00  0.00     0.065 C 
ATOM      9  C   UNL d   1      -0.897  -0.563  -0.827  0.00  0.00     0.047 C 
ATOM     10  N   UNL d   1      -0.393   0.711  -0.597  0.00  0.00    -0.260 N 
ATOM     11  C   UNL d   1      -1.909  -0.911  -1.862  0.00  0.00     0.071 C 
ATOM     12  N   UNL d   1       0.667   0.680   0.254  0.00  0.00    -0.297 N 
ATOM     13  C   UNL d   1       0.715  -0.577   0.711  0.00  0.00     0.039 C 
ATOM     14  HN  UNL d   1       1.293   1.450   0.492  1.00  0.00     0.187 HD
ATOM     15  C   UNL d   1       1.696  -0.954   1.759  0.00  0.00     0.071 C 
BRANCH  10  16
ATOM     16  C   UNL d   1      -0.818   1.951  -1.149  0.00  0.00     0.056 A 
ATOM     17  C   UNL d   1      -2.164   2.176  -1.468  0.00  0.00     0.031 A 
ATOM     18  C   UNL d   1      -2.546   3.366  -2.089  0.00  0.00     0.002 A 
ATOM     19  C   UNL d   1      -1.590   4.336  -2.384  0.00  0.00     0.000 A 
ATOM     20  C   UNL d   1      -0.258   4.137  -2.023  0.00  0.00     0.002 A 
ATOM     21  C   UNL d   1       0.128   2.956  -1.387  0.00  0.00     0.031 A 
ENDBRANCH  10  16
ENDBRANCH   1   8
BRANCH   4  22
ATOM     22  C   UNL d   1      -0.079  -6.038   1.635  0.00  0.00     0.010 A 
ATOM     23  C   UNL d   1       0.716  -5.915   2.775  0.00  0.00     0.016 A 
ATOM     24  C   UNL d   1       0.954  -7.026   3.596  0.00  0.00     0.009 A 
ATOM     25  C   UNL d   1       0.410  -8.290   3.303  0.00  0.00    -0.051 A 
ATOM     26  C   UNL d   1      -0.368  -8.401   2.142  0.00  0.00     0.009 A 
ATOM     27  C   UNL d   1      -0.610  -7.294   1.319  0.00  0.00     0.016 A 
BRANCH  25  28
ATOM     28  C   UNL d   1       0.672  -9.479   4.243  0.00  0.00    -0.024 C 
ATOM     29  C   UNL d   1       0.005 -10.796   3.784  0.00  0.00     0.019 C 
ATOM     30  C   UNL d   1       2.190  -9.742   4.336  0.00  0.00     0.019 C 
ATOM     31  C   UNL d   1       0.122  -9.158   5.650  0.00  0.00     0.019 C 
ENDBRANCH  25  28
ENDBRANCH   4  22
TORSDOF 4
