REMARK  2 active torsions:
REMARK  status: ('A' for Active; 'I' for Inactive)
REMARK    1  A    between atoms: C_6  and  C_1 
REMARK    2  A    between atoms: O_12  and  C_9 
ROOT
ATOM      1  C   UNL d   1      -1.868  -0.399  -0.016  0.00  0.00     0.137 A 
ATOM      2  N   UNL d   1      -1.854   0.835  -0.606  0.00  0.00    -0.311 N 
ATOM      3  N   UNL d   1      -0.727  -0.744   0.524  0.00  0.00    -0.282 N 
ATOM      4  HN  UNL d   1      -0.510  -1.600   1.035  1.00  0.00     0.188 HD
ATOM      5  C   UNL d   1      -0.562   1.283  -0.458  0.00  0.00     0.194 A 
ATOM      6  N   UNL d   1       0.107   0.297   0.248  0.00  0.00    -0.274 N 
ATOM      7  S   UNL d   1       0.144   2.690  -0.973  0.00  0.00    -0.039 SA
ATOM      8  C   UNL d   1      -2.948   1.636  -1.137  0.00  0.00     0.160 C 
ATOM      9  H   UNL d   1       1.082   0.308   0.527  0.00  0.00     0.189 HD
ENDROOT
BRANCH   1  10
ATOM     10  C   UNL d   1      -3.050  -1.284   0.048  0.00  0.00     0.043 A 
ATOM     11  C   UNL d   1      -3.251  -2.099   1.172  0.00  0.00     0.079 A 
ATOM     12  C   UNL d   1      -4.367  -2.930   1.256  0.00  0.00     0.037 A 
ATOM     13  C   UNL d   1      -5.288  -2.965   0.209  0.00  0.00     0.003 A 
ATOM     14  C   UNL d   1      -5.075  -2.193  -0.932  0.00  0.00     0.001 A 
ATOM     15  C   UNL d   1      -3.946  -1.374  -1.024  0.00  0.00     0.018 A 
BRANCH  11  16
ATOM     16  O   UNL d   1      -2.390  -2.136   2.237  0.00  0.00    -0.360 OA
ATOM     17  H   UNL d   1      -1.560  -1.686   1.969  0.00  0.00     0.217 HD
ENDBRANCH  11  16
ENDBRANCH   1  10
TORSDOF 2
