REMARK  5 active torsions:
REMARK  status: ('A' for Active; 'I' for Inactive)
REMARK    1  A    between atoms: C_4  and  C_1 
REMARK    2  A    between atoms: N_6  and  C_2 
REMARK       I    between atoms: C_3  and  N_6 
REMARK       I    between atoms: N_9  and  C_3 
REMARK    3  A    between atoms: C_5  and  N_10 
REMARK    4  A    between atoms: C_28  and  C_24 
REMARK    5  A    between atoms: C_29  and  C_28 
ROOT
ATOM      1  C   UNL d   1       1.447  -2.648  -0.068  0.00  0.00     0.323 C 
ATOM      2  N   UNL d   1       1.337  -3.414  -1.206  0.00  0.00    -0.306 N 
ATOM      3  N   UNL d   1       2.608  -1.875  -0.012  0.00  0.00    -0.332 N 
ATOM      4  N   UNL d   1       4.904  -0.125   0.093  0.00  0.00    -0.251 NA
ATOM      5  O   UNL d   1       0.589  -2.610   0.803  0.00  0.00    -0.247 OA
ATOM      6  C   UNL d   1       2.834  -1.041   1.179  0.00  0.00     0.142 C 
ATOM      7  C   UNL d   1       3.849  -2.203  -0.726  0.00  0.00     0.142 C 
ATOM      8  C   UNL d   1       4.618  -0.932  -1.106  0.00  0.00     0.118 C 
ATOM      9  C   UNL d   1       3.709   0.208   0.895  0.00  0.00     0.118 C 
ATOM     10  H   UNL d   1       1.752  -3.022  -2.037  0.00  0.00     0.171 HD
ENDROOT
BRANCH   2  11
ATOM     11  C   UNL d   1       0.462  -4.473  -1.416  0.00  0.00     0.077 A 
ATOM     12  C   UNL d   1      -0.268  -5.249  -0.527  0.00  0.00     0.186 A 
ATOM     13  O   UNL d   1      -0.936  -6.226  -1.226  0.00  0.00    -0.308 OA
ATOM     14  C   UNL d   1      -0.591  -6.123  -2.532  0.00  0.00     0.052 A 
ATOM     15  C   UNL d   1      -1.110  -7.183  -3.420  0.00  0.00     0.077 C 
ATOM     16  C   UNL d   1       0.233  -5.037  -2.709  0.00  0.00     0.064 A 
BRANCH  12  17
ATOM     17  C   UNL d   1      -0.430  -5.338   0.948  0.00  0.00     0.441 C 
ATOM     18  F   UNL d   1       0.712  -5.065   1.632  0.00  0.00    -0.164 F 
ATOM     19  F   UNL d   1      -1.416  -4.537   1.425  0.00  0.00    -0.164 F 
ATOM     20  F   UNL d   1      -0.771  -6.608   1.326  0.00  0.00    -0.164 F 
ENDBRANCH  12  17
ENDBRANCH   2  11
BRANCH   4  21
ATOM     21  C   UNL d   1       5.684   1.004  -0.191  0.00  0.00     0.159 A 
ATOM     22  N   UNL d   1       6.101   1.207  -1.454  0.00  0.00    -0.342 N 
ATOM     23  C   UNL d   1       6.834   2.305  -1.711  0.00  0.00     0.099 A 
ATOM     24  HN  UNL d   1       5.867   0.546  -2.195  1.00  0.00     0.167 HD
ATOM     25  C   UNL d   1       7.212   3.220  -0.757  0.00  0.00    -0.027 A 
ATOM     26  C   UNL d   1       6.775   2.914   0.511  0.00  0.00     0.099 A 
ATOM     27  N   UNL d   1       6.009   1.839   0.810  0.00  0.00    -0.342 N 
ATOM     28  HN  UNL d   1       5.688   1.669   1.763  1.00  0.00     0.167 HD
BRANCH  25  29
ATOM     29  C   UNL d   1       7.973   4.461  -1.111  0.00  0.00     0.041 C 
BRANCH  29  30
ATOM     30  C   UNL d   1       9.387   4.523  -0.532  0.00  0.00     0.000 C 
ATOM     31  C   UNL d   1      10.130   5.745  -1.060  0.00  0.00     0.005 C 
ENDBRANCH  29  30
ENDBRANCH  25  29
ENDBRANCH   4  21
TORSDOF 5
