REMARK  4 active torsions:
REMARK  status: ('A' for Active; 'I' for Inactive)
REMARK    1  A    between atoms: C_19  and  N_1 
REMARK    2  A    between atoms: S_10  and  C_2 
REMARK    3  A    between atoms: C_11  and  S_10 
REMARK    4  A    between atoms: N_25  and  C_12 
ROOT
ATOM      1  N   UNL d   1       1.999  -1.756   2.712  0.00  0.00    -0.326 N 
ATOM      2  HN  UNL d   1       1.013  -1.767   2.451  1.00  0.00     0.169 HD
ATOM      3  C   UNL d   1       2.956  -1.503   1.799  0.00  0.00     0.153 A 
ATOM      4  C   UNL d   1       2.382  -1.992   3.978  0.00  0.00     0.102 A 
ATOM      5  C   UNL d   1       3.709  -1.980   4.363  0.00  0.00     0.098 A 
ATOM      6  N   UNL d   1       4.269  -1.466   2.082  0.00  0.00    -0.345 N 
ATOM      7  HN  UNL d   1       4.968  -1.276   1.363  1.00  0.00     0.167 HD
ATOM      8  C   UNL d   1       4.144  -2.264   5.687  0.00  0.00     0.104 C 
ATOM      9  N   UNL d   1       4.515  -2.480   6.768  0.00  0.00    -0.191 NA
ATOM     10  C   UNL d   1       4.616  -1.692   3.367  0.00  0.00     0.116 A 
ENDROOT
BRANCH   4  11
ATOM     11  N   UNL d   1       1.351  -2.364   4.839  0.00  0.00    -0.287 NA
ATOM     12  H   UNL d   1       0.461  -2.264   4.355  0.00  0.00     0.125 HD
ATOM     13  H   UNL d   1       1.353  -1.882   5.732  0.00  0.00     0.125 HD
ENDBRANCH   4  11
BRANCH   3  14
ATOM     14  S   UNL d   1       2.512  -1.514   0.075  0.00  0.00    -0.016 SA
BRANCH  14  15
ATOM     15  C   UNL d   1       0.958  -0.750   0.165  0.00  0.00     0.175 A 
ATOM     16  N   UNL d   1      -0.288  -1.374   0.086  0.00  0.00    -0.273 N 
ATOM     17  C   UNL d   1      -1.169  -0.292  -0.026  0.00  0.00     0.163 A 
ATOM     18  N   UNL d   1      -0.496   0.838  -0.106  0.00  0.00    -0.281 N 
ATOM     19  C   UNL d   1      -2.600  -0.321   0.018  0.00  0.00     0.120 A 
ATOM     20  N   UNL d   1       0.830   0.553   0.030  0.00  0.00    -0.277 N 
ATOM     21  HN  UNL d   1      -0.898   1.765  -0.246  1.00  0.00     0.188 HD
ATOM     22  HN  UNL d   1       1.591   1.231   0.027  1.00  0.00     0.189 HD
ATOM     23  O   UNL d   1      -3.314  -1.192   0.803  0.00  0.00    -0.319 OA
ATOM     24  C   UNL d   1      -3.499   0.475  -0.677  0.00  0.00     0.043 A 
ATOM     25  C   UNL d   1      -4.633  -0.981   0.571  0.00  0.00     0.142 A 
ATOM     26  C   UNL d   1      -4.802   0.032  -0.340  0.00  0.00     0.027 A 
BRANCH  16  27
ATOM     27  C   UNL d   1      -0.619  -2.771   0.064  0.00  0.00     0.043 A 
ATOM     28  C   UNL d   1       0.140  -3.718   0.761  0.00  0.00     0.030 A 
ATOM     29  C   UNL d   1      -0.218  -5.070   0.765  0.00  0.00     0.002 A 
ATOM     30  C   UNL d   1      -1.347  -5.497   0.078  0.00  0.00     0.000 A 
ATOM     31  C   UNL d   1      -2.108  -4.574  -0.629  0.00  0.00     0.002 A 
ATOM     32  C   UNL d   1      -1.740  -3.225  -0.650  0.00  0.00     0.030 A 
ENDBRANCH  16  27
ENDBRANCH  14  15
ENDBRANCH   3  14
TORSDOF 4
