REMARK  6 active torsions:
REMARK  status: ('A' for Active; 'I' for Inactive)
REMARK    1  A    between atoms: C_7  and  C_1 
REMARK    2  A    between atoms: C_17  and  C_2 
REMARK    3  A    between atoms: N_6  and  C_5 
REMARK    4  A    between atoms: C_8  and  C_12 
REMARK    5  A    between atoms: C_13  and  N_21 
REMARK    6  A    between atoms: N_21  and  N_14 
ROOT
ATOM      1  N   UNL d   1       1.599  -2.992  -0.422  0.00  0.00    -0.310 N 
ATOM      2  HN  UNL d   1       2.291  -2.317  -0.749  1.00  0.00     0.186 HD
ATOM      3  C   UNL d   1       0.406  -2.632  -0.067  0.00  0.00     0.123 C 
ENDROOT
BRANCH   1   4
ATOM      4  N   UNL d   1       1.877  -4.325  -0.334  0.00  0.00    -0.299 N 
ATOM      5  H   UNL d   1       2.476  -4.622   0.448  0.00  0.00     0.187 HD
BRANCH   4   6
ATOM      6  C   UNL d   1       1.075  -5.326  -0.921  0.00  0.00     0.081 A 
ATOM      7  C   UNL d   1       0.836  -6.580  -0.316  0.00  0.00     0.131 A 
ATOM      8  C   UNL d   1      -0.044  -7.512  -0.904  0.00  0.00     0.054 A 
ATOM      9  C   UNL d   1      -0.699  -7.215  -2.107  0.00  0.00     0.050 A 
ATOM     10  C   UNL d   1      -0.453  -5.979  -2.718  0.00  0.00     0.018 A 
ATOM     11  C   UNL d   1       0.418  -5.055  -2.133  0.00  0.00     0.034 A 
BRANCH   7  12
ATOM     12  N   UNL d   1       1.463  -6.940   0.965  0.00  0.00    -0.113 N 
ATOM     13  O   UNL d   1       0.994  -7.913   1.577  0.00  0.00    -0.532 OA
ATOM     14  O   UNL d   1       2.412  -6.257   1.367  0.00  0.00    -0.532 OA
ENDBRANCH   7  12
BRANCH   9  15
ATOM     15  C   UNL d   1      -1.671  -8.186  -2.735  0.00  0.00     0.417 C 
ATOM     16  F   UNL d   1      -1.728  -9.384  -2.093  0.00  0.00    -0.166 F 
ATOM     17  F   UNL d   1      -2.943  -7.702  -2.742  0.00  0.00    -0.166 F 
ATOM     18  F   UNL d   1      -1.365  -8.465  -4.030  0.00  0.00    -0.166 F 
ENDBRANCH   9  15
ENDBRANCH   4   6
ENDBRANCH   1   4
BRANCH   3  19
ATOM     19  C   UNL d   1       0.075  -1.238   0.076  0.00  0.00     0.042 A 
ATOM     20  C   UNL d   1      -1.028  -0.669   0.796  0.00  0.00     0.082 A 
ATOM     21  N   UNL d   1      -0.952   0.670   0.776  0.00  0.00    -0.259 N 
ATOM     22  O   UNL d   1       0.147   0.989   0.013  0.00  0.00    -0.241 OA
ATOM     23  HN  UNL d   1      -1.584   1.324   1.237  1.00  0.00     0.195 HD
ATOM     24  C   UNL d   1       0.764  -0.145  -0.407  0.00  0.00     0.086 A 
ATOM     25  C   UNL d   1       1.962   0.069  -1.243  0.00  0.00     0.080 C 
BRANCH  20  26
ATOM     26  C   UNL d   1      -2.127  -1.342   1.502  0.00  0.00     0.037 A 
ATOM     27  C   UNL d   1      -1.889  -2.317   2.493  0.00  0.00     0.048 A 
ATOM     28 CL   UNL d   1      -0.304  -2.720   3.071  0.00  0.00    -0.083 Cl
ATOM     29  C   UNL d   1      -2.949  -3.005   3.103  0.00  0.00     0.025 A 
ATOM     30  C   UNL d   1      -4.266  -2.694   2.785  0.00  0.00     0.003 A 
ATOM     31  C   UNL d   1      -4.527  -1.699   1.850  0.00  0.00     0.025 A 
ATOM     32  C   UNL d   1      -3.473  -1.037   1.202  0.00  0.00     0.048 A 
ATOM     33 CL   UNL d   1      -3.940   0.120  -0.003  0.00  0.00    -0.083 Cl
ENDBRANCH  20  26
ENDBRANCH   3  19
TORSDOF 6
