REMARK  6 active torsions:
REMARK  status: ('A' for Active; 'I' for Inactive)
REMARK    1  A    between atoms: N_3  and  C_1 
REMARK    2  A    between atoms: C_8  and  C_2 
REMARK    3  A    between atoms: C_5  and  N_3 
REMARK    4  A    between atoms: N_9  and  C_5 
REMARK    5  A    between atoms: O_13  and  C_8 
REMARK    6  A    between atoms: C_20  and  O_13 
ROOT
ATOM      1  C   UNL d   1      -2.052  -0.872   0.034  0.00  0.00     0.093 C 
ATOM      2  C   UNL d   1      -0.977  -1.742  -0.080  0.00  0.00     0.080 C 
ATOM      3  S   UNL d   1      -1.603   0.713   0.468  0.00  0.00    -0.075 SA
ATOM      4  C   UNL d   1       0.266  -0.980   0.013  0.00  0.00    -0.026 C 
ATOM      5  C   UNL d   1       0.033   0.371   0.202  0.00  0.00    -0.008 C 
ATOM      6  C   UNL d   1       1.675  -1.507  -0.092  0.00  0.00     0.041 C 
ATOM      7  C   UNL d   1       1.074   1.446   0.261  0.00  0.00     0.047 C 
ATOM      8  C   UNL d   1       2.721  -0.472   0.353  0.00  0.00     0.005 C 
ATOM      9  C   UNL d   1       2.426   0.913  -0.231  0.00  0.00     0.005 C 
ENDROOT
BRANCH   1  10
ATOM     10  N   UNL d   1      -3.413  -0.956  -0.135  0.00  0.00    -0.327 N 
ATOM     11  H   UNL d   1      -3.961  -0.352   0.466  0.00  0.00     0.169 HD
BRANCH  10  12
ATOM     12  C   UNL d   1      -4.138  -1.806  -0.913  0.00  0.00     0.174 C 
ATOM     13  S   UNL d   1      -5.707  -2.101  -0.370  0.00  0.00    -0.041 SA
BRANCH  12  14
ATOM     14  N   UNL d   1      -3.618  -2.250  -2.125  0.00  0.00    -0.354 N 
ATOM     15  C   UNL d   1      -2.732  -1.408  -2.953  0.00  0.00     0.151 C 
ATOM     16  C   UNL d   1      -1.828  -2.271  -3.836  0.00  0.00     0.187 C 
ATOM     17  O   UNL d   1      -2.616  -3.111  -4.691  0.00  0.00    -0.388 OA
ATOM     18  C   UNL d   1      -3.442  -3.985  -3.909  0.00  0.00     0.187 C 
ATOM     19  C   UNL d   1      -4.365  -3.211  -2.961  0.00  0.00     0.151 C 
ENDBRANCH  12  14
ENDBRANCH  10  12
ENDBRANCH   1  10
BRANCH   2  20
ATOM     20  C   UNL d   1      -1.097  -3.201  -0.206  0.00  0.00     0.296 C 
ATOM     21  O   UNL d   1      -2.090  -3.844   0.104  0.00  0.00    -0.259 OA
BRANCH  20  22
ATOM     22  O   UNL d   1       0.065  -3.773  -0.639  0.00  0.00    -0.318 OA
BRANCH  22  23
ATOM     23  C   UNL d   1       0.183  -5.196  -0.502  0.00  0.00     0.174 C 
ATOM     24  C   UNL d   1      -0.047  -5.875  -1.838  0.00  0.00     0.034 C 
ENDBRANCH  22  23
ENDBRANCH  20  22
ENDBRANCH   2  20
TORSDOF 6
