REMARK  3 active torsions:
REMARK  status: ('A' for Active; 'I' for Inactive)
REMARK    1  A    between atoms: C_4  and  C_1 
REMARK       I    between atoms: N_6  and  C_4 
REMARK    2  A    between atoms: C_10  and  N_7 
REMARK    3  A    between atoms: O_17  and  C_16 
ROOT
ATOM      1  C   UNL d   1      -2.445  -1.422   0.211  0.00  0.00     0.272 C 
ATOM      2  N   UNL d   1      -3.579  -0.611   0.362  0.00  0.00    -0.344 N 
ATOM      3  N   UNL d   1      -6.035   0.828   0.668  0.00  0.00    -0.376 N 
ATOM      4  C   UNL d   1      -3.971   0.436  -0.603  0.00  0.00     0.146 C 
ATOM      5  C   UNL d   1      -4.651  -1.118   1.224  0.00  0.00     0.146 C 
ATOM      6  O   UNL d   1      -2.180  -2.313   1.021  0.00  0.00    -0.266 OA
ATOM      7  C   UNL d   1      -5.550  -0.007   1.784  0.00  0.00     0.143 C 
ATOM      8  C   UNL d   1      -4.930   1.504  -0.028  0.00  0.00     0.143 C 
ENDROOT
BRANCH   1   9
ATOM      9  C   UNL d   1      -1.526  -1.139  -0.890  0.00  0.00     0.125 A 
ATOM     10  N   UNL d   1      -1.936  -0.881  -2.145  0.00  0.00    -0.256 N 
ATOM     11  O   UNL d   1      -0.798  -0.549  -2.858  0.00  0.00    -0.242 OA
ATOM     12  HN  UNL d   1      -2.891  -0.923  -2.498  1.00  0.00     0.195 HD
ATOM     13  C   UNL d   1       0.291  -0.652  -2.052  0.00  0.00     0.075 A 
ATOM     14  C   UNL d   1      -0.112  -1.103  -0.813  0.00  0.00     0.071 A 
ATOM     15  C   UNL d   1       1.576  -0.245  -2.634  0.00  0.00     0.079 C 
ENDBRANCH   1   9
BRANCH   3  16
ATOM     16  C   UNL d   1      -7.264   1.481   0.773  0.00  0.00     0.064 A 
ATOM     17  C   UNL d   1      -8.041   1.866  -0.347  0.00  0.00     0.094 A 
ATOM     18  C   UNL d   1      -9.329   2.399  -0.181  0.00  0.00     0.039 A 
ATOM     19  C   UNL d   1      -9.873   2.580   1.090  0.00  0.00     0.003 A 
ATOM     20  C   UNL d   1      -9.115   2.265   2.203  0.00  0.00     0.002 A 
ATOM     21  C   UNL d   1      -7.832   1.731   2.041  0.00  0.00     0.032 A 
BRANCH  17  22
ATOM     22  O   UNL d   1      -7.636   1.849  -1.659  0.00  0.00    -0.354 OA
ATOM     23  C   UNL d   1      -7.195   0.598  -2.163  0.00  0.00     0.210 C 
ENDBRANCH  17  22
ENDBRANCH   3  16
TORSDOF 3
