REMARK  6 active torsions:
REMARK  status: ('A' for Active; 'I' for Inactive)
REMARK    1  A    between atoms: C_11  and  N_7 
REMARK    2  A    between atoms: N_14  and  C_10 
REMARK    3  A    between atoms: C_17  and  C_11 
REMARK    4  A    between atoms: C_18  and  N_14 
REMARK    5  A    between atoms: C_20  and  C_18 
REMARK    6  A    between atoms: C_19  and  C_20 
ROOT
ATOM      1  C   UNL d   1      -0.240  -0.811  -0.010  0.00  0.00     0.146 A 
ATOM      2  C   UNL d   1      -0.515   0.523  -0.014  0.00  0.00     0.151 A 
ATOM      3  N   UNL d   1      -1.364  -1.561   0.035  0.00  0.00    -0.316 N 
ATOM      4  HN  UNL d   1      -1.427  -2.579   0.063  1.00  0.00     0.170 HD
ATOM      5  N   UNL d   1       1.042  -1.298  -0.012  0.00  0.00    -0.287 N 
ATOM      6  N   UNL d   1       1.804   0.964  -0.013  0.00  0.00    -0.269 N 
ATOM      7  N   UNL d   1      -1.891   0.601  -0.043  0.00  0.00    -0.311 N 
ATOM      8  C   UNL d   1       2.114  -0.407  -0.023  0.00  0.00     0.332 A 
ATOM      9  C   UNL d   1       0.513   1.506   0.035  0.00  0.00     0.282 A 
ATOM     10  C   UNL d   1      -2.359  -0.700   0.037  0.00  0.00     0.162 A 
ATOM     11  O   UNL d   1       3.279  -0.813  -0.035  0.00  0.00    -0.246 OA
ATOM     12  O   UNL d   1       0.298   2.711   0.137  0.00  0.00    -0.265 OA
ATOM     13  C   UNL d   1       1.316  -2.721   0.000  0.00  0.00     0.163 C 
ATOM     14  C   UNL d   1       2.899   1.914   0.003  0.00  0.00     0.164 C 
ENDROOT
BRANCH  10  15
ATOM     15  N   UNL d   1      -3.677  -1.014   0.140  0.00  0.00    -0.264 NA
ATOM     16  H   UNL d   1      -4.198  -0.837  -0.716  0.00  0.00     0.130 HD
BRANCH  15  17
ATOM     17  C   UNL d   1      -3.931  -2.382   0.640  0.00  0.00     0.099 C 
BRANCH  17  18
ATOM     18  C   UNL d   1      -5.420  -2.735   0.597  0.00  0.00     0.053 C 
BRANCH  18  19
ATOM     19  C   UNL d   1      -5.705  -4.049   1.289  0.00  0.00    -0.057 A 
ATOM     20  C   UNL d   1      -6.023  -4.073   2.655  0.00  0.00     0.007 A 
ATOM     21  C   UNL d   1      -6.268  -5.283   3.307  0.00  0.00     0.001 A 
ATOM     22  C   UNL d   1      -6.192  -6.484   2.603  0.00  0.00     0.000 A 
ATOM     23  C   UNL d   1      -5.867  -6.474   1.248  0.00  0.00     0.001 A 
ATOM     24  C   UNL d   1      -5.622  -5.264   0.594  0.00  0.00     0.007 A 
ENDBRANCH  18  19
ENDBRANCH  17  18
ENDBRANCH  15  17
ENDBRANCH  10  15
BRANCH   7  25
ATOM     25  C   UNL d   1      -2.690   1.818   0.023  0.00  0.00     0.170 C 
BRANCH  25  26
ATOM     26  C   UNL d   1      -2.989   2.396  -1.343  0.00  0.00    -0.040 A 
ATOM     27  C   UNL d   1      -4.160   2.043  -2.029  0.00  0.00     0.009 A 
ATOM     28  C   UNL d   1      -4.440   2.583  -3.288  0.00  0.00     0.001 A 
ATOM     29  C   UNL d   1      -3.553   3.481  -3.879  0.00  0.00     0.000 A 
ATOM     30  C   UNL d   1      -2.391   3.847  -3.208  0.00  0.00     0.001 A 
ATOM     31  C   UNL d   1      -2.115   3.313  -1.947  0.00  0.00     0.009 A 
ENDBRANCH  25  26
ENDBRANCH   7  25
TORSDOF 6
