REMARK  6 active torsions:
REMARK  status: ('A' for Active; 'I' for Inactive)
REMARK    1  A    between atoms: C_3  and  C_1 
REMARK    2  A    between atoms: C_19  and  N_2 
REMARK    3  A    between atoms: C_4  and  C_3 
REMARK    4  A    between atoms: N_7  and  C_20 
REMARK    5  A    between atoms: C_18  and  C_19 
REMARK    6  A    between atoms: C_20  and  C_18 
ROOT
ATOM      1  C   UNL d   1       3.285  -1.445  -0.424  0.00  0.00     0.126 C 
ATOM      2  N   UNL d   1       4.035   0.510  -1.939  0.00  0.00    -0.191 NA
ATOM      3  N   UNL d   1       4.996  -3.333   0.019  0.00  0.00    -0.191 NA
ATOM      4  C   UNL d   1       3.688  -0.363  -1.258  0.00  0.00     0.111 C 
ATOM      5  C   UNL d   1       4.239  -2.479  -0.192  0.00  0.00     0.111 C 
ENDROOT
BRANCH   1   6
ATOM      6  C   UNL d   1       2.065  -1.558   0.142  0.00  0.00     0.063 C 
BRANCH   6   7
ATOM      7  C   UNL d   1       1.031  -0.579   0.060  0.00  0.00     0.036 A 
ATOM      8  N   UNL d   1      -0.311  -0.948   0.112  0.00  0.00    -0.357 N 
ATOM      9  C   UNL d   1      -1.083   0.190   0.130  0.00  0.00     0.091 A 
ATOM     10  C   UNL d   1      -0.262   1.284   0.010  0.00  0.00     0.019 A 
ATOM     11  C   UNL d   1       1.063   0.805  -0.016  0.00  0.00     0.031 A 
BRANCH   8  12
ATOM     12  C   UNL d   1      -0.823  -2.316   0.146  0.00  0.00     0.130 C 
BRANCH  12  13
ATOM     13  C   UNL d   1      -2.342  -2.514   0.065  0.00  0.00     0.040 C 
BRANCH  13  14
ATOM     14  C   UNL d   1      -2.923  -2.182  -1.311  0.00  0.00     0.131 C 
BRANCH  14  15
ATOM     15  N   UNL d   1      -4.373  -2.248  -1.314  0.00  0.00    -0.352 N 
ATOM     16  C   UNL d   1      -5.129  -3.302  -1.735  0.00  0.00     0.182 A 
ATOM     17  N   UNL d   1      -6.412  -3.043  -1.630  0.00  0.00    -0.361 N 
ATOM     18  C   UNL d   1      -6.485  -1.768  -1.130  0.00  0.00     0.106 A 
ATOM     19  HN  UNL d   1      -7.190  -3.659  -1.869  1.00  0.00     0.166 HD
ATOM     20  C   UNL d   1      -5.226  -1.253  -0.925  0.00  0.00     0.108 A 
ENDBRANCH  14  15
ENDBRANCH  13  14
ENDBRANCH  12  13
ENDBRANCH   8  12
ENDBRANCH   6   7
ENDBRANCH   1   6
TORSDOF 6
