REMARK  5 active torsions:
REMARK  status: ('A' for Active; 'I' for Inactive)
REMARK    1  A    between atoms: C_5  and  C_1 
REMARK       I    between atoms: C_2  and  N_13 
REMARK    2  A    between atoms: C_8  and  C_2 
REMARK    3  A    between atoms: N_3  and  C_6 
REMARK    4  A    between atoms: C_7  and  N_4 
REMARK    5  A    between atoms: N_13  and  C_30 
ROOT
ATOM      1  N   UNL d   1      -0.725   5.278  -0.892  0.00  0.00    -0.266 NA
ATOM      2  N   UNL d   1      -1.184   8.028  -1.466  0.00  0.00    -0.365 N 
ATOM      3  C   UNL d   1      -0.193   7.268  -2.232  0.00  0.00     0.139 C 
ATOM      4  C   UNL d   1      -2.235   7.236  -0.795  0.00  0.00     0.139 C 
ATOM      5  C   UNL d   1      -1.627   6.044  -0.003  0.00  0.00     0.116 C 
ATOM      6  C   UNL d   1       0.384   6.134  -1.370  0.00  0.00     0.116 C 
ENDROOT
BRANCH   2   7
ATOM      7  C   UNL d   1      -1.336   9.386  -1.602  0.00  0.00     0.103 A 
ATOM      8  N   UNL d   1      -1.987  10.053  -0.627  0.00  0.00    -0.350 N 
ATOM      9  C   UNL d   1      -2.027  11.409  -0.686  0.00  0.00     0.119 A 
ATOM     10  HN  UNL d   1      -2.438   9.550   0.137  1.00  0.00     0.166 HD
ATOM     11  C   UNL d   1      -1.466  12.177  -1.698  0.00  0.00     0.050 A 
ATOM     12  C   UNL d   1      -0.835  11.484  -2.716  0.00  0.00     0.035 A 
ATOM     13  C   UNL d   1      -0.772  10.090  -2.666  0.00  0.00     0.051 A 
BRANCH  11  14
ATOM     14  N   UNL d   1      -1.558  13.581  -1.631  0.00  0.00    -0.321 N 
ATOM     15  C   UNL d   1      -1.099  14.505  -2.563  0.00  0.00     0.263 C 
ATOM     16  O   UNL d   1      -0.572  14.200  -3.630  0.00  0.00    -0.267 OA
ATOM     17  H   UNL d   1      -2.004  13.972  -0.810  0.00  0.00     0.169 HD
BRANCH  15  18
ATOM     18  C   UNL d   1      -1.289  15.900  -2.188  0.00  0.00     0.072 A 
ATOM     19  S   UNL d   1      -2.026  16.381  -0.718  0.00  0.00    -0.097 SA
ATOM     20  C   UNL d   1      -1.815  18.040  -1.073  0.00  0.00     0.050 A 
ATOM     21  C   UNL d   1      -1.204  18.235  -2.289  0.00  0.00     0.009 A 
ATOM     22  C   UNL d   1      -0.905  17.002  -2.936  0.00  0.00     0.025 A 
ENDBRANCH  15  18
ENDBRANCH  11  14
ENDBRANCH   2   7
BRANCH   1  23
ATOM     23  C   UNL d   1      -0.241   4.066  -0.393  0.00  0.00     0.082 A 
ATOM     24  C   UNL d   1       0.243   3.139  -1.321  0.00  0.00     0.043 A 
ATOM     25  C   UNL d   1       0.800   1.942  -0.891  0.00  0.00     0.021 A 
ATOM     26  C   UNL d   1       0.870   1.683   0.478  0.00  0.00     0.063 A 
ATOM     27  C   UNL d   1       0.338   2.636   1.335  0.00  0.00     0.105 A 
ATOM     28  N   UNL d   1      -0.216   3.807   0.929  0.00  0.00    -0.356 N 
ATOM     29  HN  UNL d   1      -0.602   4.468   1.603  1.00  0.00     0.166 HD
BRANCH  26  30
ATOM     30  C   UNL d   1       1.498   0.427   0.987  0.00  0.00     0.418 C 
ATOM     31  F   UNL d   1       1.495   0.322   2.341  0.00  0.00    -0.166 F 
ATOM     32  F   UNL d   1       2.802   0.312   0.608  0.00  0.00    -0.166 F 
ATOM     33  F   UNL d   1       0.879  -0.694   0.522  0.00  0.00    -0.166 F 
ENDBRANCH  26  30
ENDBRANCH   1  23
TORSDOF 5
