REMARK  4 active torsions:
REMARK  status: ('A' for Active; 'I' for Inactive)
REMARK    1  A    between atoms: C_8  and  N_1 
REMARK    2  A    between atoms: C_11  and  C_8 
REMARK    3  A    between atoms: O_9  and  C_11 
REMARK    4  A    between atoms: C_10  and  O_9 
ROOT
ATOM      1  C   UNL d   1       0.245  -2.259  -0.039  0.00  0.00     0.161 C 
ENDROOT
BRANCH   1   2
ATOM      2  N   UNL d   1       0.389  -0.807  -0.033  0.00  0.00    -0.291 N 
ATOM      3  C   UNL d   1       0.523   0.019  -1.115  0.00  0.00     0.177 A 
ATOM      4  N   UNL d   1       0.643   1.317  -0.666  0.00  0.00    -0.358 N 
ATOM      5  S   UNL d   1       0.557  -0.354  -2.728  0.00  0.00    -0.041 SA
ATOM      6  C   UNL d   1       0.610   1.396   0.768  0.00  0.00     0.225 A 
ATOM      7  H   UNL d   1       0.741   2.103  -1.298  0.00  0.00     0.162 HD
ATOM      8  C   UNL d   1       0.461  -0.075   1.127  0.00  0.00     0.243 A 
ATOM      9  O   UNL d   1       0.422  -0.513   2.270  0.00  0.00    -0.271 OA
ENDBRANCH   1   2
BRANCH   1  10
ATOM     10  C   UNL d   1       1.593  -2.981   0.013  0.00  0.00     0.196 C 
BRANCH  10  11
ATOM     11  O   UNL d   1       1.411  -4.395  -0.109  0.00  0.00    -0.350 OA
BRANCH  11  12
ATOM     12  C   UNL d   1       1.347  -4.920  -1.370  0.00  0.00     0.068 A 
ATOM     13  C   UNL d   1       2.042  -4.444  -2.482  0.00  0.00     0.037 A 
ATOM     14  C   UNL d   1       1.923  -5.091  -3.716  0.00  0.00     0.003 A 
ATOM     15  C   UNL d   1       1.119  -6.221  -3.843  0.00  0.00     0.000 A 
ATOM     16  C   UNL d   1       0.438  -6.714  -2.732  0.00  0.00     0.003 A 
ATOM     17  C   UNL d   1       0.560  -6.068  -1.499  0.00  0.00     0.037 A 
ENDBRANCH  11  12
ENDBRANCH  10  11
ENDBRANCH   1  10
TORSDOF 4
