REMARK  7 active torsions:
REMARK  status: ('A' for Active; 'I' for Inactive)
REMARK    1  A    between atoms: C_4  and  C_1 
REMARK    2  A    between atoms: N_5  and  C_2 
REMARK    3  A    between atoms: C_10  and  C_4 
REMARK       I    between atoms: C_8  and  N_5 
REMARK    4  A    between atoms: C_20  and  C_7 
REMARK    5  A    between atoms: C_12  and  C_8 
REMARK    6  A    between atoms: N_9  and  C_12 
REMARK    7  A    between atoms: O_19  and  C_16 
ROOT
ATOM      1  C   UNL d   1       1.371   0.283  -0.169  0.00  0.00     0.050 A 
ATOM      2  C   UNL d   1       0.137   0.857  -0.477  0.00  0.00     0.091 A 
ATOM      3  S   UNL d   1      -1.107  -0.287  -0.588  0.00  0.00    -0.076 SA
ATOM      4  C   UNL d   1       1.211  -1.143   0.012  0.00  0.00     0.033 A 
ATOM      5  C   UNL d   1      -0.087  -1.577  -0.173  0.00  0.00    -0.015 A 
ENDROOT
BRANCH   2   6
ATOM      6  N   UNL d   1      -0.148   2.195  -0.699  0.00  0.00    -0.319 N 
ATOM      7  C   UNL d   1      -1.386   2.755  -0.987  0.00  0.00     0.251 C 
ATOM      8  O   UNL d   1      -2.458   2.185  -1.160  0.00  0.00    -0.271 OA
ATOM      9  H   UNL d   1       0.640   2.846  -0.669  0.00  0.00     0.169 HD
BRANCH   7  10
ATOM     10  C   UNL d   1      -1.341   4.284  -0.958  0.00  0.00     0.374 C 
BRANCH  10  11
ATOM     11  N   UNL d   1      -0.090   4.781  -1.575  0.00  0.00     0.097 N 
ATOM     12  C   UNL d   1      -0.286   4.979  -3.014  0.00  0.00     0.273 C 
ATOM     13  C   UNL d   1       1.047   5.260  -3.684  0.00  0.00     0.030 C 
ATOM     14  C   UNL d   1       1.906   6.305  -2.982  0.00  0.00     0.003 C 
ATOM     15  C   UNL d   1       1.397   6.832  -1.643  0.00  0.00     0.030 C 
ATOM     16  C   UNL d   1       0.320   6.022  -0.922  0.00  0.00     0.273 C 
ENDBRANCH  10  11
ENDBRANCH   7  10
ENDBRANCH   2   6
BRANCH   1  17
ATOM     17  C   UNL d   1       2.610   1.076  -0.085  0.00  0.00     0.195 C 
ATOM     18  O   UNL d   1       2.599   2.302  -0.215  0.00  0.00    -0.287 OA
BRANCH  17  19
ATOM     19  C   UNL d   1       3.944   0.432   0.077  0.00  0.00     0.015 A 
ATOM     20  C   UNL d   1       4.252  -0.445   1.129  0.00  0.00     0.018 A 
ATOM     21  C   UNL d   1       5.551  -0.954   1.267  0.00  0.00     0.037 A 
ATOM     22  C   UNL d   1       6.556  -0.568   0.378  0.00  0.00     0.068 A 
ATOM     23  C   UNL d   1       6.253   0.297  -0.672  0.00  0.00     0.037 A 
ATOM     24  C   UNL d   1       4.961   0.809  -0.815  0.00  0.00     0.018 A 
BRANCH  22  25
ATOM     25  O   UNL d   1       7.855  -1.001   0.421  0.00  0.00    -0.356 OA
ATOM     26  C   UNL d   1       8.385  -1.214   1.724  0.00  0.00     0.210 C 
ENDBRANCH  22  25
ENDBRANCH  17  19
ENDBRANCH   1  17
BRANCH   5  27
ATOM     27  C   UNL d   1      -0.648  -2.966  -0.112  0.00  0.00     0.042 C 
ATOM     28  C   UNL d   1      -1.741  -3.125   0.940  0.00  0.00     0.010 C 
ENDBRANCH   5  27
TORSDOF 7
