REMARK  2 active torsions:
REMARK  status: ('A' for Active; 'I' for Inactive)
REMARK    1  A    between atoms: C_11  and  N_3 
REMARK    2  A    between atoms: C_12  and  C_11 
ROOT
ATOM      1  C   UNL d   1       0.684   0.403   0.019  0.00  0.00     0.073 A 
ATOM      2  C   UNL d   1       1.224  -0.865   0.077  0.00  0.00     0.091 A 
ATOM      3  N   UNL d   1       2.946   1.172   0.062  0.00  0.00    -0.305 N 
ATOM      4  C   UNL d   1       1.601   1.530  -0.007  0.00  0.00     0.262 A 
ATOM      5  N   UNL d   1       2.542  -1.180   0.117  0.00  0.00    -0.346 N 
ATOM      6  HN  UNL d   1       2.881  -2.142   0.149  1.00  0.00     0.167 HD
ATOM      7  S   UNL d   1       0.018  -2.071   0.091  0.00  0.00    -0.075 SA
ATOM      8  C   UNL d   1      -0.749   0.386  -0.001  0.00  0.00    -0.026 A 
ATOM      9  C   UNL d   1      -1.226  -0.912   0.035  0.00  0.00    -0.008 A 
ATOM     10  C   UNL d   1       3.333  -0.155   0.111  0.00  0.00     0.187 A 
ATOM     11  O   UNL d   1       1.206   2.690  -0.097  0.00  0.00    -0.267 OA
ATOM     12  C   UNL d   1      -1.669   1.571  -0.020  0.00  0.00     0.041 C 
ATOM     13  C   UNL d   1      -2.672  -1.300  -0.001  0.00  0.00     0.047 C 
ATOM     14  C   UNL d   1      -3.111   1.175  -0.375  0.00  0.00     0.005 C 
ATOM     15  C   UNL d   1      -3.555  -0.097   0.361  0.00  0.00     0.005 C 
ENDROOT
BRANCH   3  16
ATOM     16  C   UNL d   1       3.955   2.223   0.058  0.00  0.00     0.173 C 
BRANCH  16  17
ATOM     17  C   UNL d   1       4.293   2.704   1.454  0.00  0.00    -0.018 A 
ATOM     18  C   UNL d   1       5.389   2.230   2.192  0.00  0.00     0.042 A 
ATOM     19 CL   UNL d   1       6.517   1.093   1.544  0.00  0.00    -0.084 Cl
ATOM     20  C   UNL d   1       5.620   2.680   3.497  0.00  0.00     0.024 A 
ATOM     21  C   UNL d   1       4.767   3.613   4.083  0.00  0.00     0.002 A 
ATOM     22  C   UNL d   1       3.684   4.105   3.362  0.00  0.00     0.001 A 
ATOM     23  C   UNL d   1       3.450   3.656   2.062  0.00  0.00     0.010 A 
ENDBRANCH  16  17
ENDBRANCH   3  16
TORSDOF 2
