REMARK  5 active torsions:
REMARK  status: ('A' for Active; 'I' for Inactive)
REMARK    1  A    between atoms: C_21  and  N_1 
REMARK       I    between atoms: N_3  and  C_13 
REMARK    2  A    between atoms: S_16  and  C_6 
REMARK    3  A    between atoms: C_13  and  C_18 
REMARK    4  A    between atoms: C_18  and  S_16 
REMARK    5  A    between atoms: C_24  and  C_21 
ROOT
ATOM      1  C   UNL d   1      -3.520  -1.573  -0.238  0.00  0.00     0.186 C 
ENDROOT
BRANCH   1   2
ATOM      2  C   UNL d   1      -5.005  -1.854  -0.012  0.00  0.00     0.238 C 
ATOM      3  N   UNL d   1      -5.983  -0.865  -0.224  0.00  0.00    -0.279 N 
ATOM      4  C   UNL d   1      -7.322  -1.023   0.327  0.00  0.00     0.059 A 
ATOM      5  C   UNL d   1      -5.815   0.287  -1.076  0.00  0.00     0.059 A 
ATOM      6  C   UNL d   1      -8.078   0.087   0.755  0.00  0.00     0.033 A 
ATOM      7  C   UNL d   1      -7.928  -2.288   0.440  0.00  0.00     0.031 A 
ATOM      8  C   UNL d   1      -9.363  -0.077   1.303  0.00  0.00     0.021 A 
ATOM      9  S   UNL d   1      -7.436   1.740   0.658  0.00  0.00    -0.086 SA
ATOM     10  C   UNL d   1      -9.928  -1.343   1.413  0.00  0.00     0.002 A 
ATOM     11  C   UNL d   1      -9.213  -2.448   0.974  0.00  0.00     0.002 A 
ATOM     12  C   UNL d   1      -6.465   1.509  -0.811  0.00  0.00     0.033 A 
ATOM     13  C   UNL d   1      -6.368   2.588  -1.703  0.00  0.00     0.021 A 
ATOM     14  C   UNL d   1      -5.633   2.465  -2.877  0.00  0.00     0.002 A 
ATOM     15  C   UNL d   1      -4.991   1.266  -3.162  0.00  0.00     0.002 A 
ATOM     16  C   UNL d   1      -5.089   0.187  -2.275  0.00  0.00     0.031 A 
ATOM     17  O   UNL d   1      -5.269  -2.994   0.401  0.00  0.00    -0.272 OA
ENDBRANCH   1   2
BRANCH   1  18
ATOM     18  S   UNL d   1      -2.869  -0.063   0.533  0.00  0.00    -0.083 SA
BRANCH  18  19
ATOM     19  C   UNL d   1      -1.182  -0.275   0.172  0.00  0.00     0.163 A 
ATOM     20  N   UNL d   1      -0.180   0.599   0.513  0.00  0.00    -0.306 N 
ATOM     21  C   UNL d   1       0.975   0.037   0.020  0.00  0.00     0.159 A 
ATOM     22  N   UNL d   1       0.679  -1.108  -0.567  0.00  0.00    -0.281 N 
ATOM     23  C   UNL d   1       2.312   0.556   0.085  0.00  0.00     0.120 A 
ATOM     24  N   UNL d   1      -0.675  -1.298  -0.477  0.00  0.00    -0.278 N 
ATOM     25  HN  UNL d   1       1.343  -1.742  -1.012  1.00  0.00     0.188 HD
ATOM     26  HN  UNL d   1      -1.197  -2.092  -0.848  1.00  0.00     0.189 HD
ATOM     27  O   UNL d   1       2.644   1.772   0.623  0.00  0.00    -0.319 OA
ATOM     28  C   UNL d   1       3.474  -0.043  -0.377  0.00  0.00     0.043 A 
ATOM     29  C   UNL d   1       3.988   1.932   0.502  0.00  0.00     0.142 A 
ATOM     30  C   UNL d   1       4.548   0.838  -0.108  0.00  0.00     0.027 A 
BRANCH  20  31
ATOM     31  C   UNL d   1      -0.302   1.828   1.274  0.00  0.00     0.159 C 
BRANCH  31  32
ATOM     32  C   UNL d   1      -0.515   3.076   0.459  0.00  0.00    -0.017 C 
ATOM     33  C   UNL d   1      -0.626   3.191  -0.872  0.00  0.00     0.008 C 
ENDBRANCH  31  32
ENDBRANCH  20  31
ENDBRANCH  18  19
ENDBRANCH   1  18
TORSDOF 5
