REMARK  7 active torsions:
REMARK  status: ('A' for Active; 'I' for Inactive)
REMARK    1  A    between atoms: C_9  and  C_1 
REMARK    2  A    between atoms: C_4  and  C_9 
REMARK    3  A    between atoms: N_6  and  C_4 
REMARK    4  A    between atoms: C_8  and  C_4 
REMARK       I    between atoms: C_5  and  N_6 
REMARK    5  A    between atoms: C_12  and  C_5 
REMARK    6  A    between atoms: O_16  and  C_8 
REMARK    7  A    between atoms: N_10  and  C_12 
ROOT
ATOM      1  C   UNL d   1      -1.636  -3.339   0.537  0.00  0.00     0.188 C 
ENDROOT
BRANCH   1   2
ATOM      2  C   UNL d   1      -2.431  -2.034   0.300  0.00  0.00     0.076 C 
BRANCH   2   3
ATOM      3  C   UNL d   1      -1.635  -0.961  -0.459  0.00  0.00    -0.028 A 
ATOM      4  C   UNL d   1      -0.543  -1.207  -1.275  0.00  0.00     0.096 A 
ATOM      5  N   UNL d   1      -0.101  -0.043  -1.821  0.00  0.00    -0.365 N 
ATOM      6  C   UNL d   1      -0.894   0.998  -1.409  0.00  0.00     0.042 A 
ATOM      7  H   UNL d   1       0.687   0.048  -2.442  0.00  0.00     0.165 HD
ATOM      8  C   UNL d   1      -1.853   0.473  -0.534  0.00  0.00    -0.002 A 
ATOM      9  C   UNL d   1      -0.809   2.352  -1.764  0.00  0.00     0.030 A 
ATOM     10  C   UNL d   1      -2.765   1.389   0.034  0.00  0.00     0.014 A 
ATOM     11  C   UNL d   1      -2.692   2.756  -0.306  0.00  0.00     0.001 A 
ATOM     12  C   UNL d   1      -1.736   3.227  -1.197  0.00  0.00     0.002 A 
ENDBRANCH   2   3
ENDBRANCH   1   2
BRANCH   1  13
ATOM     13  N   UNL d   1      -0.757  -3.233   1.716  0.00  0.00    -0.345 N 
ATOM     14  C   UNL d   1       0.607  -3.497   1.591  0.00  0.00     0.246 C 
ATOM     15  O   UNL d   1       1.178  -3.504   0.512  0.00  0.00    -0.272 OA
ATOM     16  H   UNL d   1      -1.177  -3.489   2.602  0.00  0.00     0.163 HD
BRANCH  14  17
ATOM     17  C   UNL d   1       1.261  -3.801   2.946  0.00  0.00     0.374 C 
BRANCH  17  18
ATOM     18  N   UNL d   1       2.726  -3.649   2.930  0.00  0.00     0.101 N 
ATOM     19  C   UNL d   1       3.322  -4.112   4.201  0.00  0.00     0.299 C 
ATOM     20  C   UNL d   1       3.108  -3.139   5.371  0.00  0.00     0.198 C 
ATOM     21  O   UNL d   1       3.638  -1.845   5.065  0.00  0.00    -0.388 OA
ATOM     22  C   UNL d   1       3.030  -1.312   3.881  0.00  0.00     0.198 C 
ATOM     23  C   UNL d   1       3.172  -2.261   2.679  0.00  0.00     0.299 C 
ENDBRANCH  17  18
ENDBRANCH  14  17
ENDBRANCH   1  13
BRANCH   1  24
ATOM     24  C   UNL d   1      -2.358  -4.684   0.728  0.00  0.00     0.281 C 
ATOM     25  O   UNL d   1      -1.742  -5.711   1.017  0.00  0.00    -0.263 OA
BRANCH  24  26
ATOM     26  O   UNL d   1      -3.706  -4.643   0.598  0.00  0.00    -0.325 OA
ATOM     27  C   UNL d   1      -4.325  -5.925   0.787  0.00  0.00     0.213 C 
ENDBRANCH  24  26
ENDBRANCH   1  24
TORSDOF 7
