REMARK  7 active torsions:
REMARK  status: ('A' for Active; 'I' for Inactive)
REMARK    1  A    between atoms: C_6  and  C_1 
REMARK    2  A    between atoms: C_16  and  C_3 
REMARK    3  A    between atoms: C_8  and  C_4 
REMARK    4  A    between atoms: C_7  and  C_9 
REMARK    5  A    between atoms: O_13  and  C_8 
REMARK    6  A    between atoms: N_22  and  C_9 
REMARK    7  A    between atoms: N_11  and  O_13 
ROOT
ATOM      1  C   UNL d   1      -1.010  -0.546   0.094  0.00  0.00     0.322 C 
ATOM      2  O   UNL d   1      -0.910   0.667   0.277  0.00  0.00    -0.257 OA
ENDROOT
BRANCH   1   3
ATOM      3  C   UNL d   1       0.130  -1.445  -0.002  0.00  0.00     0.083 A 
ATOM      4  S   UNL d   1      -0.027  -3.136  -0.085  0.00  0.00    -0.079 SA
ATOM      5  C   UNL d   1       1.678  -3.401  -0.052  0.00  0.00     0.100 A 
ATOM      6  C   UNL d   1       2.378  -2.196  -0.002  0.00  0.00    -0.002 A 
ATOM      7  C   UNL d   1       1.462  -1.083   0.027  0.00  0.00     0.038 A 
BRANCH   5   8
ATOM      8  C   UNL d   1       2.156  -4.822  -0.076  0.00  0.00     0.424 C 
ATOM      9  F   UNL d   1       1.183  -5.713  -0.411  0.00  0.00    -0.166 F 
ATOM     10  F   UNL d   1       3.165  -5.015  -0.964  0.00  0.00    -0.166 F 
ATOM     11  F   UNL d   1       2.616  -5.215   1.141  0.00  0.00    -0.166 F 
ENDBRANCH   5   8
BRANCH   6  12
ATOM     12  C   UNL d   1       3.846  -2.061   0.001  0.00  0.00    -0.025 A 
ATOM     13  C   UNL d   1       4.436  -0.973  -0.666  0.00  0.00     0.012 A 
ATOM     14  C   UNL d   1       5.822  -0.787  -0.668  0.00  0.00     0.001 A 
ATOM     15  C   UNL d   1       6.647  -1.697  -0.017  0.00  0.00     0.000 A 
ATOM     16  C   UNL d   1       6.083  -2.776   0.656  0.00  0.00     0.001 A 
ATOM     17  C   UNL d   1       4.693  -2.945   0.682  0.00  0.00     0.012 A 
ENDBRANCH   6  12
ENDBRANCH   1   3
BRANCH   1  18
ATOM     18  O   UNL d   1      -2.205  -1.219  -0.027  0.00  0.00    -0.193 OA
BRANCH  18  19
ATOM     19  N   UNL d   1      -3.120  -0.689   0.907  0.00  0.00    -0.245 N 
ATOM     20  C   UNL d   1      -4.340  -1.085   0.690  0.00  0.00     0.110 C 
ATOM     21  HN  UNL d   1      -2.854  -0.064   1.668  1.00  0.00     0.196 HD
BRANCH  20  22
ATOM     22  C   UNL d   1      -5.347  -0.748   1.756  0.00  0.00     0.025 A 
ATOM     23  C   UNL d   1      -6.721  -0.566   1.539  0.00  0.00     0.049 A 
ATOM     24  C   UNL d   1      -7.573  -0.286   2.618  0.00  0.00     0.048 A 
ATOM     25 CL   UNL d   1      -7.455  -0.625  -0.026  0.00  0.00    -0.083 Cl
ATOM     26  C   UNL d   1      -7.062  -0.187   3.908  0.00  0.00     0.035 A 
ATOM     27  C   UNL d   1      -5.704  -0.362   4.144  0.00  0.00     0.025 A 
ATOM     28 CL   UNL d   1      -8.116   0.157   5.225  0.00  0.00    -0.084 Cl
ATOM     29  C   UNL d   1      -4.853  -0.640   3.072  0.00  0.00     0.018 A 
ENDBRANCH  20  22
BRANCH  20  30
ATOM     30  N   UNL d   1      -4.709  -1.803  -0.419  0.00  0.00    -0.286 NA
ATOM     31  H   UNL d   1      -5.674  -1.703  -0.724  0.00  0.00     0.125 HD
ATOM     32  H   UNL d   1      -4.054  -1.715  -1.188  0.00  0.00     0.125 HD
ENDBRANCH  20  30
ENDBRANCH  18  19
ENDBRANCH   1  18
TORSDOF 7
