REMARK  4 active torsions:
REMARK  status: ('A' for Active; 'I' for Inactive)
REMARK    1  A    between atoms: N_2  and  C_1 
REMARK    2  A    between atoms: C_8  and  C_3 
REMARK    3  A    between atoms: C_9  and  C_8 
REMARK    4  A    between atoms: C_13  and  C_9 
ROOT
ATOM      1  C   UNL d   1      -0.729   0.291   0.079  0.00  0.00     0.162 A 
ATOM      2  C   UNL d   1      -1.170  -1.030   0.006  0.00  0.00     0.133 A 
ATOM      3  N   UNL d   1       1.105  -1.025  -0.118  0.00  0.00    -0.263 N 
ATOM      4  HN  UNL d   1       2.069  -1.349  -0.193  1.00  0.00     0.194 HD
ATOM      5  C   UNL d   1       0.689   0.237  -0.003  0.00  0.00     0.064 A 
ATOM      6  O   UNL d   1      -0.027  -1.797  -0.113  0.00  0.00    -0.235 OA
ATOM      7  C   UNL d   1       1.693   1.329   0.025  0.00  0.00     0.073 C 
ENDROOT
BRANCH   2   8
ATOM      8  C   UNL d   1      -2.472  -1.625   0.030  0.00  0.00     0.043 C 
BRANCH   8   9
ATOM      9  C   UNL d   1      -2.606  -2.960  -0.071  0.00  0.00     0.017 C 
BRANCH   9  10
ATOM     10  C   UNL d   1      -3.871  -3.718  -0.082  0.00  0.00     0.003 A 
ATOM     11  C   UNL d   1      -5.101  -3.203  -0.521  0.00  0.00     0.129 A 
ATOM     12  C   UNL d   1      -6.247  -3.993  -0.576  0.00  0.00     0.085 A 
ATOM     13  F   UNL d   1      -5.203  -1.928  -0.928  0.00  0.00    -0.205 F 
ATOM     14  C   UNL d   1      -6.168  -5.325  -0.197  0.00  0.00     0.119 A 
ATOM     15  C   UNL d   1      -4.969  -5.872   0.241  0.00  0.00     0.043 A 
ATOM     16  F   UNL d   1      -7.259  -6.098  -0.263  0.00  0.00    -0.206 F 
ATOM     17  C   UNL d   1      -3.824  -5.072   0.297  0.00  0.00     0.017 A 
ENDBRANCH   9  10
ENDBRANCH   8   9
ENDBRANCH   2   8
BRANCH   1  18
ATOM     18  N   UNL d   1      -1.531   1.470   0.210  0.00  0.00    -0.111 N 
ATOM     19  O   UNL d   1      -2.756   1.335   0.289  0.00  0.00    -0.532 OA
ATOM     20  O   UNL d   1      -0.934   2.553   0.239  0.00  0.00    -0.532 OA
ENDBRANCH   1  18
TORSDOF 4
