REMARK  7 active torsions:
REMARK  status: ('A' for Active; 'I' for Inactive)
REMARK    1  A    between atoms: C_12  and  C_4 
REMARK    2  A    between atoms: N_10  and  C_5 
REMARK    3  A    between atoms: S_14  and  C_5 
REMARK    4  A    between atoms: C_6  and  C_13 
REMARK    5  A    between atoms: C_13  and  N_10 
REMARK    6  A    between atoms: O_15  and  C_12 
REMARK    7  A    between atoms: C_16  and  O_15 
ROOT
ATOM      1  N   UNL d   1       1.472  -0.305  -0.112  0.00  0.00    -0.274 N 
ATOM      2  HN  UNL d   1       1.777  -0.327   0.861  1.00  0.00     0.180 HD
ATOM      3  C   UNL d   1       0.701  -1.289  -0.586  0.00  0.00     0.183 C 
ATOM      4  C   UNL d   1       1.836   0.676  -0.874  0.00  0.00     0.149 C 
ATOM      5  N   UNL d   1       0.036  -2.154  -0.972  0.00  0.00    -0.172 NA
ENDROOT
BRANCH   4   6
ATOM      6  N   UNL d   1       2.575   1.739  -0.418  0.00  0.00    -0.365 N 
ATOM      7  H   UNL d   1       2.627   2.507  -1.077  0.00  0.00     0.162 HD
BRANCH   6   8
ATOM      8  C   UNL d   1       2.428   2.169   0.966  0.00  0.00     0.168 C 
BRANCH   8   9
ATOM      9  C   UNL d   1       3.289   3.340   1.365  0.00  0.00     0.008 A 
ATOM     10  C   UNL d   1       3.006   4.703   1.328  0.00  0.00    -0.019 A 
ATOM     11  C   UNL d   1       4.081   5.465   1.904  0.00  0.00     0.017 A 
ATOM     12  C   UNL d   1       5.121   4.679   2.340  0.00  0.00     0.051 A 
ATOM     13  S   UNL d   1       4.839   3.027   2.038  0.00  0.00    -0.104 SA
BRANCH  10  14
ATOM     14  C   UNL d   1       1.739   5.337   0.809  0.00  0.00     0.215 C 
BRANCH  14  15
ATOM     15  O   UNL d   1       0.608   4.833   1.520  0.00  0.00    -0.347 OA
BRANCH  15  16
ATOM     16  C   UNL d   1      -0.619   5.287   1.129  0.00  0.00     0.069 A 
ATOM     17  C   UNL d   1      -1.676   4.414   1.403  0.00  0.00     0.038 A 
ATOM     18  C   UNL d   1      -2.990   4.770   1.094  0.00  0.00     0.026 A 
ATOM     19  C   UNL d   1      -3.250   6.013   0.525  0.00  0.00     0.034 A 
ATOM     20  C   UNL d   1      -2.204   6.894   0.256  0.00  0.00     0.026 A 
ATOM     21 CL   UNL d   1      -4.868   6.468   0.165  0.00  0.00    -0.084 Cl
ATOM     22  C   UNL d   1      -0.885   6.532   0.557  0.00  0.00     0.038 A 
ENDBRANCH  15  16
ENDBRANCH  14  15
ENDBRANCH  10  14
ENDBRANCH   8   9
ENDBRANCH   6   8
ENDBRANCH   4   6
BRANCH   4  23
ATOM     23  S   UNL d   1       1.392   0.866  -2.564  0.00  0.00    -0.098 SA
ATOM     24  C   UNL d   1       2.658  -0.167  -3.334  0.00  0.00     0.099 C 
ENDBRANCH   4  23
TORSDOF 7
