REMARK  2 active torsions:
REMARK  status: ('A' for Active; 'I' for Inactive)
REMARK    1  A    between atoms: C_10  and  N_1 
REMARK    2  A    between atoms: C_17  and  C_9 
ROOT
ATOM      1  N   UNL d   1       2.183   0.729  -0.001  0.00  0.00    -0.229 N 
ATOM      2  C   UNL d   1      -0.218   0.683   0.053  0.00  0.00     0.068 A 
ATOM      3  C   UNL d   1      -0.117  -0.668  -0.034  0.00  0.00     0.094 A 
ATOM      4  C   UNL d   1       0.991   1.480   0.097  0.00  0.00     0.269 A 
ATOM      5  C   UNL d   1       2.244  -0.674  -0.117  0.00  0.00     0.335 A 
ATOM      6  N   UNL d   1       1.049  -1.355  -0.104  0.00  0.00    -0.301 N 
ATOM      7  C   UNL d   1      -1.592   1.074   0.067  0.00  0.00     0.039 A 
ATOM      8  S   UNL d   1      -1.569  -1.495  -0.068  0.00  0.00    -0.071 SA
ATOM      9  C   UNL d   1      -2.460  -0.012   0.021  0.00  0.00     0.018 A 
ATOM     10  O   UNL d   1       3.283  -1.331  -0.190  0.00  0.00    -0.246 OA
ATOM     11  O   UNL d   1       0.928   2.704   0.172  0.00  0.00    -0.266 OA
ATOM     12  H   UNL d   1       1.064  -2.365  -0.158  0.00  0.00     0.171 HD
ENDROOT
BRANCH   1  13
ATOM     13  C   UNL d   1       3.419   1.446   0.016  0.00  0.00     0.049 A 
ATOM     14  C   UNL d   1       3.727   2.304   1.080  0.00  0.00     0.056 A 
ATOM     15  C   UNL d   1       4.953   2.977   1.113  0.00  0.00     0.058 A 
ATOM     16 CL   UNL d   1       5.293   3.956   2.496  0.00  0.00    -0.082 Cl
ATOM     17  C   UNL d   1       5.861   2.831   0.058  0.00  0.00     0.055 A 
ATOM     18  C   UNL d   1       5.548   1.992  -1.015  0.00  0.00     0.028 A 
ATOM     19 CL   UNL d   1       7.381   3.651   0.021  0.00  0.00    -0.083 Cl
ATOM     20  C   UNL d   1       4.342   1.288  -1.027  0.00  0.00     0.032 A 
ENDBRANCH   1  13
BRANCH   9  21
ATOM     21  C   UNL d   1      -3.933  -0.025   0.007  0.00  0.00    -0.019 A 
ATOM     22  C   UNL d   1      -4.642   1.016  -0.613  0.00  0.00     0.013 A 
ATOM     23  C   UNL d   1      -6.041   1.018  -0.638  0.00  0.00     0.001 A 
ATOM     24  C   UNL d   1      -6.751  -0.021  -0.043  0.00  0.00     0.000 A 
ATOM     25  C   UNL d   1      -6.066  -1.058   0.583  0.00  0.00     0.001 A 
ATOM     26  C   UNL d   1      -4.669  -1.057   0.611  0.00  0.00     0.013 A 
ENDBRANCH   9  21
TORSDOF 2
