REMARK  4 active torsions:
REMARK  status: ('A' for Active; 'I' for Inactive)
REMARK    1  A    between atoms: C_2  and  S_1 
REMARK    2  A    between atoms: N_8  and  S_1 
REMARK    3  A    between atoms: C_16  and  N_8 
REMARK    4  A    between atoms: C_15  and  C_16 
ROOT
ATOM      1  N   UNL d   1       0.274  -0.809   1.309  0.00  0.00    -0.213 NA
ATOM      2  H   UNL d   1      -0.715  -0.644   1.507  0.00  0.00     0.140 HD
ENDROOT
BRANCH   1   3
ATOM      3  S   UNL d   1       0.723  -0.240  -0.212  0.00  0.00     0.246 S 
ATOM      4  O   UNL d   1      -0.162   0.852  -0.529  0.00  0.00    -0.206 OA
ATOM      5  O   UNL d   1       2.163  -0.106  -0.222  0.00  0.00    -0.206 OA
BRANCH   3   6
ATOM      6  C   UNL d   1       0.365  -1.433  -1.383  0.00  0.00     0.129 A 
ATOM      7  C   UNL d   1      -0.872  -1.929  -1.721  0.00  0.00     0.097 A 
ATOM      8  O   UNL d   1      -0.717  -2.870  -2.690  0.00  0.00    -0.241 OA
ATOM      9  C   UNL d   1      -2.262  -1.702  -1.285  0.00  0.00     0.081 C 
ATOM     10  N   UNL d   1       0.624  -3.034  -2.969  0.00  0.00    -0.264 N 
ATOM     11  C   UNL d   1       1.277  -2.179  -2.170  0.00  0.00     0.054 A 
ATOM     12  HN  UNL d   1       1.035  -3.676  -3.646  1.00  0.00     0.194 HD
ATOM     13  C   UNL d   1       2.758  -2.159  -2.193  0.00  0.00     0.072 C 
ENDBRANCH   3   6
ENDBRANCH   1   3
BRANCH   1  14
ATOM     14  C   UNL d   1       0.778  -2.149   1.677  0.00  0.00     0.139 C 
BRANCH  14  15
ATOM     15  C   UNL d   1       0.305  -2.536   3.089  0.00  0.00     0.167 C 
ATOM     16  O   UNL d   1      -1.136  -2.522   3.146  0.00  0.00    -0.340 OA
ATOM     17  C   UNL d   1      -1.692  -3.662   2.624  0.00  0.00     0.102 A 
ATOM     18  C   UNL d   1      -3.051  -3.609   2.323  0.00  0.00     0.039 A 
ATOM     19  C   UNL d   1      -0.956  -4.821   2.356  0.00  0.00     0.102 A 
ATOM     20  C   UNL d   1      -3.670  -4.706   1.722  0.00  0.00     0.003 A 
ATOM     21  C   UNL d   1      -2.930  -5.853   1.429  0.00  0.00     0.003 A 
ATOM     22  C   UNL d   1      -1.572  -5.911   1.746  0.00  0.00     0.039 A 
ATOM     23  O   UNL d   1       0.385  -4.936   2.620  0.00  0.00    -0.346 OA
ATOM     24  C   UNL d   1       0.839  -3.905   3.504  0.00  0.00     0.209 C 
ENDBRANCH  14  15
ENDBRANCH   1  14
TORSDOF 4
