REMARK  8 active torsions:
REMARK  status: ('A' for Active; 'I' for Inactive)
REMARK    1  A    between atoms: N_2  and  C_1 
REMARK    2  A    between atoms: N_5  and  C_1 
REMARK    3  A    between atoms: C_4  and  N_2 
REMARK       I    between atoms: C_3  and  N_6 
REMARK    4  A    between atoms: C_15  and  C_3 
REMARK    5  A    between atoms: N_6  and  N_5 
REMARK    6  A    between atoms: C_11  and  C_16 
REMARK    7  A    between atoms: S_12  and  C_15 
REMARK    8  A    between atoms: C_16  and  S_12 
ROOT
ATOM      1  C   UNL d   1      -1.857   2.158   1.405  0.00  0.00     0.245 C 
ATOM      2  N   UNL d   1      -1.300   2.300   0.145  0.00  0.00    -0.267 N 
ATOM      3  O   UNL d   1      -1.152   2.105   2.413  0.00  0.00    -0.271 OA
ATOM      4  H   UNL d   1      -1.822   2.111  -0.707  0.00  0.00     0.190 HD
ENDROOT
BRANCH   1   5
ATOM      5  C   UNL d   1      -3.368   2.158   1.435  0.00  0.00     0.178 C 
BRANCH   5   6
ATOM      6  S   UNL d   1      -4.020   3.388   2.614  0.00  0.00    -0.155 SA
BRANCH   6   7
ATOM      7  C   UNL d   1      -3.318   4.895   1.877  0.00  0.00     0.113 C 
BRANCH   7   8
ATOM      8  C   UNL d   1      -3.645   6.144   2.666  0.00  0.00    -0.038 A 
ATOM      9  C   UNL d   1      -4.849   6.881   2.476  0.00  0.00    -0.019 A 
ATOM     10  C   UNL d   1      -5.016   8.106   3.171  0.00  0.00    -0.025 A 
ATOM     11  C   UNL d   1      -5.900   6.465   1.626  0.00  0.00     0.013 A 
ATOM     12  C   UNL d   1      -6.169   8.882   2.963  0.00  0.00     0.012 A 
ATOM     13  C   UNL d   1      -4.029   8.545   4.066  0.00  0.00     0.012 A 
ATOM     14  C   UNL d   1      -7.175   8.455   2.099  0.00  0.00     0.001 A 
ATOM     15  C   UNL d   1      -7.047   7.240   1.442  0.00  0.00     0.001 A 
ATOM     16  C   UNL d   1      -2.881   7.790   4.289  0.00  0.00     0.001 A 
ATOM     17  C   UNL d   1      -2.690   6.602   3.594  0.00  0.00     0.009 A 
ENDBRANCH   7   8
ENDBRANCH   6   7
ENDBRANCH   5   6
ENDBRANCH   1   5
BRANCH   2  18
ATOM     18  N   UNL d   1       0.101   2.235   0.049  0.00  0.00    -0.274 N 
ATOM     19  H   UNL d   1       0.614   2.667   0.815  0.00  0.00     0.189 HD
BRANCH  18  20
ATOM     20  C   UNL d   1       0.732   1.904  -1.138  0.00  0.00     0.191 C 
ATOM     21  S   UNL d   1      -0.104   1.367  -2.494  0.00  0.00    -0.039 SA
BRANCH  20  22
ATOM     22  N   UNL d   1       2.108   2.025  -1.022  0.00  0.00    -0.331 N 
ATOM     23  H   UNL d   1       2.510   1.612  -0.182  0.00  0.00     0.168 HD
BRANCH  22  24
ATOM     24  C   UNL d   1       3.037   2.360  -2.037  0.00  0.00     0.056 A 
ATOM     25  C   UNL d   1       4.375   1.945  -1.938  0.00  0.00     0.060 A 
ATOM     26 CL   UNL d   1       4.911   0.955  -0.624  0.00  0.00    -0.082 Cl
ATOM     27  C   UNL d   1       5.306   2.304  -2.919  0.00  0.00     0.026 A 
ATOM     28  C   UNL d   1       4.913   3.103  -3.993  0.00  0.00     0.002 A 
ATOM     29  C   UNL d   1       3.598   3.549  -4.081  0.00  0.00     0.002 A 
ATOM     30  C   UNL d   1       2.669   3.188  -3.104  0.00  0.00     0.031 A 
ENDBRANCH  22  24
ENDBRANCH  20  22
ENDBRANCH  18  20
ENDBRANCH   2  18
TORSDOF 8
