REMARK  3 active torsions:
REMARK  status: ('A' for Active; 'I' for Inactive)
REMARK    1  A    between atoms: N_2  and  S_1 
REMARK    2  A    between atoms: C_7  and  S_1 
REMARK    3  A    between atoms: C_13  and  C_4 
ROOT
ATOM      1  N   UNL d   1       0.617  -0.378   1.594  0.00  0.00    -0.293 N 
ATOM      2  C   UNL d   1       0.786  -1.659   3.716  0.00  0.00    -0.017 A 
ATOM      3  C   UNL d   1       1.130  -1.629   2.241  0.00  0.00     0.163 C 
ATOM      4  C   UNL d   1       0.347  -0.548   4.407  0.00  0.00    -0.007 A 
ATOM      5  C   UNL d   1       0.764   0.879   2.409  0.00  0.00     0.142 C 
ATOM      6  S   UNL d   1      -0.005  -0.859   6.041  0.00  0.00    -0.106 SA
ATOM      7  C   UNL d   1       0.113   0.787   3.793  0.00  0.00     0.067 C 
ATOM      8  C   UNL d   1       0.745  -2.818   4.568  0.00  0.00     0.018 A 
ATOM      9  C   UNL d   1       0.342  -2.521   5.851  0.00  0.00     0.051 A 
ENDROOT
BRANCH   1  10
ATOM     10  S   UNL d   1       0.903  -0.146  -0.075  0.00  0.00     0.261 S 
ATOM     11  O   UNL d   1       2.325  -0.163  -0.328  0.00  0.00    -0.200 OA
ATOM     12  O   UNL d   1       0.118   1.014  -0.470  0.00  0.00    -0.200 OA
BRANCH  10  13
ATOM     13  C   UNL d   1       0.195  -1.551  -0.915  0.00  0.00     0.079 A 
ATOM     14  C   UNL d   1      -0.917  -1.381  -1.745  0.00  0.00     0.027 A 
ATOM     15  C   UNL d   1      -1.439  -2.476  -2.442  0.00  0.00     0.025 A 
ATOM     16  C   UNL d   1      -0.864  -3.739  -2.288  0.00  0.00     0.034 A 
ATOM     17  C   UNL d   1       0.266  -3.905  -1.494  0.00  0.00     0.025 A 
ATOM     18 CL   UNL d   1      -1.538  -5.095  -3.106  0.00  0.00    -0.084 Cl
ATOM     19  C   UNL d   1       0.822  -2.800  -0.846  0.00  0.00     0.027 A 
ENDBRANCH  10  13
ENDBRANCH   1  10
BRANCH   3  20
ATOM     20  C   UNL d   1       2.611  -1.990   2.144  0.00  0.00    -0.030 A 
ATOM     21  C   UNL d   1       2.974  -3.346   1.981  0.00  0.00     0.011 A 
ATOM     22  C   UNL d   1       4.296  -3.723   1.724  0.00  0.00     0.024 A 
ATOM     23  C   UNL d   1       5.287  -2.752   1.644  0.00  0.00     0.034 A 
ATOM     24  C   UNL d   1       4.972  -1.418   1.868  0.00  0.00     0.024 A 
ATOM     25 CL   UNL d   1       6.898  -3.200   1.245  0.00  0.00    -0.084 Cl
ATOM     26  C   UNL d   1       3.649  -1.045   2.137  0.00  0.00     0.011 A 
ENDBRANCH   3  20
TORSDOF 3
