REMARK  2 active torsions:
REMARK  status: ('A' for Active; 'I' for Inactive)
REMARK    1  A    between atoms: C_10  and  C_6 
REMARK    2  A    between atoms: O_18  and  C_7 
ROOT
ATOM      1  C   UNL d   1      -0.815  -0.352  -0.003  0.00  0.00     0.052 A 
ATOM      2  C   UNL d   1      -1.224   0.990   0.025  0.00  0.00    -0.013 A 
ATOM      3  N   UNL d   1      -1.629  -1.410  -0.016  0.00  0.00    -0.335 N 
ATOM      4  HN  UNL d   1      -1.282  -2.369  -0.034  1.00  0.00     0.168 HD
ATOM      5  C   UNL d   1      -3.473   0.197   0.030  0.00  0.00     0.107 A 
ATOM      6  C   UNL d   1      -2.585   1.301   0.049  0.00  0.00     0.015 A 
ATOM      7  C   UNL d   1      -2.949  -1.111  -0.002  0.00  0.00     0.164 A 
ATOM      8  C   UNL d   1       0.626  -0.433  -0.025  0.00  0.00    -0.002 A 
ATOM      9  C   UNL d   1       0.008   1.879   0.001  0.00  0.00     0.081 A 
ATOM     10  C   UNL d   1       1.143   0.875  -0.029  0.00  0.00    -0.041 A 
ATOM     11  C   UNL d   1      -4.899   0.359   0.051  0.00  0.00     0.104 C 
ATOM     12  N   UNL d   1      -6.048   0.506   0.043  0.00  0.00    -0.191 NA
ATOM     13  C   UNL d   1       1.473  -1.527  -0.024  0.00  0.00     0.014 A 
ATOM     14  C   UNL d   1       2.506   1.117  -0.027  0.00  0.00     0.008 A 
ATOM     15  C   UNL d   1       2.852  -1.296  -0.020  0.00  0.00     0.001 A 
ATOM     16  C   UNL d   1       3.363   0.015  -0.020  0.00  0.00     0.001 A 
ENDROOT
BRANCH   7  17
ATOM     17  O   UNL d   1      -3.853  -2.160  -0.034  0.00  0.00    -0.340 OA
ATOM     18  C   UNL d   1      -3.239  -3.446  -0.018  0.00  0.00     0.211 C 
ENDBRANCH   7  17
BRANCH   6  19
ATOM     19  C   UNL d   1      -3.060   2.705   0.064  0.00  0.00     0.017 A 
ATOM     20  S   UNL d   1      -2.362   3.853   1.144  0.00  0.00    -0.101 SA
ATOM     21  C   UNL d   1      -3.298   5.136   0.528  0.00  0.00     0.050 A 
ATOM     22  C   UNL d   1      -4.213   4.699  -0.398  0.00  0.00     0.008 A 
ATOM     23  C   UNL d   1      -4.074   3.304  -0.668  0.00  0.00     0.020 A 
ENDBRANCH   6  19
TORSDOF 2
