REMARK  6 active torsions:
REMARK  status: ('A' for Active; 'I' for Inactive)
REMARK    1  A    between atoms: C_2  and  S_1 
REMARK    2  A    between atoms: C_4  and  S_1 
REMARK    3  A    between atoms: C_3  and  C_5 
REMARK    4  A    between atoms: N_12  and  C_3 
REMARK    5  A    between atoms: C_5  and  C_4 
REMARK    6  A    between atoms: O_14  and  N_8 
ROOT
ATOM      1  S   UNL d   1       0.584   5.205   6.074  0.00  0.00     0.175 S 
ATOM      2  O   UNL d   1       0.041   6.531   6.299  0.00  0.00    -0.223 OA
ATOM      3  O   UNL d   1       0.183   4.088   6.911  0.00  0.00    -0.223 OA
ENDROOT
BRANCH   1   4
ATOM      4  C   UNL d   1       2.351   5.364   6.210  0.00  0.00     0.059 A 
ATOM      5  C   UNL d   1       3.020   6.303   5.418  0.00  0.00     0.025 A 
ATOM      6  C   UNL d   1       4.396   6.485   5.582  0.00  0.00     0.025 A 
ATOM      7  C   UNL d   1       5.088   5.739   6.538  0.00  0.00     0.034 A 
ATOM      8  C   UNL d   1       4.419   4.802   7.325  0.00  0.00     0.025 A 
ATOM      9 CL   UNL d   1       6.774   5.995   6.762  0.00  0.00    -0.084 Cl
ATOM     10  C   UNL d   1       3.045   4.609   7.162  0.00  0.00     0.025 A 
ENDBRANCH   1   4
BRANCH   1  11
ATOM     11  C   UNL d   1       0.277   4.745   4.386  0.00  0.00     0.153 C 
BRANCH  11  12
ATOM     12  C   UNL d   1      -1.220   4.621   4.148  0.00  0.00     0.087 C 
BRANCH  12  13
ATOM     13  C   UNL d   1      -1.503   4.209   2.721  0.00  0.00     0.075 C 
ATOM     14  N   UNL d   1      -1.087   4.986   1.766  0.00  0.00    -0.263 N 
ATOM     15  HN  UNL d   1      -0.557   5.846   1.906  1.00  0.00     0.195 HD
BRANCH  14  16
ATOM     16  O   UNL d   1      -1.467   4.475   0.514  0.00  0.00    -0.289 OA
ATOM     17  H   UNL d   1      -1.085   5.129  -0.100  0.00  0.00     0.244 HD
ENDBRANCH  14  16
BRANCH  13  18
ATOM     18  N   UNL d   1      -2.203   3.051   2.511  0.00  0.00    -0.291 NA
ATOM     19  H   UNL d   1      -2.910   2.814   3.197  0.00  0.00     0.125 HD
ATOM     20  H   UNL d   1      -2.541   3.002   1.553  0.00  0.00     0.125 HD
ENDBRANCH  13  18
ENDBRANCH  12  13
ENDBRANCH  11  12
ENDBRANCH   1  11
TORSDOF 6
