REMARK  3 active torsions:
REMARK  status: ('A' for Active; 'I' for Inactive)
REMARK    1  A    between atoms: C_8  and  C_1 
REMARK    2  A    between atoms: C_11  and  C_4 
REMARK    3  A    between atoms: N_14  and  C_9 
ROOT
ATOM      1  C   UNL d   1       0.735  -0.879  -0.002  0.00  0.00     0.136 A 
ATOM      2  N   UNL d   1       1.152   0.376  -0.028  0.00  0.00    -0.325 N 
ATOM      3  HN  UNL d   1       2.114   0.713  -0.055  1.00  0.00     0.169 HD
ATOM      4  C   UNL d   1      -0.004   1.126  -0.008  0.00  0.00     0.132 A 
ATOM      5  N   UNL d   1      -1.124   0.389  -0.004  0.00  0.00    -0.283 N 
ATOM      6  HN  UNL d   1      -2.096   0.698  -0.003  1.00  0.00     0.188 HD
ATOM      7  N   UNL d   1      -0.634  -0.859  -0.002  0.00  0.00    -0.283 N 
ATOM      8  H   UNL d   1      -1.270  -1.650  -0.003  0.00  0.00     0.188 HD
ENDROOT
BRANCH   1   9
ATOM      9  C   UNL d   1       1.555  -2.099   0.011  0.00  0.00     0.069 A 
ATOM     10  C   UNL d   1       2.966  -2.038   0.091  0.00  0.00     0.023 A 
ATOM     11  C   UNL d   1       3.705  -3.232   0.139  0.00  0.00     0.024 A 
ATOM     12  C   UNL d   1       3.079  -4.474   0.036  0.00  0.00     0.005 A 
ATOM     13  C   UNL d   1       1.696  -4.540  -0.081  0.00  0.00     0.043 A 
ATOM     14  C   UNL d   1       0.951  -3.364  -0.087  0.00  0.00     0.132 A 
ATOM     15  F   UNL d   1      -0.385  -3.471  -0.182  0.00  0.00    -0.205 F 
BRANCH  10  16
ATOM     16  N   UNL d   1       3.646  -0.832   0.352  0.00  0.00    -0.302 NA
ATOM     17  H   UNL d   1       3.081  -0.016   0.095  0.00  0.00     0.124 HD
ATOM     18  H   UNL d   1       4.590  -0.790  -0.015  0.00  0.00     0.124 HD
ENDBRANCH  10  16
ENDBRANCH   1   9
BRANCH   4  19
ATOM     19  C   UNL d   1       0.017   2.583   0.006  0.00  0.00     0.012 A 
ATOM     20  C   UNL d   1       1.233   3.271   0.005  0.00  0.00     0.032 A 
ATOM     21  C   UNL d   1       1.209   4.654   0.017  0.00  0.00     0.088 A 
ATOM     22  N   UNL d   1       0.075   5.385   0.031  0.00  0.00    -0.375 N 
ATOM     23  C   UNL d   1      -1.089   4.701   0.036  0.00  0.00     0.088 A 
ATOM     24  HN  UNL d   1       0.096   6.405   0.038  1.00  0.00     0.164 HD
ATOM     25  C   UNL d   1      -1.169   3.319   0.024  0.00  0.00     0.032 A 
ENDBRANCH   4  19
TORSDOF 3
