REMARK  4 active torsions:
REMARK  status: ('A' for Active; 'I' for Inactive)
REMARK    1  A    between atoms: C_9  and  N_1 
REMARK    2  A    between atoms: N_8  and  N_2 
REMARK       I    between atoms: C_7  and  N_8 
REMARK       I    between atoms: N_10  and  C_7 
REMARK    3  A    between atoms: C_15  and  N_10 
REMARK    4  A    between atoms: O_21  and  C_17 
ROOT
ATOM      1  N   UNL d   1      -1.016  -0.984   0.495  0.00  0.00    -0.308 N 
ATOM      2  N   UNL d   1       0.397   1.385   0.512  0.00  0.00    -0.264 N 
ATOM      3  C   UNL d   1      -1.722   0.178   0.112  0.00  0.00     0.244 C 
ATOM      4  C   UNL d   1       1.121   0.226   0.743  0.00  0.00     0.253 C 
ATOM      5  C   UNL d   1      -0.822   1.365  -0.291  0.00  0.00     0.250 C 
ATOM      6  C   UNL d   1       0.429  -1.012   0.205  0.00  0.00     0.236 C 
ATOM      7  O   UNL d   1       2.254   0.227   1.219  0.00  0.00    -0.270 OA
ATOM      8  O   UNL d   1      -2.944   0.274   0.013  0.00  0.00    -0.271 OA
ENDROOT
BRANCH   2   9
ATOM      9  N   UNL d   1       1.144   2.610   0.538  0.00  0.00    -0.149 NA
ATOM     10  C   UNL d   1       1.571   3.180  -0.672  0.00  0.00     0.317 C 
ATOM     11  N   UNL d   1       2.448   4.227  -0.437  0.00  0.00    -0.312 N 
ATOM     12  O   UNL d   1       1.169   2.808  -1.767  0.00  0.00    -0.252 OA
ATOM     13  H   UNL d   1       2.719   4.374   0.524  0.00  0.00     0.170 HD
ATOM     14  H   UNL d   1       1.873   2.567   1.247  0.00  0.00     0.158 HD
BRANCH  11  15
ATOM     15  C   UNL d   1       3.017   5.114  -1.382  0.00  0.00     0.037 A 
ATOM     16  C   UNL d   1       2.693   5.125  -2.742  0.00  0.00     0.053 A 
ATOM     17  C   UNL d   1       3.292   6.054  -3.599  0.00  0.00     0.036 A 
ATOM     18 CL   UNL d   1       2.875   6.072  -5.270  0.00  0.00    -0.084 Cl
ATOM     19  C   UNL d   1       4.219   6.976  -3.119  0.00  0.00     0.024 A 
ATOM     20  C   UNL d   1       4.550   6.973  -1.764  0.00  0.00     0.004 A 
ATOM     21  C   UNL d   1       3.947   6.049  -0.905  0.00  0.00     0.029 A 
ENDBRANCH  11  15
ENDBRANCH   2   9
BRANCH   1  22
ATOM     22  C   UNL d   1      -1.649  -2.246   0.778  0.00  0.00     0.040 A 
ATOM     23  C   UNL d   1      -2.908  -2.602   0.262  0.00  0.00     0.066 A 
ATOM     24  C   UNL d   1      -3.436  -3.885   0.466  0.00  0.00     0.070 A 
ATOM     25  C   UNL d   1      -2.719  -4.817   1.217  0.00  0.00     0.037 A 
ATOM     26  C   UNL d   1      -1.501  -4.470   1.782  0.00  0.00     0.005 A 
ATOM     27  C   UNL d   1      -0.977  -3.195   1.570  0.00  0.00     0.030 A 
BRANCH  24  28
ATOM     28  O   UNL d   1      -4.620  -4.366  -0.026  0.00  0.00    -0.356 OA
ATOM     29  C   UNL d   1      -5.417  -3.473  -0.793  0.00  0.00     0.210 C 
ENDBRANCH  24  28
ENDBRANCH   1  22
TORSDOF 4
