REMARK  4 active torsions:
REMARK  status: ('A' for Active; 'I' for Inactive)
REMARK    1  A    between atoms: C_6  and  C_1 
REMARK    2  A    between atoms: N_8  and  C_2 
REMARK    3  A    between atoms: C_7  and  C_5 
REMARK       I    between atoms: N_10  and  C_6 
REMARK    4  A    between atoms: N_11  and  N_10 
ROOT
ATOM      1  C   UNL d   1       0.117   1.543  -0.000  0.00  0.00     0.062 A 
ATOM      2  C   UNL d   1       0.838   0.369   0.120  0.00  0.00     0.064 A 
ATOM      3  C   UNL d   1      -1.297   1.272  -0.043  0.00  0.00     0.039 A 
ATOM      4  S   UNL d   1      -0.186  -1.000   0.212  0.00  0.00    -0.077 SA
ATOM      5  C   UNL d   1      -1.615  -0.070   0.046  0.00  0.00     0.018 A 
ENDROOT
BRANCH   1   6
ATOM      6  C   UNL d   1       0.661   2.895  -0.114  0.00  0.00     0.268 C 
ATOM      7  O   UNL d   1       0.064   3.796  -0.704  0.00  0.00    -0.266 OA
ATOM      8  N   UNL d   1       1.882   3.107   0.516  0.00  0.00    -0.290 N 
ATOM      9  H   UNL d   1       2.212   2.404   1.180  0.00  0.00     0.183 HD
BRANCH   8  10
ATOM     10  N   UNL d   1       2.436   4.412   0.546  0.00  0.00    -0.247 NA
ATOM     11  H   UNL d   1       1.702   5.053   0.207  0.00  0.00     0.143 HD
ATOM     12  H   UNL d   1       3.154   4.463  -0.181  0.00  0.00     0.143 HD
ENDBRANCH   8  10
ENDBRANCH   1   6
BRANCH   2  13
ATOM     13  N   UNL d   1       2.183   0.184   0.141  0.00  0.00    -0.296 NA
ATOM     14  H   UNL d   1       2.759   0.799  -0.428  0.00  0.00     0.124 HD
ATOM     15  H   UNL d   1       2.490  -0.784   0.044  0.00  0.00     0.124 HD
ENDBRANCH   2  13
BRANCH   5  16
ATOM     16  C   UNL d   1      -2.942  -0.709  -0.016  0.00  0.00    -0.019 A 
ATOM     17  C   UNL d   1      -3.975  -0.106  -0.753  0.00  0.00     0.013 A 
ATOM     18  C   UNL d   1      -5.242  -0.695  -0.840  0.00  0.00     0.001 A 
ATOM     19  C   UNL d   1      -5.493  -1.900  -0.190  0.00  0.00     0.000 A 
ATOM     20  C   UNL d   1      -4.485  -2.512   0.550  0.00  0.00     0.001 A 
ATOM     21  C   UNL d   1      -3.221  -1.918   0.639  0.00  0.00     0.013 A 
ENDBRANCH   5  16
TORSDOF 4
