REMARK  2 active torsions:
REMARK  status: ('A' for Active; 'I' for Inactive)
REMARK    1  A    between atoms: C_6  and  C_1 
REMARK    2  A    between atoms: C_9  and  N_2 
ROOT
ATOM      1  C   UNL d   1       0.774  -0.813  -0.138  0.00  0.00     0.137 A 
ATOM      2  N   UNL d   1       0.828   0.569  -0.042  0.00  0.00    -0.302 N 
ATOM      3  N   UNL d   1      -0.424  -1.288  -0.350  0.00  0.00    -0.282 N 
ATOM      4  HN  UNL d   1      -0.696  -2.264  -0.463  1.00  0.00     0.188 HD
ATOM      5  C   UNL d   1      -0.489   0.955  -0.215  0.00  0.00     0.195 A 
ATOM      6  N   UNL d   1      -1.222  -0.203  -0.387  0.00  0.00    -0.274 N 
ATOM      7  S   UNL d   1      -1.269   2.412  -0.249  0.00  0.00    -0.039 SA
ATOM      8  H   UNL d   1      -2.220  -0.271  -0.524  0.00  0.00     0.189 HD
ENDROOT
BRANCH   1   9
ATOM      9  C   UNL d   1       1.914  -1.756  -0.058  0.00  0.00     0.031 A 
ATOM     10  C   UNL d   1       1.803  -2.949   0.683  0.00  0.00     0.048 A 
ATOM     11 CL   UNL d   1       0.516  -3.260   1.799  0.00  0.00    -0.083 Cl
ATOM     12  C   UNL d   1       2.772  -3.952   0.558  0.00  0.00     0.025 A 
ATOM     13  C   UNL d   1       3.871  -3.768  -0.278  0.00  0.00     0.002 A 
ATOM     14  C   UNL d   1       4.006  -2.578  -0.988  0.00  0.00     0.001 A 
ATOM     15  C   UNL d   1       3.023  -1.587  -0.897  0.00  0.00     0.017 A 
ENDBRANCH   1   9
BRANCH   2  16
ATOM     16  C   UNL d   1       2.049   1.407   0.127  0.00  0.00     0.094 C 
ATOM     17  C   UNL d   1       2.036   2.432   1.279  0.00  0.00     0.026 C 
ATOM     18  C   UNL d   1       1.689   3.881   0.935  0.00  0.00     0.002 C 
ATOM     19  C   UNL d   1       2.258   4.368  -0.391  0.00  0.00     0.000 C 
ATOM     20  C   UNL d   1       2.054   3.387  -1.533  0.00  0.00     0.002 C 
ATOM     21  C   UNL d   1       2.568   1.996  -1.196  0.00  0.00     0.026 C 
ENDBRANCH   2  16
TORSDOF 2
