REMARK  1 active torsions:
REMARK  status: ('A' for Active; 'I' for Inactive)
REMARK    1  A    between atoms: C_2  and  N_1 
ROOT
ATOM      1  C   UNL d   1       0.001   2.362  -0.045  0.00  0.00     0.047 A 
ATOM      2  C   UNL d   1       0.699   3.076  -1.030  0.00  0.00     0.054 A 
ATOM      3  C   UNL d   1       0.694   4.478  -1.054  0.00  0.00     0.042 A 
ATOM      4  C   UNL d   1      -0.695   3.105   0.919  0.00  0.00     0.031 A 
ATOM      5  C   UNL d   1       0.013   5.211  -0.075  0.00  0.00    -0.040 A 
ATOM      6  C   UNL d   1      -0.683   4.505   0.912  0.00  0.00     0.011 A 
ATOM      7 CL   UNL d   1       1.537   5.266  -2.342  0.00  0.00    -0.084 Cl
ATOM      8  C   UNL d   1      -0.003   6.712  -0.066  0.00  0.00     0.050 C 
ENDROOT
BRANCH   1   9
ATOM      9  N   UNL d   1      -0.004   0.939  -0.025  0.00  0.00    -0.245 N 
ATOM     10  C   UNL d   1       0.902   0.132  -0.660  0.00  0.00     0.255 A 
ATOM     11  C   UNL d   1       0.535  -1.259  -0.374  0.00  0.00     0.080 A 
ATOM     12  O   UNL d   1       1.890   0.399  -1.323  0.00  0.00    -0.268 OA
ATOM     13  C   UNL d   1      -0.546  -1.245   0.399  0.00  0.00     0.080 A 
ATOM     14  C   UNL d   1      -0.911   0.156   0.634  0.00  0.00     0.255 A 
ATOM     15  O   UNL d   1      -1.901   0.446   1.286  0.00  0.00    -0.268 OA
ENDBRANCH   1   9
TORSDOF 1
