REMARK  2 active torsions:
REMARK  status: ('A' for Active; 'I' for Inactive)
REMARK    1  A    between atoms: C_9  and  C_3 
REMARK    2  A    between atoms: O_12  and  C_4 
ROOT
ATOM      1  N   UNL d   1       1.030   0.969   0.023  0.00  0.00    -0.312 N 
ATOM      2  C   UNL d   1       2.331   0.547   0.027  0.00  0.00     0.262 A 
ATOM      3  C   UNL d   1       2.528  -0.955   0.011  0.00  0.00     0.076 A 
ATOM      4  C   UNL d   1       1.465  -1.799   0.013  0.00  0.00     0.094 A 
ATOM      5  C   UNL d   1       0.083  -1.277   0.019  0.00  0.00     0.026 A 
ATOM      6  C   UNL d   1      -0.044   0.100   0.019  0.00  0.00     0.057 A 
ATOM      7  C   UNL d   1       0.549   2.348   0.012  0.00  0.00     0.137 A 
ATOM      8  O   UNL d   1       3.279   1.330   0.039  0.00  0.00    -0.267 OA
ATOM      9  C   UNL d   1      -1.246   0.793   0.014  0.00  0.00    -0.029 A 
ATOM     10  C   UNL d   1      -0.996   2.271   0.012  0.00  0.00     0.061 A 
ATOM     11  C   UNL d   1      -1.119  -1.990   0.014  0.00  0.00     0.016 A 
ATOM     12  C   UNL d   1      -2.361  -1.312   0.010  0.00  0.00     0.002 A 
ATOM     13  C   UNL d   1      -2.430   0.088   0.010  0.00  0.00     0.009 A 
ENDROOT
BRANCH   3  14
ATOM     14  C   UNL d   1       3.904  -1.490  -0.016  0.00  0.00    -0.018 A 
ATOM     15  C   UNL d   1       4.548  -1.720  -1.240  0.00  0.00     0.012 A 
ATOM     16  C   UNL d   1       5.833  -2.265  -1.268  0.00  0.00     0.001 A 
ATOM     17  C   UNL d   1       6.478  -2.597  -0.077  0.00  0.00     0.000 A 
ATOM     18  C   UNL d   1       5.847  -2.365   1.145  0.00  0.00     0.001 A 
ATOM     19  C   UNL d   1       4.569  -1.803   1.176  0.00  0.00     0.012 A 
ENDBRANCH   3  14
BRANCH   4  20
ATOM     20  O   UNL d   1       1.643  -3.173   0.002  0.00  0.00    -0.359 OA
ATOM     21  H   UNL d   1       0.787  -3.623   0.042  0.00  0.00     0.217 HD
ENDBRANCH   4  20
TORSDOF 2
