REMARK  7 active torsions:
REMARK  status: ('A' for Active; 'I' for Inactive)
REMARK    1  A    between atoms: C_5  and  C_1 
REMARK    2  A    between atoms: N_3  and  C_2 
REMARK       I    between atoms: C_7  and  N_3 
REMARK    3  A    between atoms: C_9  and  C_5 
REMARK    4  A    between atoms: C_10  and  C_7 
REMARK    5  A    between atoms: C_25  and  C_8 
REMARK    6  A    between atoms: O_24  and  C_17 
REMARK    7  A    between atoms: O_23  and  C_18 
ROOT
ATOM      1  C   UNL d   1       1.431   0.489   0.450  0.00  0.00     0.050 A 
ATOM      2  C   UNL d   1       0.233   1.114   0.122  0.00  0.00     0.091 A 
ATOM      3  S   UNL d   1      -0.976  -0.019  -0.286  0.00  0.00    -0.076 SA
ATOM      4  C   UNL d   1       1.332  -0.935   0.267  0.00  0.00     0.033 A 
ATOM      5  C   UNL d   1       0.054  -1.348  -0.034  0.00  0.00    -0.015 A 
ENDROOT
BRANCH   2   6
ATOM      6  N   UNL d   1      -0.049   2.477   0.040  0.00  0.00    -0.316 N 
ATOM      7  C   UNL d   1      -1.319   3.037   0.133  0.00  0.00     0.256 C 
ATOM      8  O   UNL d   1      -2.355   2.443   0.418  0.00  0.00    -0.267 OA
ATOM      9  H   UNL d   1       0.745   3.099  -0.015  0.00  0.00     0.169 HD
BRANCH   7  10
ATOM     10  C   UNL d   1      -1.429   4.502  -0.118  0.00  0.00     0.032 A 
ATOM     11  C   UNL d   1      -2.647   4.981  -0.631  0.00  0.00     0.020 A 
ATOM     12  C   UNL d   1      -2.818   6.335  -0.942  0.00  0.00     0.038 A 
ATOM     13  C   UNL d   1      -1.766   7.228  -0.754  0.00  0.00     0.068 A 
ATOM     14  C   UNL d   1      -0.574   6.764  -0.185  0.00  0.00     0.038 A 
ATOM     15  C   UNL d   1      -0.402   5.412   0.140  0.00  0.00     0.020 A 
BRANCH  13  16
ATOM     16  O   UNL d   1      -1.764   8.555  -1.079  0.00  0.00    -0.356 OA
ATOM     17  C   UNL d   1      -2.897   9.075  -1.765  0.00  0.00     0.210 C 
ENDBRANCH  13  16
ENDBRANCH   7  10
ENDBRANCH   2   6
BRANCH   1  18
ATOM     18  C   UNL d   1       2.650   1.114   0.971  0.00  0.00     0.195 C 
ATOM     19  O   UNL d   1       3.766   0.704   0.674  0.00  0.00    -0.287 OA
BRANCH  18  20
ATOM     20  C   UNL d   1       2.536   2.238   1.948  0.00  0.00     0.015 A 
ATOM     21  C   UNL d   1       3.583   3.162   2.040  0.00  0.00     0.018 A 
ATOM     22  C   UNL d   1       3.485   4.255   2.909  0.00  0.00     0.037 A 
ATOM     23  C   UNL d   1       2.341   4.431   3.687  0.00  0.00     0.068 A 
ATOM     24  C   UNL d   1       1.318   3.483   3.627  0.00  0.00     0.037 A 
ATOM     25  C   UNL d   1       1.424   2.378   2.784  0.00  0.00     0.018 A 
BRANCH  23  26
ATOM     26  O   UNL d   1       2.094   5.465   4.546  0.00  0.00    -0.356 OA
ATOM     27  C   UNL d   1       3.085   6.479   4.637  0.00  0.00     0.210 C 
ENDBRANCH  23  26
ENDBRANCH  18  20
ENDBRANCH   1  18
BRANCH   5  28
ATOM     28  C   UNL d   1      -0.472  -2.747  -0.120  0.00  0.00     0.042 C 
ATOM     29  C   UNL d   1      -0.917  -3.241   1.251  0.00  0.00     0.010 C 
ENDBRANCH   5  28
TORSDOF 7
