REMARK  1 active torsions:
REMARK  status: ('A' for Active; 'I' for Inactive)
REMARK    1  A    between atoms: C_7  and  C_13 
ROOT
ATOM      1  C   UNL d   1       0.053   0.630  -0.112  0.00  0.00     0.052 A 
ATOM      2  C   UNL d   1       0.105  -0.770  -0.095  0.00  0.00     0.028 A 
ATOM      3  C   UNL d   1       1.236   1.375  -0.056  0.00  0.00     0.047 A 
ATOM      4  N   UNL d   1      -1.156   1.331  -0.237  0.00  0.00    -0.325 N 
ATOM      5  S   UNL d   1      -1.360  -1.774  -0.214  0.00  0.00    -0.114 SA
ATOM      6  C   UNL d   1       1.348  -1.411  -0.047  0.00  0.00     0.021 A 
ATOM      7  C   UNL d   1       2.484   0.735   0.017  0.00  0.00     0.050 A 
ATOM      8  C   UNL d   1      -2.412   0.792  -0.168  0.00  0.00     0.236 C 
ATOM      9  C   UNL d   1      -2.580  -0.592   0.438  0.00  0.00     0.141 C 
ATOM     10  C   UNL d   1       2.528  -0.666   0.012  0.00  0.00     0.017 A 
ATOM     11  O   UNL d   1      -3.383   1.491  -0.465  0.00  0.00    -0.272 OA
ATOM     12  C   UNL d   1      -2.503  -0.509   1.959  0.00  0.00     0.031 C 
ATOM     13  H   UNL d   1      -1.137   2.313  -0.481  0.00  0.00     0.169 HD
ENDROOT
BRANCH   7  14
ATOM     14  C   UNL d   1       3.765   1.531   0.091  0.00  0.00     0.417 C 
ATOM     15  F   UNL d   1       3.565   2.878   0.101  0.00  0.00    -0.166 F 
ATOM     16  F   UNL d   1       4.486   1.252   1.212  0.00  0.00    -0.166 F 
ATOM     17  F   UNL d   1       4.592   1.283  -0.960  0.00  0.00    -0.166 F 
ENDBRANCH   7  14
TORSDOF 1
