REMARK  7 active torsions:
REMARK  status: ('A' for Active; 'I' for Inactive)
REMARK       I    between atoms: N_3  and  C_1 
REMARK    1  A    between atoms: C_9  and  C_1 
REMARK    2  A    between atoms: O_6  and  C_2 
REMARK    3  A    between atoms: C_5  and  N_3 
REMARK    4  A    between atoms: C_4  and  O_10 
REMARK    5  A    between atoms: C_17  and  O_6 
REMARK    6  A    between atoms: O_10  and  C_18 
REMARK    7  A    between atoms: O_26  and  C_19 
ROOT
ATOM      1  C   UNL d   1       0.788   1.807   3.345  0.00  0.00     0.175 A 
ATOM      2  C   UNL d   1       0.934   1.778   1.953  0.00  0.00     0.087 A 
ATOM      3  N   UNL d   1       1.650   2.442   4.178  0.00  0.00    -0.345 N 
ATOM      4  HN  UNL d   1       1.526   2.424   5.191  1.00  0.00     0.167 HD
ATOM      5  C   UNL d   1       2.025   2.450   1.400  0.00  0.00     0.035 A 
ATOM      6  C   UNL d   1       2.679   3.098   3.605  0.00  0.00     0.090 A 
ATOM      7  C   UNL d   1       2.908   3.128   2.238  0.00  0.00     0.019 A 
ENDROOT
BRANCH   2   8
ATOM      8  N   UNL d   1       0.001   1.106   1.124  0.00  0.00    -0.319 N 
ATOM      9  C   UNL d   1      -0.586   1.705   0.017  0.00  0.00     0.256 C 
ATOM     10  O   UNL d   1      -0.718   1.084  -1.030  0.00  0.00    -0.267 OA
ATOM     11  H   UNL d   1       0.298   0.165   0.874  0.00  0.00     0.169 HD
BRANCH   9  12
ATOM     12  C   UNL d   1      -1.081   3.110   0.132  0.00  0.00     0.032 A 
ATOM     13  C   UNL d   1      -1.133   3.923  -1.004  0.00  0.00     0.020 A 
ATOM     14  C   UNL d   1      -1.512   5.268  -0.890  0.00  0.00     0.038 A 
ATOM     15  C   UNL d   1      -1.853   5.790   0.359  0.00  0.00     0.078 A 
ATOM     16  C   UNL d   1      -1.842   4.971   1.484  0.00  0.00     0.038 A 
ATOM     17  C   UNL d   1      -1.501   3.627   1.361  0.00  0.00     0.020 A 
BRANCH  15  18
ATOM     18  O   UNL d   1      -2.102   7.108   0.585  0.00  0.00    -0.255 OA
BRANCH  18  19
ATOM     19  C   UNL d   1      -3.164   7.680  -0.165  0.00  0.00     0.530 C 
ATOM     20  F   UNL d   1      -3.823   6.793  -0.940  0.00  0.00    -0.144 F 
ATOM     21  F   UNL d   1      -4.048   8.230   0.695  0.00  0.00    -0.144 F 
ATOM     22  F   UNL d   1      -2.670   8.662  -0.950  0.00  0.00    -0.144 F 
ENDBRANCH  18  19
ENDBRANCH  15  18
ENDBRANCH   9  12
ENDBRANCH   2   8
BRANCH   1  23
ATOM     23  O   UNL d   1      -0.318   1.176   3.901  0.00  0.00    -0.292 OA
BRANCH  23  24
ATOM     24  C   UNL d   1      -0.990   1.825   4.917  0.00  0.00     0.078 A 
ATOM     25  C   UNL d   1      -1.100   3.215   5.028  0.00  0.00     0.040 A 
ATOM     26  C   UNL d   1      -1.842   3.791   6.064  0.00  0.00     0.039 A 
ATOM     27  C   UNL d   1      -2.479   2.981   7.002  0.00  0.00     0.068 A 
ATOM     28  C   UNL d   1      -2.400   1.592   6.869  0.00  0.00     0.039 A 
ATOM     29  C   UNL d   1      -1.665   1.014   5.828  0.00  0.00     0.040 A 
BRANCH  27  30
ATOM     30  O   UNL d   1      -3.204   3.423   8.074  0.00  0.00    -0.356 OA
ATOM     31  C   UNL d   1      -3.136   4.817   8.355  0.00  0.00     0.210 C 
ENDBRANCH  27  30
ENDBRANCH  23  24
ENDBRANCH   1  23
TORSDOF 7
