REMARK  5 active torsions:
REMARK  status: ('A' for Active; 'I' for Inactive)
REMARK    1  A    between atoms: N_2  and  C_1 
REMARK    2  A    between atoms: N_11  and  C_1 
REMARK    3  A    between atoms: C_3  and  N_2 
REMARK    4  A    between atoms: C_4  and  C_10 
REMARK    5  A    between atoms: N_5  and  N_11 
ROOT
ATOM      1  C   UNL d   1       1.365   0.290   0.062  0.00  0.00     0.186 C 
ATOM      2  S   UNL d   1       2.977   0.717   0.107  0.00  0.00    -0.040 SA
ENDROOT
BRANCH   1   3
ATOM      3  N   UNL d   1       0.604   0.042  -1.050  0.00  0.00    -0.361 N 
ATOM      4  H   UNL d   1      -0.340  -0.255  -0.819  0.00  0.00     0.162 HD
BRANCH   3   5
ATOM      5  C   UNL d   1       1.093  -0.094  -2.412  0.00  0.00     0.088 C 
ATOM      6  C   UNL d   1       1.967  -1.351  -2.653  0.00  0.00     0.009 C 
ATOM      7  C   UNL d   1       1.927  -1.452  -4.178  0.00  0.00     0.011 C 
ATOM      8  C   UNL d   1       1.211  -2.628  -2.238  0.00  0.00     0.007 C 
ATOM      9  C   UNL d   1       0.403  -1.541  -4.222  0.00  0.00    -0.012 C 
ATOM     10  C   UNL d   1      -0.024  -0.266  -3.465  0.00  0.00     0.030 C 
ATOM     11  C   UNL d   1       0.138  -2.762  -3.325  0.00  0.00     0.005 C 
ENDBRANCH   3   5
ENDBRANCH   1   3
BRANCH   1  12
ATOM     12  N   UNL d   1       0.701   0.129   1.252  0.00  0.00    -0.277 N 
ATOM     13  H   UNL d   1       1.258   0.285   2.090  0.00  0.00     0.189 HD
BRANCH  12  14
ATOM     14  N   UNL d   1      -0.667   0.151   1.348  0.00  0.00    -0.308 N 
ATOM     15  C   UNL d   1      -1.099  -0.051   2.557  0.00  0.00     0.126 C 
ATOM     16  HN  UNL d   1      -1.283   0.311   0.551  1.00  0.00     0.186 HD
BRANCH  15  17
ATOM     17  C   UNL d   1      -2.480   0.152   2.917  0.00  0.00     0.021 A 
ATOM     18  S   UNL d   1      -2.998  -0.287   4.488  0.00  0.00    -0.101 SA
ATOM     19  C   UNL d   1      -4.565   0.344   4.218  0.00  0.00     0.050 A 
ATOM     20  C   UNL d   1      -4.699   0.858   2.947  0.00  0.00     0.008 A 
ATOM     21  C   UNL d   1      -3.498   0.730   2.188  0.00  0.00     0.021 A 
ENDBRANCH  15  17
ENDBRANCH  12  14
ENDBRANCH   1  12
TORSDOF 5
