REMARK  4 active torsions:
REMARK  status: ('A' for Active; 'I' for Inactive)
REMARK    1  A    between atoms: C_8  and  C_1 
REMARK    2  A    between atoms: C_5  and  C_9 
REMARK    3  A    between atoms: C_9  and  O_13 
REMARK    4  A    between atoms: O_13  and  N_11 
ROOT
ATOM      1  C   UNL d   1      -0.539  -2.632  -0.116  0.00  0.00     0.064 C 
ATOM      2  N   UNL d   1      -1.686  -3.232  -0.215  0.00  0.00    -0.259 N 
ATOM      3  HN  UNL d   1      -1.761  -4.248  -0.277  1.00  0.00     0.194 HD
ATOM      4  C   UNL d   1       0.654  -3.568  -0.048  0.00  0.00     0.073 C 
ENDROOT
BRANCH   2   5
ATOM      5  O   UNL d   1      -2.813  -2.401  -0.230  0.00  0.00    -0.195 OA
BRANCH   5   6
ATOM      6  C   UNL d   1      -3.821  -3.065   0.411  0.00  0.00     0.316 C 
ATOM      7  O   UNL d   1      -3.707  -3.716   1.443  0.00  0.00    -0.257 OA
BRANCH   6   8
ATOM      8  C   UNL d   1      -5.139  -2.883  -0.244  0.00  0.00     0.063 A 
ATOM      9  C   UNL d   1      -5.341  -2.834  -1.631  0.00  0.00     0.052 A 
ATOM     10  C   UNL d   1      -6.644  -2.803  -2.148  0.00  0.00     0.048 A 
ATOM     11 CL   UNL d   1      -4.068  -2.886  -2.799  0.00  0.00    -0.083 Cl
ATOM     12  C   UNL d   1      -7.742  -2.834  -1.290  0.00  0.00     0.035 A 
ATOM     13  C   UNL d   1      -7.556  -2.882   0.087  0.00  0.00     0.025 A 
ATOM     14 CL   UNL d   1      -9.334  -2.845  -1.940  0.00  0.00    -0.084 Cl
ATOM     15  C   UNL d   1      -6.261  -2.908   0.608  0.00  0.00     0.021 A 
ENDBRANCH   6   8
ENDBRANCH   5   6
ENDBRANCH   2   5
BRANCH   1  16
ATOM     16  C   UNL d   1      -0.262  -1.219  -0.017  0.00  0.00     0.123 A 
ATOM     17  C   UNL d   1      -0.817  -0.046  -0.500  0.00  0.00     0.043 A 
ATOM     18  N   UNL d   1      -0.056   1.036  -0.097  0.00  0.00    -0.342 N 
ATOM     19  C   UNL d   1      -1.979   0.189  -1.383  0.00  0.00     0.071 C 
ATOM     20  C   UNL d   1       0.930   0.500   0.589  0.00  0.00     0.120 A 
ATOM     21  HN  UNL d   1      -0.221   2.024  -0.287  1.00  0.00     0.167 HD
ATOM     22  O   UNL d   1       0.870  -0.857   0.681  0.00  0.00    -0.294 OA
ATOM     23  C   UNL d   1       2.085   1.160   1.228  0.00  0.00     0.098 C 
ENDBRANCH   1  16
TORSDOF 4
