REMARK  3 active torsions:
REMARK  status: ('A' for Active; 'I' for Inactive)
REMARK    1  A    between atoms: C_4  and  C_1 
REMARK    2  A    between atoms: S_2  and  C_3 
REMARK    3  A    between atoms: C_5  and  S_2 
REMARK       I    between atoms: N_8  and  C_4 
ROOT
ATOM      1  C   UNL d   1       0.634  -5.599   2.104  0.00  0.00     0.048 A 
ATOM      2  C   UNL d   1       0.338  -4.409   1.421  0.00  0.00     0.021 A 
ATOM      3  C   UNL d   1      -0.164  -6.742   1.902  0.00  0.00     0.018 A 
ATOM      4  C   UNL d   1      -0.796  -4.381   0.587  0.00  0.00     0.020 A 
ATOM      5  C   UNL d   1      -1.282  -6.692   1.070  0.00  0.00     0.001 A 
ATOM      6  C   UNL d   1      -1.604  -5.507   0.420  0.00  0.00     0.001 A 
ENDROOT
BRANCH   2   7
ATOM      7  S   UNL d   1       1.180  -2.852   1.595  0.00  0.00    -0.089 SA
BRANCH   7   8
ATOM      8  C   UNL d   1       2.922  -3.142   1.227  0.00  0.00     0.016 A 
ATOM      9  C   UNL d   1       3.910  -2.426   1.968  0.00  0.00    -0.009 A 
ATOM     10  C   UNL d   1       5.226  -2.350   1.452  0.00  0.00    -0.025 A 
ATOM     11  C   UNL d   1       3.654  -1.753   3.190  0.00  0.00     0.013 A 
ATOM     12  C   UNL d   1       6.174  -1.517   2.074  0.00  0.00     0.012 A 
ATOM     13  C   UNL d   1       5.566  -3.084   0.305  0.00  0.00     0.012 A 
ATOM     14  C   UNL d   1       5.863  -0.810   3.235  0.00  0.00     0.001 A 
ATOM     15  C   UNL d   1       4.614  -0.960   3.817  0.00  0.00     0.001 A 
ATOM     16  C   UNL d   1       4.616  -3.860  -0.357  0.00  0.00     0.002 A 
ATOM     17  C   UNL d   1       3.292  -3.865   0.083  0.00  0.00     0.020 A 
ENDBRANCH   7   8
ENDBRANCH   2   7
BRANCH   1  18
ATOM     18  C   UNL d   1       1.715  -5.747   3.102  0.00  0.00     0.250 C 
ATOM     19  O   UNL d   1       2.433  -6.743   3.123  0.00  0.00    -0.268 OA
ATOM     20  N   UNL d   1       1.821  -4.771   4.050  0.00  0.00    -0.366 N 
ATOM     21  H   UNL d   1       1.290  -3.913   4.000  0.00  0.00     0.159 HD
ATOM     22  H   UNL d   1       2.594  -4.828   4.699  0.00  0.00     0.159 HD
ENDBRANCH   1  18
TORSDOF 3
