REMARK  4 active torsions:
REMARK  status: ('A' for Active; 'I' for Inactive)
REMARK    1  A    between atoms: C_9  and  C_1 
REMARK    2  A    between atoms: C_8  and  C_2 
REMARK    3  A    between atoms: C_10  and  N_5 
REMARK    4  A    between atoms: N_7  and  C_12 
ROOT
ATOM      1  C   UNL d   1      -0.234  -1.107   0.017  0.00  0.00     0.063 C 
ATOM      2  C   UNL d   1       1.019  -0.462  -0.156  0.00  0.00     0.081 C 
ATOM      3  N   UNL d   1       0.857   0.840  -0.423  0.00  0.00    -0.291 N 
ATOM      4  HN  UNL d   1       1.563   1.492  -0.764  1.00  0.00     0.187 HD
ATOM      5  N   UNL d   1      -0.438   1.109  -0.146  0.00  0.00    -0.260 N 
ATOM      6  C   UNL d   1      -1.163  -0.062   0.008  0.00  0.00     0.047 C 
ATOM      7  C   UNL d   1      -2.652  -0.164   0.017  0.00  0.00     0.071 C 
ENDROOT
BRANCH   5   8
ATOM      8  C   UNL d   1      -0.868   2.470  -0.101  0.00  0.00     0.056 A 
ATOM      9  C   UNL d   1      -1.982   2.857   0.665  0.00  0.00     0.034 A 
ATOM     10  C   UNL d   1      -2.441   4.178   0.626  0.00  0.00     0.038 A 
ATOM     11  C   UNL d   1      -1.768   5.121  -0.154  0.00  0.00     0.103 A 
ATOM     12  C   UNL d   1      -0.624   4.764  -0.870  0.00  0.00     0.038 A 
ATOM     13  C   UNL d   1      -0.168   3.441  -0.831  0.00  0.00     0.034 A 
BRANCH  11  14
ATOM     14  N   UNL d   1      -2.274   6.501  -0.219  0.00  0.00    -0.116 N 
ATOM     15  O   UNL d   1      -1.661   7.309  -0.929  0.00  0.00    -0.532 OA
ATOM     16  O   UNL d   1      -3.292   6.774   0.437  0.00  0.00    -0.532 OA
ENDBRANCH  11  14
ENDBRANCH   5   8
BRANCH   1  17
ATOM     17  C   UNL d   1      -0.613  -2.517   0.124  0.00  0.00     0.160 C 
ATOM     18  O   UNL d   1      -1.621  -2.847   0.754  0.00  0.00    -0.293 OA
ATOM     19  C   UNL d   1       0.131  -3.586  -0.639  0.00  0.00     0.097 C 
ENDBRANCH   1  17
BRANCH   2  20
ATOM     20  C   UNL d   1       2.413  -1.031  -0.071  0.00  0.00     0.034 A 
ATOM     21  S   UNL d   1       3.770  -0.287  -0.812  0.00  0.00    -0.100 SA
ATOM     22  C   UNL d   1       4.834  -1.496  -0.243  0.00  0.00     0.050 A 
ATOM     23  C   UNL d   1       4.184  -2.431   0.530  0.00  0.00     0.008 A 
ATOM     24  C   UNL d   1       2.788  -2.153   0.643  0.00  0.00     0.021 A 
ENDBRANCH   2  20
TORSDOF 4
