REMARK  4 active torsions:
REMARK  status: ('A' for Active; 'I' for Inactive)
REMARK    1  A    between atoms: C_10  and  N_1 
REMARK    2  A    between atoms: C_12  and  N_5 
REMARK    3  A    between atoms: C_14  and  C_9 
REMARK    4  A    between atoms: C_15  and  C_10 
ROOT
ATOM      1  N   UNL d   1       1.045  -1.366   0.004  0.00  0.00    -0.288 N 
ATOM      2  C   UNL d   1      -0.146  -0.664   0.015  0.00  0.00     0.097 A 
ATOM      3  C   UNL d   1      -0.254   0.696  -0.002  0.00  0.00     0.068 A 
ATOM      4  C   UNL d   1       2.235  -0.626  -0.053  0.00  0.00     0.337 A 
ATOM      5  N   UNL d   1       2.138   0.787  -0.048  0.00  0.00    -0.229 N 
ATOM      6  C   UNL d   1       0.934   1.515  -0.037  0.00  0.00     0.269 A 
ATOM      7  S   UNL d   1      -1.643  -1.438   0.061  0.00  0.00    -0.070 SA
ATOM      8  C   UNL d   1      -1.624   1.113   0.040  0.00  0.00     0.039 A 
ATOM      9  C   UNL d   1      -2.510   0.046   0.061  0.00  0.00     0.018 A 
ATOM     10  O   UNL d   1       3.319  -1.217  -0.137  0.00  0.00    -0.246 OA
ATOM     11  O   UNL d   1       0.832   2.737  -0.013  0.00  0.00    -0.266 OA
ENDROOT
BRANCH   1  12
ATOM     12  C   UNL d   1       1.155  -2.834   0.007  0.00  0.00     0.173 C 
BRANCH  12  13
ATOM     13  C   UNL d   1       0.973  -3.455  -1.362  0.00  0.00    -0.040 A 
ATOM     14  C   UNL d   1       1.927  -3.260  -2.371  0.00  0.00     0.009 A 
ATOM     15  C   UNL d   1       1.744  -3.810  -3.641  0.00  0.00     0.001 A 
ATOM     16  C   UNL d   1       0.610  -4.569  -3.916  0.00  0.00     0.000 A 
ATOM     17  C   UNL d   1      -0.335  -4.792  -2.917  0.00  0.00     0.001 A 
ATOM     18  C   UNL d   1      -0.152  -4.244  -1.646  0.00  0.00     0.009 A 
ENDBRANCH  12  13
ENDBRANCH   1  12
BRANCH   5  19
ATOM     19  C   UNL d   1       3.370   1.535  -0.059  0.00  0.00     0.047 A 
ATOM     20  C   UNL d   1       3.553   2.622  -0.926  0.00  0.00     0.030 A 
ATOM     21  C   UNL d   1       4.768   3.313  -0.956  0.00  0.00     0.002 A 
ATOM     22  C   UNL d   1       5.805   2.945  -0.101  0.00  0.00     0.000 A 
ATOM     23  C   UNL d   1       5.631   1.883   0.781  0.00  0.00     0.002 A 
ATOM     24  C   UNL d   1       4.426   1.179   0.796  0.00  0.00     0.030 A 
ENDBRANCH   5  19
BRANCH   9  25
ATOM     25  C   UNL d   1      -3.985   0.053   0.048  0.00  0.00    -0.019 A 
ATOM     26  C   UNL d   1      -4.740  -0.973   0.639  0.00  0.00     0.013 A 
ATOM     27  C   UNL d   1      -6.136  -0.967   0.585  0.00  0.00     0.001 A 
ATOM     28  C   UNL d   1      -6.804   0.075  -0.051  0.00  0.00     0.000 A 
ATOM     29  C   UNL d   1      -6.075   1.111  -0.630  0.00  0.00     0.001 A 
ATOM     30  C   UNL d   1      -4.678   1.099  -0.581  0.00  0.00     0.013 A 
ENDBRANCH   9  25
TORSDOF 4
