REMARK  4 active torsions:
REMARK  status: ('A' for Active; 'I' for Inactive)
REMARK    1  A    between atoms: N_10  and  C_3 
REMARK    2  A    between atoms: N_14  and  C_4 
REMARK    3  A    between atoms: C_12  and  N_10 
REMARK    4  A    between atoms: O_16  and  C_15 
ROOT
ATOM      1  N   UNL d   1       1.679   1.109  -0.483  0.00  0.00    -0.180 N 
ATOM      2  HN  UNL d   1       2.221   1.972  -0.445  1.00  0.00     0.185 HD
ATOM      3  C   UNL d   1       2.232  -0.073  -0.161  0.00  0.00     0.683 A 
ATOM      4  C   UNL d   1       0.384   1.114  -0.860  0.00  0.00     0.116 A 
ATOM      5  C   UNL d   1      -0.387  -0.034  -0.879  0.00  0.00     0.099 A 
ATOM      6  N   UNL d   1       1.549  -1.231  -0.171  0.00  0.00    -0.200 N 
ATOM      7  HN  UNL d   1       2.001  -2.112   0.073  1.00  0.00     0.183 HD
ATOM      8  C   UNL d   1      -1.763  -0.051  -1.227  0.00  0.00     0.104 C 
ATOM      9  N   UNL d   1      -2.899  -0.075  -1.478  0.00  0.00    -0.191 NA
ATOM     10  C   UNL d   1       0.254  -1.189  -0.513  0.00  0.00     0.132 A 
ENDROOT
BRANCH   4  11
ATOM     11  N   UNL d   1      -0.100   2.332  -1.339  0.00  0.00    -0.287 NA
ATOM     12  H   UNL d   1       0.592   3.062  -1.181  0.00  0.00     0.125 HD
ATOM     13  H   UNL d   1      -1.027   2.588  -1.018  0.00  0.00     0.125 HD
ENDBRANCH   4  11
BRANCH   3  14
ATOM     14  N   UNL d   1       3.569  -0.091   0.229  0.00  0.00    -0.192 N 
ATOM     15  H   UNL d   1       3.957   0.837   0.307  0.00  0.00     0.184 HD
BRANCH  14  16
ATOM     16  C   UNL d   1       4.494  -1.132   0.029  0.00  0.00     0.051 A 
ATOM     17  C   UNL d   1       4.383  -2.022  -1.053  0.00  0.00     0.066 A 
ATOM     18  C   UNL d   1       5.263  -3.095  -1.206  0.00  0.00     0.070 A 
ATOM     19  C   UNL d   1       6.264  -3.289  -0.256  0.00  0.00     0.037 A 
ATOM     20  C   UNL d   1       6.401  -2.408   0.818  0.00  0.00     0.005 A 
ATOM     21  C   UNL d   1       5.528  -1.325   0.950  0.00  0.00     0.030 A 
BRANCH  18  22
ATOM     22  O   UNL d   1       5.240  -4.009  -2.224  0.00  0.00    -0.356 OA
ATOM     23  C   UNL d   1       4.236  -3.832  -3.218  0.00  0.00     0.210 C 
ENDBRANCH  18  22
ENDBRANCH  14  16
ENDBRANCH   3  14
TORSDOF 4
