REMARK  4 active torsions:
REMARK  status: ('A' for Active; 'I' for Inactive)
REMARK    1  A    between atoms: C_6  and  C_1 
REMARK    2  A    between atoms: O_11  and  C_6 
REMARK    3  A    between atoms: C_10  and  C_18 
REMARK    4  A    between atoms: C_18  and  O_11 
ROOT
ATOM      1  C   UNL d   1      -2.227  -0.393  -0.031  0.00  0.00     0.104 A 
ATOM      2  C   UNL d   1      -0.011   0.185   0.032  0.00  0.00     0.012 A 
ATOM      3  C   UNL d   1      -0.574   1.400   0.037  0.00  0.00     0.058 A 
ATOM      4  S   UNL d   1      -2.237   1.357   0.023  0.00  0.00    -0.074 SA
ATOM      5  C   UNL d   1      -0.921  -0.886   0.008  0.00  0.00     0.069 A 
ATOM      6  S   UNL d   1       0.531   2.652   0.045  0.00  0.00    -0.094 SA
ATOM      7  C   UNL d   1       1.392   0.196   0.036  0.00  0.00     0.022 A 
ATOM      8  C   UNL d   1       1.839   1.511   0.035  0.00  0.00     0.052 A 
ATOM      9 CL   UNL d   1      -0.449  -2.531  -0.003  0.00  0.00    -0.082 Cl
ENDROOT
BRANCH   1  10
ATOM     10  C   UNL d   1      -3.472  -1.133  -0.158  0.00  0.00     0.302 C 
ATOM     11  O   UNL d   1      -3.569  -2.340  -0.335  0.00  0.00    -0.259 OA
BRANCH  10  12
ATOM     12  O   UNL d   1      -4.540  -0.289  -0.111  0.00  0.00    -0.310 OA
BRANCH  12  13
ATOM     13  C   UNL d   1      -5.782  -0.812  -0.593  0.00  0.00     0.244 C 
BRANCH  13  14
ATOM     14  C   UNL d   1      -5.822  -0.534  -2.050  0.00  0.00     0.076 A 
ATOM     15  O   UNL d   1      -6.205   0.721  -2.425  0.00  0.00    -0.325 OA
ATOM     16  C   UNL d   1      -6.121   0.774  -3.779  0.00  0.00     0.142 A 
ATOM     17  C   UNL d   1      -5.695  -0.433  -4.282  0.00  0.00     0.027 A 
ATOM     18  C   UNL d   1      -5.502  -1.281  -3.165  0.00  0.00     0.037 A 
ENDBRANCH  13  14
ENDBRANCH  12  13
ENDBRANCH  10  12
ENDBRANCH   1  10
TORSDOF 4
