REMARK  3 active torsions:
REMARK  status: ('A' for Active; 'I' for Inactive)
REMARK    1  A    between atoms: C_6  and  C_1 
REMARK    2  A    between atoms: C_8  and  C_6 
REMARK    3  A    between atoms: O_19  and  C_16 
ROOT
ATOM      1  C   UNL d   1       3.127   1.059   0.030  0.00  0.00     0.133 A 
ATOM      2  C   UNL d   1       1.871   1.651  -0.080  0.00  0.00    -0.010 A 
ATOM      3  O   UNL d   1       2.996  -0.297   0.073  0.00  0.00    -0.305 OA
ATOM      4  C   UNL d   1       0.912   0.574  -0.024  0.00  0.00     0.018 A 
ATOM      5  C   UNL d   1       1.675  -0.588   0.028  0.00  0.00     0.088 A 
ATOM      6  C   UNL d   1      -0.512   0.431  -0.015  0.00  0.00    -0.012 A 
ATOM      7  C   UNL d   1       1.164  -1.880   0.044  0.00  0.00     0.039 A 
ATOM      8  C   UNL d   1      -1.064  -0.883  -0.005  0.00  0.00    -0.025 A 
ATOM      9  C   UNL d   1      -0.224  -2.005   0.016  0.00  0.00     0.015 A 
ATOM     10  C   UNL d   1       1.587   3.105  -0.196  0.00  0.00     0.052 C 
ATOM     11  C   UNL d   1      -1.393   1.538  -0.004  0.00  0.00     0.013 A 
ATOM     12  C   UNL d   1      -2.458  -1.040  -0.004  0.00  0.00     0.012 A 
ATOM     13  C   UNL d   1      -2.776   1.353   0.002  0.00  0.00     0.001 A 
ATOM     14  C   UNL d   1      -3.307   0.068  -0.003  0.00  0.00     0.001 A 
ENDROOT
BRANCH   1  15
ATOM     15  C   UNL d   1       4.466   1.615   0.065  0.00  0.00     0.216 C 
ATOM     16  O   UNL d   1       4.784   2.642  -0.536  0.00  0.00    -0.284 OA
BRANCH  15  17
ATOM     17  C   UNL d   1       5.512   0.956   0.908  0.00  0.00     0.017 A 
ATOM     18  C   UNL d   1       5.183   0.232   2.061  0.00  0.00     0.018 A 
ATOM     19  C   UNL d   1       6.194  -0.258   2.894  0.00  0.00     0.037 A 
ATOM     20  C   UNL d   1       7.539  -0.030   2.597  0.00  0.00     0.068 A 
ATOM     21  C   UNL d   1       7.873   0.657   1.430  0.00  0.00     0.037 A 
ATOM     22  C   UNL d   1       6.864   1.154   0.593  0.00  0.00     0.018 A 
BRANCH  20  23
ATOM     23  O   UNL d   1       8.416  -0.513   3.528  0.00  0.00    -0.356 OA
ATOM     24  C   UNL d   1       9.788  -0.177   3.357  0.00  0.00     0.210 C 
ENDBRANCH  20  23
ENDBRANCH  15  17
ENDBRANCH   1  15
TORSDOF 3
