REMARK  1 active torsions:
REMARK  status: ('A' for Active; 'I' for Inactive)
REMARK    1  A    between atoms: C_9  and  N_2 
ROOT
ATOM      1  C   UNL d   1       1.262  -1.451  -0.093  0.00  0.00     0.266 A 
ATOM      2  N   UNL d   1       2.437  -0.691  -0.026  0.00  0.00    -0.268 N 
ATOM      3  C   UNL d   1      -0.009  -0.707  -0.047  0.00  0.00     0.062 A 
ATOM      4  N   UNL d   1       1.270   1.360   0.036  0.00  0.00    -0.344 N 
ATOM      5  HN  UNL d   1       1.290   2.380   0.071  1.00  0.00     0.167 HD
ATOM      6  C   UNL d   1       2.379   0.691   0.010  0.00  0.00     0.087 A 
ATOM      7  C   UNL d   1       0.044   0.683   0.016  0.00  0.00     0.067 A 
ATOM      8  C   UNL d   1      -1.170   1.389   0.041  0.00  0.00     0.040 A 
ATOM      9  C   UNL d   1      -1.232  -1.393  -0.056  0.00  0.00     0.038 A 
ATOM     10  C   UNL d   1      -2.398   0.719   0.025  0.00  0.00     0.040 A 
ATOM     11  O   UNL d   1       1.208  -2.677  -0.159  0.00  0.00    -0.267 OA
ATOM     12  C   UNL d   1      -2.420  -0.672  -0.018  0.00  0.00     0.013 A 
ATOM     13 BR   UNL d   1      -1.203   3.289   0.089  0.00  0.00    -0.049 Br
ATOM     14  C   UNL d   1       3.643   1.528  -0.044  0.00  0.00     0.089 C 
ATOM     15 BR   UNL d   1      -4.074  -1.585  -0.026  0.00  0.00    -0.051 Br
ENDROOT
BRANCH   2  16
ATOM     16  C   UNL d   1       3.671  -1.406   0.013  0.00  0.00     0.044 A 
ATOM     17  C   UNL d   1       3.987  -2.316  -1.008  0.00  0.00     0.033 A 
ATOM     18  C   UNL d   1       5.192  -3.021  -0.979  0.00  0.00     0.044 A 
ATOM     19  C   UNL d   1       6.067  -2.835   0.083  0.00  0.00     0.116 A 
ATOM     20  C   UNL d   1       5.762  -1.956   1.117  0.00  0.00     0.044 A 
ATOM     21  F   UNL d   1       7.219  -3.517   0.115  0.00  0.00    -0.206 F 
ATOM     22  C   UNL d   1       4.564  -1.237   1.083  0.00  0.00     0.033 A 
ENDBRANCH   2  16
TORSDOF 1
