REMARK  3 active torsions:
REMARK  status: ('A' for Active; 'I' for Inactive)
REMARK    1  A    between atoms: N_2  and  S_1 
REMARK    2  A    between atoms: C_3  and  S_1 
REMARK    3  A    between atoms: C_16  and  C_7 
ROOT
ATOM      1  S   UNL d   1       0.981   0.197   0.023  0.00  0.00     0.272 S 
ATOM      2  O   UNL d   1       0.594   0.087  -1.364  0.00  0.00    -0.199 OA
ATOM      3  O   UNL d   1       0.987  -0.967   0.882  0.00  0.00    -0.199 OA
ENDROOT
BRANCH   1   4
ATOM      4  N   UNL d   1       0.021   1.397   0.767  0.00  0.00    -0.264 N 
ATOM      5  C   UNL d   1      -0.214   2.606   0.045  0.00  0.00     0.072 A 
ATOM      6  C   UNL d   1       0.474   3.799   0.299  0.00  0.00     0.062 A 
ATOM      7  C   UNL d   1      -1.213   2.573  -0.939  0.00  0.00     0.033 A 
ATOM      8  N   UNL d   1       1.344   4.052   1.375  0.00  0.00    -0.325 N 
ATOM      9  C   UNL d   1       0.203   4.916  -0.511  0.00  0.00     0.032 A 
ATOM     10  C   UNL d   1       1.438   3.480   2.601  0.00  0.00     0.224 C 
ATOM     11  H   UNL d   1       1.735   4.987   1.411  0.00  0.00     0.169 HD
ATOM     12  C   UNL d   1       1.092   2.049   2.902  0.00  0.00     0.129 C 
ATOM     13  O   UNL d   1       1.928   4.180   3.497  0.00  0.00    -0.273 OA
ATOM     14  C   UNL d   1      -0.110   1.429   2.234  0.00  0.00     0.107 C 
ATOM     15  C   UNL d   1      -1.439   2.067   2.654  0.00  0.00     0.034 C 
ATOM     16  C   UNL d   1      -0.809   4.883  -1.471  0.00  0.00     0.002 A 
ATOM     17  C   UNL d   1      -1.531   3.714  -1.672  0.00  0.00     0.002 A 
ENDBRANCH   1   4
BRANCH   1  18
ATOM     18  C   UNL d   1       2.676   0.775  -0.070  0.00  0.00     0.121 A 
ATOM     19  S   UNL d   1       3.841  -0.029   0.889  0.00  0.00    -0.074 SA
ATOM     20  C   UNL d   1       5.136   0.943   0.313  0.00  0.00     0.033 A 
ATOM     21  C   UNL d   1       4.664   1.862  -0.611  0.00  0.00     0.023 A 
ATOM     22  C   UNL d   1       3.263   1.756  -0.844  0.00  0.00     0.034 A 
BRANCH  20  23
ATOM     23  C   UNL d   1       6.524   0.767   0.784  0.00  0.00     0.049 A 
ATOM     24  N   UNL d   1       7.362   1.763   0.397  0.00  0.00    -0.365 N 
ATOM     25  C   UNL d   1       8.656   1.682   0.778  0.00  0.00     0.088 A 
ATOM     26  HN  UNL d   1       7.026   2.547  -0.164  1.00  0.00     0.165 HD
ATOM     27  C   UNL d   1       9.173   0.644   1.533  0.00  0.00     0.017 A 
ATOM     28  C   UNL d   1       8.309  -0.371   1.921  0.00  0.00     0.004 A 
ATOM     29  C   UNL d   1       6.967  -0.313   1.545  0.00  0.00     0.031 A 
ENDBRANCH  20  23
ENDBRANCH   1  18
TORSDOF 3
