REMARK  3 active torsions:
REMARK  status: ('A' for Active; 'I' for Inactive)
REMARK    1  A    between atoms: C_3  and  S_1 
REMARK    2  A    between atoms: C_7  and  S_1 
REMARK    3  A    between atoms: C_4  and  C_2 
ROOT
ATOM      1  C   UNL d   1       0.596  -2.250  -1.690  0.00  0.00     0.069 A 
ATOM      2  C   UNL d   1       0.384  -0.887  -1.412  0.00  0.00     0.079 A 
ATOM      3  C   UNL d   1      -0.038  -2.792  -2.834  0.00  0.00     0.018 A 
ATOM      4  C   UNL d   1      -0.443  -0.113  -2.249  0.00  0.00     0.024 A 
ATOM      5  C   UNL d   1      -0.855  -2.018  -3.659  0.00  0.00     0.001 A 
ATOM      6  C   UNL d   1      -1.063  -0.678  -3.362  0.00  0.00     0.002 A 
ENDROOT
BRANCH   2   7
ATOM      7  S   UNL d   1       1.212  -0.019  -0.081  0.00  0.00     0.207 S 
ATOM      8  O   UNL d   1       0.800   1.374  -0.164  0.00  0.00    -0.217 OA
ATOM      9  O   UNL d   1       2.615  -0.361  -0.205  0.00  0.00    -0.217 OA
BRANCH   7  10
ATOM     10  C   UNL d   1       0.612  -0.572   1.494  0.00  0.00     0.064 A 
ATOM     11  C   UNL d   1       1.482  -0.540   2.589  0.00  0.00     0.024 A 
ATOM     12  C   UNL d   1       1.016  -0.912   3.850  0.00  0.00     0.002 A 
ATOM     13  C   UNL d   1      -0.309  -1.318   4.013  0.00  0.00     0.000 A 
ATOM     14  C   UNL d   1      -1.171  -1.358   2.914  0.00  0.00     0.002 A 
ATOM     15  C   UNL d   1      -0.715  -0.983   1.649  0.00  0.00     0.024 A 
ENDBRANCH   7  10
ENDBRANCH   2   7
BRANCH   1  16
ATOM     16  C   UNL d   1       1.429  -3.213  -0.878  0.00  0.00     0.418 C 
ATOM     17  F   UNL d   1       1.972  -2.730   0.262  0.00  0.00    -0.166 F 
ATOM     18  F   UNL d   1       0.676  -4.281  -0.477  0.00  0.00    -0.166 F 
ATOM     19  F   UNL d   1       2.453  -3.746  -1.599  0.00  0.00    -0.166 F 
ENDBRANCH   1  16
TORSDOF 3
