REMARK  13 active torsions:
REMARK  status: ('A' for Active; 'I' for Inactive)
REMARK    1  A    between atoms: N_2  and  C_1 
REMARK       I    between atoms: C_4  and  N_2 
REMARK    2  A    between atoms: C_12  and  C_4 
REMARK    3  A    between atoms: O_10  and  C_5 
REMARK    4  A    between atoms: O_11  and  C_8 
REMARK    5  A    between atoms: C_15  and  C_12 
REMARK    6  A    between atoms: C_22  and  C_15 
REMARK    7  A    between atoms: C_16  and  C_17 
REMARK    8  A    between atoms: C_17  and  C_21 
REMARK    9  A    between atoms: C_18  and  C_23 
REMARK   10  A    between atoms: C_19  and  C_18 
REMARK   11  A    between atoms: C_20  and  C_19 
REMARK   12  A    between atoms: C_21  and  C_20 
REMARK   13  A    between atoms: C_23  and  C_22 
ROOT
ATOM      1  N   UNL d   1       2.550  -1.912   1.500  0.00  0.00    -0.325 N 
ATOM      2  C   UNL d   1       3.237  -1.902   0.296  0.00  0.00     0.222 C 
ATOM      3  O   UNL d   1       2.763  -1.769  -0.825  0.00  0.00    -0.273 OA
ATOM      4  H   UNL d   1       3.090  -1.908   2.352  0.00  0.00     0.169 HD
ENDROOT
BRANCH   2   5
ATOM      5  C   UNL d   1       4.721  -2.086   0.477  0.00  0.00     0.103 C 
BRANCH   5   6
ATOM      6  C   UNL d   1       5.061  -3.567   0.590  0.00  0.00     0.009 C 
BRANCH   6   7
ATOM      7  C   UNL d   1       6.561  -3.807   0.761  0.00  0.00     0.000 C 
BRANCH   7   8
ATOM      8  C   UNL d   1       7.090  -3.174   2.045  0.00  0.00     0.000 C 
BRANCH   8   9
ATOM      9  C   UNL d   1       8.579  -3.425   2.229  0.00  0.00     0.000 C 
BRANCH   9  10
ATOM     10  C   UNL d   1       9.067  -2.734   3.499  0.00  0.00     0.000 C 
BRANCH  10  11
ATOM     11  C   UNL d   1      10.559  -2.953   3.692  0.00  0.00     0.000 C 
BRANCH  11  12
ATOM     12  C   UNL d   1      11.054  -2.276   4.967  0.00  0.00     0.000 C 
BRANCH  12  13
ATOM     13  C   UNL d   1      12.549  -2.516   5.146  0.00  0.00    -0.000 C 
BRANCH  13  14
ATOM     14  C   UNL d   1      13.072  -1.855   6.417  0.00  0.00    -0.005 C 
ATOM     15  C   UNL d   1      14.562  -2.104   6.584  0.00  0.00     0.005 C 
ENDBRANCH  13  14
ENDBRANCH  12  13
ENDBRANCH  11  12
ENDBRANCH  10  11
ENDBRANCH   9  10
ENDBRANCH   8   9
ENDBRANCH   7   8
ENDBRANCH   6   7
ENDBRANCH   5   6
ENDBRANCH   2   5
BRANCH   1  16
ATOM     16  C   UNL d   1       1.146  -1.862   1.659  0.00  0.00     0.071 A 
ATOM     17  C   UNL d   1       0.312  -2.262   0.604  0.00  0.00     0.069 A 
ATOM     18  C   UNL d   1      -1.070  -2.348   0.756  0.00  0.00     0.070 A 
ATOM     19  C   UNL d   1      -1.639  -1.991   1.976  0.00  0.00     0.039 A 
ATOM     20  C   UNL d   1      -0.824  -1.581   3.037  0.00  0.00     0.042 A 
ATOM     21  C   UNL d   1       0.567  -1.515   2.890  0.00  0.00     0.095 A 
BRANCH  18  22
ATOM     22  O   UNL d   1      -1.940  -2.793  -0.202  0.00  0.00    -0.356 OA
ATOM     23  C   UNL d   1      -1.358  -3.260  -1.417  0.00  0.00     0.210 C 
ENDBRANCH  18  22
BRANCH  21  24
ATOM     24  O   UNL d   1       1.238  -1.181   4.039  0.00  0.00    -0.354 OA
ATOM     25  C   UNL d   1       2.267  -0.202   3.927  0.00  0.00     0.210 C 
ENDBRANCH  21  24
ENDBRANCH   1  16
TORSDOF 13
