REMARK  5 active torsions:
REMARK  status: ('A' for Active; 'I' for Inactive)
REMARK    1  A    between atoms: N_2  and  C_1 
REMARK    2  A    between atoms: N_7  and  C_1 
REMARK    3  A    between atoms: C_4  and  N_2 
REMARK       I    between atoms: C_3  and  N_5 
REMARK    4  A    between atoms: C_9  and  C_3 
REMARK    5  A    between atoms: N_5  and  N_7 
ROOT
ATOM      1  N   UNL d   1       0.090  -0.935   0.411  0.00  0.00    -0.274 N 
ATOM      2  H   UNL d   1      -0.240  -1.463  -0.395  0.00  0.00     0.189 HD
ENDROOT
BRANCH   1   3
ATOM      3  N   UNL d   1       0.301  -1.692   1.562  0.00  0.00    -0.264 N 
ATOM      4  C   UNL d   1      -0.472  -2.771   1.946  0.00  0.00     0.270 C 
ATOM      5  O   UNL d   1      -0.172  -3.417   2.951  0.00  0.00    -0.266 OA
ATOM      6  H   UNL d   1       1.104  -1.449   2.142  0.00  0.00     0.190 HD
BRANCH   4   7
ATOM      7  C   UNL d   1      -1.637  -3.210   1.127  0.00  0.00     0.033 A 
ATOM      8  C   UNL d   1      -1.899  -4.587   1.056  0.00  0.00     0.019 A 
ATOM      9  C   UNL d   1      -2.951  -5.071   0.274  0.00  0.00     0.025 A 
ATOM     10  C   UNL d   1      -3.745  -4.181  -0.445  0.00  0.00     0.034 A 
ATOM     11  C   UNL d   1      -3.516  -2.808  -0.360  0.00  0.00     0.025 A 
ATOM     12 CL   UNL d   1      -5.022  -4.774  -1.432  0.00  0.00    -0.084 Cl
ATOM     13  C   UNL d   1      -2.483  -2.323   0.446  0.00  0.00     0.019 A 
ENDBRANCH   4   7
ENDBRANCH   1   3
BRANCH   1  14
ATOM     14  C   UNL d   1       0.938   0.108   0.062  0.00  0.00     0.186 C 
ATOM     15  S   UNL d   1       2.403   0.431   0.786  0.00  0.00    -0.040 SA
BRANCH  14  16
ATOM     16  N   UNL d   1       0.367   0.823  -0.973  0.00  0.00    -0.361 N 
ATOM     17  H   UNL d   1      -0.606   0.622  -1.159  0.00  0.00     0.162 HD
BRANCH  16  18
ATOM     18  C   UNL d   1       1.050   1.673  -1.931  0.00  0.00     0.088 C 
ATOM     19  C   UNL d   1       1.709   0.851  -3.065  0.00  0.00     0.009 C 
ATOM     20  C   UNL d   1       1.867   1.917  -4.148  0.00  0.00     0.011 C 
ATOM     21  C   UNL d   1       0.681  -0.097  -3.721  0.00  0.00     0.007 C 
ATOM     22  C   UNL d   1       0.373   2.241  -4.178  0.00  0.00    -0.012 C 
ATOM     23  C   UNL d   1       0.088   2.599  -2.707  0.00  0.00     0.030 C 
ATOM     24  C   UNL d   1      -0.241   0.865  -4.482  0.00  0.00     0.005 C 
ENDBRANCH  16  18
ENDBRANCH  14  16
ENDBRANCH   1  14
TORSDOF 5
