REMARK  2 active torsions:
REMARK  status: ('A' for Active; 'I' for Inactive)
REMARK    1  A    between atoms: C_12  and  N_3 
REMARK    2  A    between atoms: C_17  and  C_12 
ROOT
ATOM      1  C   UNL d   1      -0.314  -0.847   0.011  0.00  0.00     0.160 A 
ATOM      2  C   UNL d   1      -0.514   0.500  -0.024  0.00  0.00     0.164 A 
ATOM      3  N   UNL d   1       1.830   0.830  -0.006  0.00  0.00    -0.260 N 
ATOM      4  N   UNL d   1      -1.484  -1.541   0.024  0.00  0.00    -0.174 N 
ATOM      5  HN  UNL d   1      -1.599  -2.554  -0.007  1.00  0.00     0.186 HD
ATOM      6  N   UNL d   1       0.946  -1.391   0.052  0.00  0.00    -0.287 N 
ATOM      7  C   UNL d   1      -2.438  -0.632   0.084  0.00  0.00     0.684 A 
ATOM      8  C   UNL d   1       2.054  -0.550   0.134  0.00  0.00     0.333 C 
ATOM      9  C   UNL d   1       0.570   1.431  -0.080  0.00  0.00     0.283 C 
ATOM     10  N   UNL d   1      -1.883   0.646   0.011  0.00  0.00    -0.178 N 
ATOM     11  N   UNL d   1      -3.780  -0.875   0.119  0.00  0.00    -0.217 N 
ATOM     12  O   UNL d   1       3.186  -1.010   0.331  0.00  0.00    -0.246 OA
ATOM     13  O   UNL d   1       0.409   2.651  -0.166  0.00  0.00    -0.265 OA
ATOM     14  C   UNL d   1      -4.269  -2.155  -0.426  0.00  0.00     0.141 C 
ATOM     15  C   UNL d   1      -4.637  -0.250   1.129  0.00  0.00     0.141 C 
ATOM     16  C   UNL d   1       1.156  -2.824   0.090  0.00  0.00     0.163 C 
ATOM     17  C   UNL d   1      -2.601   1.891  -0.113  0.00  0.00     0.176 C 
ATOM     18  C   UNL d   1      -5.070  -1.229   2.217  0.00  0.00     0.024 C 
ATOM     19  C   UNL d   1      -4.699  -3.136   0.670  0.00  0.00     0.024 C 
ATOM     20  C   UNL d   1      -5.705  -2.486   1.627  0.00  0.00    -0.015 C 
ATOM     21  C   UNL d   1      -6.134  -3.444   2.737  0.00  0.00     0.010 C 
ENDROOT
BRANCH   3  22
ATOM     22  C   UNL d   1       3.003   1.700   0.006  0.00  0.00     0.175 C 
BRANCH  22  23
ATOM     23  C   UNL d   1       3.659   1.831  -1.356  0.00  0.00    -0.038 A 
ATOM     24  C   UNL d   1       3.278   2.855  -2.237  0.00  0.00     0.027 A 
ATOM     25  C   UNL d   1       3.859   2.943  -3.505  0.00  0.00     0.011 A 
ATOM     26 BR   UNL d   1       3.323   4.317  -4.689  0.00  0.00    -0.051 Br
ATOM     27  C   UNL d   1       4.824   2.024  -3.912  0.00  0.00     0.019 A 
ATOM     28  C   UNL d   1       5.223   1.015  -3.038  0.00  0.00     0.002 A 
ATOM     29  C   UNL d   1       4.646   0.921  -1.769  0.00  0.00     0.009 A 
ENDBRANCH  22  23
ENDBRANCH   3  22
TORSDOF 2
