REMARK  3 active torsions:
REMARK  status: ('A' for Active; 'I' for Inactive)
REMARK    1  A    between atoms: N_2  and  C_1 
REMARK       I    between atoms: C_3  and  N_2 
REMARK    2  A    between atoms: C_8  and  C_3 
REMARK    3  A    between atoms: O_19  and  C_9 
ROOT
ATOM      1  N   UNL d   1      -0.166   2.034  -0.330  0.00  0.00    -0.320 N 
ATOM      2  C   UNL d   1      -1.251   2.789   0.079  0.00  0.00     0.256 C 
ATOM      3  O   UNL d   1      -2.260   2.332   0.614  0.00  0.00    -0.267 OA
ATOM      4  H   UNL d   1       0.741   2.484  -0.255  0.00  0.00     0.169 HD
ENDROOT
BRANCH   1   5
ATOM      5  C   UNL d   1      -0.123   0.608  -0.309  0.00  0.00     0.079 C 
ATOM      6  C   UNL d   1      -1.208  -0.231  -0.619  0.00  0.00     0.065 C 
ATOM      7  C   UNL d   1      -1.119  -1.618  -0.425  0.00  0.00     0.063 C 
ATOM      8 CL   UNL d   1      -2.613   0.317  -1.478  0.00  0.00    -0.082 Cl
ATOM      9  C   UNL d   1       0.071  -2.194   0.009  0.00  0.00     0.071 C 
ATOM     10  C   UNL d   1       1.197  -1.393   0.174  0.00  0.00     0.063 C 
ATOM     11  C   UNL d   1       1.100  -0.007   0.020  0.00  0.00     0.065 C 
ATOM     12 CL   UNL d   1       2.534   0.937   0.260  0.00  0.00    -0.082 Cl
BRANCH   9  13
ATOM     13  O   UNL d   1       0.255  -3.538   0.181  0.00  0.00    -0.356 OA
ATOM     14  C   UNL d   1      -0.823  -4.212   0.829  0.00  0.00     0.210 C 
ENDBRANCH   9  13
ENDBRANCH   1   5
BRANCH   2  15
ATOM     15  C   UNL d   1      -1.133   4.274  -0.070  0.00  0.00     0.032 A 
ATOM     16  C   UNL d   1      -0.135   4.887  -0.840  0.00  0.00     0.018 A 
ATOM     17  C   UNL d   1      -0.119   6.280  -0.990  0.00  0.00     0.025 A 
ATOM     18  C   UNL d   1      -1.102   7.062  -0.382  0.00  0.00     0.034 A 
ATOM     19  C   UNL d   1      -2.092   6.468   0.393  0.00  0.00     0.025 A 
ATOM     20 CL   UNL d   1      -1.103   8.765  -0.614  0.00  0.00    -0.084 Cl
ATOM     21  C   UNL d   1      -2.106   5.079   0.549  0.00  0.00     0.018 A 
ENDBRANCH   2  15
TORSDOF 3
