REMARK  7 active torsions:
REMARK  status: ('A' for Active; 'I' for Inactive)
REMARK    1  A    between atoms: C_3  and  C_1 
REMARK    2  A    between atoms: C_5  and  CA_2 
REMARK       I    between atoms: N_6  and  C_3 
REMARK    3  A    between atoms: C_4  and  C_7 
REMARK    4  A    between atoms: OXT_25  and  C_5 
REMARK    5  A    between atoms: C_23  and  N_6 
REMARK    6  A    between atoms: O_17  and  C_14 
REMARK    7  A    between atoms: C_19  and  O_17 
ROOT
ATOM      1  N   UNL d   1       2.461  -5.081  -0.527  0.00  0.00    -0.344 N 
ATOM      2  HN  UNL d   1       2.925  -5.756  -1.135  1.00  0.00     0.167 HD
ATOM      3  C   UNL d   1       3.159  -4.292   0.317  0.00  0.00     0.148 A 
ATOM      4  C   UNL d   1       0.423  -4.011   0.263  0.00  0.00     0.050 A 
ATOM      5  C   UNL d   1       1.111  -4.932  -0.526  0.00  0.00     0.119 A 
ATOM      6  C   UNL d   1       2.568  -3.379   1.176  0.00  0.00     0.059 A 
ATOM      7  C   UNL d   1       1.179  -3.244   1.152  0.00  0.00     0.035 A 
ENDROOT
BRANCH   4   8
ATOM      8  N   UNL d   1      -0.959  -3.726   0.153  0.00  0.00    -0.320 N 
ATOM      9  C   UNL d   1      -1.861  -4.420  -0.630  0.00  0.00     0.275 C 
ATOM     10  O   UNL d   1      -1.638  -5.550  -1.062  0.00  0.00    -0.266 OA
ATOM     11  H   UNL d   1      -1.282  -2.933   0.708  0.00  0.00     0.169 HD
BRANCH   9  12
ATOM     12  C   UNL d   1      -3.164  -3.778  -1.035  0.00  0.00     0.134 A 
ATOM     13  CA  UNL d   1      -3.930  -2.836  -0.361  0.00  0.00     0.139 A 
ATOM     14  N   UNL d   1      -5.158  -2.396  -0.830  0.00  0.00    -0.357 N 
ATOM     15  C   UNL d   1      -5.564  -2.914  -2.011  0.00  0.00     0.105 A 
ATOM     16  HN  UNL d   1      -5.723  -1.721  -0.315  1.00  0.00     0.165 HD
ATOM     17  C   UNL d   1      -4.800  -3.823  -2.708  0.00  0.00     0.105 A 
ATOM     18  N   UNL d   1      -3.614  -4.264  -2.240  0.00  0.00    -0.358 N 
ATOM     19  HN  UNL d   1      -3.064  -4.942  -2.767  1.00  0.00     0.165 HD
BRANCH  13  20
ATOM     20  C   UNL d   1      -3.567  -2.174   0.922  0.00  0.00     0.196 C 
ATOM     21  O   UNL d   1      -2.484  -2.220   1.474  0.00  0.00    -0.645 OA
BRANCH  20  22
ATOM     22  OXT UNL d   1      -4.609  -1.443   1.393  0.00  0.00    -0.772 OA
ATOM     23  HXT UNL d   1      -5.363  -1.490   0.755  0.00  0.00     0.167 HD
ENDBRANCH  20  22
ENDBRANCH  13  20
ENDBRANCH   9  12
ENDBRANCH   4   8
BRANCH   3  24
ATOM     24  O   UNL d   1       4.547  -4.298   0.280  0.00  0.00    -0.294 OA
BRANCH  24  25
ATOM     25  C   UNL d   1       5.172  -5.466  -0.086  0.00  0.00     0.078 A 
ATOM     26  C   UNL d   1       4.841  -6.698   0.483  0.00  0.00     0.053 A 
ATOM     27  C   UNL d   1       5.571  -7.850   0.156  0.00  0.00     0.050 A 
ATOM     28  C   UNL d   1       6.645  -7.742  -0.743  0.00  0.00     0.016 A 
ATOM     29  C   UNL d   1       6.981  -6.508  -1.302  0.00  0.00     0.004 A 
ATOM     30  C   UNL d   1       6.250  -5.368  -0.966  0.00  0.00     0.037 A 
BRANCH  27  31
ATOM     31  C   UNL d   1       5.229  -9.178   0.779  0.00  0.00     0.417 C 
ATOM     32  F   UNL d   1       4.137  -9.140   1.592  0.00  0.00    -0.166 F 
ATOM     33  F   UNL d   1       4.973 -10.144  -0.147  0.00  0.00    -0.166 F 
ATOM     34  F   UNL d   1       6.245  -9.662   1.548  0.00  0.00    -0.166 F 
ENDBRANCH  27  31
ENDBRANCH  24  25
ENDBRANCH   3  24
TORSDOF 7
