REMARK  7 active torsions:
REMARK  status: ('A' for Active; 'I' for Inactive)
REMARK    1  A    between atoms: N_7  and  C_1 
REMARK    2  A    between atoms: C_9  and  C_2 
REMARK    3  A    between atoms: C_15  and  C_5 
REMARK    4  A    between atoms: N_6  and  C_10 
REMARK       I    between atoms: C_8  and  N_7 
REMARK    5  A    between atoms: C_11  and  C_8 
REMARK    6  A    between atoms: O_18  and  C_9 
REMARK    7  A    between atoms: C_24  and  O_18 
ROOT
ATOM      1  C   UNL d   1       0.354   0.981   0.206  0.00  0.00     0.094 A 
ATOM      2  C   UNL d   1       1.560   0.338   0.427  0.00  0.00     0.074 A 
ATOM      3  S   UNL d   1      -0.909  -0.143  -0.087  0.00  0.00    -0.071 SA
ATOM      4  C   UNL d   1       1.415  -1.086   0.253  0.00  0.00     0.040 A 
ATOM      5  C   UNL d   1       0.122  -1.494   0.014  0.00  0.00     0.018 A 
ENDROOT
BRANCH   1   6
ATOM      6  N   UNL d   1       0.020   2.334   0.295  0.00  0.00    -0.316 N 
ATOM      7  C   UNL d   1      -1.018   2.881  -0.456  0.00  0.00     0.256 C 
ATOM      8  O   UNL d   1      -1.493   2.360  -1.462  0.00  0.00    -0.267 OA
ATOM      9  H   UNL d   1       0.701   2.947   0.732  0.00  0.00     0.169 HD
BRANCH   7  10
ATOM     10  C   UNL d   1      -1.595   4.200  -0.043  0.00  0.00     0.034 A 
ATOM     11  C   UNL d   1      -1.252   4.882   1.129  0.00  0.00     0.053 A 
ATOM     12  C   UNL d   1      -1.937   6.072   1.454  0.00  0.00     0.103 A 
ATOM     13  C   UNL d   1      -2.957   6.579   0.636  0.00  0.00     0.036 A 
ATOM     14  C   UNL d   1      -3.297   5.898  -0.526  0.00  0.00     0.003 A 
ATOM     15  C   UNL d   1      -2.621   4.724  -0.859  0.00  0.00     0.017 A 
BRANCH  12  16
ATOM     16  N   UNL d   1      -1.594   6.796   2.689  0.00  0.00    -0.116 N 
ATOM     17  O   UNL d   1      -0.759   6.278   3.437  0.00  0.00    -0.532 OA
ATOM     18  O   UNL d   1      -2.161   7.874   2.901  0.00  0.00    -0.532 OA
ENDBRANCH  12  16
ENDBRANCH   7  10
ENDBRANCH   1   6
BRANCH   2  19
ATOM     19  C   UNL d   1       2.824   0.956   0.802  0.00  0.00     0.296 C 
ATOM     20  O   UNL d   1       2.919   2.039   1.362  0.00  0.00    -0.259 OA
BRANCH  19  21
ATOM     21  O   UNL d   1       3.869   0.125   0.518  0.00  0.00    -0.318 OA
BRANCH  21  22
ATOM     22  C   UNL d   1       4.789  -0.129   1.583  0.00  0.00     0.174 C 
ATOM     23  C   UNL d   1       6.176  -0.326   1.004  0.00  0.00     0.034 C 
ENDBRANCH  21  22
ENDBRANCH  19  21
ENDBRANCH   2  19
BRANCH   5  24
ATOM     24  C   UNL d   1      -0.377  -2.868  -0.130  0.00  0.00    -0.019 A 
ATOM     25  C   UNL d   1       0.426  -3.840  -0.749  0.00  0.00     0.013 A 
ATOM     26  C   UNL d   1       0.005  -5.168  -0.836  0.00  0.00     0.001 A 
ATOM     27  C   UNL d   1      -1.227  -5.543  -0.307  0.00  0.00     0.000 A 
ATOM     28  C   UNL d   1      -2.039  -4.590   0.303  0.00  0.00     0.001 A 
ATOM     29  C   UNL d   1      -1.617  -3.262   0.393  0.00  0.00     0.013 A 
ENDBRANCH   5  24
TORSDOF 7
