REMARK  4 active torsions:
REMARK  status: ('A' for Active; 'I' for Inactive)
REMARK    1  A    between atoms: C_2  and  S_1 
REMARK    2  A    between atoms: N_8  and  S_1 
REMARK    3  A    between atoms: C_19  and  N_4 
REMARK    4  A    between atoms: C_9  and  N_14 
ROOT
ATOM      1  N   UNL d   1       0.593   0.734  -0.761  0.00  0.00    -0.203 NA
ATOM      2  N   UNL d   1      -1.007   2.969   0.397  0.00  0.00    -0.398 N 
ATOM      3  C   UNL d   1       1.043   2.144  -0.907  0.00  0.00     0.127 C 
ATOM      4  C   UNL d   1      -0.891   0.662  -0.738  0.00  0.00     0.127 C 
ATOM      5  C   UNL d   1       0.458   3.033   0.209  0.00  0.00     0.133 C 
ATOM      6  C   UNL d   1      -1.511   1.588   0.334  0.00  0.00     0.133 C 
ENDROOT
BRANCH   1   7
ATOM      7  S   UNL d   1       1.401  -0.199   0.397  0.00  0.00     0.247 S 
ATOM      8  O   UNL d   1       1.972   0.654   1.411  0.00  0.00    -0.206 OA
ATOM      9  O   UNL d   1       0.585  -1.346   0.728  0.00  0.00    -0.206 OA
BRANCH   7  10
ATOM     10  C   UNL d   1       2.772  -0.923  -0.331  0.00  0.00     0.115 C 
ATOM     11  C   UNL d   1       3.681  -1.785   0.257  0.00  0.00     0.055 C 
ATOM     12  N   UNL d   1       4.591  -2.107  -0.742  0.00  0.00    -0.260 N 
ATOM     13  C   UNL d   1       3.753  -2.227   1.674  0.00  0.00     0.072 C 
ATOM     14  N   UNL d   1       4.361  -1.377  -1.873  0.00  0.00    -0.303 N 
ATOM     15  C   UNL d   1       3.218  -0.732  -1.636  0.00  0.00     0.134 C 
ATOM     16  HN  UNL d   1       4.937  -1.333  -2.713  1.00  0.00     0.186 HD
BRANCH  12  17
ATOM     17  C   UNL d   1       5.658  -3.047  -0.722  0.00  0.00     0.056 A 
ATOM     18  C   UNL d   1       5.618  -4.187   0.089  0.00  0.00     0.031 A 
ATOM     19  C   UNL d   1       6.678  -5.096   0.079  0.00  0.00     0.002 A 
ATOM     20  C   UNL d   1       7.788  -4.869  -0.733  0.00  0.00     0.000 A 
ATOM     21  C   UNL d   1       7.831  -3.742  -1.553  0.00  0.00     0.002 A 
ATOM     22  C   UNL d   1       6.765  -2.842  -1.563  0.00  0.00     0.031 A 
ENDBRANCH  12  17
ENDBRANCH   7  10
ENDBRANCH   1   7
BRANCH   2  23
ATOM     23  C   UNL d   1      -1.818   3.995  -0.286  0.00  0.00     0.147 C 
ATOM     24  C   UNL d   1      -1.223   5.390  -0.066  0.00  0.00    -0.020 A 
ATOM     25  C   UNL d   1      -0.712   5.894  -1.286  0.00  0.00    -0.017 A 
ATOM     26  C   UNL d   1      -1.037   6.062   1.135  0.00  0.00     0.010 A 
ATOM     27  C   UNL d   1       0.003   7.078  -1.305  0.00  0.00     0.013 A 
ATOM     28  C   UNL d   1      -1.047   4.966  -2.348  0.00  0.00    -0.017 C 
ATOM     29  C   UNL d   1       0.210   7.752  -0.095  0.00  0.00     0.001 A 
ATOM     30  C   UNL d   1      -0.308   7.251   1.112  0.00  0.00     0.001 A 
ATOM     31  C   UNL d   1      -1.811   3.910  -1.806  0.00  0.00    -0.020 C 
ATOM     32  C   UNL d   1      -0.732   4.974  -3.696  0.00  0.00     0.013 C 
ATOM     33  C   UNL d   1      -2.413   2.966  -2.624  0.00  0.00     0.010 C 
ATOM     34  C   UNL d   1      -2.095   2.971  -3.979  0.00  0.00     0.001 C 
ATOM     35  C   UNL d   1      -1.234   3.948  -4.504  0.00  0.00     0.001 C 
ENDBRANCH   2  23
TORSDOF 4
