REMARK  2 active torsions:
REMARK  status: ('A' for Active; 'I' for Inactive)
REMARK       I    between atoms: C_2  and  N_3 
REMARK    1  A    between atoms: C_9  and  C_2 
REMARK    2  A    between atoms: N_3  and  C_4 
ROOT
ATOM      1  C   UNL d   1      -0.392   0.257  -0.326  0.00  0.00     0.109 A 
ATOM      2  C   UNL d   1       0.247   1.474  -0.014  0.00  0.00     0.059 A 
ATOM      3  C   UNL d   1      -1.705   0.137  -0.887  0.00  0.00     0.105 C 
ATOM      4  N   UNL d   1      -2.733  -0.032  -1.405  0.00  0.00    -0.191 NA
ATOM      5  C   UNL d   1       0.336  -0.938  -0.220  0.00  0.00     0.139 A 
ATOM      6  F   UNL d   1      -0.242  -2.112  -0.521  0.00  0.00    -0.204 F 
ATOM      7  C   UNL d   1       1.613   1.444   0.335  0.00  0.00     0.031 A 
ATOM      8  C   UNL d   1       2.321   0.243   0.426  0.00  0.00     0.005 A 
ATOM      9  C   UNL d   1       1.675  -0.956   0.156  0.00  0.00     0.044 A 
ENDROOT
BRANCH   2  10
ATOM     10  N   UNL d   1      -0.333   2.772  -0.048  0.00  0.00    -0.321 N 
ATOM     11  C   UNL d   1      -1.663   3.073   0.192  0.00  0.00     0.256 C 
ATOM     12  O   UNL d   1      -2.477   2.264   0.622  0.00  0.00    -0.267 OA
ATOM     13  H   UNL d   1       0.312   3.548   0.025  0.00  0.00     0.169 HD
BRANCH  11  14
ATOM     14  C   UNL d   1      -2.088   4.500   0.004  0.00  0.00     0.032 A 
ATOM     15  C   UNL d   1      -1.300   5.476  -0.623  0.00  0.00     0.017 A 
ATOM     16  C   UNL d   1      -1.786   6.781  -0.775  0.00  0.00     0.001 A 
ATOM     17  C   UNL d   1      -3.059   7.120  -0.316  0.00  0.00     0.000 A 
ATOM     18  C   UNL d   1      -3.852   6.156   0.300  0.00  0.00     0.001 A 
ATOM     19  C   UNL d   1      -3.369   4.856   0.460  0.00  0.00     0.017 A 
ENDBRANCH  11  14
ENDBRANCH   2  10
TORSDOF 2
