REMARK  7 active torsions:
REMARK  status: ('A' for Active; 'I' for Inactive)
REMARK    1  A    between atoms: C_6  and  C_1 
REMARK    2  A    between atoms: C_7  and  C_2 
REMARK    3  A    between atoms: O_11  and  C_6 
REMARK    4  A    between atoms: C_8  and  C_7 
REMARK    5  A    between atoms: O_12  and  C_8 
REMARK    6  A    between atoms: C_14  and  O_11 
REMARK    7  A    between atoms: C_15  and  O_12 
ROOT
ATOM      1  C   UNL d   1       0.848  -0.095   0.092  0.00  0.00     0.115 A 
ATOM      2  C   UNL d   1       0.047  -1.236   0.059  0.00  0.00    -0.014 A 
ATOM      3  N   UNL d   1      -0.005   0.990   0.143  0.00  0.00    -0.355 N 
ATOM      4  C   UNL d   1      -1.311  -0.782   0.068  0.00  0.00     0.034 A 
ATOM      5  C   UNL d   1      -1.310   0.594   0.091  0.00  0.00     0.006 A 
ATOM      6  C   UNL d   1      -2.420   1.575   0.067  0.00  0.00     0.068 C 
ATOM      7  H   UNL d   1       0.325   1.948   0.167  0.00  0.00     0.166 HD
ENDROOT
BRANCH   2   8
ATOM      8  C   UNL d   1       0.444  -2.683  -0.020  0.00  0.00     0.152 C 
BRANCH   8   9
ATOM      9  C   UNL d   1       0.508  -3.375   1.327  0.00  0.00     0.263 C 
ATOM     10  O   UNL d   1       0.344  -2.854   2.424  0.00  0.00    -0.265 OA
BRANCH   9  11
ATOM     11  O   UNL d   1       0.770  -4.705   1.133  0.00  0.00    -0.322 OA
BRANCH  11  12
ATOM     12  C   UNL d   1       0.803  -5.516   2.319  0.00  0.00     0.174 C 
ATOM     13  C   UNL d   1       2.164  -5.434   2.985  0.00  0.00     0.034 C 
ENDBRANCH  11  12
ENDBRANCH   9  11
ENDBRANCH   8   9
ENDBRANCH   2   8
BRANCH   1  14
ATOM     14  C   UNL d   1       2.269   0.161   0.046  0.00  0.00     0.310 C 
ATOM     15  O   UNL d   1       2.749   1.287   0.059  0.00  0.00    -0.258 OA
BRANCH  14  16
ATOM     16  O   UNL d   1       2.981  -0.986  -0.115  0.00  0.00    -0.317 OA
BRANCH  16  17
ATOM     17  C   UNL d   1       4.340  -0.786  -0.533  0.00  0.00     0.175 C 
ATOM     18  C   UNL d   1       4.373  -0.772  -2.051  0.00  0.00     0.034 C 
ENDBRANCH  16  17
ENDBRANCH  14  16
ENDBRANCH   1  14
TORSDOF 7
