REMARK  4 active torsions:
REMARK  status: ('A' for Active; 'I' for Inactive)
REMARK    1  A    between atoms: N_8  and  N_1 
REMARK    2  A    between atoms: C_7  and  N_8 
REMARK    3  A    between atoms: N_11  and  C_7 
REMARK    4  A    between atoms: C_16  and  N_11 
ROOT
ATOM      1  N   UNL d   1      -0.512   1.036   0.626  0.00  0.00    -0.222 N 
ATOM      2  C   UNL d   1      -0.092  -1.381   0.486  0.00  0.00     0.120 C 
ATOM      3  C   UNL d   1      -1.012  -0.265   0.866  0.00  0.00     0.288 C 
ATOM      4  C   UNL d   1       1.212  -1.120   0.269  0.00  0.00    -0.034 C 
ATOM      5  C   UNL d   1       0.860   1.274   0.582  0.00  0.00     0.034 C 
ATOM      6  C   UNL d   1       1.702   0.234   0.427  0.00  0.00     0.035 C 
ATOM      7  C   UNL d   1      -0.650  -2.673   0.350  0.00  0.00     0.105 C 
ATOM      8  N   UNL d   1      -1.051  -3.762   0.213  0.00  0.00    -0.191 NA
ATOM      9  O   UNL d   1      -2.113  -0.514   1.352  0.00  0.00    -0.265 OA
ATOM     10  C   UNL d   1       2.231  -2.170  -0.094  0.00  0.00     0.050 C 
ATOM     11  C   UNL d   1       1.441   2.637   0.847  0.00  0.00     0.070 C 
ENDROOT
BRANCH   1  12
ATOM     12  N   UNL d   1      -1.427   2.107   0.744  0.00  0.00    -0.267 N 
ATOM     13  H   UNL d   1      -1.064   2.982   1.080  0.00  0.00     0.190 HD
BRANCH  12  14
ATOM     14  C   UNL d   1      -2.621   2.183   0.069  0.00  0.00     0.187 C 
ATOM     15  S   UNL d   1      -3.107   1.272  -1.250  0.00  0.00    -0.040 SA
BRANCH  14  16
ATOM     16  N   UNL d   1      -3.517   3.096   0.545  0.00  0.00    -0.361 N 
ATOM     17  H   UNL d   1      -4.400   3.054   0.039  0.00  0.00     0.162 HD
BRANCH  16  18
ATOM     18  C   UNL d   1      -3.520   3.964   1.711  0.00  0.00     0.083 C 
ATOM     19  C   UNL d   1      -2.703   5.243   1.578  0.00  0.00     0.025 C 
ATOM     20  C   UNL d   1      -2.665   5.796   3.006  0.00  0.00     0.002 C 
ATOM     21  C   UNL d   1      -3.007   4.622   3.932  0.00  0.00     0.002 C 
ATOM     22  C   UNL d   1      -3.026   3.389   3.035  0.00  0.00     0.025 C 
ENDBRANCH  16  18
ENDBRANCH  14  16
ENDBRANCH  12  14
ENDBRANCH   1  12
TORSDOF 4
