REMARK  7 active torsions:
REMARK  status: ('A' for Active; 'I' for Inactive)
REMARK    1  A    between atoms: C_14  and  N_4 
REMARK    2  A    between atoms: C_26  and  N_11 
REMARK    3  A    between atoms: C_21  and  C_12 
REMARK    4  A    between atoms: C_15  and  C_14 
REMARK    5  A    between atoms: C_20  and  C_15 
REMARK    6  A    between atoms: C_31  and  C_26 
REMARK    7  A    between atoms: C_32  and  C_31 
ROOT
ATOM      1  N   UNL d   1      -2.582   3.385  -7.323  0.00  0.00    -0.191 NA
ATOM      2  C   UNL d   1      -2.109   3.471  -6.271  0.00  0.00     0.099 C 
ATOM      3  C   UNL d   1      -0.426   3.611  -2.388  0.00  0.00     0.011 A 
ATOM      4  C   UNL d   1      -1.806   3.490  -2.549  0.00  0.00     0.017 A 
ATOM      5  C   UNL d   1       0.388   3.787  -3.515  0.00  0.00     0.017 A 
ATOM      6  C   UNL d   1      -1.543   3.557  -4.957  0.00  0.00     0.044 A 
ATOM      7  C   UNL d   1      -0.169   3.750  -4.795  0.00  0.00     0.023 A 
ATOM      8  C   UNL d   1      -2.363   3.435  -3.830  0.00  0.00     0.023 A 
ENDROOT
BRANCH   3   9
ATOM      9  C   UNL d   1       0.218   3.549  -1.049  0.00  0.00     0.177 C 
ATOM     10  O   UNL d   1       1.226   4.225  -0.849  0.00  0.00    -0.291 OA
BRANCH   9  11
ATOM     11  C   UNL d   1      -0.357   2.614   0.015  0.00  0.00     0.215 C 
BRANCH  11  12
ATOM     12  N   UNL d   1      -0.232   1.185  -0.356  0.00  0.00    -0.319 N 
ATOM     13  C   UNL d   1       1.019   0.600  -0.295  0.00  0.00     0.136 A 
ATOM     14  N   UNL d   1       1.135  -0.779  -0.420  0.00  0.00    -0.203 N 
ATOM     15  C   UNL d   1       2.306   1.069  -0.136  0.00  0.00     0.082 A 
ATOM     16  C   UNL d   1       0.047  -1.662  -0.648  0.00  0.00     0.278 A 
ATOM     17  N   UNL d   1       2.425  -1.204  -0.294  0.00  0.00    -0.289 N 
ATOM     18  C   UNL d   1      -1.257  -0.982  -0.775  0.00  0.00     0.062 A 
ATOM     19  O   UNL d   1       0.189  -2.875  -0.726  0.00  0.00    -0.265 OA
ATOM     20  C   UNL d   1      -1.315   0.344  -0.617  0.00  0.00     0.118 A 
ATOM     21  C   UNL d   1      -2.564  -1.638  -1.040  0.00  0.00     0.173 C 
ATOM     22  C   UNL d   1      -2.768   0.661  -0.743  0.00  0.00     0.271 C 
ATOM     23  O   UNL d   1      -3.288   1.719  -0.431  0.00  0.00    -0.266 OA
ATOM     24  N   UNL d   1      -3.429  -0.483  -1.218  0.00  0.00    -0.342 N 
ATOM     25  C   UNL d   1       3.153  -0.079  -0.158  0.00  0.00     0.062 A 
ATOM     26  HN  UNL d   1       2.765  -2.166  -0.301  1.00  0.00     0.188 HD
BRANCH  24  27
ATOM     27  C   UNL d   1      -4.897  -0.517  -1.149  0.00  0.00     0.126 C 
BRANCH  27  28
ATOM     28  C   UNL d   1      -5.679  -1.693  -1.756  0.00  0.00     0.020 C 
BRANCH  28  29
ATOM     29  C   UNL d   1      -6.125  -1.657  -3.230  0.00  0.00    -0.003 C 
ATOM     30  C   UNL d   1      -6.948  -0.457  -3.685  0.00  0.00     0.005 C 
ENDBRANCH  28  29
ENDBRANCH  27  28
ENDBRANCH  24  27
BRANCH  25  31
ATOM     31  C   UNL d   1       4.623  -0.101  -0.067  0.00  0.00    -0.008 A 
ATOM     32  C   UNL d   1       5.395   0.973  -0.546  0.00  0.00     0.014 A 
ATOM     33  C   UNL d   1       6.790   0.940  -0.490  0.00  0.00     0.001 A 
ATOM     34  C   UNL d   1       7.447  -0.163   0.056  0.00  0.00     0.000 A 
ATOM     35  C   UNL d   1       6.698  -1.229   0.552  0.00  0.00     0.001 A 
ATOM     36  C   UNL d   1       5.300  -1.199   0.489  0.00  0.00     0.014 A 
ENDBRANCH  25  31
ENDBRANCH  11  12
ENDBRANCH   9  11
ENDBRANCH   3   9
TORSDOF 7
