REMARK  8 active torsions:
REMARK  status: ('A' for Active; 'I' for Inactive)
REMARK    1  A    between atoms: C_3  and  C_1 
REMARK    2  A    between atoms: O_21  and  C_3 
REMARK    3  A    between atoms: C_10  and  C_5 
REMARK    4  A    between atoms: N_19  and  C_5 
REMARK    5  A    between atoms: C_20  and  C_6 
REMARK    6  A    between atoms: N_8  and  O_18 
REMARK    7  A    between atoms: C_11  and  C_12 
REMARK    8  A    between atoms: O_18  and  C_20 
ROOT
ATOM      1  C   UNL d   1       0.795  -5.622  -0.132  0.00  0.00     0.108 C 
ATOM      2  N   UNL d   1      -0.165  -4.776   0.117  0.00  0.00    -0.255 N 
ATOM      3  HN  UNL d   1      -0.034  -3.795   0.365  1.00  0.00     0.195 HD
ENDROOT
BRANCH   1   4
ATOM      4  C   UNL d   1       2.217  -5.172  -0.031  0.00  0.00     0.004 A 
ATOM      5  C   UNL d   1       2.591  -4.144   0.834  0.00  0.00     0.015 A 
ATOM      6  C   UNL d   1       3.935  -3.752   0.917  0.00  0.00     0.009 A 
ATOM      7  C   UNL d   1       4.933  -4.361   0.128  0.00  0.00    -0.051 A 
ATOM      8  C   UNL d   1       4.530  -5.402  -0.725  0.00  0.00     0.009 A 
ATOM      9  C   UNL d   1       3.192  -5.800  -0.807  0.00  0.00     0.015 A 
BRANCH   7  10
ATOM     10  C   UNL d   1       6.390  -3.861   0.176  0.00  0.00    -0.024 C 
ATOM     11  C   UNL d   1       7.332  -4.615  -0.792  0.00  0.00     0.019 C 
ATOM     12  C   UNL d   1       6.431  -2.369  -0.222  0.00  0.00     0.019 C 
ATOM     13  C   UNL d   1       6.973  -4.019   1.595  0.00  0.00     0.019 C 
ENDBRANCH   7  10
ENDBRANCH   1   4
BRANCH   1  14
ATOM     14  N   UNL d   1       0.550  -6.930  -0.489  0.00  0.00    -0.286 NA
ATOM     15  H   UNL d   1      -0.412  -7.183  -0.282  0.00  0.00     0.125 HD
ATOM     16  H   UNL d   1       1.218  -7.612  -0.150  0.00  0.00     0.125 HD
ENDBRANCH   1  14
BRANCH   2  17
ATOM     17  O   UNL d   1      -1.413  -5.424  -0.009  0.00  0.00    -0.273 OA
BRANCH  17  18
ATOM     18  C   UNL d   1      -2.428  -4.468  -0.318  0.00  0.00     0.266 C 
BRANCH  18  19
ATOM     19  C   UNL d   1      -3.713  -5.213  -0.269  0.00  0.00     0.080 A 
ATOM     20  O   UNL d   1      -4.435  -5.312  -1.424  0.00  0.00    -0.307 OA
ATOM     21  C   UNL d   1      -5.550  -6.066  -1.149  0.00  0.00     0.150 A 
ATOM     22  C   UNL d   1      -5.534  -6.431   0.185  0.00  0.00     0.046 A 
ATOM     23  C   UNL d   1      -4.363  -5.880   0.751  0.00  0.00     0.038 A 
BRANCH  21  24
ATOM     24  C   UNL d   1      -6.516  -6.372  -2.179  0.00  0.00     0.316 C 
ATOM     25  O   UNL d   1      -7.529  -7.046  -2.014  0.00  0.00    -0.257 OA
BRANCH  24  26
ATOM     26  O   UNL d   1      -6.154  -5.813  -3.371  0.00  0.00    -0.321 OA
ATOM     27  C   UNL d   1      -7.064  -6.087  -4.437  0.00  0.00     0.213 C 
ENDBRANCH  24  26
ENDBRANCH  21  24
ENDBRANCH  18  19
ENDBRANCH  17  18
ENDBRANCH   2  17
TORSDOF 8
