REMARK  3 active torsions:
REMARK  status: ('A' for Active; 'I' for Inactive)
REMARK    1  A    between atoms: N_2  and  C_1 
REMARK       I    between atoms: C_5  and  N_2 
REMARK    2  A    between atoms: C_8  and  C_5 
REMARK    3  A    between atoms: C_9  and  C_8 
ROOT
ATOM      1  N   UNL d   1       2.693  -0.989  -0.248  0.00  0.00    -0.323 N 
ATOM      2  C   UNL d   1       3.444  -1.779  -1.066  0.00  0.00     0.245 C 
ATOM      3  O   UNL d   1       4.672  -1.681  -0.981  0.00  0.00    -0.268 OA
ATOM      4  H   UNL d   1       3.315  -0.306   0.165  0.00  0.00     0.169 HD
ENDROOT
BRANCH   1   5
ATOM      5  C   UNL d   1       1.313  -0.795  -0.014  0.00  0.00     0.046 C 
ATOM      6  C   UNL d   1       0.311  -1.760  -0.214  0.00  0.00    -0.034 C 
ATOM      7  C   UNL d   1      -1.043  -1.358  -0.244  0.00  0.00     0.015 C 
ATOM      8  C   UNL d   1       0.546  -3.248  -0.184  0.00  0.00     0.050 C 
ATOM      9  C   UNL d   1      -1.420  -0.044   0.030  0.00  0.00    -0.061 C 
ATOM     10  C   UNL d   1      -0.438   0.844   0.458  0.00  0.00     0.015 C 
ATOM     11  C   UNL d   1      -2.861   0.368  -0.010  0.00  0.00     0.048 C 
ATOM     12  C   UNL d   1       0.919   0.471   0.484  0.00  0.00    -0.034 C 
ATOM     13  C   UNL d   1       1.883   1.492   1.040  0.00  0.00     0.050 C 
ENDBRANCH   1   5
BRANCH   2  14
ATOM     14  C   UNL d   1       2.838  -2.674  -2.079  0.00  0.00     0.075 C 
BRANCH  14  15
ATOM     15  C   UNL d   1       3.575  -3.715  -2.503  0.00  0.00     0.024 C 
ATOM     16  C   UNL d   1       3.096  -4.710  -3.405  0.00  0.00     0.004 A 
ATOM     17  S   UNL d   1       4.213  -5.896  -3.987  0.00  0.00    -0.102 SA
ATOM     18  C   UNL d   1       1.833  -4.957  -3.923  0.00  0.00     0.019 A 
ATOM     19  C   UNL d   1       3.016  -6.709  -4.888  0.00  0.00     0.050 A 
ATOM     20  C   UNL d   1       1.784  -6.105  -4.767  0.00  0.00     0.008 A 
ENDBRANCH  14  15
ENDBRANCH   2  14
TORSDOF 3
