REMARK  4 active torsions:
REMARK  status: ('A' for Active; 'I' for Inactive)
REMARK    1  A    between atoms: N_2  and  S_1 
REMARK    2  A    between atoms: C_3  and  S_1 
REMARK       I    between atoms: C_5  and  N_4 
REMARK    3  A    between atoms: O_18  and  C_5 
REMARK    4  A    between atoms: C_21  and  O_18 
ROOT
ATOM      1  N   UNL d   1       0.479  -0.915  -1.130  0.00  0.00    -0.304 N 
ATOM      2  N   UNL d   1      -1.199  -3.135  -0.392  0.00  0.00    -0.325 N 
ATOM      3  C   UNL d   1      -1.984  -4.235  -0.111  0.00  0.00     0.362 C 
ATOM      4  C   UNL d   1      -1.002  -0.777  -1.199  0.00  0.00     0.155 C 
ATOM      5  C   UNL d   1       0.908  -2.310  -1.431  0.00  0.00     0.155 C 
ATOM      6  C   UNL d   1       0.252  -3.311  -0.475  0.00  0.00     0.148 C 
ATOM      7  C   UNL d   1      -1.695  -1.761  -0.241  0.00  0.00     0.148 C 
ATOM      8  O   UNL d   1      -1.591  -5.393  -0.178  0.00  0.00    -0.238 OA
ENDROOT
BRANCH   1   9
ATOM      9  S   UNL d   1       1.266  -0.114   0.136  0.00  0.00     0.261 S 
ATOM     10  O   UNL d   1       2.498  -0.803   0.443  0.00  0.00    -0.200 OA
ATOM     11  O   UNL d   1       0.304   0.211   1.167  0.00  0.00    -0.200 OA
BRANCH   9  12
ATOM     12  C   UNL d   1       1.711   1.411  -0.672  0.00  0.00     0.082 A 
ATOM     13  C   UNL d   1       2.945   1.497  -1.323  0.00  0.00     0.069 A 
ATOM     14  C   UNL d   1       3.293   2.683  -1.959  0.00  0.00     0.139 A 
ATOM     15  F   UNL d   1       4.475   2.751  -2.588  0.00  0.00    -0.204 F 
ATOM     16  C   UNL d   1       2.430   3.779  -1.946  0.00  0.00     0.072 A 
ATOM     17  C   UNL d   1       1.208   3.697  -1.273  0.00  0.00     0.028 A 
ATOM     18 CL   UNL d   1       2.852   5.238  -2.756  0.00  0.00    -0.081 Cl
ATOM     19  C   UNL d   1       0.848   2.512  -0.625  0.00  0.00     0.027 A 
ENDBRANCH   9  12
ENDBRANCH   1   9
BRANCH   3  20
ATOM     20  O   UNL d   1      -3.258  -3.881   0.207  0.00  0.00    -0.304 OA
BRANCH  20  21
ATOM     21  C   UNL d   1      -4.237  -4.925   0.154  0.00  0.00     0.176 C 
ATOM     22  C   UNL d   1      -4.828  -4.919  -1.243  0.00  0.00     0.034 C 
ENDBRANCH  20  21
ENDBRANCH   3  20
TORSDOF 4
