REMARK  2 active torsions:
REMARK  status: ('A' for Active; 'I' for Inactive)
REMARK    1  A    between atoms: C_9  and  C_1 
REMARK    2  A    between atoms: N_11  and  C_9 
ROOT
ATOM      1  C   UNL d   1       0.947  -0.077  -0.034  0.00  0.00     0.166 C 
ATOM      2  C   UNL d   1       0.375   1.116  -0.342  0.00  0.00     0.040 C 
ATOM      3  C   UNL d   1       0.377  -0.574   1.258  0.00  0.00     0.234 C 
ATOM      4  N   UNL d   1       0.126   0.393   2.204  0.00  0.00    -0.351 N 
ATOM      5  C   UNL d   1       0.689   2.281   0.615  0.00  0.00     0.059 A 
ATOM      6  C   UNL d   1       0.509   1.804   2.085  0.00  0.00     0.118 A 
ATOM      7  N   UNL d   1       2.994   3.075   1.243  0.00  0.00    -0.373 N 
ATOM      8  HN  UNL d   1       3.861   3.554   0.998  1.00  0.00     0.164 HD
ATOM      9  C   UNL d   1       2.064   2.917   0.353  0.00  0.00    -0.011 A 
ATOM     10  C   UNL d   1       1.702   2.006   2.950  0.00  0.00     0.016 A 
ATOM     11  C   UNL d   1       2.810   2.601   2.505  0.00  0.00     0.085 A 
ATOM     12  O   UNL d   1       0.135  -1.759   1.448  0.00  0.00    -0.272 OA
ATOM     13  C   UNL d   1       2.377   3.428  -1.036  0.00  0.00     0.064 C 
ATOM     14  H   UNL d   1      -0.218   0.041   3.091  0.00  0.00     0.163 HD
ENDROOT
BRANCH   1  15
ATOM     15  C   UNL d   1       2.466  -0.077  -0.034  0.00  0.00    -0.063 C 
BRANCH  15  16
ATOM     16  N   UNL d   1       3.728  -0.077  -0.034  0.00  0.00    -0.369 N 
ATOM     17  HN2 UNL d   1       2.708  -0.077  -0.034  1.00  0.00     0.165 HD
ATOM     18  HN1 UNL d   1       4.748  -0.077  -0.034  1.00  0.00     0.165 HD
ENDBRANCH  15  16
ENDBRANCH   1  15
TORSDOF 2
