REMARK  5 active torsions:
REMARK  status: ('A' for Active; 'I' for Inactive)
REMARK    1  A    between atoms: C_7  and  C_3 
REMARK    2  A    between atoms: C_12  and  N_4 
REMARK       I    between atoms: N_11  and  C_7 
REMARK       I    between atoms: C_8  and  N_14 
REMARK       I    between atoms: N_10  and  C_8 
REMARK    3  A    between atoms: C_9  and  N_10 
REMARK    4  A    between atoms: N_14  and  N_11 
REMARK    5  A    between atoms: O_23  and  C_15 
ROOT
ATOM      1  C   UNL d   1      -0.726  -2.461   0.288  0.00  0.00     0.288 C 
ATOM      2  N   UNL d   1       0.308  -3.313   0.625  0.00  0.00    -0.261 N 
ATOM      3  O   UNL d   1      -1.881  -2.865   0.146  0.00  0.00    -0.264 OA
ATOM      4  H   UNL d   1       1.244  -2.952   0.809  0.00  0.00     0.190 HD
ENDROOT
BRANCH   2   5
ATOM      5  N   UNL d   1      -0.003  -4.630   1.026  0.00  0.00    -0.248 N 
ATOM      6  C   UNL d   1       1.053  -5.484   1.302  0.00  0.00     0.339 C 
ATOM      7  N   UNL d   1       0.623  -6.770   1.572  0.00  0.00    -0.305 N 
ATOM      8  O   UNL d   1       2.210  -5.077   1.298  0.00  0.00    -0.245 OA
ATOM      9  H   UNL d   1      -0.365  -6.905   1.477  0.00  0.00     0.171 HD
ATOM     10  H   UNL d   1      -0.882  -4.982   0.663  0.00  0.00     0.192 HD
BRANCH   7  11
ATOM     11  C   UNL d   1       1.425  -7.901   1.879  0.00  0.00     0.071 A 
ATOM     12  C   UNL d   1       2.763  -7.709   2.280  0.00  0.00     0.056 A 
ATOM     13  C   UNL d   1       3.619  -8.781   2.539  0.00  0.00     0.036 A 
ATOM     14 CL   UNL d   1       5.246  -8.488   3.015  0.00  0.00    -0.084 Cl
ATOM     15  C   UNL d   1       3.163 -10.081   2.418  0.00  0.00     0.026 A 
ATOM     16  C   UNL d   1       1.834 -10.295   2.067  0.00  0.00     0.041 A 
ATOM     17  C   UNL d   1       0.945  -9.229   1.807  0.00  0.00     0.095 A 
BRANCH  17  18
ATOM     18  O   UNL d   1      -0.282  -9.738   1.488  0.00  0.00    -0.354 OA
ATOM     19  C   UNL d   1      -1.381  -8.932   1.126  0.00  0.00     0.210 C 
ENDBRANCH  17  18
ENDBRANCH   7  11
ENDBRANCH   2   5
BRANCH   1  20
ATOM     20  C   UNL d   1      -0.346  -1.048   0.140  0.00  0.00     0.119 A 
ATOM     21  N   UNL d   1       0.921  -0.603   0.227  0.00  0.00    -0.292 N 
ATOM     22  N   UNL d   1       0.839   0.749   0.076  0.00  0.00    -0.287 N 
ATOM     23  HN  UNL d   1       1.763  -1.159   0.374  1.00  0.00     0.187 HD
ATOM     24  C   UNL d   1      -0.471   1.173  -0.056  0.00  0.00     0.028 A 
ATOM     25  C   UNL d   1      -0.973   2.569  -0.141  0.00  0.00     0.070 C 
ATOM     26  C   UNL d   1      -1.234   0.025  -0.066  0.00  0.00     0.063 A 
BRANCH  22  27
ATOM     27  C   UNL d   1       2.087   1.547   0.112  0.00  0.00     0.043 C 
ATOM     28  C   UNL d   1       3.344   0.641   0.213  0.00  0.00     0.039 C 
ATOM     29  C   UNL d   1       2.257   2.373  -1.181  0.00  0.00     0.039 C 
ATOM     30  C   UNL d   1       2.105   2.464   1.351  0.00  0.00     0.039 C 
ENDBRANCH  22  27
ENDBRANCH   1  20
TORSDOF 5
