REMARK  4 active torsions:
REMARK  status: ('A' for Active; 'I' for Inactive)
REMARK    1  A    between atoms: C_6  and  N_1 
REMARK    2  A    between atoms: C_2  and  C_5 
REMARK    3  A    between atoms: C_3  and  C_4 
REMARK    4  A    between atoms: C_10  and  C_8 
ROOT
ATOM      1  C   UNL d   1      -1.735  -4.493   2.575  0.00  0.00     0.049 A 
ATOM      2  C   UNL d   1      -0.332  -3.898   4.488  0.00  0.00     0.049 A 
ATOM      3  C   UNL d   1      -1.415  -4.605   3.939  0.00  0.00     0.032 A 
ATOM      4  C   UNL d   1       0.130  -2.952   2.291  0.00  0.00    -0.033 A 
ATOM      5  C   UNL d   1      -0.950  -3.664   1.758  0.00  0.00     0.027 A 
ATOM      6  C   UNL d   1       0.439  -3.078   3.649  0.00  0.00     0.027 A 
ENDROOT
BRANCH   4   7
ATOM      7  C   UNL d   1       0.895  -2.031   1.453  0.00  0.00     0.035 C 
ATOM      8  C   UNL d   1       0.529  -0.744   1.387  0.00  0.00     0.168 C 
BRANCH   8   9
ATOM      9  N   UNL d   1       1.291   0.182   0.585  0.00  0.00    -0.127 N 
ATOM     10  O   UNL d   1       0.876   1.348   0.577  0.00  0.00    -0.532 OA
ATOM     11  O   UNL d   1       2.285  -0.229  -0.025  0.00  0.00    -0.532 OA
ENDBRANCH   8   9
ENDBRANCH   4   7
BRANCH   1  12
ATOM     12  C   UNL d   1      -2.919  -5.225   1.986  0.00  0.00     0.417 C 
ATOM     13  F   UNL d   1      -3.611  -5.961   2.898  0.00  0.00    -0.166 F 
ATOM     14  F   UNL d   1      -3.823  -4.373   1.429  0.00  0.00    -0.166 F 
ATOM     15  F   UNL d   1      -2.558  -6.089   0.999  0.00  0.00    -0.166 F 
ENDBRANCH   1  12
BRANCH   2  16
ATOM     16  C   UNL d   1      -0.001  -3.985   5.960  0.00  0.00     0.417 C 
ATOM     17  F   UNL d   1      -0.868  -4.759   6.667  0.00  0.00    -0.166 F 
ATOM     18  F   UNL d   1       1.238  -4.501   6.184  0.00  0.00    -0.166 F 
ATOM     19  F   UNL d   1      -0.014  -2.763   6.560  0.00  0.00    -0.166 F 
ENDBRANCH   2  16
TORSDOF 4
