REMARK  6 active torsions:
REMARK  status: ('A' for Active; 'I' for Inactive)
REMARK    1  A    between atoms: C_3  and  C_1 
REMARK    2  A    between atoms: N_4  and  C_2 
REMARK    3  A    between atoms: O_7  and  C_3 
REMARK       I    between atoms: C_5  and  N_4 
REMARK    4  A    between atoms: C_11  and  O_7 
REMARK    5  A    between atoms: C_8  and  C_11 
REMARK    6  A    between atoms: C_9  and  C_8 
ROOT
ATOM      1  C   UNL d   1       2.071   2.667  -0.154  0.00  0.00     0.296 C 
ATOM      2  O   UNL d   1       1.519   3.583   0.435  0.00  0.00    -0.259 OA
ENDROOT
BRANCH   1   3
ATOM      3  C   UNL d   1       1.770   1.230   0.064  0.00  0.00     0.067 A 
ATOM      4  C   UNL d   1       0.456   0.734   0.198  0.00  0.00     0.051 A 
ATOM      5  C   UNL d   1       0.279  -0.607   0.589  0.00  0.00     0.032 A 
ATOM      6  C   UNL d   1       1.368  -1.454   0.792  0.00  0.00     0.026 A 
ATOM      7  C   UNL d   1       2.657  -0.965   0.623  0.00  0.00     0.035 A 
ATOM      8  C   UNL d   1       2.866   0.368   0.271  0.00  0.00     0.044 A 
ATOM      9 CL   UNL d   1       3.998  -2.013   0.878  0.00  0.00    -0.084 Cl
BRANCH   4  10
ATOM     10  N   UNL d   1      -0.753   1.438  -0.010  0.00  0.00    -0.327 N 
ATOM     11  C   UNL d   1      -0.979   2.487  -0.878  0.00  0.00     0.218 C 
ATOM     12  O   UNL d   1      -0.213   2.883  -1.749  0.00  0.00    -0.274 OA
ATOM     13  C   UNL d   1      -2.380   3.037  -0.748  0.00  0.00     0.117 C 
ATOM     14  H   UNL d   1      -1.592   0.986   0.334  0.00  0.00     0.169 HD
ENDBRANCH   4  10
ENDBRANCH   1   3
BRANCH   1  15
ATOM     15  O   UNL d   1       2.978   2.773  -1.157  0.00  0.00    -0.310 OA
BRANCH  15  16
ATOM     16  C   UNL d   1       2.814   3.926  -1.971  0.00  0.00     0.263 C 
BRANCH  16  17
ATOM     17  C   UNL d   1       3.747   5.133  -1.818  0.00  0.00     0.183 C 
ATOM     18  O   UNL d   1       4.675   5.178  -1.016  0.00  0.00    -0.290 OA
BRANCH  17  19
ATOM     19  C   UNL d   1       3.471   6.306  -2.719  0.00  0.00     0.012 A 
ATOM     20  C   UNL d   1       3.953   7.575  -2.371  0.00  0.00     0.016 A 
ATOM     21  C   UNL d   1       3.677   8.685  -3.182  0.00  0.00     0.020 A 
ATOM     22  C   UNL d   1       2.930   8.526  -4.349  0.00  0.00     0.011 A 
ATOM     23  C   UNL d   1       2.460   7.270  -4.716  0.00  0.00     0.020 A 
ATOM     24 BR   UNL d   1       2.550  10.020  -5.443  0.00  0.00    -0.051 Br
ATOM     25  C   UNL d   1       2.728   6.164  -3.903  0.00  0.00     0.016 A 
ENDBRANCH  17  19
ENDBRANCH  16  17
ENDBRANCH  15  16
ENDBRANCH   1  15
TORSDOF 6
