REMARK  8 active torsions:
REMARK  status: ('A' for Active; 'I' for Inactive)
REMARK    1  A    between atoms: C_14  and  N_2 
REMARK    2  A    between atoms: C_24  and  C_8 
REMARK    3  A    between atoms: C_23  and  C_9 
REMARK    4  A    between atoms: C_25  and  N_10 
REMARK    5  A    between atoms: C_11  and  C_21 
REMARK    6  A    between atoms: C_20  and  C_12 
REMARK    7  A    between atoms: C_16  and  C_14 
REMARK       I    between atoms: N_26  and  C_16 
REMARK    8  A    between atoms: N_18  and  N_26 
ROOT
ATOM      1  C   UNL d   1       0.662  -0.482  -1.980  0.00  0.00     0.127 C 
ATOM      2  N   UNL d   1      -1.461  -1.353  -1.166  0.00  0.00    -0.247 N 
ATOM      3  N   UNL d   1      -1.832  -1.698  -2.436  0.00  0.00    -0.294 N 
ATOM      4  HN  UNL d   1      -2.705  -2.198  -2.608  1.00  0.00     0.187 HD
ATOM      5  C   UNL d   1      -0.341  -0.593  -0.891  0.00  0.00     0.284 C 
ATOM      6  C   UNL d   1       0.351  -0.810  -3.253  0.00  0.00     0.029 C 
ATOM      7  C   UNL d   1      -1.046  -1.374  -3.421  0.00  0.00     0.071 C 
ATOM      8  C   UNL d   1       1.956  -0.042  -1.572  0.00  0.00     0.106 C 
ATOM      9  N   UNL d   1       3.019   0.311  -1.270  0.00  0.00    -0.191 NA
ATOM     10  O   UNL d   1      -0.143  -0.072   0.204  0.00  0.00    -0.265 OA
ENDROOT
BRANCH   6  11
ATOM     11  C   UNL d   1       1.315  -0.645  -4.388  0.00  0.00    -0.022 A 
ATOM     12  C   UNL d   1       1.508  -1.645  -5.354  0.00  0.00     0.012 A 
ATOM     13  C   UNL d   1       2.258  -1.389  -6.509  0.00  0.00     0.001 A 
ATOM     14  C   UNL d   1       2.884  -0.158  -6.683  0.00  0.00     0.000 A 
ATOM     15  C   UNL d   1       2.767   0.818  -5.701  0.00  0.00     0.001 A 
ATOM     16  C   UNL d   1       1.976   0.582  -4.575  0.00  0.00     0.012 A 
ENDBRANCH   6  11
BRANCH   2  17
ATOM     17  C   UNL d   1      -2.213  -1.936  -0.057  0.00  0.00     0.257 C 
BRANCH  17  18
ATOM     18  C   UNL d   1      -3.718  -1.706   0.029  0.00  0.00     0.256 C 
ATOM     19  N   UNL d   1      -4.139  -0.389  -0.168  0.00  0.00    -0.269 N 
ATOM     20  H   UNL d   1      -3.421   0.330  -0.210  0.00  0.00     0.190 HD
ATOM     21  O   UNL d   1      -4.445  -2.617   0.436  0.00  0.00    -0.270 OA
BRANCH  19  22
ATOM     22  N   UNL d   1      -5.392   0.098   0.200  0.00  0.00    -0.308 N 
ATOM     23  C   UNL d   1      -6.394  -0.722   0.113  0.00  0.00     0.122 C 
ATOM     24  HN  UNL d   1      -5.517   1.058   0.523  1.00  0.00     0.186 HD
BRANCH  23  25
ATOM     25  C   UNL d   1      -7.709  -0.373   0.610  0.00  0.00     0.027 C 
ATOM     26  C   UNL d   1      -8.845  -1.229   0.757  0.00  0.00     0.072 C 
ATOM     27  N   UNL d   1      -9.846  -0.598   1.390  0.00  0.00    -0.292 N 
ATOM     28  N   UNL d   1      -9.319   0.593   1.777  0.00  0.00    -0.266 N 
ATOM     29  HN  UNL d   1     -10.795  -0.938   1.546  1.00  0.00     0.187 HD
ATOM     30  C   UNL d   1      -8.113   0.828   1.153  0.00  0.00     0.132 C 
BRANCH  26  31
ATOM     31  C   UNL d   1      -8.918  -2.659   0.440  0.00  0.00    -0.007 A 
ATOM     32  C   UNL d   1      -8.373  -3.163  -0.750  0.00  0.00     0.015 A 
ATOM     33  C   UNL d   1      -8.173  -4.537  -0.910  0.00  0.00     0.024 A 
ATOM     34  C   UNL d   1      -8.573  -5.414   0.094  0.00  0.00     0.034 A 
ATOM     35  C   UNL d   1      -9.214  -4.935   1.234  0.00  0.00     0.024 A 
ATOM     36 CL   UNL d   1      -8.246  -7.096  -0.063  0.00  0.00    -0.084 Cl
ATOM     37  C   UNL d   1      -9.390  -3.558   1.406  0.00  0.00     0.015 A 
ENDBRANCH  26  31
BRANCH  28  38
ATOM     38  C   UNL d   1      -9.922   1.362   2.816  0.00  0.00     0.056 A 
ATOM     39  C   UNL d   1      -9.269   2.483   3.348  0.00  0.00     0.031 A 
ATOM     40  C   UNL d   1      -9.792   3.138   4.466  0.00  0.00     0.002 A 
ATOM     41  C   UNL d   1     -10.974   2.691   5.052  0.00  0.00     0.000 A 
ATOM     42  C   UNL d   1     -11.648   1.598   4.511  0.00  0.00     0.002 A 
ATOM     43  C   UNL d   1     -11.127   0.934   3.394  0.00  0.00     0.031 A 
ENDBRANCH  28  38
ENDBRANCH  23  25
ENDBRANCH  19  22
ENDBRANCH  17  18
ENDBRANCH   2  17
BRANCH   7  44
ATOM     44  C   UNL d   1      -1.574  -1.601  -4.802  0.00  0.00    -0.007 A 
ATOM     45  C   UNL d   1      -1.459  -0.616  -5.791  0.00  0.00     0.014 A 
ATOM     46  C   UNL d   1      -1.913  -0.865  -7.087  0.00  0.00     0.001 A 
ATOM     47  C   UNL d   1      -2.526  -2.074  -7.387  0.00  0.00     0.000 A 
ATOM     48  C   UNL d   1      -2.700  -3.049  -6.388  0.00  0.00     0.001 A 
ATOM     49  C   UNL d   1      -2.221  -2.809  -5.099  0.00  0.00     0.014 A 
ENDBRANCH   7  44
TORSDOF 8
