REMARK  0 active torsions:
REMARK  status: ('A' for Active; 'I' for Inactive)
ROOT
ATOM      1  C   UNL d   1       2.510   0.027  -0.032  0.00  0.00     0.147 A 
ATOM      2  N   UNL d   1       1.819   0.243   1.065  0.00  0.00    -0.334 N 
ATOM      3  HN  UNL d   1       2.236   0.503   1.959  1.00  0.00     0.168 HD
ATOM      4  C   UNL d   1       0.455   0.075   0.865  0.00  0.00     0.073 A 
ATOM      5  S   UNL d   1       1.522  -0.409  -1.387  0.00  0.00    -0.052 SA
ATOM      6  C   UNL d   1       0.101  -0.270  -0.439  0.00  0.00     0.038 A 
ATOM      7  N   UNL d   1       3.864   0.184  -0.115  0.00  0.00    -0.361 N 
ATOM      8  C   UNL d   1      -0.596   0.218   1.798  0.00  0.00     0.063 A 
ATOM      9  C   UNL d   1      -1.237  -0.457  -0.832  0.00  0.00     0.045 A 
ATOM     10  C   UNL d   1      -1.932   0.038   1.442  0.00  0.00     0.050 A 
ATOM     11  C   UNL d   1      -2.237  -0.292   0.131  0.00  0.00     0.037 A 
ATOM     12 CL   UNL d   1      -0.145   0.627   3.397  0.00  0.00    -0.082 Cl
ATOM     13 CL   UNL d   1      -3.884  -0.504  -0.329  0.00  0.00    -0.084 Cl
ATOM     14  C   UNL d   1       4.686  -0.487  -1.118  0.00  0.00     0.125 C 
ATOM     15  C   UNL d   1       4.594   0.744   1.024  0.00  0.00     0.125 C 
ATOM     16  C   UNL d   1       5.492  -1.608  -0.461  0.00  0.00     0.020 C 
ATOM     17  C   UNL d   1       5.421  -0.342   1.712  0.00  0.00     0.020 C 
ATOM     18  C   UNL d   1       6.314  -1.076   0.712  0.00  0.00     0.003 C 
ENDROOT
TORSDOF 0
