REMARK  8 active torsions:
REMARK  status: ('A' for Active; 'I' for Inactive)
REMARK    1  A    between atoms: C_1  and  N_8 
REMARK    2  A    between atoms: C_2  and  O_11 
REMARK    3  A    between atoms: C_3  and  O_12 
REMARK    4  A    between atoms: C_5  and  O_14 
REMARK    5  A    between atoms: C_6  and  C_15 
REMARK    6  A    between atoms: C_7  and  N_9 
REMARK    7  A    between atoms: N_9  and  N_8 
REMARK    8  A    between atoms: O_16  and  C_15 
ROOT
ATOM      1  C   UNL d   1       1.107   1.414  -0.058  0.00  0.00     0.244 C 
ATOM      2  C   UNL d   1       1.178  -0.097   0.290  0.00  0.00     0.194 C 
ATOM      3  C   UNL d   1      -0.053  -0.796  -0.302  0.00  0.00     0.182 C 
ATOM      4  O   UNL d   1      -0.116   1.970   0.427  0.00  0.00    -0.357 OA
ATOM      5  C   UNL d   1      -1.362  -0.103   0.092  0.00  0.00     0.180 C 
ATOM      6  C   UNL d   1      -1.272   1.399  -0.203  0.00  0.00     0.178 C 
ENDROOT
BRANCH   1   7
ATOM      7  N   UNL d   1       2.237   2.155   0.527  0.00  0.00    -0.207 NA
ATOM      8  H   UNL d   1       2.156   2.041   1.541  0.00  0.00     0.149 HD
BRANCH   7   9
ATOM      9  N   UNL d   1       2.125   3.550   0.254  0.00  0.00    -0.296 N 
ATOM     10  H   UNL d   1       1.604   3.854  -0.566  0.00  0.00     0.183 HD
BRANCH   9  11
ATOM     11  C   UNL d   1       2.232   4.470   1.261  0.00  0.00     0.179 C 
ATOM     12  S   UNL d   1       1.635   6.009   1.114  0.00  0.00    -0.040 SA
ATOM     13  N   UNL d   1       2.825   4.039   2.403  0.00  0.00    -0.375 N 
ATOM     14  H   UNL d   1       3.566   3.354   2.276  0.00  0.00     0.158 HD
ATOM     15  H   UNL d   1       3.009   4.749   3.100  0.00  0.00     0.158 HD
ENDBRANCH   9  11
ENDBRANCH   7   9
ENDBRANCH   1   7
BRANCH   2  16
ATOM     16  O   UNL d   1       2.374  -0.719  -0.201  0.00  0.00    -0.389 OA
ATOM     17  H   UNL d   1       2.318  -0.788  -1.169  0.00  0.00     0.210 HD
ENDBRANCH   2  16
BRANCH   3  18
ATOM     18  O   UNL d   1      -0.133  -2.179   0.083  0.00  0.00    -0.390 OA
ATOM     19  H   UNL d   1       0.029  -2.239   1.043  0.00  0.00     0.210 HD
ENDBRANCH   3  18
BRANCH   6  20
ATOM     20  C   UNL d   1      -2.510   2.159   0.292  0.00  0.00     0.198 C 
BRANCH  20  21
ATOM     21  O   UNL d   1      -2.621   2.097   1.714  0.00  0.00    -0.398 OA
ATOM     22  H   UNL d   1      -1.857   2.592   2.063  0.00  0.00     0.209 HD
ENDBRANCH  20  21
ENDBRANCH   6  20
BRANCH   5  23
ATOM     23  O   UNL d   1      -2.424  -0.690  -0.667  0.00  0.00    -0.390 OA
ATOM     24  H   UNL d   1      -2.227  -1.647  -0.720  0.00  0.00     0.210 HD
ENDBRANCH   5  23
TORSDOF 8
