REMARK  12 active torsions:
REMARK  status: ('A' for Active; 'I' for Inactive)
REMARK    1  A    between atoms: C_4  and  C_1 
REMARK    2  A    between atoms: C_5  and  C_2 
REMARK    3  A    between atoms: S_3  and  C_6 
REMARK    4  A    between atoms: C_7  and  S_3 
REMARK    5  A    between atoms: O_8  and  C_4 
REMARK    6  A    between atoms: O_9  and  C_5 
REMARK    7  A    between atoms: C_16  and  O_8 
REMARK    8  A    between atoms: C_17  and  O_9 
REMARK    9  A    between atoms: C_10  and  C_16 
REMARK   10  A    between atoms: C_12  and  C_10 
REMARK   11  A    between atoms: C_11  and  C_17 
REMARK   12  A    between atoms: C_13  and  C_11 
ROOT
ATOM      1  S   UNL d   1       1.055  -2.972  -0.202  0.00  0.00    -0.088 SA
ENDROOT
BRANCH   1   2
ATOM      2  C   UNL d   1       0.659  -1.222  -0.216  0.00  0.00     0.021 A 
ATOM      3  C   UNL d   1       0.257  -0.433   0.889  0.00  0.00     0.056 A 
ATOM      4  C   UNL d   1      -0.145   0.900   0.659  0.00  0.00     0.019 A 
ATOM      5  C   UNL d   1      -0.158   1.442  -0.629  0.00  0.00     0.001 A 
ATOM      6  C   UNL d   1       0.237   0.666  -1.709  0.00  0.00     0.001 A 
ATOM      7  C   UNL d   1       0.636  -0.653  -1.503  0.00  0.00     0.020 A 
BRANCH   3   8
ATOM      8  C   UNL d   1       0.203  -0.972   2.290  0.00  0.00     0.295 C 
ATOM      9  O   UNL d   1       0.462  -2.121   2.601  0.00  0.00    -0.259 OA
BRANCH   8  10
ATOM     10  O   UNL d   1      -0.204  -0.026   3.184  0.00  0.00    -0.310 OA
BRANCH  10  11
ATOM     11  C   UNL d   1      -0.366  -0.488   4.529  0.00  0.00     0.263 C 
BRANCH  11  12
ATOM     12  C   UNL d   1       0.403   0.321   5.571  0.00  0.00     0.183 C 
ATOM     13  O   UNL d   1       1.042   1.333   5.293  0.00  0.00    -0.290 OA
BRANCH  12  14
ATOM     14  C   UNL d   1       0.364  -0.166   6.991  0.00  0.00     0.012 A 
ATOM     15  C   UNL d   1      -0.392  -1.284   7.379  0.00  0.00     0.016 A 
ATOM     16  C   UNL d   1      -0.388  -1.718   8.709  0.00  0.00     0.020 A 
ATOM     17  C   UNL d   1       0.367  -1.035   9.658  0.00  0.00     0.011 A 
ATOM     18  C   UNL d   1       1.118   0.080   9.291  0.00  0.00     0.020 A 
ATOM     19 BR   UNL d   1       0.372  -1.628  11.452  0.00  0.00    -0.051 Br
ATOM     20  C   UNL d   1       1.116   0.514   7.960  0.00  0.00     0.016 A 
ENDBRANCH  12  14
ENDBRANCH  11  12
ENDBRANCH  10  11
ENDBRANCH   8  10
ENDBRANCH   3   8
ENDBRANCH   1   2
BRANCH   1  21
ATOM     21  C   UNL d   1       2.839  -2.990   0.011  0.00  0.00     0.021 A 
ATOM     22  C   UNL d   1       3.814  -2.953  -1.016  0.00  0.00     0.056 A 
ATOM     23  C   UNL d   1       5.174  -3.096  -0.662  0.00  0.00     0.019 A 
ATOM     24  C   UNL d   1       5.557  -3.299   0.671  0.00  0.00     0.001 A 
ATOM     25  C   UNL d   1       4.598  -3.342   1.673  0.00  0.00     0.001 A 
ATOM     26  C   UNL d   1       3.255  -3.185   1.343  0.00  0.00     0.020 A 
BRANCH  22  27
ATOM     27  C   UNL d   1       3.441  -2.918  -2.469  0.00  0.00     0.295 C 
ATOM     28  O   UNL d   1       2.389  -3.381  -2.893  0.00  0.00    -0.259 OA
BRANCH  27  29
ATOM     29  O   UNL d   1       4.403  -2.379  -3.272  0.00  0.00    -0.310 OA
BRANCH  29  30
ATOM     30  C   UNL d   1       4.143  -2.447  -4.692  0.00  0.00     0.263 C 
BRANCH  30  31
ATOM     31  C   UNL d   1       4.163  -1.102  -5.429  0.00  0.00     0.183 C 
ATOM     32  O   UNL d   1       4.390  -0.039  -4.851  0.00  0.00    -0.290 OA
BRANCH  31  33
ATOM     33  C   UNL d   1       3.892  -1.082  -6.913  0.00  0.00     0.012 A 
ATOM     34  C   UNL d   1       3.662  -2.245  -7.665  0.00  0.00     0.016 A 
ATOM     35  C   UNL d   1       3.405  -2.162  -9.043  0.00  0.00     0.020 A 
ATOM     36  C   UNL d   1       3.380  -0.922  -9.678  0.00  0.00     0.011 A 
ATOM     37  C   UNL d   1       3.610   0.241  -8.950  0.00  0.00     0.020 A 
ATOM     38 BR   UNL d   1       3.028  -0.818 -11.533  0.00  0.00    -0.051 Br
ATOM     39  C   UNL d   1       3.865   0.159  -7.574  0.00  0.00     0.016 A 
ENDBRANCH  31  33
ENDBRANCH  30  31
ENDBRANCH  29  30
ENDBRANCH  27  29
ENDBRANCH  22  27
ENDBRANCH   1  21
TORSDOF 12
