REMARK  4 active torsions:
REMARK  status: ('A' for Active; 'I' for Inactive)
REMARK    1  A    between atoms: S_9  and  C_3 
REMARK    2  A    between atoms: C_10  and  C_4 
REMARK    3  A    between atoms: C_14  and  S_9 
REMARK    4  A    between atoms: C_15  and  C_14 
ROOT
ATOM      1  N   UNL d   1      -1.760   1.243   0.106  0.00  0.00    -0.334 N 
ATOM      2  HN  UNL d   1      -2.333   2.085   0.136  1.00  0.00     0.168 HD
ATOM      3  C   UNL d   1      -0.413   1.321   0.090  0.00  0.00     0.095 A 
ATOM      4  C   UNL d   1      -2.325   0.023   0.081  0.00  0.00     0.133 A 
ATOM      5  N   UNL d   1      -1.616  -1.124   0.046  0.00  0.00    -0.343 N 
ATOM      6  HN  UNL d   1      -2.081  -2.032   0.037  1.00  0.00     0.167 HD
ATOM      7  C   UNL d   1       0.399   0.194   0.038  0.00  0.00     0.089 A 
ATOM      8  C   UNL d   1      -0.264  -1.027   0.023  0.00  0.00     0.031 A 
ATOM      9 CL   UNL d   1       2.124   0.272   0.009  0.00  0.00    -0.079 Cl
ATOM     10  C   UNL d   1       0.470  -2.337  -0.010  0.00  0.00     0.070 C 
ENDROOT
BRANCH   3  11
ATOM     11  S   UNL d   1       0.251   2.991   0.116  0.00  0.00    -0.106 SA
BRANCH  11  12
ATOM     12  C   UNL d   1      -1.152   3.873   0.875  0.00  0.00     0.119 C 
BRANCH  12  13
ATOM     13  C   UNL d   1      -0.877   5.346   1.056  0.00  0.00    -0.049 A 
ATOM     14  C   UNL d   1      -1.337   6.276   0.111  0.00  0.00     0.008 A 
ATOM     15  C   UNL d   1      -1.129   7.644   0.298  0.00  0.00     0.001 A 
ATOM     16  C   UNL d   1      -0.449   8.098   1.425  0.00  0.00     0.000 A 
ATOM     17  C   UNL d   1       0.031   7.184   2.363  0.00  0.00     0.001 A 
ATOM     18  C   UNL d   1      -0.178   5.816   2.179  0.00  0.00     0.008 A 
ENDBRANCH  12  13
ENDBRANCH  11  12
ENDBRANCH   3  11
BRANCH   4  19
ATOM     19  C   UNL d   1      -3.807  -0.067   0.111  0.00  0.00     0.076 A 
ATOM     20  N   UNL d   1      -4.504   1.106   0.077  0.00  0.00    -0.363 N 
ATOM     21  C   UNL d   1      -5.853   1.049   0.110  0.00  0.00     0.088 A 
ATOM     22  HN  UNL d   1      -4.019   2.002   0.027  1.00  0.00     0.165 HD
ATOM     23  C   UNL d   1      -6.571  -0.131   0.183  0.00  0.00     0.017 A 
ATOM     24  C   UNL d   1      -5.864  -1.324   0.219  0.00  0.00     0.004 A 
ATOM     25  C   UNL d   1      -4.471  -1.296   0.179  0.00  0.00     0.033 A 
ENDBRANCH   4  19
TORSDOF 4
