REMARK  4 active torsions:
REMARK  status: ('A' for Active; 'I' for Inactive)
REMARK    1  A    between atoms: C_12  and  N_1 
REMARK    2  A    between atoms: C_9  and  C_3 
REMARK    3  A    between atoms: N_7  and  C_6 
REMARK    4  A    between atoms: C_23  and  C_18 
ROOT
ATOM      1  N   UNL d   1       0.898   0.648   0.023  0.00  0.00    -0.262 N 
ATOM      2  C   UNL d   1      -0.292   1.359   0.096  0.00  0.00     0.153 A 
ATOM      3  C   UNL d   1      -0.625  -1.145   0.222  0.00  0.00     0.077 A 
ATOM      4  C   UNL d   1       0.799  -0.740   0.054  0.00  0.00     0.271 A 
ATOM      5  S   UNL d   1      -1.641   0.238   0.267  0.00  0.00    -0.054 SA
ATOM      6  S   UNL d   1      -0.566   3.004  -0.044  0.00  0.00    -0.052 SA
ATOM      7  O   UNL d   1       1.709  -1.561  -0.001  0.00  0.00    -0.266 OA
ENDROOT
BRANCH   1   8
ATOM      8  C   UNL d   1       2.180   1.259  -0.076  0.00  0.00     0.044 A 
ATOM      9  C   UNL d   1       3.052   0.907  -1.113  0.00  0.00     0.031 A 
ATOM     10  C   UNL d   1       4.322   1.488  -1.200  0.00  0.00     0.010 A 
ATOM     11  C   UNL d   1       4.768   2.394  -0.228  0.00  0.00    -0.055 A 
ATOM     12  C   UNL d   1       3.890   2.743   0.808  0.00  0.00     0.010 A 
ATOM     13  C   UNL d   1       2.608   2.187   0.880  0.00  0.00     0.031 A 
BRANCH  11  14
ATOM     14  C   UNL d   1       6.178   2.961  -0.249  0.00  0.00     0.010 C 
ATOM     15  C   UNL d   1       7.225   1.845  -0.170  0.00  0.00     0.015 C 
ATOM     16  C   UNL d   1       6.431   3.851  -1.468  0.00  0.00     0.015 C 
ENDBRANCH  11  14
ENDBRANCH   1   8
BRANCH   3  17
ATOM     17  C   UNL d   1      -0.985  -2.434   0.314  0.00  0.00     0.043 C 
ATOM     18  C   UNL d   1      -2.339  -2.853   0.402  0.00  0.00     0.008 A 
ATOM     19  S   UNL d   1      -3.165  -3.325  -1.033  0.00  0.00    -0.066 SA
ATOM     20  C   UNL d   1      -3.163  -2.973   1.509  0.00  0.00     0.022 A 
ATOM     21  C   UNL d   1      -4.597  -3.649  -0.184  0.00  0.00     0.144 A 
ATOM     22  C   UNL d   1      -4.475  -3.431   1.170  0.00  0.00     0.045 A 
BRANCH  21  23
ATOM     23  N   UNL d   1      -5.770  -4.112  -0.881  0.00  0.00    -0.108 N 
ATOM     24  O   UNL d   1      -6.760  -4.348  -0.175  0.00  0.00    -0.531 OA
ATOM     25  O   UNL d   1      -5.715  -4.237  -2.111  0.00  0.00    -0.531 OA
ENDBRANCH  21  23
ENDBRANCH   3  17
TORSDOF 4
