REMARK  6 active torsions:
REMARK  status: ('A' for Active; 'I' for Inactive)
REMARK    1  A    between atoms: N_2  and  S_1 
REMARK    2  A    between atoms: C_5  and  S_1 
REMARK    3  A    between atoms: N_3  and  N_2 
REMARK    4  A    between atoms: C_4  and  N_3 
REMARK    5  A    between atoms: N_8  and  C_4 
REMARK    6  A    between atoms: C_12  and  N_8 
ROOT
ATOM      1  N   UNL d   1       0.914   1.757  -1.869  0.00  0.00    -0.266 N 
ATOM      2  H   UNL d   1       1.062   2.542  -1.233  0.00  0.00     0.190 HD
ENDROOT
BRANCH   1   3
ATOM      3  N   UNL d   1       0.664   0.461  -1.263  0.00  0.00    -0.221 N 
ATOM      4  H   UNL d   1       0.565  -0.350  -1.873  0.00  0.00     0.200 HD
BRANCH   3   5
ATOM      5  S   UNL d   1       1.244   0.147   0.298  0.00  0.00     0.276 S 
ATOM      6  O   UNL d   1       0.573   1.038   1.207  0.00  0.00    -0.199 OA
ATOM      7  O   UNL d   1       2.691   0.077   0.237  0.00  0.00    -0.199 OA
BRANCH   5   8
ATOM      8  C   UNL d   1       0.614  -1.500   0.517  0.00  0.00     0.081 A 
ATOM      9  C   UNL d   1       1.367  -2.594   0.083  0.00  0.00     0.026 A 
ATOM     10  C   UNL d   1       0.822  -3.874   0.169  0.00  0.00     0.008 A 
ATOM     11  C   UNL d   1      -0.467  -4.066   0.690  0.00  0.00    -0.062 A 
ATOM     12  C   UNL d   1      -1.193  -2.962   1.157  0.00  0.00     0.008 A 
ATOM     13  C   UNL d   1      -1.054  -5.447   0.740  0.00  0.00     0.048 C 
ATOM     14  C   UNL d   1      -0.656  -1.673   1.077  0.00  0.00     0.026 A 
ENDBRANCH   5   8
ENDBRANCH   3   5
ENDBRANCH   1   3
BRANCH   1  15
ATOM     15  C   UNL d   1       1.486   1.841  -3.113  0.00  0.00     0.191 C 
ATOM     16  S   UNL d   1       2.509   0.678  -3.753  0.00  0.00    -0.039 SA
BRANCH  15  17
ATOM     17  N   UNL d   1       1.255   2.973  -3.843  0.00  0.00    -0.332 N 
ATOM     18  H   UNL d   1       1.911   3.098  -4.608  0.00  0.00     0.168 HD
BRANCH  17  19
ATOM     19  C   UNL d   1       0.123   3.817  -3.861  0.00  0.00     0.034 A 
ATOM     20  C   UNL d   1      -1.058   3.553  -3.161  0.00  0.00     0.031 A 
ATOM     21  C   UNL d   1      -2.145   4.432  -3.241  0.00  0.00     0.026 A 
ATOM     22  C   UNL d   1      -2.062   5.570  -4.036  0.00  0.00     0.034 A 
ATOM     23  C   UNL d   1      -0.912   5.820  -4.779  0.00  0.00     0.026 A 
ATOM     24 CL   UNL d   1      -3.385   6.666  -4.102  0.00  0.00    -0.084 Cl
ATOM     25  C   UNL d   1       0.174   4.941  -4.697  0.00  0.00     0.031 A 
ENDBRANCH  17  19
ENDBRANCH  15  17
ENDBRANCH   1  15
TORSDOF 6
