REMARK  2 active torsions:
REMARK  status: ('A' for Active; 'I' for Inactive)
REMARK    1  A    between atoms: C_4  and  N_1 
REMARK    2  A    between atoms: C_2  and  C_5 
ROOT
ATOM      1  C   UNL d   1       0.309  -2.439  -0.017  0.00  0.00     0.037 A 
ATOM      2  C   UNL d   1       1.601  -4.203   1.100  0.00  0.00     0.050 A 
ATOM      3  C   UNL d   1       1.171  -2.866   1.003  0.00  0.00     0.046 A 
ATOM      4  C   UNL d   1      -0.086  -3.390  -0.972  0.00  0.00     0.030 A 
ATOM      5  C   UNL d   1       1.174  -5.127   0.139  0.00  0.00     0.016 A 
ATOM      6  C   UNL d   1       0.340  -4.720  -0.896  0.00  0.00     0.003 A 
ENDROOT
BRANCH   1   7
ATOM      7  N   UNL d   1      -0.175  -1.101  -0.085  0.00  0.00    -0.318 N 
ATOM      8  C   UNL d   1      -0.021  -0.111   0.900  0.00  0.00     0.224 C 
ATOM      9  O   UNL d   1       0.608  -0.148   1.946  0.00  0.00    -0.273 OA
ATOM     10  C   UNL d   1      -0.873   1.072   0.504  0.00  0.00     0.105 C 
ATOM     11  C   UNL d   1      -1.112   0.853  -0.975  0.00  0.00     0.029 C 
ATOM     12  C   UNL d   1      -1.078  -0.654  -1.120  0.00  0.00     0.133 C 
ENDBRANCH   1   7
BRANCH   2  13
ATOM     13  C   UNL d   1       2.493  -4.655   2.230  0.00  0.00     0.417 C 
ATOM     14  F   UNL d   1       2.869  -3.659   3.077  0.00  0.00    -0.166 F 
ATOM     15  F   UNL d   1       1.896  -5.602   3.009  0.00  0.00    -0.166 F 
ATOM     16  F   UNL d   1       3.650  -5.222   1.784  0.00  0.00    -0.166 F 
ENDBRANCH   2  13
TORSDOF 2
