REMARK  3 active torsions:
REMARK  status: ('A' for Active; 'I' for Inactive)
REMARK    1  A    between atoms: C_10  and  N_1 
REMARK    2  A    between atoms: C_5  and  C_2 
REMARK    3  A    between atoms: C_8  and  C_9 
ROOT
ATOM      1  N   UNL d   1      -0.188  -1.333  -0.065  0.00  0.00    -0.238 N 
ATOM      2  C   UNL d   1       1.009  -0.700  -0.113  0.00  0.00     0.149 A 
ATOM      3  N   UNL d   1       0.912   0.578  -0.275  0.00  0.00    -0.238 N 
ATOM      4  HN  UNL d   1       1.674   1.255  -0.324  1.00  0.00     0.196 HD
ATOM      5  C   UNL d   1      -1.124  -0.373  -0.284  0.00  0.00     0.395 A 
ATOM      6  O   UNL d   1      -0.485   0.842  -0.369  0.00  0.00    -0.179 OA
ATOM      7  O   UNL d   1      -2.334  -0.507  -0.390  0.00  0.00    -0.235 OA
ENDROOT
BRANCH   2   8
ATOM      8  C   UNL d   1       2.316  -1.381  -0.105  0.00  0.00     0.041 A 
ATOM      9  C   UNL d   1       3.417  -0.905   0.620  0.00  0.00     0.064 A 
ATOM     10  C   UNL d   1       4.640  -1.591   0.496  0.00  0.00     0.034 A 
ATOM     11  C   UNL d   1       4.715  -2.707  -0.322  0.00  0.00     0.088 A 
ATOM     12  N   UNL d   1       3.672  -3.170  -1.035  0.00  0.00    -0.374 N 
ATOM     13  C   UNL d   1       2.508  -2.490  -0.926  0.00  0.00     0.103 A 
ATOM     14  HN  UNL d   1       3.756  -3.995  -1.629  1.00  0.00     0.164 HD
BRANCH   9  15
ATOM     15  C   UNL d   1       3.359   0.314   1.502  0.00  0.00     0.418 C 
ATOM     16  F   UNL d   1       2.175   0.484   2.146  0.00  0.00    -0.166 F 
ATOM     17  F   UNL d   1       4.295   0.267   2.497  0.00  0.00    -0.166 F 
ATOM     18  F   UNL d   1       3.617   1.462   0.822  0.00  0.00    -0.166 F 
ENDBRANCH   9  15
ENDBRANCH   2   8
BRANCH   1  19
ATOM     19  C   UNL d   1      -0.477  -2.704   0.094  0.00  0.00     0.068 A 
ATOM     20  C   UNL d   1       0.024  -3.478   1.157  0.00  0.00     0.061 A 
ATOM     21 CL   UNL d   1       0.833  -2.772   2.512  0.00  0.00    -0.082 Cl
ATOM     22  C   UNL d   1      -0.199  -4.858   1.193  0.00  0.00     0.026 A 
ATOM     23  C   UNL d   1      -0.922  -5.480   0.176  0.00  0.00     0.002 A 
ATOM     24  C   UNL d   1      -1.457  -4.719  -0.860  0.00  0.00     0.002 A 
ATOM     25  C   UNL d   1      -1.255  -3.338  -0.891  0.00  0.00     0.032 A 
ENDBRANCH   1  19
TORSDOF 3
