REMARK  5 active torsions:
REMARK  status: ('A' for Active; 'I' for Inactive)
REMARK    1  A    between atoms: C_12  and  N_7 
REMARK    2  A    between atoms: O_11  and  C_10 
REMARK    3  A    between atoms: C_16  and  O_11 
REMARK    4  A    between atoms: C_20  and  C_12 
REMARK    5  A    between atoms: C_15  and  C_16 
ROOT
ATOM      1  C   UNL d   1      -0.267  -0.792  -0.011  0.00  0.00     0.147 A 
ATOM      2  C   UNL d   1      -0.533   0.546  -0.032  0.00  0.00     0.151 A 
ATOM      3  N   UNL d   1      -1.401  -1.535   0.061  0.00  0.00    -0.306 N 
ATOM      4  HN  UNL d   1      -1.480  -2.552   0.088  1.00  0.00     0.171 HD
ATOM      5  N   UNL d   1       1.014  -1.282  -0.023  0.00  0.00    -0.287 N 
ATOM      6  N   UNL d   1       1.785   0.978  -0.042  0.00  0.00    -0.269 N 
ATOM      7  N   UNL d   1      -1.902   0.636  -0.010  0.00  0.00    -0.301 N 
ATOM      8  C   UNL d   1       2.090  -0.393  -0.034  0.00  0.00     0.332 A 
ATOM      9  C   UNL d   1       0.494   1.527  -0.043  0.00  0.00     0.282 A 
ATOM     10  C   UNL d   1      -2.378  -0.653   0.088  0.00  0.00     0.228 A 
ATOM     11  O   UNL d   1       3.254  -0.803  -0.029  0.00  0.00    -0.246 OA
ATOM     12  O   UNL d   1       0.271   2.738  -0.032  0.00  0.00    -0.265 OA
ATOM     13  C   UNL d   1       1.292  -2.706   0.001  0.00  0.00     0.163 C 
ATOM     14  C   UNL d   1       2.885   1.925  -0.019  0.00  0.00     0.164 C 
ENDROOT
BRANCH  10  15
ATOM     15  O   UNL d   1      -3.671  -0.954   0.224  0.00  0.00    -0.317 OA
BRANCH  15  16
ATOM     16  C   UNL d   1      -3.874  -2.280   0.716  0.00  0.00     0.219 C 
BRANCH  16  17
ATOM     17  C   UNL d   1      -5.337  -2.657   0.740  0.00  0.00    -0.012 A 
ATOM     18  C   UNL d   1      -6.192  -2.312   1.797  0.00  0.00     0.042 A 
ATOM     19 CL   UNL d   1      -5.683  -1.272   3.078  0.00  0.00    -0.084 Cl
ATOM     20  C   UNL d   1      -7.494  -2.824   1.851  0.00  0.00     0.024 A 
ATOM     21  C   UNL d   1      -7.966  -3.658   0.838  0.00  0.00     0.002 A 
ATOM     22  C   UNL d   1      -7.149  -3.957  -0.248  0.00  0.00     0.001 A 
ATOM     23  C   UNL d   1      -5.847  -3.456  -0.300  0.00  0.00     0.011 A 
ENDBRANCH  16  17
ENDBRANCH  15  16
ENDBRANCH  10  15
BRANCH   7  24
ATOM     24  C   UNL d   1      -2.709   1.844   0.061  0.00  0.00     0.171 C 
BRANCH  24  25
ATOM     25  C   UNL d   1      -3.016   2.420  -1.302  0.00  0.00    -0.040 A 
ATOM     26  C   UNL d   1      -3.813   1.721  -2.222  0.00  0.00     0.010 A 
ATOM     27  C   UNL d   1      -4.124   2.280  -3.465  0.00  0.00     0.024 A 
ATOM     28  C   UNL d   1      -3.649   3.547  -3.793  0.00  0.00     0.034 A 
ATOM     29  C   UNL d   1      -2.863   4.259  -2.892  0.00  0.00     0.024 A 
ATOM     30 CL   UNL d   1      -4.040   4.239  -5.320  0.00  0.00    -0.084 Cl
ATOM     31  C   UNL d   1      -2.546   3.697  -1.651  0.00  0.00     0.010 A 
ENDBRANCH  24  25
ENDBRANCH   7  24
TORSDOF 5
