REMARK  2 active torsions:
REMARK  status: ('A' for Active; 'I' for Inactive)
REMARK    1  A    between atoms: C_2  and  N_1 
REMARK       I    between atoms: C_3  and  N_1 
REMARK    2  A    between atoms: C_6  and  C_3 
ROOT
ATOM      1  N   UNL d   1       1.089  -0.022  -0.107  0.00  0.00    -0.322 N 
ATOM      2  C   UNL d   1       0.530  -0.515   1.060  0.00  0.00     0.256 C 
ATOM      3  O   UNL d   1      -0.642  -0.838   1.218  0.00  0.00    -0.267 OA
ATOM      4  H   UNL d   1       2.067  -0.243  -0.238  0.00  0.00     0.169 HD
ENDROOT
BRANCH   1   5
ATOM      5  C   UNL d   1       0.335   0.211  -1.278  0.00  0.00     0.047 A 
ATOM      6  C   UNL d   1      -0.758   1.106  -1.279  0.00  0.00    -0.033 A 
ATOM      7  C   UNL d   1      -1.438   1.354  -2.487  0.00  0.00     0.027 A 
ATOM      8  C   UNL d   1      -1.227   1.889  -0.080  0.00  0.00     0.050 C 
ATOM      9  C   UNL d   1      -1.034   0.743  -3.670  0.00  0.00     0.007 A 
ATOM     10  C   UNL d   1       0.046  -0.133  -3.669  0.00  0.00     0.027 A 
ATOM     11  I   UNL d   1      -2.047   1.138  -5.440  0.00  0.00    -0.045 I 
ATOM     12  C   UNL d   1       0.740  -0.414  -2.478  0.00  0.00    -0.033 A 
ATOM     13  C   UNL d   1       1.842  -1.438  -2.562  0.00  0.00     0.050 C 
ENDBRANCH   1   5
BRANCH   2  14
ATOM     14  C   UNL d   1       1.493  -0.711   2.177  0.00  0.00     0.032 A 
ATOM     15  C   UNL d   1       2.576   0.163   2.356  0.00  0.00     0.018 A 
ATOM     16  C   UNL d   1       3.456  -0.030   3.423  0.00  0.00     0.025 A 
ATOM     17  C   UNL d   1       3.252  -1.087   4.310  0.00  0.00     0.034 A 
ATOM     18  C   UNL d   1       2.170  -1.952   4.144  0.00  0.00     0.025 A 
ATOM     19 CL   UNL d   1       4.339  -1.318   5.622  0.00  0.00    -0.084 Cl
ATOM     20  C   UNL d   1       1.285  -1.760   3.080  0.00  0.00     0.018 A 
ENDBRANCH   2  14
TORSDOF 2
