REMARK  6 active torsions:
REMARK  status: ('A' for Active; 'I' for Inactive)
REMARK    1  A    between atoms: N_2  and  C_4 
REMARK       I    between atoms: C_6  and  N_2 
REMARK    2  A    between atoms: C_11  and  C_6 
REMARK    3  A    between atoms: C_7  and  C_12 
REMARK    4  A    between atoms: O_10  and  C_7 
REMARK    5  A    between atoms: C_13  and  C_11 
REMARK    6  A    between atoms: C_12  and  C_13 
ROOT
ATOM      1  N   UNL d   1      -2.790  -0.978  -0.203  0.00  0.00    -0.191 NA
ATOM      2  C   UNL d   1      -1.716  -0.557  -0.361  0.00  0.00     0.102 C 
ATOM      3  C   UNL d   1       0.088   1.178  -0.184  0.00  0.00     0.055 A 
ATOM      4  C   UNL d   1      -0.348  -0.132  -0.457  0.00  0.00     0.071 A 
ATOM      5  C   UNL d   1       0.602  -1.150  -0.672  0.00  0.00     0.025 A 
ATOM      6  C   UNL d   1       1.468   1.404  -0.021  0.00  0.00     0.031 A 
ATOM      7  C   UNL d   1       1.968  -0.895  -0.559  0.00  0.00     0.002 A 
ATOM      8  C   UNL d   1       2.399   0.378  -0.209  0.00  0.00     0.002 A 
ENDROOT
BRANCH   3   9
ATOM      9  N   UNL d   1      -0.734   2.323  -0.018  0.00  0.00    -0.326 N 
ATOM     10  C   UNL d   1      -1.961   2.542  -0.617  0.00  0.00     0.222 C 
ATOM     11  O   UNL d   1      -2.487   1.813  -1.450  0.00  0.00    -0.273 OA
ATOM     12  H   UNL d   1      -0.278   3.150   0.352  0.00  0.00     0.169 HD
BRANCH  10  13
ATOM     13  C   UNL d   1      -2.597   3.859  -0.205  0.00  0.00     0.103 C 
BRANCH  13  14
ATOM     14  C   UNL d   1      -4.120   3.751  -0.062  0.00  0.00     0.019 C 
BRANCH  14  15
ATOM     15  C   UNL d   1      -4.559   2.838   1.087  0.00  0.00     0.110 C 
BRANCH  15  16
ATOM     16  C   UNL d   1      -4.120   3.359   2.437  0.00  0.00     0.139 C 
ATOM     17  O   UNL d   1      -3.920   4.535   2.698  0.00  0.00    -0.650 OA
BRANCH  16  18
ATOM     18  O   UNL d   1      -3.969   2.381   3.357  0.00  0.00    -0.776 OA
ATOM     19  H   UNL d   1      -4.168   1.485   3.020  0.00  0.00     0.167 HD
ENDBRANCH  16  18
ENDBRANCH  15  16
ENDBRANCH  14  15
ENDBRANCH  13  14
ENDBRANCH  10  13
ENDBRANCH   3   9
TORSDOF 6
