REMARK  3 active torsions:
REMARK  status: ('A' for Active; 'I' for Inactive)
REMARK    1  A    between atoms: C_7  and  C_1 
REMARK    2  A    between atoms: C_14  and  C_6 
REMARK    3  A    between atoms: C_10  and  C_14 
ROOT
ATOM      1  C   UNL d   1      -0.590   0.784   0.184  0.00  0.00     0.144 A 
ATOM      2  N   UNL d   1       0.028  -0.238   0.871  0.00  0.00    -0.322 N 
ATOM      3  HN  UNL d   1       0.091  -0.385   1.878  1.00  0.00     0.169 HD
ATOM      4  N   UNL d   1      -0.456   0.713  -1.149  0.00  0.00    -0.242 N 
ATOM      5  HN  UNL d   1      -0.807   1.361  -1.854  1.00  0.00     0.196 HD
ATOM      6  C   UNL d   1       0.514  -0.975  -0.103  0.00  0.00     0.152 A 
ATOM      7  O   UNL d   1       0.279  -0.456  -1.342  0.00  0.00    -0.222 OA
ENDROOT
BRANCH   6   8
ATOM      8  C   UNL d   1       1.138  -2.318  -0.045  0.00  0.00     0.125 C 
BRANCH   8   9
ATOM      9  C   UNL d   1       2.646  -2.304   0.010  0.00  0.00    -0.045 A 
ATOM     10  C   UNL d   1       3.317  -2.227   1.240  0.00  0.00     0.050 A 
ATOM     11  C   UNL d   1       4.710  -2.274   1.282  0.00  0.00     0.119 A 
ATOM     12  F   UNL d   1       5.332  -2.224   2.467  0.00  0.00    -0.206 F 
ATOM     13  C   UNL d   1       5.461  -2.385   0.122  0.00  0.00     0.084 A 
ATOM     14  C   UNL d   1       4.799  -2.439  -1.097  0.00  0.00     0.119 A 
ATOM     15  C   UNL d   1       3.407  -2.395  -1.165  0.00  0.00     0.050 A 
ATOM     16  F   UNL d   1       5.508  -2.548  -2.227  0.00  0.00    -0.206 F 
ENDBRANCH   8   9
ENDBRANCH   6   8
BRANCH   1  17
ATOM     17  C   UNL d   1      -1.403   1.827   0.885  0.00  0.00     0.050 A 
ATOM     18  S   UNL d   1      -2.325   3.031   0.100  0.00  0.00    -0.098 SA
ATOM     19  C   UNL d   1      -2.929   3.626   1.587  0.00  0.00     0.050 A 
ATOM     20  C   UNL d   1      -2.409   2.944   2.665  0.00  0.00     0.009 A 
ATOM     21  C   UNL d   1      -1.522   1.905   2.257  0.00  0.00     0.023 A 
ENDBRANCH   1  17
TORSDOF 3
