REMARK  5 active torsions:
REMARK  status: ('A' for Active; 'I' for Inactive)
REMARK    1  A    between atoms: C_8  and  C_3 
REMARK    2  A    between atoms: C_15  and  C_6 
REMARK    3  A    between atoms: C_9  and  C_16 
REMARK       I    between atoms: N_10  and  C_9 
REMARK    4  A    between atoms: C_14  and  N_10 
REMARK    5  A    between atoms: C_16  and  C_15 
ROOT
ATOM      1  N   UNL d   1       0.660   0.101   1.326  0.00  0.00    -0.323 N 
ATOM      2  HN  UNL d   1       0.773  -0.117   2.316  1.00  0.00     0.169 HD
ATOM      3  C   UNL d   1       0.331   1.305   0.736  0.00  0.00     0.137 A 
ATOM      4  N   UNL d   1       0.312   1.262  -0.607  0.00  0.00    -0.242 N 
ATOM      5  HN  UNL d   1       0.122   2.024  -1.258  1.00  0.00     0.196 HD
ATOM      6  C   UNL d   1       0.790  -0.694   0.289  0.00  0.00     0.148 A 
ATOM      7  O   UNL d   1       0.612  -0.067  -0.904  0.00  0.00    -0.223 OA
ENDROOT
BRANCH   6   8
ATOM      8  C   UNL d   1       1.204  -2.111   0.278  0.00  0.00     0.096 C 
BRANCH   8   9
ATOM      9  C   UNL d   1       2.704  -2.268   0.084  0.00  0.00     0.111 C 
BRANCH   9  10
ATOM     10  C   UNL d   1       3.647  -1.936   1.239  0.00  0.00     0.222 C 
ATOM     11  N   UNL d   1       3.356  -0.819   1.992  0.00  0.00    -0.327 N 
ATOM     12  H   UNL d   1       2.407  -0.458   1.987  0.00  0.00     0.169 HD
ATOM     13  O   UNL d   1       4.660  -2.626   1.374  0.00  0.00    -0.273 OA
BRANCH  11  14
ATOM     14  C   UNL d   1       4.255  -0.105   2.824  0.00  0.00     0.034 A 
ATOM     15  C   UNL d   1       5.637  -0.318   2.830  0.00  0.00     0.032 A 
ATOM     16  C   UNL d   1       6.480   0.490   3.602  0.00  0.00     0.044 A 
ATOM     17  C   UNL d   1       5.937   1.507   4.375  0.00  0.00     0.116 A 
ATOM     18  C   UNL d   1       4.567   1.722   4.401  0.00  0.00     0.044 A 
ATOM     19  F   UNL d   1       6.747   2.295   5.095  0.00  0.00    -0.206 F 
ATOM     20  C   UNL d   1       3.725   0.919   3.624  0.00  0.00     0.032 A 
ENDBRANCH  11  14
ENDBRANCH   9  10
ENDBRANCH   8   9
ENDBRANCH   6   8
BRANCH   3  21
ATOM     21  C   UNL d   1       0.077   2.501   1.529  0.00  0.00     0.010 A 
ATOM     22  C   UNL d   1      -0.063   2.399   2.924  0.00  0.00     0.017 A 
ATOM     23  C   UNL d   1      -0.272   3.539   3.704  0.00  0.00     0.025 A 
ATOM     24  C   UNL d   1      -0.348   4.789   3.095  0.00  0.00     0.034 A 
ATOM     25  C   UNL d   1      -0.227   4.906   1.712  0.00  0.00     0.025 A 
ATOM     26 CL   UNL d   1      -0.587   6.194   4.057  0.00  0.00    -0.084 Cl
ATOM     27  C   UNL d   1      -0.017   3.765   0.931  0.00  0.00     0.017 A 
ENDBRANCH   3  21
TORSDOF 5
