REMARK  8 active torsions:
REMARK  status: ('A' for Active; 'I' for Inactive)
REMARK    1  A    between atoms: C_10  and  C_1 
REMARK    2  A    between atoms: N_2  and  C_6 
REMARK    3  A    between atoms: C_8  and  N_2 
REMARK    4  A    between atoms: S_3  and  C_9 
REMARK    5  A    between atoms: C_11  and  S_3 
REMARK    6  A    between atoms: C_7  and  C_8 
REMARK    7  A    between atoms: C_9  and  C_7 
REMARK    8  A    between atoms: O_14  and  C_7 
ROOT
ATOM      1  C   UNL d   1      -3.784  -0.702  -0.264  0.00  0.00     0.152 C 
ENDROOT
BRANCH   1   2
ATOM      2  C   UNL d   1      -5.178  -0.063  -0.493  0.00  0.00     0.145 C 
BRANCH   2   3
ATOM      3  C   UNL d   1      -6.178  -1.125  -0.984  0.00  0.00     0.112 C 
BRANCH   3   4
ATOM      4  S   UNL d   1      -7.788  -0.358  -1.411  0.00  0.00    -0.127 SA
BRANCH   4   5
ATOM      5  C   UNL d   1      -8.857  -1.749  -1.756  0.00  0.00     0.000 A 
ATOM      6  C   UNL d   1      -8.430  -3.073  -1.897  0.00  0.00     0.018 A 
ATOM      7  C   UNL d   1      -9.348  -4.091  -2.177  0.00  0.00     0.001 A 
ATOM      8  C   UNL d   1     -10.701  -3.798  -2.324  0.00  0.00     0.000 A 
ATOM      9  C   UNL d   1     -11.140  -2.483  -2.195  0.00  0.00     0.001 A 
ATOM     10  C   UNL d   1     -10.222  -1.468  -1.913  0.00  0.00     0.018 A 
ENDBRANCH   4   5
ENDBRANCH   3   4
ENDBRANCH   2   3
BRANCH   2  11
ATOM     11  O   UNL d   1      -5.655   0.537   0.721  0.00  0.00    -0.393 OA
ATOM     12  H   UNL d   1      -5.492  -0.081   1.454  0.00  0.00     0.210 HD
ENDBRANCH   2  11
ENDBRANCH   1   2
BRANCH   1  13
ATOM     13  N   UNL d   1      -2.821   0.317   0.153  0.00  0.00    -0.387 N 
ATOM     14  H   UNL d   1      -2.882   1.172  -0.397  0.00  0.00     0.159 HD
BRANCH  13  15
ATOM     15  C   UNL d   1      -1.499  -0.036   0.447  0.00  0.00     0.028 A 
ATOM     16  C   UNL d   1      -0.489   0.919   0.287  0.00  0.00     0.029 A 
ATOM     17  C   UNL d   1       0.835   0.661   0.664  0.00  0.00     0.010 A 
ATOM     18  C   UNL d   1       1.186  -0.559   1.250  0.00  0.00    -0.055 A 
ATOM     19  C   UNL d   1       0.182  -1.517   1.423  0.00  0.00     0.010 A 
ATOM     20  C   UNL d   1      -1.139  -1.256   1.030  0.00  0.00     0.029 A 
BRANCH  18  21
ATOM     21  C   UNL d   1       2.602  -0.834   1.728  0.00  0.00     0.010 C 
ATOM     22  C   UNL d   1       3.606  -0.823   0.574  0.00  0.00     0.015 C 
ATOM     23  C   UNL d   1       3.026   0.154   2.822  0.00  0.00     0.015 C 
ENDBRANCH  18  21
ENDBRANCH  13  15
ENDBRANCH   1  13
TORSDOF 8
