REMARK  8 active torsions:
REMARK  status: ('A' for Active; 'I' for Inactive)
REMARK    1  A    between atoms: S_10  and  C_1 
REMARK       I    between atoms: N_5  and  C_6 
REMARK    2  A    between atoms: C_11  and  N_5 
REMARK    3  A    between atoms: C_16  and  N_5 
REMARK    4  A    between atoms: C_6  and  C_14 
REMARK    5  A    between atoms: C_14  and  S_10 
REMARK    6  A    between atoms: C_12  and  C_11 
REMARK    7  A    between atoms: O_19  and  C_12 
REMARK    8  A    between atoms: C_24  and  O_19 
ROOT
ATOM      1  C   UNL d   1      -2.206   1.811   0.092  0.00  0.00     0.091 A 
ATOM      2  C   UNL d   1      -3.305   1.024   0.455  0.00  0.00     0.084 A 
ATOM      3  N   UNL d   1      -1.113   1.289  -0.524  0.00  0.00    -0.353 N 
ATOM      4  HN  UNL d   1      -0.324   1.885  -0.772  1.00  0.00     0.166 HD
ATOM      5  C   UNL d   1      -3.262  -0.359   0.181  0.00  0.00    -0.037 A 
ATOM      6  C   UNL d   1      -4.453   1.608   1.089  0.00  0.00     0.103 C 
ATOM      7  N   UNL d   1      -5.401   2.030   1.604  0.00  0.00    -0.191 NA
ATOM      8  C   UNL d   1      -1.089  -0.032  -0.802  0.00  0.00     0.006 A 
ATOM      9  C   UNL d   1      -2.136  -0.880  -0.471  0.00  0.00     0.033 A 
ATOM     10  C   UNL d   1      -4.396  -1.300   0.486  0.00  0.00     0.050 C 
ATOM     11  C   UNL d   1       0.103  -0.551  -1.548  0.00  0.00     0.068 C 
ENDROOT
BRANCH   1  12
ATOM     12  S   UNL d   1      -2.151   3.585   0.379  0.00  0.00    -0.101 SA
BRANCH  12  13
ATOM     13  C   UNL d   1      -0.455   3.947  -0.187  0.00  0.00     0.184 C 
BRANCH  13  14
ATOM     14  C   UNL d   1      -0.087   5.430  -0.079  0.00  0.00     0.234 C 
ATOM     15  N   UNL d   1       1.282   5.749  -0.092  0.00  0.00    -0.308 N 
ATOM     16  O   UNL d   1      -0.936   6.326  -0.072  0.00  0.00    -0.272 OA
BRANCH  15  17
ATOM     17  C   UNL d   1       1.652   7.156  -0.300  0.00  0.00     0.243 C 
BRANCH  17  18
ATOM     18  C   UNL d   1       1.694   8.042   0.941  0.00  0.00     0.277 C 
ATOM     19  O   UNL d   1       2.006   9.228   0.880  0.00  0.00    -0.263 OA
BRANCH  18  20
ATOM     20  O   UNL d   1       1.466   7.360   2.096  0.00  0.00    -0.321 OA
BRANCH  20  21
ATOM     21  C   UNL d   1       1.750   8.076   3.309  0.00  0.00     0.174 C 
ATOM     22  C   UNL d   1       3.132   7.664   3.783  0.00  0.00     0.034 C 
ENDBRANCH  20  21
ENDBRANCH  18  20
ENDBRANCH  17  18
ENDBRANCH  15  17
BRANCH  15  23
ATOM     23  C   UNL d   1       2.279   4.778  -0.344  0.00  0.00     0.037 A 
ATOM     24  C   UNL d   1       2.857   4.680  -1.615  0.00  0.00     0.030 A 
ATOM     25  C   UNL d   1       3.792   3.680  -1.884  0.00  0.00     0.002 A 
ATOM     26  C   UNL d   1       4.160   2.785  -0.882  0.00  0.00     0.000 A 
ATOM     27  C   UNL d   1       3.607   2.894   0.394  0.00  0.00     0.002 A 
ATOM     28  C   UNL d   1       2.671   3.893   0.666  0.00  0.00     0.030 A 
ENDBRANCH  15  23
ENDBRANCH  13  14
ENDBRANCH  12  13
ENDBRANCH   1  12
TORSDOF 8
