REMARK  4 active torsions:
REMARK  status: ('A' for Active; 'I' for Inactive)
REMARK    1  A    between atoms: O_5  and  C_1 
REMARK       I    between atoms: N_6  and  C_1 
REMARK       I    between atoms: C_2  and  N_4 
REMARK    2  A    between atoms: C_3  and  C_2 
REMARK    3  A    between atoms: N_4  and  C_10 
REMARK    4  A    between atoms: C_14  and  O_5 
ROOT
ATOM      1  C   UNL d   1      -3.000  -0.697  -0.659  0.00  0.00     0.037 A 
ATOM      2  C   UNL d   1      -1.120  -0.958   0.851  0.00  0.00     0.083 A 
ATOM      3  C   UNL d   1      -1.625  -0.634  -0.416  0.00  0.00     0.067 A 
ATOM      4  C   UNL d   1      -3.343  -1.438   1.635  0.00  0.00     0.005 A 
ATOM      5  C   UNL d   1      -3.853  -1.106   0.377  0.00  0.00     0.029 A 
ATOM      6  C   UNL d   1      -1.974  -1.351   1.879  0.00  0.00     0.037 A 
ENDROOT
BRANCH   1   7
ATOM      7  N   UNL d   1      -3.616  -0.329  -1.879  0.00  0.00    -0.323 N 
ATOM      8  C   UNL d   1      -2.997   0.125  -3.029  0.00  0.00     0.256 C 
ATOM      9  O   UNL d   1      -1.790   0.211  -3.228  0.00  0.00    -0.267 OA
ATOM     10  H   UNL d   1      -4.627  -0.322  -1.858  0.00  0.00     0.169 HD
BRANCH   8  11
ATOM     11  C   UNL d   1      -3.915   0.613  -4.099  0.00  0.00     0.035 A 
ATOM     12  C   UNL d   1      -3.496   1.706  -4.870  0.00  0.00     0.041 A 
ATOM     13  C   UNL d   1      -4.348   2.247  -5.831  0.00  0.00     0.036 A 
ATOM     14 CL   UNL d   1      -3.846   3.619  -6.740  0.00  0.00    -0.084 Cl
ATOM     15  C   UNL d   1      -5.609   1.700  -6.050  0.00  0.00     0.047 A 
ATOM     16  C   UNL d   1      -6.005   0.588  -5.311  0.00  0.00     0.036 A 
ATOM     17  C   UNL d   1      -5.168   0.035  -4.339  0.00  0.00     0.041 A 
ATOM     18 CL   UNL d   1      -7.554  -0.109  -5.591  0.00  0.00    -0.084 Cl
ENDBRANCH   8  11
ENDBRANCH   1   7
BRANCH   2  19
ATOM     19  O   UNL d   1       0.267  -0.736   1.051  0.00  0.00    -0.261 OA
BRANCH  19  20
ATOM     20  C   UNL d   1       1.029  -1.461   1.975  0.00  0.00     0.367 C 
ATOM     21  N   UNL d   1       2.309  -0.945   2.151  0.00  0.00    -0.336 N 
ATOM     22  C   UNL d   1       3.230  -1.612   3.051  0.00  0.00     0.154 C 
ATOM     23  C   UNL d   1       2.816   0.215   1.440  0.00  0.00     0.154 C 
ATOM     24  O   UNL d   1       0.619  -2.451   2.573  0.00  0.00    -0.238 OA
ENDBRANCH  19  20
ENDBRANCH   2  19
TORSDOF 4
