REMARK  4 active torsions:
REMARK  status: ('A' for Active; 'I' for Inactive)
REMARK    1  A    between atoms: C_2  and  C_1 
REMARK    2  A    between atoms: C_3  and  C_1 
REMARK    3  A    between atoms: C_4  and  C_2 
REMARK    4  A    between atoms: C_5  and  C_3 
ROOT
ATOM      1  C   UNL d   1       1.189   0.132   0.015  0.00  0.00     0.171 C 
ENDROOT
BRANCH   1   2
ATOM      2  C   UNL d   1       0.666   1.444   0.536  0.00  0.00     0.183 C 
ATOM      3  O   UNL d   1       0.249   1.560   1.690  0.00  0.00    -0.290 OA
BRANCH   2   4
ATOM      4  C   UNL d   1       0.603   2.599  -0.405  0.00  0.00     0.078 A 
ATOM      5  N   UNL d   1       1.114   2.413  -1.649  0.00  0.00    -0.363 N 
ATOM      6  C   UNL d   1       0.985   3.441  -2.516  0.00  0.00     0.088 A 
ATOM      7  HN  UNL d   1       1.571   1.541  -1.915  1.00  0.00     0.165 HD
ATOM      8  C   UNL d   1       0.358   4.639  -2.209  0.00  0.00     0.017 A 
ATOM      9  C   UNL d   1      -0.155   4.806  -0.928  0.00  0.00     0.004 A 
ATOM     10  C   UNL d   1      -0.027   3.773  -0.004  0.00  0.00     0.033 A 
ENDBRANCH   2   4
ENDBRANCH   1   2
BRANCH   1  11
ATOM     11  C   UNL d   1       2.661  -0.088   0.246  0.00  0.00     0.183 C 
ATOM     12  O   UNL d   1       3.403   0.744   0.764  0.00  0.00    -0.290 OA
BRANCH  11  13
ATOM     13  C   UNL d   1       3.201  -1.409  -0.196  0.00  0.00     0.078 A 
ATOM     14  N   UNL d   1       2.328  -2.237  -0.828  0.00  0.00    -0.363 N 
ATOM     15  C   UNL d   1       2.805  -3.432  -1.235  0.00  0.00     0.088 A 
ATOM     16  HN  UNL d   1       1.357  -1.968  -0.987  1.00  0.00     0.165 HD
ATOM     17  C   UNL d   1       4.113  -3.846  -1.041  0.00  0.00     0.017 A 
ATOM     18  C   UNL d   1       4.987  -2.983  -0.389  0.00  0.00     0.004 A 
ATOM     19  C   UNL d   1       4.530  -1.741   0.044  0.00  0.00     0.033 A 
ENDBRANCH  11  13
ENDBRANCH   1  11
TORSDOF 4
