REMARK  7 active torsions:
REMARK  status: ('A' for Active; 'I' for Inactive)
REMARK    1  A    between atoms: N_7  and  S_1 
REMARK    2  A    between atoms: C_11  and  S_1 
REMARK    3  A    between atoms: C_15  and  C_4 
REMARK    4  A    between atoms: N_10  and  N_7 
REMARK    5  A    between atoms: C_8  and  C_21 
REMARK       I    between atoms: C_12  and  N_10 
REMARK    6  A    between atoms: C_22  and  C_12 
REMARK    7  A    between atoms: C_21  and  C_22 
ROOT
ATOM      1  N   UNL d   1       0.999  -2.676   0.240  0.00  0.00    -0.260 N 
ATOM      2  C   UNL d   1       0.558  -3.818   0.878  0.00  0.00     0.236 C 
ATOM      3  O   UNL d   1      -0.205  -3.791   1.841  0.00  0.00    -0.272 OA
ATOM      4  H   UNL d   1       1.553  -2.693  -0.616  0.00  0.00     0.190 HD
ENDROOT
BRANCH   2   5
ATOM      5  C   UNL d   1       1.089  -5.096   0.260  0.00  0.00     0.112 C 
BRANCH   5   6
ATOM      6  C   UNL d   1       0.551  -6.324   0.988  0.00  0.00     0.096 C 
BRANCH   6   7
ATOM      7  C   UNL d   1       1.044  -7.600   0.411  0.00  0.00     0.148 A 
ATOM      8  N   UNL d   1       1.855  -7.831  -0.595  0.00  0.00    -0.323 N 
ATOM      9  C   UNL d   1       1.917  -9.213  -0.622  0.00  0.00     0.137 A 
ATOM     10  HN  UNL d   1       2.323  -7.160  -1.204  1.00  0.00     0.169 HD
ATOM     11  N   UNL d   1       1.173  -9.804   0.328  0.00  0.00    -0.242 N 
ATOM     12  O   UNL d   1       0.594  -8.739   1.011  0.00  0.00    -0.223 OA
ATOM     13  HN  UNL d   1       1.058 -10.802   0.506  1.00  0.00     0.196 HD
BRANCH   9  14
ATOM     14  C   UNL d   1       2.728  -9.945  -1.592  0.00  0.00     0.010 A 
ATOM     15  C   UNL d   1       3.475  -9.249  -2.555  0.00  0.00     0.017 A 
ATOM     16  C   UNL d   1       4.263  -9.938  -3.485  0.00  0.00     0.025 A 
ATOM     17  C   UNL d   1       4.311 -11.329  -3.458  0.00  0.00     0.034 A 
ATOM     18  C   UNL d   1       3.575 -12.039  -2.513  0.00  0.00     0.025 A 
ATOM     19 CL   UNL d   1       5.286 -12.174  -4.596  0.00  0.00    -0.084 Cl
ATOM     20  C   UNL d   1       2.785 -11.350  -1.585  0.00  0.00     0.017 A 
ENDBRANCH   9  14
ENDBRANCH   6   7
ENDBRANCH   5   6
ENDBRANCH   2   5
BRANCH   1  21
ATOM     21  N   UNL d   1       0.461  -1.383   0.663  0.00  0.00    -0.220 N 
ATOM     22  H   UNL d   1      -0.280  -1.401   1.373  0.00  0.00     0.200 HD
BRANCH  21  23
ATOM     23  S   UNL d   1       0.422  -0.153  -0.503  0.00  0.00     0.276 S 
ATOM     24  O   UNL d   1      -0.612  -0.523  -1.447  0.00  0.00    -0.199 OA
ATOM     25  O   UNL d   1       1.783   0.071  -0.942  0.00  0.00    -0.199 OA
BRANCH  23  26
ATOM     26  C   UNL d   1      -0.120   1.275   0.394  0.00  0.00     0.081 A 
ATOM     27  C   UNL d   1       0.686   1.798   1.407  0.00  0.00     0.026 A 
ATOM     28  C   UNL d   1       0.301   2.974   2.056  0.00  0.00     0.008 A 
ATOM     29  C   UNL d   1      -0.880   3.638   1.691  0.00  0.00    -0.062 A 
ATOM     30  C   UNL d   1      -1.677   3.103   0.672  0.00  0.00     0.008 A 
ATOM     31  C   UNL d   1      -1.264   4.918   2.378  0.00  0.00     0.048 C 
ATOM     32  C   UNL d   1      -1.302   1.924   0.023  0.00  0.00     0.026 A 
ENDBRANCH  23  26
ENDBRANCH  21  23
ENDBRANCH   1  21
TORSDOF 7
