REMARK  1 active torsions:
REMARK  status: ('A' for Active; 'I' for Inactive)
REMARK    1  A    between atoms: C_2  and  N_1 
ROOT
ATOM      1  C   UNL d   1      -0.004   2.332   0.011  0.00  0.00     0.087 A 
ATOM      2  C   UNL d   1       0.660   3.045  -1.002  0.00  0.00     0.075 A 
ATOM      3  C   UNL d   1      -0.663   3.091   0.995  0.00  0.00     0.143 A 
ATOM      4  C   UNL d   1      -0.688   4.489   0.960  0.00  0.00     0.047 A 
ATOM      5  C   UNL d   1       0.634   4.440  -1.032  0.00  0.00     0.118 A 
ATOM      6  F   UNL d   1      -1.214   2.512   2.070  0.00  0.00    -0.204 F 
ATOM      7  C   UNL d   1      -0.038   5.170  -0.063  0.00  0.00     0.045 A 
ATOM      8  F   UNL d   1       1.267   5.088  -2.018  0.00  0.00    -0.206 F 
ENDROOT
BRANCH   1   9
ATOM      9  N   UNL d   1       0.015   0.906   0.034  0.00  0.00    -0.242 N 
ATOM     10  C   UNL d   1       0.927   0.119  -0.614  0.00  0.00     0.255 A 
ATOM     11  C   UNL d   1       0.582  -1.280  -0.346  0.00  0.00     0.080 A 
ATOM     12  O   UNL d   1       1.903   0.410  -1.286  0.00  0.00    -0.268 OA
ATOM     13  C   UNL d   1      -0.504  -1.290   0.421  0.00  0.00     0.080 A 
ATOM     14  C   UNL d   1      -0.915   0.103   0.640  0.00  0.00     0.255 A 
ATOM     15  O   UNL d   1      -1.975   0.356   1.184  0.00  0.00    -0.268 OA
ENDBRANCH   1   9
TORSDOF 1
