REMARK  4 active torsions:
REMARK  status: ('A' for Active; 'I' for Inactive)
REMARK    1  A    between atoms: C_4  and  N_1 
REMARK    2  A    between atoms: S_7  and  C_5 
REMARK    3  A    between atoms: C_9  and  S_7 
REMARK    4  A    between atoms: N_15  and  C_12 
ROOT
ATOM      1  N   UNL d   1       0.040   0.870  -0.064  0.00  0.00    -0.251 N 
ATOM      2  C   UNL d   1      -1.095   0.158   0.226  0.00  0.00     0.232 C 
ATOM      3  C   UNL d   1       1.157   0.071  -0.100  0.00  0.00     0.245 C 
ATOM      4  C   UNL d   1       0.713  -1.379  -0.121  0.00  0.00     0.154 C 
ATOM      5  C   UNL d   1      -0.768  -1.310   0.214  0.00  0.00     0.129 C 
ATOM      6  O   UNL d   1      -2.213   0.586   0.476  0.00  0.00    -0.273 OA
ATOM      7  O   UNL d   1       2.328   0.426  -0.087  0.00  0.00    -0.271 OA
ENDROOT
BRANCH   1   8
ATOM      8  C   UNL d   1       0.076   2.284  -0.162  0.00  0.00     0.056 A 
ATOM      9  C   UNL d   1       0.575   2.930  -1.331  0.00  0.00     0.002 A 
ATOM     10  C   UNL d   1       0.531   4.350  -1.391  0.00  0.00    -0.024 A 
ATOM     11  C   UNL d   1       1.048   2.253  -2.483  0.00  0.00     0.014 A 
ATOM     12  C   UNL d   1       0.962   5.021  -2.547  0.00  0.00     0.012 A 
ATOM     13  C   UNL d   1       0.029   5.082  -0.307  0.00  0.00     0.012 A 
ATOM     14  C   UNL d   1       1.421   4.321  -3.660  0.00  0.00     0.001 A 
ATOM     15  C   UNL d   1       1.463   2.935  -3.628  0.00  0.00     0.001 A 
ATOM     16  C   UNL d   1      -0.468   4.438   0.822  0.00  0.00     0.003 A 
ATOM     17  C   UNL d   1      -0.460   3.046   0.888  0.00  0.00     0.031 A 
ENDBRANCH   1   8
BRANCH   4  18
ATOM     18  S   UNL d   1       1.091  -2.030  -1.800  0.00  0.00    -0.113 SA
BRANCH  18  19
ATOM     19  C   UNL d   1       0.561  -3.740  -1.673  0.00  0.00     0.022 A 
ATOM     20  C   UNL d   1      -0.409  -4.236  -2.572  0.00  0.00     0.022 A 
ATOM     21  C   UNL d   1      -0.836  -5.563  -2.450  0.00  0.00     0.024 A 
ATOM     22  C   UNL d   1      -0.219  -6.428  -1.547  0.00  0.00     0.002 A 
ATOM     23  C   UNL d   1       0.798  -5.959  -0.720  0.00  0.00     0.001 A 
ATOM     24  C   UNL d   1       1.181  -4.616  -0.772  0.00  0.00     0.020 A 
BRANCH  20  25
ATOM     25  N   UNL d   1      -1.103  -3.376  -3.449  0.00  0.00    -0.302 NA
ATOM     26  H   UNL d   1      -0.511  -2.595  -3.731  0.00  0.00     0.124 HD
ATOM     27  H   UNL d   1      -1.506  -3.854  -4.249  0.00  0.00     0.124 HD
ENDBRANCH  20  25
ENDBRANCH  18  19
ENDBRANCH   4  18
TORSDOF 4
