REMARK  7 active torsions:
REMARK  status: ('A' for Active; 'I' for Inactive)
REMARK    1  A    between atoms: C_7  and  C_1 
REMARK    2  A    between atoms: N_8  and  C_2 
REMARK    3  A    between atoms: C_10  and  C_3 
REMARK       I    between atoms: C_9  and  N_8 
REMARK    4  A    between atoms: C_17  and  C_9 
REMARK    5  A    between atoms: C_11  and  C_19 
REMARK    6  A    between atoms: O_20  and  C_11 
REMARK    7  A    between atoms: C_19  and  C_17 
ROOT
ATOM      1  C   UNL d   1       1.315   0.702  -0.003  0.00  0.00     0.147 A 
ATOM      2  C   UNL d   1       0.125  -1.196  -0.176  0.00  0.00     0.138 A 
ATOM      3  C   UNL d   1       1.424  -0.727   0.009  0.00  0.00     0.053 A 
ATOM      4  N   UNL d   1       0.029   1.077  -0.129  0.00  0.00    -0.292 N 
ATOM      5  HN  UNL d   1      -0.337   2.028  -0.171  1.00  0.00     0.187 HD
ATOM      6  N   UNL d   1      -0.670  -0.069  -0.189  0.00  0.00    -0.280 N 
ATOM      7  C   UNL d   1      -2.108   0.048  -0.104  0.00  0.00     0.179 C 
ENDROOT
BRANCH   2   8
ATOM      8  N   UNL d   1      -0.205  -2.548  -0.293  0.00  0.00    -0.311 N 
ATOM      9  C   UNL d   1      -1.391  -3.049  -0.914  0.00  0.00     0.223 C 
ATOM     10  O   UNL d   1      -2.100  -2.321  -1.588  0.00  0.00    -0.273 OA
ATOM     11  H   UNL d   1       0.529  -3.236  -0.102  0.00  0.00     0.170 HD
BRANCH   9  12
ATOM     12  C   UNL d   1      -1.640  -4.527  -0.763  0.00  0.00     0.113 C 
BRANCH  12  13
ATOM     13  C   UNL d   1      -1.105  -5.296  -1.972  0.00  0.00     0.119 C 
BRANCH  13  14
ATOM     14  C   UNL d   1       0.394  -5.308  -1.938  0.00  0.00     0.139 C 
ATOM     15  O   UNL d   1       1.050  -4.743  -1.071  0.00  0.00    -0.650 OA
BRANCH  14  16
ATOM     16  O   UNL d   1       0.956  -5.976  -2.960  0.00  0.00    -0.776 OA
ATOM     17  H   UNL d   1       0.332  -6.375  -3.600  0.00  0.00     0.167 HD
ENDBRANCH  14  16
ENDBRANCH  13  14
ENDBRANCH  12  13
ENDBRANCH   9  12
ENDBRANCH   2   8
BRANCH   3  18
ATOM     18  C   UNL d   1       2.616  -1.563   0.078  0.00  0.00    -0.020 A 
ATOM     19  C   UNL d   1       3.691  -1.318  -0.787  0.00  0.00     0.012 A 
ATOM     20  C   UNL d   1       4.854  -2.087  -0.713  0.00  0.00     0.001 A 
ATOM     21  C   UNL d   1       4.940  -3.133   0.202  0.00  0.00     0.000 A 
ATOM     22  C   UNL d   1       3.873  -3.397   1.058  0.00  0.00     0.001 A 
ATOM     23  C   UNL d   1       2.724  -2.603   1.013  0.00  0.00     0.012 A 
ENDBRANCH   3  18
BRANCH   1  24
ATOM     24  C   UNL d   1       2.408   1.742   0.093  0.00  0.00     0.434 C 
ATOM     25  F   UNL d   1       3.612   1.227   0.455  0.00  0.00    -0.165 F 
ATOM     26  F   UNL d   1       2.603   2.370  -1.099  0.00  0.00    -0.165 F 
ATOM     27  F   UNL d   1       2.123   2.707   1.007  0.00  0.00    -0.165 F 
ENDBRANCH   1  24
TORSDOF 7
