REMARK  4 active torsions:
REMARK  status: ('A' for Active; 'I' for Inactive)
REMARK    1  A    between atoms: C_6  and  C_1 
REMARK    2  A    between atoms: C_9  and  C_3 
REMARK    3  A    between atoms: C_7  and  C_4 
REMARK    4  A    between atoms: N_13  and  C_7 
ROOT
ATOM      1  C   UNL d   1       0.141   1.214  -0.055  0.00  0.00     0.100 A 
ATOM      2  S   UNL d   1      -1.016  -0.057  -0.105  0.00  0.00    -0.082 SA
ATOM      3  C   UNL d   1       1.439   0.716  -0.077  0.00  0.00    -0.003 A 
ATOM      4  C   UNL d   1       0.169  -1.293  -0.089  0.00  0.00     0.044 A 
ATOM      5  C   UNL d   1       1.430  -0.726  -0.096  0.00  0.00     0.035 A 
ENDROOT
BRANCH   3   6
ATOM      6  C   UNL d   1       2.665   1.534  -0.034  0.00  0.00    -0.025 A 
ATOM      7  C   UNL d   1       3.763   1.084   0.715  0.00  0.00     0.012 A 
ATOM      8  C   UNL d   1       4.963   1.802   0.740  0.00  0.00     0.001 A 
ATOM      9  C   UNL d   1       5.075   2.993   0.032  0.00  0.00     0.000 A 
ATOM     10  C   UNL d   1       3.995   3.453  -0.717  0.00  0.00     0.001 A 
ATOM     11  C   UNL d   1       2.804   2.719  -0.765  0.00  0.00     0.012 A 
ENDBRANCH   3   6
BRANCH   1  12
ATOM     12  C   UNL d   1      -0.371   2.623   0.008  0.00  0.00     0.424 C 
ATOM     13  F   UNL d   1      -1.702   2.697   0.285  0.00  0.00    -0.166 F 
ATOM     14  F   UNL d   1       0.253   3.357   0.963  0.00  0.00    -0.166 F 
ATOM     15  F   UNL d   1      -0.203   3.276  -1.172  0.00  0.00    -0.166 F 
ENDBRANCH   1  12
BRANCH   4  16
ATOM     16  C   UNL d   1      -0.229  -2.692  -0.072  0.00  0.00     0.111 C 
ATOM     17  S   UNL d   1       0.882  -3.936  -0.033  0.00  0.00    -0.059 SA
BRANCH  16  18
ATOM     18  N   UNL d   1      -1.561  -2.999  -0.080  0.00  0.00    -0.389 N 
ATOM     19  H   UNL d   1      -2.275  -2.282  -0.093  0.00  0.00     0.157 HD
ATOM     20  H   UNL d   1      -1.850  -3.970  -0.060  0.00  0.00     0.157 HD
ENDBRANCH  16  18
ENDBRANCH   4  16
TORSDOF 4
