REMARK  11 active torsions:
REMARK  status: ('A' for Active; 'I' for Inactive)
REMARK    1  A    between atoms: C_2  and  S_1 
REMARK    2  A    between atoms: N_3  and  S_1 
REMARK    3  A    between atoms: C_25  and  N_3 
REMARK    4  A    between atoms: C_26  and  N_3 
REMARK    5  A    between atoms: C_4  and  C_10 
REMARK       I    between atoms: N_11  and  C_4 
REMARK    6  A    between atoms: N_7  and  N_11 
REMARK    7  A    between atoms: O_23  and  C_9 
REMARK    8  A    between atoms: O_24  and  C_12 
REMARK    9  A    between atoms: C_21  and  C_20 
REMARK   10  A    between atoms: C_30  and  C_25 
REMARK   11  A    between atoms: C_29  and  C_26 
ROOT
ATOM      1  C   UNL d   1      -0.910  -0.235   5.930  0.00  0.00     0.270 C 
ATOM      2  N   UNL d   1      -1.087   0.950   6.640  0.00  0.00    -0.266 N 
ATOM      3  O   UNL d   1      -1.091  -1.355   6.402  0.00  0.00    -0.266 OA
ATOM      4  H   UNL d   1      -0.915   1.856   6.235  0.00  0.00     0.190 HD
ENDROOT
BRANCH   1   5
ATOM      5  C   UNL d   1      -0.472  -0.118   4.498  0.00  0.00     0.033 A 
ATOM      6  C   UNL d   1      -0.240   1.105   3.854  0.00  0.00     0.018 A 
ATOM      7  C   UNL d   1       0.205   1.140   2.525  0.00  0.00     0.026 A 
ATOM      8  C   UNL d   1       0.385  -0.045   1.808  0.00  0.00     0.074 A 
ATOM      9  C   UNL d   1       0.152  -1.273   2.431  0.00  0.00     0.026 A 
ATOM     10  C   UNL d   1      -0.273  -1.307   3.768  0.00  0.00     0.018 A 
BRANCH   8  11
ATOM     11  S   UNL d   1       1.096   0.011   0.171  0.00  0.00     0.243 S 
ATOM     12  O   UNL d   1       1.391  -1.354  -0.207  0.00  0.00    -0.206 OA
ATOM     13  O   UNL d   1       2.143   1.008   0.207  0.00  0.00    -0.206 OA
BRANCH  11  14
ATOM     14  N   UNL d   1      -0.211   0.619  -0.816  0.00  0.00    -0.206 NA
BRANCH  14  15
ATOM     15  C   UNL d   1      -0.126   2.117  -0.982  0.00  0.00     0.107 C 
BRANCH  15  16
ATOM     16  C   UNL d   1      -1.294   2.747  -1.741  0.00  0.00     0.011 C 
ATOM     17  C   UNL d   1      -1.202   4.269  -1.717  0.00  0.00     0.006 C 
ENDBRANCH  15  16
ENDBRANCH  14  15
BRANCH  14  18
ATOM     18  C   UNL d   1      -0.411  -0.123  -2.101  0.00  0.00     0.107 C 
BRANCH  18  19
ATOM     19  C   UNL d   1      -1.069  -1.494  -1.927  0.00  0.00     0.011 C 
ATOM     20  C   UNL d   1      -2.369  -1.459  -1.140  0.00  0.00     0.006 C 
ENDBRANCH  18  19
ENDBRANCH  14  18
ENDBRANCH  11  14
ENDBRANCH   8  11
ENDBRANCH   1   5
BRANCH   2  21
ATOM     21  N   UNL d   1      -1.542   0.898   7.927  0.00  0.00    -0.308 N 
ATOM     22  C   UNL d   1      -1.704   2.030   8.535  0.00  0.00     0.118 C 
ATOM     23  HN  UNL d   1      -1.744   0.010   8.387  1.00  0.00     0.186 HD
BRANCH  22  24
ATOM     24  C   UNL d   1      -2.219   2.087   9.921  0.00  0.00    -0.017 A 
ATOM     25  C   UNL d   1      -2.417   3.329  10.543  0.00  0.00     0.052 A 
ATOM     26  C   UNL d   1      -2.915   3.394  11.857  0.00  0.00     0.102 A 
ATOM     27  C   UNL d   1      -3.233   2.195  12.525  0.00  0.00     0.101 A 
ATOM     28  C   UNL d   1      -3.009   0.963  11.899  0.00  0.00     0.040 A 
ATOM     29  C   UNL d   1      -2.510   0.906  10.599  0.00  0.00     0.016 A 
BRANCH  26  30
ATOM     30  O   UNL d   1      -3.092   4.561  12.550  0.00  0.00    -0.353 OA
ATOM     31  C   UNL d   1      -2.725   5.786  11.935  0.00  0.00     0.210 C 
ENDBRANCH  26  30
BRANCH  27  32
ATOM     32  O   UNL d   1      -3.707   2.066  13.806  0.00  0.00    -0.353 OA
ATOM     33  C   UNL d   1      -4.610   3.067  14.257  0.00  0.00     0.210 C 
ENDBRANCH  27  32
ENDBRANCH  22  24
ENDBRANCH   2  21
TORSDOF 11
