REMARK  5 active torsions:
REMARK  status: ('A' for Active; 'I' for Inactive)
REMARK    1  A    between atoms: C_4  and  C_1 
REMARK    2  A    between atoms: O_11  and  C_1 
REMARK    3  A    between atoms: N_2  and  C_9 
REMARK    4  A    between atoms: C_10  and  C_5 
REMARK    5  A    between atoms: O_19  and  C_12 
ROOT
ATOM      1  N   UNL d   1      -1.772  -3.681   3.239  0.00  0.00    -0.365 N 
ATOM      2  HN  UNL d   1      -2.516  -4.202   2.774  1.00  0.00     0.165 HD
ATOM      3  C   UNL d   1      -1.515  -3.896   4.488  0.00  0.00     0.099 C 
ENDROOT
BRANCH   1   4
ATOM      4  C   UNL d   1      -1.029  -2.730   2.522  0.00  0.00     0.031 A 
ATOM      5  C   UNL d   1      -0.750  -3.023   1.183  0.00  0.00     0.030 A 
ATOM      6  C   UNL d   1       0.007  -2.156   0.388  0.00  0.00     0.020 A 
ATOM      7  C   UNL d   1       0.481  -0.960   0.932  0.00  0.00     0.037 A 
ATOM      8  C   UNL d   1       0.204  -0.648   2.267  0.00  0.00     0.020 A 
ATOM      9  C   UNL d   1      -0.560  -1.521   3.052  0.00  0.00     0.030 A 
BRANCH   7  10
ATOM     10  C   UNL d   1       1.321  -0.019   0.149  0.00  0.00     0.176 C 
ATOM     11  O   UNL d   1       2.202   0.655   0.652  0.00  0.00    -0.646 OA
BRANCH  10  12
ATOM     12  O   UNL d   1       0.991   0.048  -1.157  0.00  0.00    -0.773 OA
ATOM     13  H   UNL d   1       0.159  -0.402  -1.396  0.00  0.00     0.167 HD
ENDBRANCH  10  12
ENDBRANCH   7  10
ENDBRANCH   1   4
BRANCH   3  14
ATOM     14  C   UNL d   1      -2.186  -4.976   5.242  0.00  0.00    -0.021 A 
ATOM     15  C   UNL d   1      -3.037  -5.877   4.596  0.00  0.00     0.015 A 
ATOM     16  C   UNL d   1      -3.594  -6.947   5.304  0.00  0.00     0.037 A 
ATOM     17  C   UNL d   1      -3.310  -7.114   6.661  0.00  0.00     0.068 A 
ATOM     18  C   UNL d   1      -2.471  -6.197   7.303  0.00  0.00     0.037 A 
ATOM     19  C   UNL d   1      -1.906  -5.130   6.600  0.00  0.00     0.015 A 
BRANCH  17  20
ATOM     20  O   UNL d   1      -3.777  -8.118   7.463  0.00  0.00    -0.356 OA
ATOM     21  C   UNL d   1      -4.596  -9.105   6.848  0.00  0.00     0.210 C 
ENDBRANCH  17  20
ENDBRANCH   3  14
TORSDOF 5
