REMARK  5 active torsions:
REMARK  status: ('A' for Active; 'I' for Inactive)
REMARK    1  A    between atoms: C_2  and  C_1 
REMARK       I    between atoms: N_3  and  C_1 
REMARK    2  A    between atoms: C_6  and  N_3 
REMARK    3  A    between atoms: C_17  and  N_3 
REMARK    4  A    between atoms: C_4  and  C_5 
REMARK    5  A    between atoms: N_16  and  C_7 
ROOT
ATOM      1  C   UNL d   1       2.545  -0.296   0.386  0.00  0.00     0.085 A 
ATOM      2  C   UNL d   1       2.934  -0.397  -0.977  0.00  0.00     0.068 A 
ATOM      3  C   UNL d   1       3.532  -0.315   1.364  0.00  0.00     0.096 A 
ATOM      4  N   UNL d   1       4.850  -0.364   1.040  0.00  0.00    -0.356 N 
ATOM      5  HN  UNL d   1       5.562  -0.340   1.770  1.00  0.00     0.166 HD
ATOM      6  C   UNL d   1       5.204  -0.445  -0.255  0.00  0.00     0.090 A 
ATOM      7  C   UNL d   1       4.294  -0.478  -1.288  0.00  0.00     0.034 A 
ENDROOT
BRANCH   1   8
ATOM      8  C   UNL d   1       1.101  -0.249   0.670  0.00  0.00     0.262 C 
ATOM      9  N   UNL d   1       0.411   0.916   1.111  0.00  0.00    -0.313 N 
ATOM     10  O   UNL d   1       0.518  -1.300   0.372  0.00  0.00    -0.267 OA
BRANCH   9  11
ATOM     11  C   UNL d   1       1.027   1.913   1.961  0.00  0.00     0.049 C 
ATOM     12  C   UNL d   1       2.136   2.658   1.478  0.00  0.00    -0.035 C 
ATOM     13  C   UNL d   1       2.934   3.412   2.364  0.00  0.00     0.009 C 
ATOM     14  C   UNL d   1       2.505   2.785   0.024  0.00  0.00     0.050 C 
ATOM     15  C   UNL d   1       2.587   3.550   3.696  0.00  0.00     0.001 C 
ATOM     16  C   UNL d   1       1.414   2.967   4.145  0.00  0.00     0.009 C 
ATOM     17  C   UNL d   1       0.625   2.139   3.311  0.00  0.00    -0.035 C 
ATOM     18  C   UNL d   1      -0.595   1.595   4.008  0.00  0.00     0.050 C 
ENDBRANCH   9  11
BRANCH   9  19
ATOM     19  C   UNL d   1      -1.043   0.784   1.003  0.00  0.00     0.128 C 
ATOM     20  C   UNL d   1      -1.847   2.070   0.917  0.00  0.00     0.027 C 
ENDBRANCH   9  19
ENDBRANCH   1   8
BRANCH   2  21
ATOM     21  C   UNL d   1       1.964  -0.421  -2.132  0.00  0.00     0.418 C 
ATOM     22  F   UNL d   1       0.710   0.039  -1.888  0.00  0.00    -0.166 F 
ATOM     23  F   UNL d   1       2.417   0.366  -3.159  0.00  0.00    -0.166 F 
ATOM     24  F   UNL d   1       1.831  -1.661  -2.677  0.00  0.00    -0.166 F 
ENDBRANCH   2  21
BRANCH   3  25
ATOM     25  N   UNL d   1       3.363  -0.196   2.728  0.00  0.00    -0.282 NA
ATOM     26  C   UNL d   1       2.372  -0.926   3.481  0.00  0.00     0.114 C 
ATOM     27  H   UNL d   1       4.294  -0.245   3.138  0.00  0.00     0.128 HD
ENDBRANCH   3  25
TORSDOF 5
