REMARK  3 active torsions:
REMARK  status: ('A' for Active; 'I' for Inactive)
REMARK    1  A    between atoms: C_4  and  C_1 
REMARK       I    between atoms: N_8  and  C_4 
REMARK    2  A    between atoms: N_7  and  C_10 
REMARK    3  A    between atoms: C_14  and  N_8 
ROOT
ATOM      1  C   UNL d   1      -4.393   3.378   0.083  0.00  0.00     0.030 A 
ATOM      2  C   UNL d   1      -3.554   2.786  -0.866  0.00  0.00     0.031 A 
ATOM      3  C   UNL d   1      -5.156   2.518   0.882  0.00  0.00     0.031 A 
ATOM      4  C   UNL d   1      -4.143   0.546  -0.084  0.00  0.00     0.035 A 
ATOM      5  C   UNL d   1      -5.037   1.133   0.808  0.00  0.00     0.032 A 
ATOM      6  C   UNL d   1      -3.414   1.384  -0.937  0.00  0.00     0.032 A 
ENDROOT
BRANCH   4   7
ATOM      7  N   UNL d   1      -3.910  -0.849  -0.107  0.00  0.00    -0.322 N 
ATOM      8  C   UNL d   1      -4.653  -1.801   0.577  0.00  0.00     0.274 C 
ATOM      9  O   UNL d   1      -5.733  -1.600   1.130  0.00  0.00    -0.266 OA
ATOM     10  H   UNL d   1      -3.116  -1.194  -0.634  0.00  0.00     0.169 HD
BRANCH   8  11
ATOM     11  C   UNL d   1      -4.072  -3.143   0.614  0.00  0.00     0.125 A 
ATOM     12  N   UNL d   1      -2.894  -3.471   0.061  0.00  0.00    -0.256 N 
ATOM     13  O   UNL d   1      -2.710  -4.822   0.345  0.00  0.00    -0.242 OA
ATOM     14  HN  UNL d   1      -2.265  -2.860  -0.459  1.00  0.00     0.195 HD
ATOM     15  C   UNL d   1      -3.774  -5.287   1.057  0.00  0.00     0.075 A 
ATOM     16  C   UNL d   1      -4.662  -4.264   1.254  0.00  0.00     0.071 A 
ATOM     17  C   UNL d   1      -3.768  -6.709   1.441  0.00  0.00     0.079 C 
ENDBRANCH   8  11
ENDBRANCH   4   7
BRANCH   1  18
ATOM     18  N   UNL d   1      -4.503   4.737   0.320  0.00  0.00    -0.381 N 
ATOM     19  C   UNL d   1      -4.288   5.733  -0.728  0.00  0.00     0.123 C 
ATOM     20  C   UNL d   1      -5.079   6.995  -0.346  0.00  0.00     0.020 C 
ATOM     21  C   UNL d   1      -4.759   7.484   1.072  0.00  0.00     0.003 C 
ATOM     22  C   UNL d   1      -4.844   6.354   2.097  0.00  0.00     0.020 C 
ATOM     23  C   UNL d   1      -4.020   5.154   1.646  0.00  0.00     0.123 C 
ENDBRANCH   1  18
TORSDOF 3
