REMARK  3 active torsions:
REMARK  status: ('A' for Active; 'I' for Inactive)
REMARK    1  A    between atoms: N_2  and  S_1 
REMARK    2  A    between atoms: C_6  and  S_1 
REMARK    3  A    between atoms: C_7  and  C_3 
ROOT
ATOM      1  N   UNL d   1       0.848  -0.681  -1.289  0.00  0.00    -0.298 N 
ATOM      2  C   UNL d   1       1.033  -2.153  -1.269  0.00  0.00     0.130 C 
ATOM      3  C   UNL d   1       1.116  -0.227  -2.675  0.00  0.00     0.136 C 
ATOM      4  C   UNL d   1       2.196  -2.361  -2.245  0.00  0.00     0.033 C 
ATOM      5  C   UNL d   1       1.985  -1.302  -3.316  0.00  0.00     0.023 C 
ENDROOT
BRANCH   1   6
ATOM      6  S   UNL d   1       1.262   0.354  -0.020  0.00  0.00     0.261 S 
ATOM      7  O   UNL d   1       0.537  -0.065   1.161  0.00  0.00    -0.200 OA
ATOM      8  O   UNL d   1       1.142   1.714  -0.499  0.00  0.00    -0.200 OA
BRANCH   6   9
ATOM      9  C   UNL d   1       2.996   0.070   0.273  0.00  0.00     0.079 A 
ATOM     10  C   UNL d   1       3.935   0.335  -0.728  0.00  0.00     0.025 A 
ATOM     11  C   UNL d   1       5.287   0.077  -0.494  0.00  0.00     0.002 A 
ATOM     12  C   UNL d   1       5.702  -0.399   0.749  0.00  0.00     0.000 A 
ATOM     13  C   UNL d   1       4.769  -0.615   1.764  0.00  0.00     0.002 A 
ATOM     14  C   UNL d   1       3.414  -0.386   1.527  0.00  0.00     0.025 A 
ENDBRANCH   6   9
ENDBRANCH   1   6
BRANCH   2  15
ATOM     15  C   UNL d   1       1.093  -2.904   0.035  0.00  0.00    -0.019 A 
ATOM     16  C   UNL d   1       2.215  -3.602   0.478  0.00  0.00     0.096 A 
ATOM     17  N   UNL d   1       2.259  -4.362   1.598  0.00  0.00    -0.375 N 
ATOM     18  C   UNL d   1       1.127  -4.435   2.329  0.00  0.00     0.087 A 
ATOM     19  HN  UNL d   1       3.107  -4.856   1.876  1.00  0.00     0.164 HD
ATOM     20  C   UNL d   1      -0.043  -3.780   1.992  0.00  0.00     0.018 A 
ATOM     21  C   UNL d   1      -0.056  -3.010   0.832  0.00  0.00     0.012 A 
ENDBRANCH   2  15
TORSDOF 3
