REMARK  9 active torsions:
REMARK  status: ('A' for Active; 'I' for Inactive)
REMARK    1  A    between atoms: N_7  and  C_3 
REMARK    2  A    between atoms: S_10  and  C_4 
REMARK       I    between atoms: C_9  and  N_7 
REMARK    3  A    between atoms: C_24  and  C_9 
REMARK    4  A    between atoms: C_14  and  S_10 
REMARK    5  A    between atoms: C_11  and  C_25 
REMARK    6  A    between atoms: O_18  and  C_11 
REMARK    7  A    between atoms: C_16  and  C_14 
REMARK    8  A    between atoms: O_17  and  C_24 
REMARK    9  A    between atoms: C_25  and  O_17 
ROOT
ATOM      1  N   UNL d   1       1.289   0.277   0.223  0.00  0.00    -0.168 N 
ATOM      2  HN  UNL d   1       2.267   0.525   0.374  1.00  0.00     0.186 HD
ATOM      3  C   UNL d   1       0.210   1.107   0.100  0.00  0.00     0.701 A 
ATOM      4  C   UNL d   1       0.763  -0.914   0.101  0.00  0.00     0.174 A 
ATOM      5  N   UNL d   1      -0.960   0.484  -0.093  0.00  0.00    -0.130 N 
ATOM      6  HN  UNL d   1      -1.890   0.882  -0.219  1.00  0.00     0.205 HD
ATOM      7  N   UNL d   1      -0.578  -0.806  -0.078  0.00  0.00    -0.265 N 
ATOM      8  H   UNL d   1      -1.263  -1.545  -0.183  0.00  0.00     0.189 HD
ENDROOT
BRANCH   3   9
ATOM      9  N   UNL d   1       0.268   2.468   0.152  0.00  0.00    -0.156 N 
ATOM     10  C   UNL d   1       1.404   3.195   0.420  0.00  0.00     0.259 C 
ATOM     11  O   UNL d   1       2.521   2.749   0.675  0.00  0.00    -0.270 OA
ATOM     12  H   UNL d   1      -0.621   2.923   0.012  0.00  0.00     0.187 HD
BRANCH  10  13
ATOM     13  C   UNL d   1       1.165   4.704   0.371  0.00  0.00     0.271 C 
BRANCH  13  14
ATOM     14  O   UNL d   1       0.480   5.165   1.539  0.00  0.00    -0.372 OA
BRANCH  14  15
ATOM     15  C   UNL d   1       0.559   6.588   1.656  0.00  0.00     0.277 C 
BRANCH  15  16
ATOM     16  C   UNL d   1      -0.435   7.254   0.718  0.00  0.00     0.164 C 
ATOM     17  O   UNL d   1      -0.174   8.181  -0.031  0.00  0.00    -0.648 OA
BRANCH  16  18
ATOM     18  O   UNL d   1      -1.661   6.676   0.789  0.00  0.00    -0.775 OA
ATOM     19  H   UNL d   1      -1.654   5.934   1.430  0.00  0.00     0.167 HD
ENDBRANCH  16  18
ENDBRANCH  15  16
ENDBRANCH  14  15
ENDBRANCH  13  14
ENDBRANCH  10  13
ENDBRANCH   3   9
BRANCH   4  20
ATOM     20  S   UNL d   1       1.533  -2.450   0.129  0.00  0.00    -0.087 SA
BRANCH  20  21
ATOM     21  C   UNL d   1       3.119  -2.026   0.912  0.00  0.00     0.121 C 
BRANCH  21  22
ATOM     22  C   UNL d   1       4.013  -3.243   1.025  0.00  0.00    -0.048 A 
ATOM     23  C   UNL d   1       4.955  -3.530   0.025  0.00  0.00     0.009 A 
ATOM     24  C   UNL d   1       5.774  -4.659   0.123  0.00  0.00     0.024 A 
ATOM     25  C   UNL d   1       5.651  -5.513   1.216  0.00  0.00     0.034 A 
ATOM     26  C   UNL d   1       4.714  -5.248   2.213  0.00  0.00     0.024 A 
ATOM     27 CL   UNL d   1       6.659  -6.902   1.335  0.00  0.00    -0.084 Cl
ATOM     28  C   UNL d   1       3.897  -4.119   2.117  0.00  0.00     0.009 A 
ENDBRANCH  21  22
ENDBRANCH  20  21
ENDBRANCH   4  20
TORSDOF 9
