REMARK  8 active torsions:
REMARK  status: ('A' for Active; 'I' for Inactive)
REMARK    1  A    between atoms: C_8  and  N_1 
REMARK    2  A    between atoms: S_10  and  C_2 
REMARK    3  A    between atoms: C_9  and  C_7 
REMARK    4  A    between atoms: C_11  and  C_8 
REMARK    5  A    between atoms: C_14  and  C_9 
REMARK    6  A    between atoms: C_19  and  C_11 
REMARK    7  A    between atoms: C_12  and  C_14 
REMARK    8  A    between atoms: O_20  and  C_13 
ROOT
ATOM      1  N   UNL d   1      -0.245  -1.155  -0.016  0.00  0.00    -0.315 N 
ATOM      2  C   UNL d   1       0.950  -0.468  -0.006  0.00  0.00     0.160 A 
ATOM      3  N   UNL d   1       0.718   0.818   0.080  0.00  0.00    -0.279 N 
ATOM      4  HN  UNL d   1       1.426   1.551   0.116  1.00  0.00     0.189 HD
ATOM      5  N   UNL d   1      -0.631   1.006   0.113  0.00  0.00    -0.287 N 
ATOM      6  HN  UNL d   1      -1.105   1.906   0.184  1.00  0.00     0.188 HD
ATOM      7  C   UNL d   1      -1.221  -0.169   0.037  0.00  0.00     0.100 A 
ENDROOT
BRANCH   7   8
ATOM      8  C   UNL d   1      -2.706  -0.327  -0.053  0.00  0.00     0.083 C 
BRANCH   8   9
ATOM      9  C   UNL d   1      -3.336  -1.015   1.155  0.00  0.00     0.046 C 
BRANCH   9  10
ATOM     10  C   UNL d   1      -4.845  -0.977   1.099  0.00  0.00    -0.058 A 
ATOM     11  C   UNL d   1      -5.566  -1.993   0.454  0.00  0.00     0.010 A 
ATOM     12  C   UNL d   1      -6.961  -1.950   0.411  0.00  0.00     0.037 A 
ATOM     13  C   UNL d   1      -7.638  -0.890   1.004  0.00  0.00     0.065 A 
ATOM     14  C   UNL d   1      -6.942   0.134   1.634  0.00  0.00     0.037 A 
ATOM     15  C   UNL d   1      -5.547   0.091   1.679  0.00  0.00     0.010 A 
BRANCH  13  16
ATOM     16  O   UNL d   1      -9.000  -0.891   0.945  0.00  0.00    -0.361 OA
ATOM     17  H   UNL d   1      -9.332  -0.112   1.419  0.00  0.00     0.217 HD
ENDBRANCH  13  16
ENDBRANCH   9  10
ENDBRANCH   8   9
ENDBRANCH   7   8
BRANCH   1  18
ATOM     18  C   UNL d   1      -0.450  -2.593  -0.000  0.00  0.00     0.137 C 
BRANCH  18  19
ATOM     19  C   UNL d   1      -1.115  -3.146  -1.263  0.00  0.00     0.059 C 
BRANCH  19  20
ATOM     20  C   UNL d   1      -1.384  -4.636  -1.277  0.00  0.00    -0.057 A 
ATOM     21  C   UNL d   1      -2.569  -5.103  -1.872  0.00  0.00     0.007 A 
ATOM     22  C   UNL d   1      -2.827  -6.470  -1.987  0.00  0.00     0.001 A 
ATOM     23  C   UNL d   1      -1.902  -7.395  -1.514  0.00  0.00     0.000 A 
ATOM     24  C   UNL d   1      -0.722  -6.949  -0.922  0.00  0.00     0.001 A 
ATOM     25  C   UNL d   1      -0.461  -5.580  -0.808  0.00  0.00     0.007 A 
ENDBRANCH  19  20
ENDBRANCH  18  19
ENDBRANCH   1  18
BRANCH   2  26
ATOM     26  S   UNL d   1       2.548  -1.122  -0.109  0.00  0.00    -0.105 SA
ATOM     27  H   UNL d   1       2.336  -2.431   0.035  0.00  0.00     0.110 HD
ENDBRANCH   2  26
TORSDOF 8
