REMARK  2 active torsions:
REMARK  status: ('A' for Active; 'I' for Inactive)
REMARK       I    between atoms: N_7  and  C_1 
REMARK       I    between atoms: N_12  and  C_1 
REMARK    1  A    between atoms: C_2  and  C_6 
REMARK    2  A    between atoms: N_3  and  N_7 
ROOT
ATOM      1  N   UNL d   1       1.053  -1.883  -1.564  0.00  0.00    -0.307 N 
ATOM      2  HN  UNL d   1       2.052  -2.007  -1.400  1.00  0.00     0.186 HD
ATOM      3  C   UNL d   1       0.405  -2.564  -2.457  0.00  0.00     0.126 C 
ENDROOT
BRANCH   1   4
ATOM      4  N   UNL d   1       0.299  -0.985  -0.858  0.00  0.00    -0.252 N 
ATOM      5  C   UNL d   1       0.847  -0.191   0.117  0.00  0.00     0.332 C 
ATOM      6  O   UNL d   1       0.203   0.652   0.726  0.00  0.00    -0.246 OA
ATOM      7  N   UNL d   1       2.162  -0.416   0.352  0.00  0.00    -0.351 N 
ATOM      8  H   UNL d   1       2.650  -0.914  -0.381  0.00  0.00     0.160 HD
ATOM      9  H   UNL d   1       2.655   0.246   0.929  0.00  0.00     0.160 HD
ATOM     10  H   UNL d   1      -0.684  -0.839  -1.062  0.00  0.00     0.191 HD
ENDBRANCH   1   4
BRANCH   3  11
ATOM     11  C   UNL d   1       1.097  -3.527  -3.277  0.00  0.00     0.021 A 
ATOM     12  S   UNL d   1       0.233  -4.382  -4.478  0.00  0.00    -0.101 SA
ATOM     13  C   UNL d   1       1.645  -5.192  -5.005  0.00  0.00     0.050 A 
ATOM     14  C   UNL d   1       2.750  -4.841  -4.261  0.00  0.00     0.008 A 
ATOM     15  C   UNL d   1       2.430  -3.886  -3.254  0.00  0.00     0.021 A 
ENDBRANCH   3  11
TORSDOF 2
