REMARK  8 active torsions:
REMARK  status: ('A' for Active; 'I' for Inactive)
REMARK    1  A    between atoms: C_2  and  C_1 
REMARK    2  A    between atoms: O_6  and  C_1 
REMARK    3  A    between atoms: O_21  and  C_3 
REMARK    4  A    between atoms: O_23  and  C_4 
REMARK    5  A    between atoms: O_24  and  C_5 
REMARK    6  A    between atoms: C_10  and  O_6 
REMARK    7  A    between atoms: C_15  and  C_17 
REMARK    8  A    between atoms: O_25  and  C_16 
ROOT
ATOM      1  C   UNL d   1       1.062   2.929   6.798  0.00  0.00     0.125 C 
ATOM      2  N   UNL d   1      -0.769   4.338   5.635  0.00  0.00    -0.191 NA
ATOM      3  N   UNL d   1       1.798   3.590   9.185  0.00  0.00    -0.191 NA
ATOM      4  C   UNL d   1       0.050   3.703   6.151  0.00  0.00     0.110 C 
ATOM      5  C   UNL d   1       1.456   3.299   8.115  0.00  0.00     0.110 C 
ATOM      6  C   UNL d   1       1.662   1.881   6.197  0.00  0.00     0.045 C 
ENDROOT
BRANCH   6   7
ATOM      7  C   UNL d   1       1.380   1.432   4.828  0.00  0.00    -0.031 A 
ATOM      8  C   UNL d   1       2.127   1.945   3.766  0.00  0.00     0.014 A 
ATOM      9  C   UNL d   1       1.811   1.595   2.450  0.00  0.00     0.041 A 
ATOM     10  C   UNL d   1       0.765   0.704   2.188  0.00  0.00     0.112 A 
ATOM     11  C   UNL d   1       0.039   0.144   3.251  0.00  0.00     0.102 A 
ATOM     12  C   UNL d   1       0.344   0.531   4.567  0.00  0.00     0.051 A 
BRANCH  10  13
ATOM     13  O   UNL d   1       0.333   0.450   0.861  0.00  0.00    -0.272 OA
BRANCH  13  14
ATOM     14  C   UNL d   1       1.174   0.462  -0.244  0.00  0.00     0.298 C 
ATOM     15  O   UNL d   1       2.378   0.660  -0.262  0.00  0.00    -0.259 OA
BRANCH  14  16
ATOM     16  C   UNL d   1       0.409   0.029  -1.441  0.00  0.00     0.045 A 
ATOM     17  C   UNL d   1       1.082  -0.720  -2.411  0.00  0.00     0.057 A 
ATOM     18  C   UNL d   1       0.405  -1.225  -3.531  0.00  0.00     0.105 A 
ATOM     19  C   UNL d   1      -0.968  -0.929  -3.716  0.00  0.00     0.135 A 
ATOM     20  C   UNL d   1      -1.637  -0.157  -2.736  0.00  0.00     0.105 A 
ATOM     21  C   UNL d   1      -0.942   0.318  -1.611  0.00  0.00     0.057 A 
BRANCH  18  22
ATOM     22  O   UNL d   1       1.027  -2.020  -4.458  0.00  0.00    -0.353 OA
ATOM     23  C   UNL d   1       2.401  -2.344  -4.289  0.00  0.00     0.210 C 
ENDBRANCH  18  22
BRANCH  19  24
ATOM     24  O   UNL d   1      -1.724  -1.296  -4.799  0.00  0.00    -0.351 OA
ATOM     25  C   UNL d   1      -1.216  -2.166  -5.797  0.00  0.00     0.210 C 
ENDBRANCH  19  24
BRANCH  20  26
ATOM     26  O   UNL d   1      -2.955   0.232  -2.709  0.00  0.00    -0.353 OA
ATOM     27  C   UNL d   1      -3.876  -0.360  -3.614  0.00  0.00     0.210 C 
ENDBRANCH  20  26
ENDBRANCH  14  16
ENDBRANCH  13  14
ENDBRANCH  10  13
BRANCH  11  28
ATOM     28  O   UNL d   1      -1.014  -0.727   3.173  0.00  0.00    -0.353 OA
ATOM     29  C   UNL d   1      -1.016  -1.641   2.083  0.00  0.00     0.210 C 
ENDBRANCH  11  28
ENDBRANCH   6   7
TORSDOF 8
