REMARK  2 active torsions:
REMARK  status: ('A' for Active; 'I' for Inactive)
REMARK    1  A    between atoms: C_7  and  C_3 
REMARK    2  A    between atoms: C_8  and  C_4 
REMARK       I    between atoms: N_10  and  C_7 
ROOT
ATOM      1  N   UNL d   1      -1.459   0.604   0.053  0.00  0.00    -0.329 N 
ATOM      2  HN  UNL d   1      -2.351   1.097   0.063  1.00  0.00     0.168 HD
ATOM      3  C   UNL d   1      -1.249  -0.703   0.033  0.00  0.00     0.217 A 
ATOM      4  C   UNL d   1      -0.186   1.145   0.058  0.00  0.00     0.074 A 
ATOM      5  O   UNL d   1       0.070  -1.061   0.011  0.00  0.00    -0.291 OA
ATOM      6  C   UNL d   1       0.749   0.128   0.012  0.00  0.00     0.079 A 
ATOM      7  C   UNL d   1       2.217   0.009  -0.070  0.00  0.00     0.079 C 
ENDROOT
BRANCH   4   8
ATOM      8  C   UNL d   1       0.055   2.578   0.047  0.00  0.00    -0.007 A 
ATOM      9  C   UNL d   1       1.175   3.152   0.664  0.00  0.00     0.014 A 
ATOM     10  C   UNL d   1       1.399   4.531   0.596  0.00  0.00     0.001 A 
ATOM     11  C   UNL d   1       0.492   5.354  -0.068  0.00  0.00     0.000 A 
ATOM     12  C   UNL d   1      -0.645   4.803  -0.652  0.00  0.00     0.001 A 
ATOM     13  C   UNL d   1      -0.863   3.423  -0.593  0.00  0.00     0.014 A 
ENDBRANCH   4   8
BRANCH   3  14
ATOM     14  C   UNL d   1      -2.276  -1.733   0.014  0.00  0.00     0.290 C 
ATOM     15  O   UNL d   1      -2.078  -2.946  -0.009  0.00  0.00    -0.264 OA
ATOM     16  N   UNL d   1      -3.565  -1.259   0.019  0.00  0.00    -0.363 N 
ATOM     17  H   UNL d   1      -3.742  -0.263   0.041  0.00  0.00     0.159 HD
ATOM     18  H   UNL d   1      -4.327  -1.919   0.005  0.00  0.00     0.159 HD
ENDBRANCH   3  14
TORSDOF 2
