REMARK  5 active torsions:
REMARK  status: ('A' for Active; 'I' for Inactive)
REMARK    1  A    between atoms: C_11  and  C_3 
REMARK    2  A    between atoms: O_18  and  C_4 
REMARK    3  A    between atoms: S_14  and  C_5 
REMARK    4  A    between atoms: C_6  and  C_10 
REMARK    5  A    between atoms: C_13  and  C_11 
ROOT
ATOM      1  N   UNL d   1       0.474   0.757  -0.833  0.00  0.00    -0.317 N 
ATOM      2  HN  UNL d   1       0.805   1.271  -1.649  1.00  0.00     0.170 HD
ATOM      3  C   UNL d   1      -0.688  -1.131   0.124  0.00  0.00     0.019 A 
ATOM      4  C   UNL d   1      -0.235  -0.371  -0.943  0.00  0.00     0.150 A 
ATOM      5  C   UNL d   1       0.720   1.168   0.413  0.00  0.00     0.143 A 
ATOM      6  N   UNL d   1       0.297   0.550   1.526  0.00  0.00    -0.340 N 
ATOM      7  HN  UNL d   1       0.498   0.929   2.451  1.00  0.00     0.167 HD
ATOM      8  C   UNL d   1      -0.403  -0.593   1.374  0.00  0.00     0.018 A 
ATOM      9  C   UNL d   1      -0.859  -1.245   2.649  0.00  0.00     0.069 C 
ENDROOT
BRANCH   3  10
ATOM     10  C   UNL d   1      -1.422  -2.428  -0.061  0.00  0.00     0.083 C 
BRANCH  10  11
ATOM     11  C   UNL d   1      -2.928  -2.359  -0.226  0.00  0.00    -0.053 A 
ATOM     12  C   UNL d   1      -3.628  -3.571  -0.375  0.00  0.00     0.023 A 
ATOM     13  C   UNL d   1      -5.017  -3.596  -0.583  0.00  0.00     0.048 A 
ATOM     14  C   UNL d   1      -5.714  -2.382  -0.630  0.00  0.00     0.016 A 
ATOM     15  C   UNL d   1      -5.037  -1.175  -0.467  0.00  0.00     0.001 A 
ATOM     16  C   UNL d   1      -3.655  -1.162  -0.266  0.00  0.00     0.007 A 
BRANCH  13  17
ATOM     17  C   UNL d   1      -5.756  -4.897  -0.780  0.00  0.00     0.417 C 
ATOM     18  F   UNL d   1      -4.962  -5.997  -0.654  0.00  0.00    -0.166 F 
ATOM     19  F   UNL d   1      -6.771  -5.065   0.112  0.00  0.00    -0.166 F 
ATOM     20  F   UNL d   1      -6.323  -4.987  -2.015  0.00  0.00    -0.166 F 
ENDBRANCH  13  17
ENDBRANCH  10  11
ENDBRANCH   3  10
BRANCH   4  21
ATOM     21  O   UNL d   1      -0.491  -0.723  -2.236  0.00  0.00    -0.346 OA
ATOM     22  H   UNL d   1      -1.374  -1.124  -2.270  0.00  0.00     0.219 HD
ENDBRANCH   4  21
BRANCH   5  23
ATOM     23  S   UNL d   1       1.665   2.647   0.597  0.00  0.00    -0.107 SA
ATOM     24  H   UNL d   1       1.847   2.792  -0.720  0.00  0.00     0.110 HD
ENDBRANCH   5  23
TORSDOF 5
