REMARK  3 active torsions:
REMARK  status: ('A' for Active; 'I' for Inactive)
REMARK       I    between atoms: N_2  and  C_1 
REMARK    1  A    between atoms: C_4  and  C_1 
REMARK       I    between atoms: C_3  and  N_2 
REMARK    2  A    between atoms: C_5  and  C_3 
REMARK       I    between atoms: N_6  and  C_5 
REMARK    3  A    between atoms: C_7  and  N_6 
ROOT
ATOM      1  C   UNL d   1      -0.728   0.584   0.289  0.00  0.00     0.260 C 
ATOM      2  N   UNL d   1       0.563   0.982   0.565  0.00  0.00    -0.285 N 
ATOM      3  C   UNL d   1       1.014   2.280   0.702  0.00  0.00     0.316 C 
ATOM      4  O   UNL d   1      -1.666   1.345   0.084  0.00  0.00    -0.267 OA
ATOM      5  O   UNL d   1       0.389   3.327   0.730  0.00  0.00    -0.262 OA
ATOM      6  H   UNL d   1       1.289   0.276   0.653  0.00  0.00     0.172 HD
ENDROOT
BRANCH   3   7
ATOM      7  C   UNL d   1       2.542   2.323   0.873  0.00  0.00     0.314 C 
ATOM      8  N   UNL d   1       3.019   3.590   1.134  0.00  0.00    -0.319 N 
ATOM      9  H   UNL d   1       2.296   4.300   1.240  0.00  0.00     0.169 HD
ATOM     10  O   UNL d   1       3.156   1.267   0.794  0.00  0.00    -0.262 OA
BRANCH   8  11
ATOM     11  C   UNL d   1       4.361   3.968   1.330  0.00  0.00     0.038 A 
ATOM     12  C   UNL d   1       5.445   3.127   1.062  0.00  0.00     0.053 A 
ATOM     13  C   UNL d   1       6.750   3.570   1.293  0.00  0.00     0.037 A 
ATOM     14 CL   UNL d   1       8.077   2.530   0.943  0.00  0.00    -0.084 Cl
ATOM     15  C   UNL d   1       6.992   4.843   1.799  0.00  0.00     0.048 A 
ATOM     16  C   UNL d   1       5.913   5.682   2.057  0.00  0.00     0.037 A 
ATOM     17  C   UNL d   1       4.604   5.258   1.813  0.00  0.00     0.053 A 
ATOM     18 CL   UNL d   1       6.194   7.256   2.693  0.00  0.00    -0.084 Cl
ENDBRANCH   8  11
ENDBRANCH   3   7
BRANCH   1  19
ATOM     19  C   UNL d   1      -0.940  -0.887   0.141  0.00  0.00     0.054 A 
ATOM     20  C   UNL d   1      -0.267  -1.873   0.880  0.00  0.00     0.049 A 
ATOM     21 CL   UNL d   1       0.842  -1.516   2.156  0.00  0.00    -0.083 Cl
ATOM     22  C   UNL d   1      -0.506  -3.228   0.620  0.00  0.00     0.025 A 
ATOM     23  C   UNL d   1      -1.424  -3.610  -0.358  0.00  0.00     0.002 A 
ATOM     24  C   UNL d   1      -2.121  -2.643  -1.072  0.00  0.00     0.001 A 
ATOM     25  C   UNL d   1      -1.883  -1.287  -0.823  0.00  0.00     0.019 A 
ENDBRANCH   1  19
TORSDOF 3
