REMARK  6 active torsions:
REMARK  status: ('A' for Active; 'I' for Inactive)
REMARK    1  A    between atoms: C_3  and  C_1 
REMARK    2  A    between atoms: C_4  and  CA_2 
REMARK       I    between atoms: N_5  and  C_3 
REMARK    3  A    between atoms: OXT_17  and  C_4 
REMARK    4  A    between atoms: C_12  and  N_5 
REMARK    5  A    between atoms: O_19  and  C_11 
REMARK    6  A    between atoms: O_20  and  C_14 
ROOT
ATOM      1  C   UNL d   1      -1.622  -2.481   0.718  0.00  0.00     0.275 C 
ATOM      2  N   UNL d   1      -1.023  -3.653   0.274  0.00  0.00    -0.322 N 
ATOM      3  O   UNL d   1      -1.099  -1.597   1.391  0.00  0.00    -0.266 OA
ATOM      4  H   UNL d   1      -1.585  -4.244  -0.331  0.00  0.00     0.169 HD
ENDROOT
BRANCH   1   5
ATOM      5  C   UNL d   1      -3.046  -2.307   0.347  0.00  0.00     0.134 A 
ATOM      6  CA  UNL d   1      -3.584  -1.039   0.149  0.00  0.00     0.139 A 
ATOM      7  N   UNL d   1      -4.932  -0.832   0.066  0.00  0.00    -0.357 N 
ATOM      8  C   UNL d   1      -5.697  -1.942   0.166  0.00  0.00     0.105 A 
ATOM      9  HN  UNL d   1      -5.334   0.097  -0.063  1.00  0.00     0.165 HD
ATOM     10  C   UNL d   1      -5.154  -3.212   0.294  0.00  0.00     0.105 A 
ATOM     11  N   UNL d   1      -3.819  -3.434   0.385  0.00  0.00    -0.358 N 
ATOM     12  HN  UNL d   1      -3.423  -4.370   0.475  1.00  0.00     0.165 HD
BRANCH   6  13
ATOM     13  C   UNL d   1      -2.710   0.105  -0.217  0.00  0.00     0.196 C 
ATOM     14  O   UNL d   1      -1.736   0.037  -0.945  0.00  0.00    -0.645 OA
BRANCH  13  15
ATOM     15  OXT UNL d   1      -3.164   1.281   0.248  0.00  0.00    -0.772 OA
ATOM     16  HXT UNL d   1      -2.546   1.944  -0.122  0.00  0.00     0.167 HD
ENDBRANCH  13  15
ENDBRANCH   6  13
ENDBRANCH   1   5
BRANCH   2  17
ATOM     17  C   UNL d   1       0.354  -3.947   0.394  0.00  0.00     0.037 A 
ATOM     18  C   UNL d   1       1.176  -3.319   1.334  0.00  0.00     0.069 A 
ATOM     19  C   UNL d   1       2.564  -3.490   1.316  0.00  0.00     0.103 A 
ATOM     20  C   UNL d   1       3.142  -4.325   0.344  0.00  0.00     0.101 A 
ATOM     21  C   UNL d   1       2.314  -5.042  -0.526  0.00  0.00     0.042 A 
ATOM     22  C   UNL d   1       0.923  -4.861  -0.493  0.00  0.00     0.032 A 
BRANCH  19  23
ATOM     23  O   UNL d   1       3.429  -2.864   2.181  0.00  0.00    -0.353 OA
ATOM     24  C   UNL d   1       2.858  -2.026   3.179  0.00  0.00     0.210 C 
ENDBRANCH  19  23
BRANCH  20  25
ATOM     25  O   UNL d   1       4.513  -4.380   0.334  0.00  0.00    -0.353 OA
ATOM     26  C   UNL d   1       5.138  -4.916  -0.824  0.00  0.00     0.210 C 
ENDBRANCH  20  25
ENDBRANCH   2  17
TORSDOF 6
