REMARK  4 active torsions:
REMARK  status: ('A' for Active; 'I' for Inactive)
REMARK    1  A    between atoms: C_5  and  C_1 
REMARK    2  A    between atoms: C_6  and  C_2 
REMARK       I    between atoms: N_7  and  C_5 
REMARK    3  A    between atoms: C_11  and  N_10 
REMARK    4  A    between atoms: O_21  and  C_18 
ROOT
ATOM      1  C   UNL d   1       0.156  -2.493   0.569  0.00  0.00     0.258 C 
ATOM      2  N   UNL d   1      -0.716  -3.538   0.245  0.00  0.00    -0.345 N 
ATOM      3  N   UNL d   1      -2.795  -5.457  -0.239  0.00  0.00    -0.376 N 
ATOM      4  O   UNL d   1       0.269  -1.507  -0.153  0.00  0.00    -0.267 OA
ATOM      5  C   UNL d   1      -1.557  -3.420  -0.959  0.00  0.00     0.146 C 
ATOM      6  C   UNL d   1      -0.618  -4.920   0.751  0.00  0.00     0.146 C 
ATOM      7  C   UNL d   1      -2.949  -4.083  -0.780  0.00  0.00     0.143 C 
ATOM      8  C   UNL d   1      -2.019  -5.498   1.012  0.00  0.00     0.143 C 
ENDROOT
BRANCH   1   9
ATOM      9  C   UNL d   1       0.922  -2.598   1.801  0.00  0.00     0.092 C 
ATOM     10  C   UNL d   1       2.290  -2.250   2.082  0.00  0.00     0.085 C 
ATOM     11  N   UNL d   1       2.595  -2.632   3.333  0.00  0.00    -0.259 N 
ATOM     12  O   UNL d   1       1.425  -2.993   3.940  0.00  0.00    -0.241 OA
ATOM     13  HN  UNL d   1       3.524  -2.650   3.752  1.00  0.00     0.195 HD
ATOM     14  C   UNL d   1       0.410  -2.917   3.046  0.00  0.00     0.090 C 
ATOM     15  C   UNL d   1      -0.936  -3.171   3.594  0.00  0.00     0.080 C 
BRANCH  10  16
ATOM     16  C   UNL d   1       3.317  -1.617   1.235  0.00  0.00     0.015 A 
ATOM     17  C   UNL d   1       4.254  -0.686   1.746  0.00  0.00     0.046 A 
ATOM     18 CL   UNL d   1       4.287  -0.150   3.396  0.00  0.00    -0.083 Cl
ATOM     19  C   UNL d   1       5.211  -0.097   0.907  0.00  0.00     0.025 A 
ATOM     20  C   UNL d   1       5.243  -0.399  -0.451  0.00  0.00     0.002 A 
ATOM     21  C   UNL d   1       4.326  -1.308  -0.973  0.00  0.00     0.001 A 
ATOM     22  C   UNL d   1       3.382  -1.915  -0.137  0.00  0.00     0.015 A 
ENDBRANCH  10  16
ENDBRANCH   1   9
BRANCH   3  23
ATOM     23  C   UNL d   1      -3.961  -6.240  -0.289  0.00  0.00     0.064 A 
ATOM     24  C   UNL d   1      -4.402  -6.838  -1.494  0.00  0.00     0.094 A 
ATOM     25  C   UNL d   1      -5.548  -7.650  -1.516  0.00  0.00     0.039 A 
ATOM     26  C   UNL d   1      -6.270  -7.897  -0.352  0.00  0.00     0.003 A 
ATOM     27  C   UNL d   1      -5.870  -7.305   0.837  0.00  0.00     0.002 A 
ATOM     28  C   UNL d   1      -4.735  -6.485   0.863  0.00  0.00     0.032 A 
BRANCH  24  29
ATOM     29  O   UNL d   1      -3.822  -6.683  -2.731  0.00  0.00    -0.354 OA
ATOM     30  C   UNL d   1      -2.405  -6.814  -2.759  0.00  0.00     0.210 C 
ENDBRANCH  24  29
ENDBRANCH   3  23
TORSDOF 4
