REMARK  5 active torsions:
REMARK  status: ('A' for Active; 'I' for Inactive)
REMARK    1  A    between atoms: N_2  and  N_1 
REMARK       I    between atoms: C_6  and  N_2 
REMARK       I    between atoms: N_4  and  C_6 
REMARK    2  A    between atoms: N_10  and  C_7 
REMARK    3  A    between atoms: S_15  and  C_7 
REMARK    4  A    between atoms: C_12  and  N_10 
REMARK    5  A    between atoms: C_11  and  C_12 
ROOT
ATOM      1  N   UNL d   1       6.230   0.936   2.327  0.00  0.00    -0.072 N 
ATOM      2  HN  UNL d   1       6.724   1.399   3.090  1.00  0.00     0.212 HD
ATOM      3  N   UNL d   1       4.183   0.398   1.279  0.00  0.00    -0.170 N 
ATOM      4  HN  UNL d   1       4.506  -0.502   0.925  1.00  0.00     0.186 HD
ATOM      5  C   UNL d   1       4.933   1.002   2.252  0.00  0.00     0.697 C 
ATOM      6  C   UNL d   1       3.090   0.886   0.772  0.00  0.00     0.155 C 
ATOM      7  N   UNL d   1       4.337   1.627   3.303  0.00  0.00    -0.233 N 
ATOM      8  H   UNL d   1       3.371   1.379   3.477  0.00  0.00     0.174 HD
ATOM      9  H   UNL d   1       4.916   1.721   4.127  0.00  0.00     0.174 HD
ENDROOT
BRANCH   6  10
ATOM     10  N   UNL d   1       2.362   0.114  -0.105  0.00  0.00    -0.366 N 
ATOM     11  H   UNL d   1       2.830  -0.764  -0.315  0.00  0.00     0.161 HD
BRANCH  10  12
ATOM     12  C   UNL d   1       0.910   0.016  -0.071  0.00  0.00     0.162 C 
BRANCH  12  13
ATOM     13  C   UNL d   1       0.434  -1.401  -0.290  0.00  0.00    -0.019 A 
ATOM     14  C   UNL d   1       0.170  -1.928  -1.564  0.00  0.00     0.042 A 
ATOM     15 CL   UNL d   1       0.376  -0.991  -3.001  0.00  0.00    -0.084 Cl
ATOM     16  C   UNL d   1      -0.286  -3.244  -1.710  0.00  0.00     0.024 A 
ATOM     17  C   UNL d   1      -0.482  -4.050  -0.590  0.00  0.00     0.002 A 
ATOM     18  C   UNL d   1      -0.224  -3.544   0.679  0.00  0.00     0.001 A 
ATOM     19  C   UNL d   1       0.235  -2.232   0.829  0.00  0.00     0.010 A 
ENDBRANCH  12  13
ENDBRANCH  10  12
ENDBRANCH   6  10
BRANCH   6  20
ATOM     20  S   UNL d   1       2.451   2.487   1.136  0.00  0.00    -0.098 SA
ATOM     21  C   UNL d   1       2.212   3.124  -0.534  0.00  0.00     0.099 C 
ENDBRANCH   6  20
BRANCH   1  22
ATOM     22  N   UNL d   1       6.914   0.256   1.394  0.00  0.00    -0.024 N 
ATOM     23  O   UNL d   1       7.920   0.802   0.931  0.00  0.00    -0.516 OA
ATOM     24  O   UNL d   1       6.616  -0.918   1.131  0.00  0.00    -0.516 OA
ENDBRANCH   1  22
TORSDOF 5
