REMARK  4 active torsions:
REMARK  status: ('A' for Active; 'I' for Inactive)
REMARK    1  A    between atoms: C_6  and  C_3 
REMARK    2  A    between atoms: C_10  and  C_5 
REMARK       I    between atoms: N_8  and  C_6 
REMARK    3  A    between atoms: C_11  and  N_8 
REMARK    4  A    between atoms: C_12  and  C_11 
ROOT
ATOM      1  N   UNL d   1       1.101   0.347   0.149  0.00  0.00    -0.269 N 
ATOM      2  HN  UNL d   1       2.054   0.630   0.379  1.00  0.00     0.194 HD
ATOM      3  C   UNL d   1      -0.798  -0.960  -0.076  0.00  0.00     0.249 C 
ATOM      4  O   UNL d   1       0.625  -0.980   0.062  0.00  0.00    -0.265 OA
ATOM      5  C   UNL d   1       0.112   1.140  -0.113  0.00  0.00     0.045 C 
ATOM      6  C   UNL d   1      -1.185   0.466  -0.396  0.00  0.00     0.104 C 
ENDROOT
BRANCH   3   7
ATOM      7  C   UNL d   1      -1.471  -1.551   1.172  0.00  0.00     0.249 C 
ATOM      8  N   UNL d   1      -0.843  -2.687   1.652  0.00  0.00    -0.358 N 
ATOM      9  H   UNL d   1       0.082  -2.887   1.282  0.00  0.00     0.162 HD
ATOM     10  O   UNL d   1      -2.516  -1.110   1.646  0.00  0.00    -0.271 OA
BRANCH   8  11
ATOM     11  C   UNL d   1      -1.248  -3.361   2.872  0.00  0.00     0.126 C 
BRANCH  11  12
ATOM     12  C   UNL d   1      -2.169  -4.570   2.636  0.00  0.00    -0.005 C 
ATOM     13  C   UNL d   1      -1.507  -5.648   1.776  0.00  0.00     0.011 C 
ATOM     14  C   UNL d   1      -2.576  -5.176   3.983  0.00  0.00     0.011 C 
ENDBRANCH  11  12
ENDBRANCH   8  11
ENDBRANCH   3   7
BRANCH   5  15
ATOM     15  C   UNL d   1       0.244   2.616  -0.145  0.00  0.00    -0.012 A 
ATOM     16  C   UNL d   1      -0.625   3.408  -0.905  0.00  0.00     0.013 A 
ATOM     17  C   UNL d   1      -0.466   4.797  -0.927  0.00  0.00     0.001 A 
ATOM     18  C   UNL d   1       0.552   5.398  -0.188  0.00  0.00     0.000 A 
ATOM     19  C   UNL d   1       1.422   4.613   0.567  0.00  0.00     0.001 A 
ATOM     20  C   UNL d   1       1.275   3.223   0.582  0.00  0.00     0.013 A 
ENDBRANCH   5  15
TORSDOF 4
