REMARK  3 active torsions:
REMARK  status: ('A' for Active; 'I' for Inactive)
REMARK       I    between atoms: C_5  and  N_1 
REMARK    1  A    between atoms: C_7  and  C_2 
REMARK    2  A    between atoms: C_8  and  C_3 
REMARK    3  A    between atoms: O_13  and  C_7 
ROOT
ATOM      1  N   UNL d   1      -1.298  -0.656   0.355  0.00  0.00    -0.319 N 
ATOM      2  C   UNL d   1      -1.393   0.827   0.361  0.00  0.00     0.196 C 
ATOM      3  C   UNL d   1      -0.135  -1.156  -0.374  0.00  0.00     0.183 C 
ATOM      4  S   UNL d   1       1.158   0.077  -0.081  0.00  0.00    -0.136 SA
ATOM      5  C   UNL d   1      -2.423  -1.437   0.531  0.00  0.00     0.217 C 
ATOM      6  C   UNL d   1      -0.017   1.440   0.040  0.00  0.00     0.112 C 
ATOM      7  O   UNL d   1      -3.534  -0.911   0.651  0.00  0.00    -0.274 OA
ATOM      8  C   UNL d   1      -2.278  -2.934   0.653  0.00  0.00     0.117 C 
ENDROOT
BRANCH   3   9
ATOM      9  C   UNL d   1      -0.376  -1.362  -1.873  0.00  0.00    -0.025 A 
ATOM     10  C   UNL d   1      -1.589  -1.040  -2.511  0.00  0.00     0.010 A 
ATOM     11  C   UNL d   1      -1.777  -1.261  -3.877  0.00  0.00     0.007 A 
ATOM     12  C   UNL d   1      -0.756  -1.808  -4.655  0.00  0.00    -0.062 A 
ATOM     13  C   UNL d   1       0.460  -2.123  -4.044  0.00  0.00     0.007 A 
ATOM     14  C   UNL d   1      -0.982  -2.033  -6.120  0.00  0.00     0.048 C 
ATOM     15  C   UNL d   1       0.644  -1.911  -2.671  0.00  0.00     0.010 A 
ENDBRANCH   3   9
BRANCH   2  16
ATOM     16  C   UNL d   1      -1.950   1.466   1.655  0.00  0.00     0.164 C 
ATOM     17  O   UNL d   1      -1.345   2.260   2.355  0.00  0.00    -0.648 OA
BRANCH  16  18
ATOM     18  O   UNL d   1      -3.247   1.180   1.912  0.00  0.00    -0.775 OA
ATOM     19  H   UNL d   1      -3.620   0.477   1.324  0.00  0.00     0.167 HD
ENDBRANCH  16  18
ENDBRANCH   2  16
TORSDOF 3
