REMARK  3 active torsions:
REMARK  status: ('A' for Active; 'I' for Inactive)
REMARK    1  A    between atoms: C_3  and  C_13 
REMARK    2  A    between atoms: C_4  and  C_3 
REMARK    3  A    between atoms: C_13  and  C_12 
ROOT
ATOM      1  N   UNL d   1       6.633  -3.729   5.094  0.00  0.00    -0.197 NA
ATOM      2  C   UNL d   1       6.128  -2.966   4.381  0.00  0.00     0.059 C 
ATOM      3  C   UNL d   1       5.511  -1.998   3.465  0.00  0.00     0.131 C 
ENDROOT
BRANCH   3   4
ATOM      4  C   UNL d   1       6.503  -1.569   2.386  0.00  0.00     0.098 C 
BRANCH   4   5
ATOM      5  C   UNL d   1       5.913  -0.502   1.483  0.00  0.00     0.160 C 
ATOM      6  O   UNL d   1       4.804  -0.014   1.693  0.00  0.00    -0.292 OA
BRANCH   5   7
ATOM      7  C   UNL d   1       6.722  -0.002   0.329  0.00  0.00     0.010 A 
ATOM      8  C   UNL d   1       7.774  -0.741  -0.224  0.00  0.00     0.017 A 
ATOM      9  C   UNL d   1       8.487  -0.239  -1.320  0.00  0.00     0.025 A 
ATOM     10  C   UNL d   1       8.156   1.004  -1.858  0.00  0.00     0.034 A 
ATOM     11  C   UNL d   1       7.116   1.751  -1.312  0.00  0.00     0.025 A 
ATOM     12 CL   UNL d   1       9.034   1.612  -3.206  0.00  0.00    -0.084 Cl
ATOM     13  C   UNL d   1       6.396   1.247  -0.224  0.00  0.00     0.017 A 
ENDBRANCH   5   7
ENDBRANCH   4   5
ENDBRANCH   3   4
TORSDOF 3
