REMARK  3 active torsions:
REMARK  status: ('A' for Active; 'I' for Inactive)
REMARK    1  A    between atoms: C_6  and  C_1 
REMARK    2  A    between atoms: N_2  and  C_8 
REMARK    3  A    between atoms: C_12  and  C_6 
ROOT
ATOM      1  C   UNL d   1      -2.331  -0.220  -0.058  0.00  0.00     0.127 A 
ATOM      2  O   UNL d   1      -1.547   0.901  -0.040  0.00  0.00    -0.306 OA
ATOM      3  C   UNL d   1      -1.526  -1.344  -0.115  0.00  0.00     0.055 A 
ATOM      4  C   UNL d   1      -0.180  -0.891  -0.074  0.00  0.00     0.003 A 
ATOM      5  C   UNL d   1      -0.252   0.496  -0.047  0.00  0.00     0.086 A 
ATOM      6  C   UNL d   1       2.224  -0.667  -0.019  0.00  0.00     0.103 A 
ATOM      7  C   UNL d   1       1.088  -1.502  -0.055  0.00  0.00     0.050 A 
ATOM      8  C   UNL d   1       0.852   1.345  -0.021  0.00  0.00     0.040 A 
ATOM      9  C   UNL d   1       2.110   0.733  -0.007  0.00  0.00     0.039 A 
ENDROOT
BRANCH   1  10
ATOM     10  C   UNL d   1      -3.771  -0.081  -0.038  0.00  0.00     0.215 C 
ATOM     11  O   UNL d   1      -4.534  -0.928  -0.498  0.00  0.00    -0.284 OA
BRANCH  10  12
ATOM     12  C   UNL d   1      -4.366   1.134   0.597  0.00  0.00     0.017 A 
ATOM     13  C   UNL d   1      -3.765   1.739   1.713  0.00  0.00     0.018 A 
ATOM     14  C   UNL d   1      -4.343   2.869   2.293  0.00  0.00     0.043 A 
ATOM     15  C   UNL d   1      -5.524   3.380   1.769  0.00  0.00     0.116 A 
ATOM     16  C   UNL d   1      -6.145   2.778   0.679  0.00  0.00     0.043 A 
ATOM     17  F   UNL d   1      -6.074   4.466   2.326  0.00  0.00    -0.206 F 
ATOM     18  C   UNL d   1      -5.570   1.647   0.094  0.00  0.00     0.018 A 
ENDBRANCH  10  12
ENDBRANCH   1  10
BRANCH   6  19
ATOM     19  N   UNL d   1       3.560  -1.279   0.010  0.00  0.00    -0.116 N 
ATOM     20  O   UNL d   1       3.627  -2.516   0.024  0.00  0.00    -0.532 OA
ATOM     21  O   UNL d   1       4.541  -0.521   0.023  0.00  0.00    -0.532 OA
ENDBRANCH   6  19
TORSDOF 3
