REMARK  4 active torsions:
REMARK  status: ('A' for Active; 'I' for Inactive)
REMARK    1  A    between atoms: C_6  and  C_1 
REMARK    2  A    between atoms: C_11  and  N_2 
REMARK       I    between atoms: N_9  and  C_6 
REMARK    3  A    between atoms: C_8  and  C_10 
REMARK    4  A    between atoms: C_13  and  N_9 
ROOT
ATOM      1  C   UNL d   1      -0.103  -1.254   0.203  0.00  0.00     0.080 C 
ATOM      2  N   UNL d   1       1.186   0.582   0.213  0.00  0.00    -0.260 N 
ATOM      3  N   UNL d   1      -0.041   1.003   0.592  0.00  0.00    -0.297 N 
ATOM      4  HN  UNL d   1      -0.306   1.945   0.880  1.00  0.00     0.187 HD
ATOM      5  C   UNL d   1       1.218  -0.795   0.096  0.00  0.00     0.048 C 
ATOM      6  C   UNL d   1      -0.836  -0.071   0.512  0.00  0.00     0.040 C 
ATOM      7  C   UNL d   1       2.472  -1.600  -0.021  0.00  0.00     0.071 C 
ATOM      8  C   UNL d   1      -2.280   0.157   0.773  0.00  0.00     0.071 C 
ENDROOT
BRANCH   1   9
ATOM      9  C   UNL d   1      -0.449  -2.679   0.047  0.00  0.00     0.260 C 
ATOM     10  N   UNL d   1      -1.777  -3.054   0.138  0.00  0.00    -0.323 N 
ATOM     11  H   UNL d   1      -2.467  -2.330   0.245  0.00  0.00     0.169 HD
ATOM     12  O   UNL d   1       0.454  -3.481  -0.185  0.00  0.00    -0.267 OA
BRANCH  10  13
ATOM     13  C   UNL d   1      -2.278  -4.375  -0.037  0.00  0.00     0.035 A 
ATOM     14  C   UNL d   1      -1.466  -5.501  -0.241  0.00  0.00     0.045 A 
ATOM     15  C   UNL d   1      -2.010  -6.763  -0.540  0.00  0.00     0.050 A 
ATOM     16  C   UNL d   1      -3.400  -6.912  -0.556  0.00  0.00     0.016 A 
ATOM     17  C   UNL d   1      -4.222  -5.816  -0.296  0.00  0.00     0.003 A 
ATOM     18  C   UNL d   1      -3.664  -4.556  -0.047  0.00  0.00     0.029 A 
BRANCH  15  19
ATOM     19  C   UNL d   1      -1.112  -7.928  -0.887  0.00  0.00     0.417 C 
ATOM     20  F   UNL d   1       0.213  -7.614  -0.932  0.00  0.00    -0.166 F 
ATOM     21  F   UNL d   1      -1.222  -8.958  -0.004  0.00  0.00    -0.166 F 
ATOM     22  F   UNL d   1      -1.407  -8.454  -2.110  0.00  0.00    -0.166 F 
ENDBRANCH  15  19
ENDBRANCH  10  13
ENDBRANCH   1   9
BRANCH   2  23
ATOM     23  C   UNL d   1       2.228   1.532   0.024  0.00  0.00     0.056 A 
ATOM     24  C   UNL d   1       3.261   1.312  -0.898  0.00  0.00     0.031 A 
ATOM     25  C   UNL d   1       4.296   2.242  -1.024  0.00  0.00     0.002 A 
ATOM     26  C   UNL d   1       4.302   3.393  -0.239  0.00  0.00     0.000 A 
ATOM     27  C   UNL d   1       3.257   3.635   0.652  0.00  0.00     0.002 A 
ATOM     28  C   UNL d   1       2.212   2.718   0.771  0.00  0.00     0.031 A 
ENDBRANCH   2  23
TORSDOF 4
