REMARK  3 active torsions:
REMARK  status: ('A' for Active; 'I' for Inactive)
REMARK    1  A    between atoms: C_15  and  C_4 
REMARK    2  A    between atoms: C_12  and  C_9 
REMARK    3  A    between atoms: C_11  and  C_16 
ROOT
ATOM      1  N   UNL d   1       1.249   0.101   0.032  0.00  0.00    -0.318 N 
ATOM      2  HN  UNL d   1       2.259   0.238   0.066  1.00  0.00     0.169 HD
ATOM      3  C   UNL d   1       0.577  -1.033   0.013  0.00  0.00     0.189 A 
ATOM      4  C   UNL d   1       0.257   1.057  -0.006  0.00  0.00     0.138 A 
ATOM      5  C   UNL d   1       1.199  -2.325   0.043  0.00  0.00     0.059 A 
ATOM      6  N   UNL d   1      -0.984   0.549  -0.039  0.00  0.00    -0.242 N 
ATOM      7  HN  UNL d   1      -1.870   1.053  -0.065  1.00  0.00     0.196 HD
ATOM      8  S   UNL d   1       0.289  -3.767  -0.073  0.00  0.00    -0.085 SA
ATOM      9  C   UNL d   1       1.681  -4.764   0.075  0.00  0.00     0.022 A 
ATOM     10  O   UNL d   1      -0.777  -0.828  -0.030  0.00  0.00    -0.217 OA
ATOM     11  C   UNL d   1       2.547  -2.593   0.164  0.00  0.00     0.025 A 
ATOM     12  C   UNL d   1       2.823  -3.992   0.188  0.00  0.00     0.022 A 
ENDROOT
BRANCH   4  13
ATOM     13  C   UNL d   1       0.558   2.485  -0.036  0.00  0.00     0.011 A 
ATOM     14  C   UNL d   1       1.891   2.926  -0.081  0.00  0.00     0.031 A 
ATOM     15  C   UNL d   1       2.201   4.295  -0.149  0.00  0.00     0.048 A 
ATOM     16  C   UNL d   1       1.154   5.229  -0.159  0.00  0.00     0.016 A 
ATOM     17  C   UNL d   1      -0.173   4.803  -0.101  0.00  0.00     0.002 A 
ATOM     18  C   UNL d   1      -0.469   3.439  -0.042  0.00  0.00     0.015 A 
BRANCH  15  19
ATOM     19  C   UNL d   1       3.632   4.769  -0.232  0.00  0.00     0.417 C 
ATOM     20  F   UNL d   1       4.546   3.760  -0.201  0.00  0.00    -0.166 F 
ATOM     21  F   UNL d   1       3.882   5.463  -1.376  0.00  0.00    -0.166 F 
ATOM     22  F   UNL d   1       3.964   5.604   0.792  0.00  0.00    -0.166 F 
ENDBRANCH  15  19
ENDBRANCH   4  13
BRANCH   9  23
ATOM     23  C   UNL d   1       1.579  -6.207   0.088  0.00  0.00     0.021 A 
ATOM     24  S   UNL d   1       2.735  -7.179   0.912  0.00  0.00    -0.101 SA
ATOM     25  C   UNL d   1       1.924  -8.626   0.503  0.00  0.00     0.050 A 
ATOM     26  C   UNL d   1       0.804  -8.390  -0.259  0.00  0.00     0.008 A 
ATOM     27  C   UNL d   1       0.606  -6.998  -0.498  0.00  0.00     0.021 A 
ENDBRANCH   9  23
TORSDOF 3
