REMARK  4 active torsions:
REMARK  status: ('A' for Active; 'I' for Inactive)
REMARK    1  A    between atoms: C_11  and  C_3 
REMARK    2  A    between atoms: C_13  and  N_7 
REMARK    3  A    between atoms: N_14  and  C_8 
REMARK    4  A    between atoms: O_16  and  C_11 
ROOT
ATOM      1  C   UNL d   1      -0.238  -0.758   0.008  0.00  0.00     0.081 A 
ATOM      2  C   UNL d   1      -0.450   0.659   0.015  0.00  0.00     0.029 A 
ATOM      3  C   UNL d   1       0.722   1.524  -0.013  0.00  0.00     0.136 A 
ATOM      4  C   UNL d   1       1.097  -1.338   0.018  0.00  0.00     0.281 A 
ATOM      5  N   UNL d   1       1.921   1.004  -0.028  0.00  0.00    -0.284 N 
ATOM      6  HN  UNL d   1       2.729   1.627  -0.030  1.00  0.00     0.188 HD
ATOM      7  N   UNL d   1       2.134  -0.378  -0.042  0.00  0.00    -0.219 N 
ATOM      8  C   UNL d   1      -1.409  -1.484  -0.026  0.00  0.00     0.085 A 
ATOM      9  C   UNL d   1      -1.803   0.965   0.050  0.00  0.00    -0.005 A 
ATOM     10  S   UNL d   1      -2.766  -0.465   0.015  0.00  0.00    -0.076 SA
ATOM     11  O   UNL d   1       1.249  -2.553   0.110  0.00  0.00    -0.265 OA
ATOM     12  C   UNL d   1      -2.562   2.252   0.097  0.00  0.00     0.057 C 
ENDROOT
BRANCH   7  13
ATOM     13  C   UNL d   1       3.519  -0.745  -0.178  0.00  0.00     0.060 A 
ATOM     14  C   UNL d   1       3.913  -1.997  -0.675  0.00  0.00     0.031 A 
ATOM     15  C   UNL d   1       5.262  -2.331  -0.821  0.00  0.00     0.002 A 
ATOM     16  C   UNL d   1       6.250  -1.421  -0.467  0.00  0.00     0.000 A 
ATOM     17  C   UNL d   1       5.887  -0.171   0.025  0.00  0.00     0.002 A 
ATOM     18  C   UNL d   1       4.535   0.167   0.159  0.00  0.00     0.031 A 
ENDBRANCH   7  13
BRANCH   3  19
ATOM     19  C   UNL d   1       0.671   3.046  -0.100  0.00  0.00     0.312 C 
ATOM     20  O   UNL d   1       0.067   3.631  -0.981  0.00  0.00    -0.258 OA
BRANCH  19  21
ATOM     21  O   UNL d   1       1.429   3.592   0.877  0.00  0.00    -0.321 OA
ATOM     22  C   UNL d   1       1.592   5.008   0.773  0.00  0.00     0.213 C 
ENDBRANCH  19  21
ENDBRANCH   3  19
BRANCH   8  23
ATOM     23  N   UNL d   1      -1.548  -2.823  -0.087  0.00  0.00    -0.393 N 
ATOM     24  H   UNL d   1      -0.729  -3.417   0.061  0.00  0.00     0.156 HD
ATOM     25  H   UNL d   1      -2.440  -3.266   0.102  0.00  0.00     0.156 HD
ENDBRANCH   8  23
TORSDOF 4
