REMARK  4 active torsions:
REMARK  status: ('A' for Active; 'I' for Inactive)
REMARK    1  A    between atoms: C_3  and  O_1 
REMARK    2  A    between atoms: C_6  and  O_1 
REMARK    3  A    between atoms: C_2  and  C_6 
REMARK    4  A    between atoms: O_11  and  C_2 
ROOT
ATOM      1  C   UNL d   1       0.342   0.547  -1.075  0.00  0.00     0.091 A 
ATOM      2  C   UNL d   1       0.447   0.239  -2.442  0.00  0.00     0.069 A 
ATOM      3  C   UNL d   1      -0.215   1.008  -3.403  0.00  0.00     0.050 A 
ATOM      4  C   UNL d   1      -0.492   1.597  -0.682  0.00  0.00     0.040 A 
ATOM      5  C   UNL d   1      -1.005   2.078  -2.995  0.00  0.00     0.035 A 
ATOM      6 CL   UNL d   1       1.411  -1.090  -2.986  0.00  0.00    -0.081 Cl
ATOM      7  C   UNL d   1      -1.157   2.367  -1.641  0.00  0.00     0.026 A 
ATOM      8 CL   UNL d   1      -1.801   3.054  -4.166  0.00  0.00    -0.084 Cl
ENDROOT
BRANCH   1   9
ATOM      9  O   UNL d   1       1.056  -0.226  -0.194  0.00  0.00    -0.334 OA
BRANCH   9  10
ATOM     10  C   UNL d   1       1.519   0.402   1.016  0.00  0.00     0.222 C 
ATOM     11  C   UNL d   1       2.578   1.461   0.725  0.00  0.00     0.051 C 
BRANCH  10  12
ATOM     12  C   UNL d   1       2.140  -0.680   1.906  0.00  0.00     0.170 C 
ATOM     13  O   UNL d   1       2.630  -0.468   3.005  0.00  0.00    -0.648 OA
BRANCH  12  14
ATOM     14  O   UNL d   1       2.087  -1.922   1.365  0.00  0.00    -0.775 OA
ATOM     15  H   UNL d   1       1.669  -1.884   0.477  0.00  0.00     0.167 HD
ENDBRANCH  12  14
ENDBRANCH  10  12
ENDBRANCH   9  10
ENDBRANCH   1   9
TORSDOF 4
