REMARK  5 active torsions:
REMARK  status: ('A' for Active; 'I' for Inactive)
REMARK    1  A    between atoms: C_11  and  C_3 
REMARK    2  A    between atoms: C_10  and  N_4 
REMARK    3  A    between atoms: C_13  and  N_5 
REMARK    4  A    between atoms: O_18  and  C_11 
REMARK    5  A    between atoms: C_25  and  O_18 
ROOT
ATOM      1  C   UNL d   1       0.102  -0.778   0.302  0.00  0.00     0.165 C 
ATOM      2  C   UNL d   1       0.084   0.643  -0.216  0.00  0.00     0.197 C 
ATOM      3  C   UNL d   1      -1.321  -1.016   0.057  0.00  0.00     0.112 C 
ATOM      4  N   UNL d   1      -1.143   1.111   0.392  0.00  0.00    -0.182 NA
ATOM      5  N   UNL d   1       2.185  -0.135  -0.309  0.00  0.00    -0.250 N 
ATOM      6  N   UNL d   1      -2.063   0.051   0.230  0.00  0.00    -0.311 N 
ATOM      7  HN  UNL d   1      -3.081   0.104   0.245  1.00  0.00     0.181 HD
ATOM      8  C   UNL d   1       1.306  -1.222  -0.402  0.00  0.00     0.243 C 
ATOM      9  C   UNL d   1       1.486   1.009   0.122  0.00  0.00     0.252 C 
ATOM     10  O   UNL d   1       1.455  -2.336  -0.870  0.00  0.00    -0.272 OA
ATOM     11  O   UNL d   1       1.897   2.088   0.507  0.00  0.00    -0.271 OA
ENDROOT
BRANCH   4  12
ATOM     12  C   UNL d   1      -1.638   2.404   0.166  0.00  0.00     0.033 A 
ATOM     13  C   UNL d   1      -2.895   2.758   0.686  0.00  0.00     0.049 A 
ATOM     14  C   UNL d   1      -3.392   4.056   0.557  0.00  0.00     0.035 A 
ATOM     15 CL   UNL d   1      -4.915   4.461   1.249  0.00  0.00    -0.084 Cl
ATOM     16  C   UNL d   1      -2.657   5.031  -0.108  0.00  0.00     0.024 A 
ATOM     17  C   UNL d   1      -1.422   4.700  -0.653  0.00  0.00     0.003 A 
ATOM     18  C   UNL d   1      -0.918   3.401  -0.512  0.00  0.00     0.025 A 
ENDBRANCH   4  12
BRANCH   3  19
ATOM     19  C   UNL d   1      -1.853  -2.388  -0.245  0.00  0.00     0.307 C 
ATOM     20  O   UNL d   1      -2.715  -2.581  -1.083  0.00  0.00    -0.258 OA
BRANCH  19  21
ATOM     21  O   UNL d   1      -1.243  -3.289   0.547  0.00  0.00    -0.317 OA
BRANCH  21  22
ATOM     22  C   UNL d   1      -1.724  -4.639   0.424  0.00  0.00     0.175 C 
ATOM     23  C   UNL d   1      -1.118  -5.342  -0.778  0.00  0.00     0.034 C 
ENDBRANCH  21  22
ENDBRANCH  19  21
ENDBRANCH   3  19
BRANCH   5  24
ATOM     24  C   UNL d   1       3.511  -0.098  -0.814  0.00  0.00     0.045 A 
ATOM     25  C   UNL d   1       3.912  -0.993  -1.816  0.00  0.00     0.030 A 
ATOM     26  C   UNL d   1       5.168  -0.887  -2.418  0.00  0.00     0.002 A 
ATOM     27  C   UNL d   1       6.061   0.095  -2.003  0.00  0.00     0.000 A 
ATOM     28  C   UNL d   1       5.696   0.969  -0.985  0.00  0.00     0.002 A 
ATOM     29  C   UNL d   1       4.428   0.880  -0.401  0.00  0.00     0.030 A 
ENDBRANCH   5  24
TORSDOF 5
