REMARK  7 active torsions:
REMARK  status: ('A' for Active; 'I' for Inactive)
REMARK    1  A    between atoms: N_7  and  C_1 
REMARK       I    between atoms: C_8  and  N_6 
REMARK       I    between atoms: C_11  and  N_7 
REMARK    2  A    between atoms: O_18  and  C_8 
REMARK    3  A    between atoms: C_17  and  C_11 
REMARK    4  A    between atoms: N_19  and  C_17 
REMARK    5  A    between atoms: C_22  and  O_18 
REMARK    6  A    between atoms: C_20  and  N_19 
REMARK    7  A    between atoms: C_21  and  N_19 
ROOT
ATOM      1  C   UNL d   1       1.557   1.199  -0.128  0.00  0.00     0.098 A 
ATOM      2  C   UNL d   1       1.424  -0.150   0.117  0.00  0.00     0.086 A 
ATOM      3  C   UNL d   1      -0.789   0.535  -0.136  0.00  0.00     0.011 A 
ATOM      4  C   UNL d   1       0.048  -0.551   0.068  0.00  0.00    -0.018 A 
ATOM      5  S   UNL d   1       0.072   1.977  -0.409  0.00  0.00    -0.073 SA
ATOM      6  N   UNL d   1      -2.641  -0.902  -0.545  0.00  0.00    -0.323 N 
ATOM      7  C   UNL d   1      -3.522  -1.119  -1.578  0.00  0.00     0.363 C 
ATOM      8  C   UNL d   1      -2.283   0.471  -0.195  0.00  0.00     0.174 C 
ATOM      9  C   UNL d   1       2.520  -1.059   0.255  0.00  0.00     0.103 C 
ATOM     10  N   UNL d   1       3.371  -1.850   0.314  0.00  0.00    -0.191 NA
ATOM     11  C   UNL d   1      -0.493  -1.955   0.117  0.00  0.00     0.061 C 
ATOM     12  C   UNL d   1      -2.024  -1.964   0.260  0.00  0.00     0.133 C 
ATOM     13  O   UNL d   1      -4.068  -0.224  -2.212  0.00  0.00    -0.238 OA
ENDROOT
BRANCH   1  14
ATOM     14  N   UNL d   1       2.655   2.022  -0.230  0.00  0.00    -0.319 N 
ATOM     15  C   UNL d   1       3.584   2.067   0.794  0.00  0.00     0.251 C 
ATOM     16  O   UNL d   1       3.572   1.343   1.788  0.00  0.00    -0.271 OA
ATOM     17  H   UNL d   1       2.557   2.892  -0.743  0.00  0.00     0.169 HD
BRANCH  15  18
ATOM     18  C   UNL d   1       4.689   3.107   0.582  0.00  0.00     0.374 C 
BRANCH  18  19
ATOM     19  N   UNL d   1       4.272   4.280  -0.243  0.00  0.00     0.096 N 
BRANCH  19  20
ATOM     20  C   UNL d   1       3.218   5.100   0.391  0.00  0.00     0.268 C 
ATOM     21  C   UNL d   1       3.557   5.798   1.701  0.00  0.00     0.037 C 
ENDBRANCH  19  20
BRANCH  19  22
ATOM     22  C   UNL d   1       5.490   5.062  -0.561  0.00  0.00     0.268 C 
ATOM     23  C   UNL d   1       5.261   6.251  -1.489  0.00  0.00     0.037 C 
ENDBRANCH  19  22
ENDBRANCH  18  19
ENDBRANCH  15  18
ENDBRANCH   1  14
BRANCH   7  24
ATOM     24  O   UNL d   1      -3.758  -2.442  -1.780  0.00  0.00    -0.304 OA
BRANCH  24  25
ATOM     25  C   UNL d   1      -4.909  -2.747  -2.580  0.00  0.00     0.176 C 
ATOM     26  C   UNL d   1      -6.121  -2.778  -1.666  0.00  0.00     0.034 C 
ENDBRANCH  24  25
ENDBRANCH   7  24
TORSDOF 7
