REMARK  5 active torsions:
REMARK  status: ('A' for Active; 'I' for Inactive)
REMARK    1  A    between atoms: N_18  and  N_9 
REMARK    2  A    between atoms: C_24  and  C_10 
REMARK    3  A    between atoms: N_11  and  C_20 
REMARK    4  A    between atoms: C_26  and  C_16 
REMARK    5  A    between atoms: C_29  and  C_25 
ROOT
ATOM      1  C   UNL d   1      -1.149   1.018   0.121  0.00  0.00     0.104 A 
ATOM      2  C   UNL d   1      -0.746  -0.288   0.173  0.00  0.00     0.070 A 
ATOM      3  C   UNL d   1       0.681  -0.483   0.078  0.00  0.00     0.041 A 
ATOM      4  C   UNL d   1      -2.531   1.433   0.123  0.00  0.00     0.286 C 
ATOM      5  S   UNL d   1       0.164   2.080   0.049  0.00  0.00    -0.062 SA
ATOM      6  C   UNL d   1       1.269   0.778   0.032  0.00  0.00     0.103 A 
ATOM      7  N   UNL d   1      -1.678  -1.325   0.271  0.00  0.00    -0.349 N 
ATOM      8  HN  UNL d   1      -1.402  -2.299   0.393  1.00  0.00     0.167 HD
ATOM      9  N   UNL d   1      -3.405   0.330   0.068  0.00  0.00    -0.215 N 
ATOM     10  C   UNL d   1       1.567  -1.610   0.033  0.00  0.00     0.018 A 
ATOM     11  N   UNL d   1       3.403  -0.004  -0.084  0.00  0.00    -0.298 N 
ATOM     12  HN  UNL d   1       4.408   0.164  -0.135  1.00  0.00     0.187 HD
ATOM     13  N   UNL d   1       2.586   1.025  -0.028  0.00  0.00    -0.292 N 
ATOM     14  HN  UNL d   1       2.943   1.980  -0.031  1.00  0.00     0.187 HD
ATOM     15  C   UNL d   1       2.948  -1.289  -0.076  0.00  0.00     0.070 A 
ATOM     16  C   UNL d   1      -2.918  -0.958   0.195  0.00  0.00     0.211 C 
ATOM     17  O   UNL d   1      -2.887   2.605   0.188  0.00  0.00    -0.265 OA
ENDROOT
BRANCH   9  18
ATOM     18  N   UNL d   1      -4.785   0.406   0.079  0.00  0.00    -0.301 N 
ATOM     19  C   UNL d   1      -5.393   1.457  -0.362  0.00  0.00     0.119 C 
ATOM     20  HN  UNL d   1      -5.329  -0.377   0.439  1.00  0.00     0.186 HD
BRANCH  19  21
ATOM     21  C   UNL d   1      -6.870   1.530  -0.308  0.00  0.00    -0.019 A 
ATOM     22  C   UNL d   1      -7.614   0.478   0.245  0.00  0.00     0.015 A 
ATOM     23  C   UNL d   1      -9.007   0.548   0.279  0.00  0.00     0.037 A 
ATOM     24  C   UNL d   1      -9.655   1.676  -0.244  0.00  0.00     0.102 A 
ATOM     25  C   UNL d   1      -8.913   2.733  -0.799  0.00  0.00     0.037 A 
ATOM     26  C   UNL d   1      -7.516   2.657  -0.827  0.00  0.00     0.015 A 
BRANCH  24  27
ATOM     27  N   UNL d   1     -11.120   1.747  -0.213  0.00  0.00    -0.116 N 
ATOM     28  O   UNL d   1     -11.667   2.756  -0.692  0.00  0.00    -0.532 OA
ATOM     29  O   UNL d   1     -11.732   0.791   0.290  0.00  0.00    -0.532 OA
ENDBRANCH  24  27
ENDBRANCH  19  21
ENDBRANCH   9  18
BRANCH  10  30
ATOM     30  C   UNL d   1       1.025  -2.994   0.119  0.00  0.00    -0.023 A 
ATOM     31  C   UNL d   1      -0.059  -3.417  -0.670  0.00  0.00     0.012 A 
ATOM     32  C   UNL d   1      -0.613  -4.695  -0.546  0.00  0.00     0.001 A 
ATOM     33  C   UNL d   1      -0.008  -5.636   0.277  0.00  0.00     0.000 A 
ATOM     34  C   UNL d   1       1.121  -5.281   1.004  0.00  0.00     0.001 A 
ATOM     35  C   UNL d   1       1.596  -3.964   0.966  0.00  0.00     0.012 A 
ENDBRANCH  10  30
BRANCH  15  36
ATOM     36  C   UNL d   1       4.061  -2.276  -0.187  0.00  0.00    -0.007 A 
ATOM     37  C   UNL d   1       3.950  -3.464  -0.932  0.00  0.00     0.014 A 
ATOM     38  C   UNL d   1       4.954  -4.437  -0.919  0.00  0.00     0.001 A 
ATOM     39  C   UNL d   1       6.138  -4.206  -0.231  0.00  0.00     0.000 A 
ATOM     40  C   UNL d   1       6.318  -3.002   0.443  0.00  0.00     0.001 A 
ATOM     41  C   UNL d   1       5.288  -2.055   0.473  0.00  0.00     0.014 A 
ENDBRANCH  15  36
TORSDOF 5
