REMARK  5 active torsions:
REMARK  status: ('A' for Active; 'I' for Inactive)
REMARK    1  A    between atoms: C_6  and  C_1 
REMARK    2  A    between atoms: C_13  and  C_3 
REMARK    3  A    between atoms: C_8  and  C_4 
REMARK       I    between atoms: N_7  and  C_8 
REMARK       I    between atoms: C_9  and  N_7 
REMARK       I    between atoms: N_12  and  C_9 
REMARK    4  A    between atoms: C_10  and  C_11 
REMARK    5  A    between atoms: C_17  and  N_12 
ROOT
ATOM      1  N   UNL d   1      -1.750  -2.739   0.538  0.00  0.00    -0.175 NA
ATOM      2  C   UNL d   1      -0.484  -2.384   0.121  0.00  0.00     0.246 C 
ATOM      3  C   UNL d   1      -2.852  -1.927   0.351  0.00  0.00     0.305 C 
ATOM      4  N   UNL d   1      -4.025  -2.672   0.281  0.00  0.00    -0.313 N 
ATOM      5  O   UNL d   1      -2.798  -0.705   0.355  0.00  0.00    -0.253 OA
ATOM      6  O   UNL d   1       0.125  -3.225  -0.549  0.00  0.00    -0.273 OA
ATOM      7  H   UNL d   1      -1.905  -3.693   0.264  0.00  0.00     0.141 HD
ATOM      8  H   UNL d   1      -3.944  -3.652   0.048  0.00  0.00     0.170 HD
ENDROOT
BRANCH   2   9
ATOM      9  C   UNL d   1       0.057  -1.082   0.472  0.00  0.00     0.069 A 
ATOM     10  S   UNL d   1       1.033  -0.272  -0.665  0.00  0.00    -0.080 SA
ATOM     11  C   UNL d   1       1.279   1.083   0.368  0.00  0.00     0.100 A 
ATOM     12  C   UNL d   1       0.718   0.869   1.625  0.00  0.00    -0.003 A 
ATOM     13  C   UNL d   1      -0.046  -0.357   1.642  0.00  0.00     0.037 A 
BRANCH  11  14
ATOM     14  C   UNL d   1       2.065   2.232  -0.181  0.00  0.00     0.424 C 
ATOM     15  F   UNL d   1       3.395   2.088   0.069  0.00  0.00    -0.166 F 
ATOM     16  F   UNL d   1       1.942   2.366  -1.529  0.00  0.00    -0.166 F 
ATOM     17  F   UNL d   1       1.697   3.429   0.346  0.00  0.00    -0.166 F 
ENDBRANCH  11  14
BRANCH  12  18
ATOM     18  C   UNL d   1       0.885   1.777   2.772  0.00  0.00    -0.025 A 
ATOM     19  C   UNL d   1      -0.181   2.000   3.657  0.00  0.00     0.012 A 
ATOM     20  C   UNL d   1      -0.017   2.803   4.791  0.00  0.00     0.001 A 
ATOM     21  C   UNL d   1       1.212   3.407   5.050  0.00  0.00     0.000 A 
ATOM     22  C   UNL d   1       2.279   3.198   4.181  0.00  0.00     0.001 A 
ATOM     23  C   UNL d   1       2.120   2.374   3.062  0.00  0.00     0.012 A 
ENDBRANCH  12  18
ENDBRANCH   2   9
BRANCH   4  24
ATOM     24  C   UNL d   1      -5.345  -2.175   0.371  0.00  0.00     0.036 A 
ATOM     25  C   UNL d   1      -5.654  -0.867   0.753  0.00  0.00     0.045 A 
ATOM     26  C   UNL d   1      -6.988  -0.445   0.887  0.00  0.00     0.050 A 
ATOM     27  C   UNL d   1      -8.020  -1.355   0.625  0.00  0.00     0.016 A 
ATOM     28  C   UNL d   1      -7.724  -2.659   0.236  0.00  0.00     0.003 A 
ATOM     29  C   UNL d   1      -6.394  -3.067   0.111  0.00  0.00     0.029 A 
BRANCH  26  30
ATOM     30  C   UNL d   1      -7.311   0.958   1.343  0.00  0.00     0.417 C 
ATOM     31  F   UNL d   1      -6.227   1.776   1.428  0.00  0.00    -0.166 F 
ATOM     32  F   UNL d   1      -8.190   1.586   0.515  0.00  0.00    -0.166 F 
ATOM     33  F   UNL d   1      -7.887   0.973   2.578  0.00  0.00    -0.166 F 
ENDBRANCH  26  30
ENDBRANCH   4  24
TORSDOF 5
