REMARK  2 active torsions:
REMARK  status: ('A' for Active; 'I' for Inactive)
REMARK    1  A    between atoms: C_12  and  C_2 
REMARK    2  A    between atoms: N_4  and  C_12 
ROOT
ATOM      1  N   UNL d   1      -0.139   0.560  -0.558  0.00  0.00    -0.217 N 
ATOM      2  C   UNL d   1      -1.069   1.339   0.092  0.00  0.00     0.140 A 
ATOM      3  C   UNL d   1      -0.428  -0.719  -0.161  0.00  0.00     0.182 A 
ATOM      4  N   UNL d   1      -1.798   0.582   0.894  0.00  0.00    -0.284 N 
ATOM      5  HN  UNL d   1      -2.529   0.909   1.526  1.00  0.00     0.188 HD
ATOM      6  N   UNL d   1       0.816   1.028  -1.392  0.00  0.00    -0.298 N 
ATOM      7  HN  UNL d   1       0.925   2.029  -1.555  1.00  0.00     0.187 HD
ATOM      8  N   UNL d   1      -1.398  -0.721   0.727  0.00  0.00    -0.277 N 
ATOM      9  HN  UNL d   1      -1.782  -1.538   1.202  1.00  0.00     0.189 HD
ATOM     10  S   UNL d   1       0.390  -2.088  -0.778  0.00  0.00    -0.085 SA
ATOM     11  C   UNL d   1       1.593   0.165  -1.982  0.00  0.00     0.010 C 
ATOM     12  C   UNL d   1       1.532  -1.349  -1.935  0.00  0.00     0.136 C 
ATOM     13  C   UNL d   1       2.688   0.735  -2.852  0.00  0.00     0.066 C 
ENDROOT
BRANCH   2  14
ATOM     14  C   UNL d   1      -1.362   2.739  -0.254  0.00  0.00     0.227 C 
BRANCH  14  15
ATOM     15  N   UNL d   1      -0.299   3.711   0.018  0.00  0.00    -0.266 N 
ATOM     16  N   UNL d   1       0.100   4.459  -1.046  0.00  0.00    -0.019 NA
ATOM     17  N   UNL d   1      -0.175   5.723  -0.754  0.00  0.00    -0.282 N 
ATOM     18  C   UNL d   1      -0.503   5.786   0.573  0.00  0.00     0.074 A 
ATOM     19  HN  UNL d   1      -0.146   6.510  -1.403  1.00  0.00     0.184 HD
ATOM     20  C   UNL d   1      -0.352   4.527   1.143  0.00  0.00     0.077 A 
ATOM     21  C   UNL d   1      -0.978   6.841   1.360  0.00  0.00     0.033 A 
ATOM     22  C   UNL d   1      -0.493   4.276   2.510  0.00  0.00     0.033 A 
ATOM     23  C   UNL d   1      -0.919   5.356   3.291  0.00  0.00     0.002 A 
ATOM     24  C   UNL d   1      -1.205   6.602   2.722  0.00  0.00     0.002 A 
ENDBRANCH  14  15
ENDBRANCH   2  14
TORSDOF 2
