REMARK  3 active torsions:
REMARK  status: ('A' for Active; 'I' for Inactive)
REMARK    1  A    between atoms: N_2  and  C_1 
REMARK    2  A    between atoms: N_5  and  C_1 
REMARK    3  A    between atoms: C_3  and  N_2 
ROOT
ATOM      1  C   UNL d   1       1.129  -2.235  -1.377  0.00  0.00     0.035 A 
ATOM      2  C   UNL d   1       2.729  -4.052  -1.166  0.00  0.00    -0.059 A 
ATOM      3  C   UNL d   1       1.223  -3.965  -3.076  0.00  0.00    -0.059 A 
ATOM      4  C   UNL d   1       2.153  -2.875  -0.674  0.00  0.00     0.036 A 
ATOM      5  C   UNL d   1       0.632  -2.810  -2.549  0.00  0.00     0.036 A 
ATOM      6  C   UNL d   1       2.272  -4.579  -2.378  0.00  0.00     0.013 A 
ATOM      7  C   UNL d   1       3.861  -4.714  -0.434  0.00  0.00     0.048 C 
ATOM      8  C   UNL d   1       0.788  -4.510  -4.404  0.00  0.00     0.048 C 
ENDROOT
BRANCH   1   9
ATOM      9  N   UNL d   1       0.575  -1.008  -0.960  0.00  0.00    -0.333 N 
ATOM     10  H   UNL d   1      -0.410  -0.877  -1.163  0.00  0.00     0.168 HD
BRANCH   9  11
ATOM     11  C   UNL d   1       1.116  -0.055  -0.139  0.00  0.00     0.173 C 
ATOM     12  S   UNL d   1       0.035   0.856   0.768  0.00  0.00    -0.041 SA
BRANCH  11  13
ATOM     13  N   UNL d   1       2.488   0.159  -0.189  0.00  0.00    -0.367 N 
ATOM     14  C   UNL d   1       3.248  -0.024  -1.426  0.00  0.00     0.151 C 
ATOM     15  C   UNL d   1       3.228   0.826   0.878  0.00  0.00     0.151 C 
ENDBRANCH  11  13
ENDBRANCH   9  11
ENDBRANCH   1   9
TORSDOF 3
