REMARK  4 active torsions:
REMARK  status: ('A' for Active; 'I' for Inactive)
REMARK    1  A    between atoms: N_6  and  C_1 
REMARK    2  A    between atoms: C_12  and  N_2 
REMARK       I    between atoms: C_8  and  N_6 
REMARK    3  A    between atoms: C_13  and  C_8 
REMARK    4  A    between atoms: N_11  and  C_13 
ROOT
ATOM      1  C   UNL d   1       3.272  -1.005   1.221  0.00  0.00     0.152 A 
ATOM      2  N   UNL d   1       3.499  -0.458   2.492  0.00  0.00    -0.239 N 
ATOM      3  N   UNL d   1       4.641   0.284   2.517  0.00  0.00    -0.302 N 
ATOM      4  HN  UNL d   1       5.013   0.826   3.298  1.00  0.00     0.186 HD
ATOM      5  C   UNL d   1       4.349  -0.604   0.445  0.00  0.00     0.107 A 
ATOM      6  C   UNL d   1       5.165   0.149   1.300  0.00  0.00     0.134 A 
ATOM      7  C   UNL d   1       4.533  -0.734  -0.969  0.00  0.00     0.105 C 
ATOM      8  N   UNL d   1       4.683  -0.728  -2.119  0.00  0.00    -0.191 NA
ENDROOT
BRANCH   1   9
ATOM      9  N   UNL d   1       2.113  -1.691   0.857  0.00  0.00    -0.309 N 
ATOM     10  C   UNL d   1       2.188  -2.852   0.093  0.00  0.00     0.251 C 
ATOM     11  O   UNL d   1       3.241  -3.390  -0.240  0.00  0.00    -0.271 OA
ATOM     12  H   UNL d   1       1.267  -1.542   1.397  0.00  0.00     0.170 HD
BRANCH  10  13
ATOM     13  C   UNL d   1       0.811  -3.408  -0.286  0.00  0.00     0.374 C 
BRANCH  13  14
ATOM     14  N   UNL d   1       0.461  -4.712   0.290  0.00  0.00     0.097 N 
ATOM     15  C   UNL d   1       0.337  -4.760   1.744  0.00  0.00     0.273 C 
ATOM     16  C   UNL d   1      -0.424  -6.030   2.146  0.00  0.00     0.030 C 
ATOM     17  C   UNL d   1       0.217  -7.293   1.573  0.00  0.00     0.003 C 
ATOM     18  C   UNL d   1       0.525  -7.139   0.085  0.00  0.00     0.030 C 
ATOM     19  C   UNL d   1       1.266  -5.831  -0.209  0.00  0.00     0.273 C 
ENDBRANCH  13  14
ENDBRANCH  10  13
ENDBRANCH   1   9
BRANCH   2  20
ATOM     20  C   UNL d   1       2.742  -0.600   3.694  0.00  0.00     0.058 A 
ATOM     21  C   UNL d   1       1.868  -1.675   3.901  0.00  0.00     0.031 A 
ATOM     22  C   UNL d   1       1.121  -1.759   5.079  0.00  0.00     0.002 A 
ATOM     23  C   UNL d   1       1.256  -0.786   6.066  0.00  0.00     0.000 A 
ATOM     24  C   UNL d   1       2.152   0.265   5.887  0.00  0.00     0.002 A 
ATOM     25  C   UNL d   1       2.900   0.355   4.712  0.00  0.00     0.031 A 
ENDBRANCH   2  20
TORSDOF 4
