REMARK  7 active torsions:
REMARK  status: ('A' for Active; 'I' for Inactive)
REMARK    1  A    between atoms: N_7  and  C_2 
REMARK    2  A    between atoms: C_12  and  C_5 
REMARK       I    between atoms: C_8  and  N_7 
REMARK    3  A    between atoms: C_13  and  C_8 
REMARK    4  A    between atoms: C_9  and  C_15 
REMARK    5  A    between atoms: O_16  and  C_9 
REMARK    6  A    between atoms: C_10  and  C_13 
REMARK    7  A    between atoms: C_15  and  C_10 
ROOT
ATOM      1  C   UNL d   1       0.988   0.769  -0.302  0.00  0.00     0.081 A 
ATOM      2  C   UNL d   1       1.135  -0.561   0.008  0.00  0.00     0.124 A 
ATOM      3  N   UNL d   1      -1.094  -0.094  -0.054  0.00  0.00    -0.298 N 
ATOM      4  HN  UNL d   1      -2.106  -0.209   0.005  1.00  0.00     0.187 HD
ATOM      5  C   UNL d   1      -0.409   1.026  -0.338  0.00  0.00     0.062 A 
ATOM      6  N   UNL d   1      -0.146  -1.031   0.135  0.00  0.00    -0.285 N 
ATOM      7  H   UNL d   1      -0.452  -1.977   0.332  0.00  0.00     0.188 HD
ENDROOT
BRANCH   2   8
ATOM      8  N   UNL d   1       2.310  -1.288   0.180  0.00  0.00    -0.312 N 
ATOM      9  C   UNL d   1       3.604  -0.763  -0.166  0.00  0.00     0.224 C 
ATOM     10  O   UNL d   1       3.731   0.360  -0.631  0.00  0.00    -0.273 OA
ATOM     11  H   UNL d   1       2.260  -2.224   0.586  0.00  0.00     0.170 HD
BRANCH   9  12
ATOM     12  C   UNL d   1       4.781  -1.676   0.073  0.00  0.00     0.112 C 
BRANCH  12  13
ATOM     13  C   UNL d   1       5.663  -1.289   1.291  0.00  0.00    -0.030 C 
ATOM     14  C   UNL d   1       6.849  -2.276   1.339  0.00  0.00     0.016 C 
ATOM     15  C   UNL d   1       6.246   0.129   1.109  0.00  0.00     0.016 C 
BRANCH  13  16
ATOM     16  C   UNL d   1       4.902  -1.311   2.638  0.00  0.00     0.119 C 
BRANCH  16  17
ATOM     17  C   UNL d   1       4.198  -2.615   2.910  0.00  0.00     0.140 C 
ATOM     18  O   UNL d   1       3.232  -2.983   2.248  0.00  0.00    -0.650 OA
BRANCH  17  19
ATOM     19  O   UNL d   1       4.735  -3.340   3.906  0.00  0.00    -0.776 OA
ATOM     20  H   UNL d   1       5.498  -2.939   4.363  0.00  0.00     0.167 HD
ENDBRANCH  17  19
ENDBRANCH  16  17
ENDBRANCH  13  16
ENDBRANCH  12  13
ENDBRANCH   9  12
ENDBRANCH   2   8
BRANCH   5  21
ATOM     21  C   UNL d   1      -1.052   2.315  -0.606  0.00  0.00    -0.008 A 
ATOM     22  C   UNL d   1      -2.295   2.631  -0.044  0.00  0.00     0.014 A 
ATOM     23  C   UNL d   1      -2.871   3.889  -0.255  0.00  0.00     0.001 A 
ATOM     24  C   UNL d   1      -2.215   4.838  -1.038  0.00  0.00     0.000 A 
ATOM     25  C   UNL d   1      -0.987   4.531  -1.617  0.00  0.00     0.001 A 
ATOM     26  C   UNL d   1      -0.408   3.278  -1.402  0.00  0.00     0.014 A 
ENDBRANCH   5  21
TORSDOF 7
