REMARK  4 active torsions:
REMARK  status: ('A' for Active; 'I' for Inactive)
REMARK    1  A    between atoms: C_6  and  C_1 
REMARK    2  A    between atoms: C_5  and  C_2 
REMARK       I    between atoms: N_10  and  C_6 
REMARK       I    between atoms: C_9  and  N_11 
REMARK    3  A    between atoms: C_14  and  C_9 
REMARK    4  A    between atoms: N_11  and  N_10 
ROOT
ATOM      1  C   UNL d   1      -2.693   1.298  -0.044  0.00  0.00     0.289 C 
ATOM      2  N   UNL d   1      -4.001   0.948   0.219  0.00  0.00    -0.262 N 
ATOM      3  O   UNL d   1      -1.757   0.516   0.102  0.00  0.00    -0.264 OA
ATOM      4  H   UNL d   1      -4.776   1.588   0.038  0.00  0.00     0.190 HD
ENDROOT
BRANCH   1   5
ATOM      5  C   UNL d   1      -2.539   2.668  -0.519  0.00  0.00     0.143 A 
ATOM      6  C   UNL d   1      -1.368   3.353  -0.777  0.00  0.00     0.193 A 
ATOM      7  O   UNL d   1      -1.714   4.607  -1.224  0.00  0.00    -0.291 OA
ATOM      8  C   UNL d   1      -3.076   4.620  -1.213  0.00  0.00     0.121 A 
ATOM      9  N   UNL d   1      -3.625   3.498  -0.794  0.00  0.00    -0.334 N 
ATOM     10  C   UNL d   1      -3.718   5.869  -1.669  0.00  0.00     0.098 C 
ATOM     11  HN  UNL d   1      -4.617   3.285  -0.694  1.00  0.00     0.168 HD
BRANCH   6  12
ATOM     12  C   UNL d   1       0.077   3.067  -0.689  0.00  0.00     0.442 C 
ATOM     13  F   UNL d   1       0.384   1.874  -0.133  0.00  0.00    -0.164 F 
ATOM     14  F   UNL d   1       0.660   3.087  -1.918  0.00  0.00    -0.164 F 
ATOM     15  F   UNL d   1       0.721   4.008   0.054  0.00  0.00    -0.164 F 
ENDBRANCH   6  12
ENDBRANCH   1   5
BRANCH   2  16
ATOM     16  N   UNL d   1      -4.306  -0.355   0.642  0.00  0.00    -0.263 N 
ATOM     17  C   UNL d   1      -5.638  -0.719   0.695  0.00  0.00     0.270 C 
ATOM     18  O   UNL d   1      -6.549   0.079   0.482  0.00  0.00    -0.266 OA
ATOM     19  H   UNL d   1      -3.541  -1.026   0.626  0.00  0.00     0.190 HD
BRANCH  17  20
ATOM     20  C   UNL d   1      -5.936  -2.151   0.980  0.00  0.00     0.033 A 
ATOM     21  C   UNL d   1      -5.067  -2.974   1.707  0.00  0.00     0.017 A 
ATOM     22  C   UNL d   1      -5.402  -4.313   1.938  0.00  0.00     0.001 A 
ATOM     23  C   UNL d   1      -6.602  -4.832   1.450  0.00  0.00     0.000 A 
ATOM     24  C   UNL d   1      -7.478  -4.013   0.741  0.00  0.00     0.001 A 
ATOM     25  C   UNL d   1      -7.150  -2.675   0.512  0.00  0.00     0.017 A 
ENDBRANCH  17  20
ENDBRANCH   2  16
TORSDOF 4
