REMARK  4 active torsions:
REMARK  status: ('A' for Active; 'I' for Inactive)
REMARK    1  A    between atoms: C_6  and  C_1 
REMARK    2  A    between atoms: C_10  and  N_2 
REMARK    3  A    between atoms: C_8  and  C_4 
REMARK       I    between atoms: N_7  and  C_6 
REMARK    4  A    between atoms: C_9  and  N_7 
ROOT
ATOM      1  C   UNL d   1      -0.167   1.039  -0.082  0.00  0.00     0.057 C 
ATOM      2  N   UNL d   1       0.967  -0.931   0.092  0.00  0.00    -0.318 N 
ATOM      3  C   UNL d   1       1.033   0.455   0.301  0.00  0.00     0.029 C 
ATOM      4  C   UNL d   1      -0.404  -1.259  -0.003  0.00  0.00     0.025 C 
ATOM      5  C   UNL d   1      -1.060  -0.049  -0.240  0.00  0.00     0.045 C 
ATOM      6  C   UNL d   1       2.231   1.144   0.885  0.00  0.00     0.070 C 
ENDROOT
BRANCH   1   7
ATOM      7  C   UNL d   1      -0.400   2.493  -0.185  0.00  0.00     0.258 C 
ATOM      8  N   UNL d   1      -1.711   2.856  -0.467  0.00  0.00    -0.323 N 
ATOM      9  H   UNL d   1      -2.365   2.107  -0.637  0.00  0.00     0.169 HD
ATOM     10  O   UNL d   1       0.524   3.287  -0.036  0.00  0.00    -0.267 OA
BRANCH   8  11
ATOM     11  C   UNL d   1      -2.253   4.163  -0.494  0.00  0.00     0.036 A 
ATOM     12  C   UNL d   1      -1.515   5.319  -0.221  0.00  0.00     0.036 A 
ATOM     13  C   UNL d   1      -2.125   6.582  -0.202  0.00  0.00    -0.059 A 
ATOM     14  C   UNL d   1      -1.333   7.808   0.145  0.00  0.00     0.048 C 
ATOM     15  C   UNL d   1      -3.494   6.685  -0.470  0.00  0.00     0.013 A 
ATOM     16  C   UNL d   1      -4.249   5.546  -0.767  0.00  0.00    -0.059 A 
ATOM     17  C   UNL d   1      -3.621   4.290  -0.775  0.00  0.00     0.036 A 
ATOM     18  C   UNL d   1      -5.723   5.680  -1.014  0.00  0.00     0.048 C 
ENDBRANCH   8  11
ENDBRANCH   1   7
BRANCH   2  19
ATOM     19  C   UNL d   1       2.147  -1.747  -0.064  0.00  0.00     0.039 A 
ATOM     20  C   UNL d   1       2.280  -3.038   0.448  0.00  0.00     0.030 A 
ATOM     21  C   UNL d   1       3.452  -3.780   0.245  0.00  0.00     0.002 A 
ATOM     22  C   UNL d   1       4.519  -3.234  -0.459  0.00  0.00     0.000 A 
ATOM     23  C   UNL d   1       4.413  -1.947  -0.970  0.00  0.00     0.002 A 
ATOM     24  C   UNL d   1       3.236  -1.214  -0.782  0.00  0.00     0.030 A 
ENDBRANCH   2  19
BRANCH   4  25
ATOM     25  C   UNL d   1      -1.074  -2.641   0.054  0.00  0.00    -0.008 C 
ATOM     26  C   UNL d   1      -2.608  -2.532  -0.213  0.00  0.00     0.021 C 
ATOM     27  C   UNL d   1      -0.570  -3.586  -1.053  0.00  0.00     0.021 C 
ATOM     28  C   UNL d   1      -0.972  -3.228   1.481  0.00  0.00     0.021 C 
ENDBRANCH   4  25
TORSDOF 4
