REMARK  2 active torsions:
REMARK  status: ('A' for Active; 'I' for Inactive)
REMARK    1  A    between atoms: C_8  and  C_1 
REMARK    2  A    between atoms: O_14  and  C_11 
ROOT
ATOM      1  C   UNL d   1      -0.714  -2.483  -0.045  0.00  0.00     0.017 A 
ATOM      2  C   UNL d   1      -0.351  -3.380   0.972  0.00  0.00     0.018 A 
ATOM      3  C   UNL d   1      -1.541  -2.945  -1.082  0.00  0.00     0.018 A 
ATOM      4  C   UNL d   1      -1.618  -5.136  -0.085  0.00  0.00     0.065 A 
ATOM      5  C   UNL d   1      -1.993  -4.269  -1.105  0.00  0.00     0.037 A 
ATOM      6  C   UNL d   1      -0.803  -4.702   0.953  0.00  0.00     0.037 A 
ENDROOT
BRANCH   1   7
ATOM      7  C   UNL d   1      -0.230  -1.109  -0.001  0.00  0.00     0.173 A 
ATOM      8  N   UNL d   1       0.583  -0.519   0.856  0.00  0.00    -0.278 N 
ATOM      9  N   UNL d   1       0.708   0.792   0.443  0.00  0.00    -0.288 N 
ATOM     10  HN  UNL d   1       1.031  -0.949   1.665  1.00  0.00     0.189 HD
ATOM     11  C   UNL d   1      -0.038   0.905  -0.629  0.00  0.00     0.251 A 
ATOM     12  HN  UNL d   1       1.266   1.524   0.883  1.00  0.00     0.188 HD
ATOM     13  O   UNL d   1      -0.664  -0.250  -0.982  0.00  0.00    -0.286 OA
ENDBRANCH   1   7
BRANCH   4  14
ATOM     14  O   UNL d   1      -2.033  -6.434  -0.067  0.00  0.00    -0.361 OA
ATOM     15  H   UNL d   1      -2.575  -6.601  -0.855  0.00  0.00     0.217 HD
ENDBRANCH   4  14
TORSDOF 2
