REMARK  5 active torsions:
REMARK  status: ('A' for Active; 'I' for Inactive)
REMARK    1  A    between atoms: C_4  and  C_1 
REMARK       I    between atoms: N_7  and  C_1 
REMARK    2  A    between atoms: C_3  and  C_2 
REMARK    3  A    between atoms: C_6  and  C_5 
REMARK    4  A    between atoms: O_11  and  C_6 
REMARK    5  A    between atoms: C_10  and  N_7 
ROOT
ATOM      1  C   UNL d   1       0.842   2.508  -0.138  0.00  0.00    -0.009 A 
ATOM      2  C   UNL d   1       0.321   1.294   0.408  0.00  0.00     0.043 A 
ATOM      3  C   UNL d   1       0.176   3.696   0.243  0.00  0.00     0.013 A 
ATOM      4  C   UNL d   1      -0.769   1.312   1.303  0.00  0.00     0.018 A 
ATOM      5  C   UNL d   1      -0.936   3.693   1.096  0.00  0.00     0.001 A 
ATOM      6  C   UNL d   1      -1.401   2.502   1.637  0.00  0.00     0.001 A 
ENDROOT
BRANCH   2   7
ATOM      7  C   UNL d   1       0.863  -0.075   0.131  0.00  0.00     0.257 C 
ATOM      8  N   UNL d   1       1.135  -0.344  -1.190  0.00  0.00    -0.323 N 
ATOM      9  H   UNL d   1       0.966   0.403  -1.853  0.00  0.00     0.169 HD
ATOM     10  O   UNL d   1       1.020  -0.836   1.083  0.00  0.00    -0.267 OA
BRANCH   8  11
ATOM     11  C   UNL d   1       1.749  -1.501  -1.718  0.00  0.00     0.035 A 
ATOM     12  C   UNL d   1       1.925  -2.691  -1.004  0.00  0.00     0.032 A 
ATOM     13  C   UNL d   1       2.533  -3.794  -1.614  0.00  0.00     0.044 A 
ATOM     14  C   UNL d   1       2.981  -3.697  -2.925  0.00  0.00     0.116 A 
ATOM     15  C   UNL d   1       2.831  -2.518  -3.642  0.00  0.00     0.044 A 
ATOM     16  F   UNL d   1       3.564  -4.753  -3.507  0.00  0.00    -0.206 F 
ATOM     17  C   UNL d   1       2.207  -1.424  -3.041  0.00  0.00     0.032 A 
ENDBRANCH   8  11
ENDBRANCH   2   7
BRANCH   1  18
ATOM     18  C   UNL d   1       2.054   2.583  -1.015  0.00  0.00    -0.008 A 
ATOM     19  C   UNL d   1       2.170   3.347  -2.201  0.00  0.00     0.048 A 
ATOM     20  C   UNL d   1       3.311   3.257  -3.026  0.00  0.00     0.019 A 
ATOM     21  C   UNL d   1       4.376   2.438  -2.672  0.00  0.00     0.001 A 
ATOM     22  C   UNL d   1       4.318   1.727  -1.482  0.00  0.00     0.001 A 
ATOM     23  C   UNL d   1       3.192   1.822  -0.660  0.00  0.00     0.013 A 
BRANCH  19  24
ATOM     24  C   UNL d   1       1.087   4.234  -2.705  0.00  0.00     0.177 C 
ATOM     25  O   UNL d   1      -0.081   3.898  -2.800  0.00  0.00    -0.646 OA
BRANCH  24  26
ATOM     26  O   UNL d   1       1.541   5.462  -3.051  0.00  0.00    -0.773 OA
ATOM     27  H   UNL d   1       2.487   5.631  -2.868  0.00  0.00     0.167 HD
ENDBRANCH  24  26
ENDBRANCH  19  24
ENDBRANCH   1  18
TORSDOF 5
