REMARK  5 active torsions:
REMARK  status: ('A' for Active; 'I' for Inactive)
REMARK    1  A    between atoms: C_8  and  C_1 
REMARK       I    between atoms: C_6  and  N_10 
REMARK       I    between atoms: N_14  and  C_6 
REMARK    2  A    between atoms: N_10  and  C_13 
REMARK    3  A    between atoms: C_18  and  N_14 
REMARK    4  A    between atoms: C_19  and  C_18 
REMARK    5  A    between atoms: C_20  and  C_19 
ROOT
ATOM      1  C   UNL d   1      -0.529  -2.458  -0.042  0.00  0.00     0.019 A 
ATOM      2  C   UNL d   1      -1.321  -2.796  -1.151  0.00  0.00     0.045 A 
ATOM      3  C   UNL d   1      -1.827  -4.088  -1.327  0.00  0.00     0.037 A 
ATOM      4  C   UNL d   1      -0.239  -3.452   0.901  0.00  0.00     0.016 A 
ATOM      5  C   UNL d   1      -0.726  -4.750   0.731  0.00  0.00     0.003 A 
ATOM      6  C   UNL d   1      -1.513  -5.067  -0.379  0.00  0.00     0.029 A 
ENDROOT
BRANCH   3   7
ATOM      7  N   UNL d   1      -2.622  -4.460  -2.433  0.00  0.00    -0.309 N 
ATOM      8  C   UNL d   1      -3.157  -3.613  -3.380  0.00  0.00     0.320 C 
ATOM      9  O   UNL d   1      -3.128  -2.389  -3.364  0.00  0.00    -0.247 OA
ATOM     10  N   UNL d   1      -3.763  -4.315  -4.405  0.00  0.00    -0.343 N 
ATOM     11  H   UNL d   1      -3.334  -5.204  -4.617  0.00  0.00     0.164 HD
ATOM     12  H   UNL d   1      -2.955  -5.412  -2.459  0.00  0.00     0.170 HD
BRANCH  10  13
ATOM     13  C   UNL d   1      -4.263  -3.553  -5.534  0.00  0.00     0.124 C 
BRANCH  13  14
ATOM     14  C   UNL d   1      -5.047  -4.394  -6.533  0.00  0.00     0.019 C 
BRANCH  14  15
ATOM     15  C   UNL d   1      -6.334  -4.965  -5.940  0.00  0.00    -0.003 C 
ATOM     16  C   UNL d   1      -7.158  -5.675  -7.002  0.00  0.00     0.005 C 
ENDBRANCH  14  15
ENDBRANCH  13  14
ENDBRANCH  10  13
ENDBRANCH   3   7
BRANCH   1  17
ATOM     17  C   UNL d   1      -0.014  -1.105   0.129  0.00  0.00     0.173 A 
ATOM     18  N   UNL d   1       0.699  -0.575   1.104  0.00  0.00    -0.278 N 
ATOM     19  N   UNL d   1       0.921   0.745   0.758  0.00  0.00    -0.288 N 
ATOM     20  HN  UNL d   1       1.023  -1.047   1.948  1.00  0.00     0.189 HD
ATOM     21  C   UNL d   1       0.330   0.918  -0.401  0.00  0.00     0.251 A 
ATOM     22  HN  UNL d   1       1.440   1.441   1.293  1.00  0.00     0.188 HD
ATOM     23  O   UNL d   1      -0.283  -0.200  -0.869  0.00  0.00    -0.286 OA
ENDBRANCH   1  17
TORSDOF 5
