REMARK  10 active torsions:
REMARK  status: ('A' for Active; 'I' for Inactive)
REMARK    1  A    between atoms: C_9  and  C_1 
REMARK    2  A    between atoms: C_3  and  N_12 
REMARK    3  A    between atoms: N_13  and  C_3 
REMARK    4  A    between atoms: C_10  and  C_5 
REMARK    5  A    between atoms: N_12  and  N_6 
REMARK    6  A    between atoms: C_22  and  N_13 
REMARK    7  A    between atoms: O_20  and  C_16 
REMARK    8  A    between atoms: C_19  and  C_22 
REMARK    9  A    between atoms: C_23  and  C_19 
REMARK   10  A    between atoms: O_21  and  C_23 
ROOT
ATOM      1  N   UNL d   1       0.930  -3.580   0.092  0.00  0.00    -0.308 N 
ATOM      2  HN  UNL d   1       1.881  -3.270   0.295  1.00  0.00     0.186 HD
ATOM      3  C   UNL d   1      -0.048  -2.736  -0.001  0.00  0.00     0.126 C 
ENDROOT
BRANCH   3   4
ATOM      4  C   UNL d   1       0.257  -1.327   0.047  0.00  0.00     0.022 A 
ATOM      5  S   UNL d   1      -0.984  -0.158   0.019  0.00  0.00    -0.088 SA
ATOM      6  C   UNL d   1       0.135   1.153   0.016  0.00  0.00     0.016 A 
ATOM      7  C   UNL d   1       1.435   0.675   0.049  0.00  0.00     0.021 A 
ATOM      8  C   UNL d   1       1.505  -0.741   0.081  0.00  0.00     0.021 A 
BRANCH   6   9
ATOM      9  C   UNL d   1      -0.309   2.560   0.000  0.00  0.00    -0.019 A 
ATOM     10  C   UNL d   1       0.492   3.547   0.600  0.00  0.00     0.015 A 
ATOM     11  C   UNL d   1       0.123   4.898   0.582  0.00  0.00     0.037 A 
ATOM     12  C   UNL d   1      -1.063   5.288  -0.031  0.00  0.00     0.068 A 
ATOM     13  C   UNL d   1      -1.859   4.324  -0.649  0.00  0.00     0.037 A 
ATOM     14  C   UNL d   1      -1.491   2.972  -0.629  0.00  0.00     0.015 A 
BRANCH  12  15
ATOM     15  O   UNL d   1      -1.520   6.574  -0.122  0.00  0.00    -0.356 OA
ATOM     16  C   UNL d   1      -1.081   7.456   0.906  0.00  0.00     0.210 C 
ENDBRANCH  12  15
ENDBRANCH   6   9
ENDBRANCH   3   4
BRANCH   1  17
ATOM     17  N   UNL d   1       0.641  -4.896  -0.092  0.00  0.00    -0.277 N 
ATOM     18  H   UNL d   1      -0.290  -5.172  -0.396  0.00  0.00     0.189 HD
BRANCH  17  19
ATOM     19  C   UNL d   1       1.641  -5.840  -0.034  0.00  0.00     0.186 C 
ATOM     20  S   UNL d   1       3.110  -5.677   0.750  0.00  0.00    -0.040 SA
BRANCH  19  21
ATOM     21  N   UNL d   1       1.406  -7.010  -0.706  0.00  0.00    -0.366 N 
ATOM     22  H   UNL d   1       2.188  -7.654  -0.652  0.00  0.00     0.161 HD
BRANCH  21  23
ATOM     23  C   UNL d   1       0.505  -7.172  -1.836  0.00  0.00     0.124 C 
BRANCH  23  24
ATOM     24  C   UNL d   1      -0.648  -8.119  -1.538  0.00  0.00     0.046 C 
BRANCH  24  25
ATOM     25  C   UNL d   1      -1.510  -7.686  -0.357  0.00  0.00     0.168 C 
BRANCH  25  26
ATOM     26  O   UNL d   1      -1.954  -6.338  -0.541  0.00  0.00    -0.396 OA
ATOM     27  C   UNL d   1      -2.812  -5.939   0.526  0.00  0.00     0.201 C 
ENDBRANCH  25  26
ENDBRANCH  24  25
ENDBRANCH  23  24
ENDBRANCH  21  23
ENDBRANCH  19  21
ENDBRANCH  17  19
ENDBRANCH   1  17
TORSDOF 10
