REMARK  4 active torsions:
REMARK  status: ('A' for Active; 'I' for Inactive)
REMARK    1  A    between atoms: N_2  and  S_1 
REMARK    2  A    between atoms: C_9  and  S_1 
REMARK    3  A    between atoms: C_3  and  N_2 
REMARK    4  A    between atoms: C_13  and  C_5 
ROOT
ATOM      1  C   UNL d   1      -1.713  -1.346   0.398  0.00  0.00     0.074 A 
ATOM      2  N   UNL d   1      -6.034  -4.420   1.352  0.00  0.00    -0.191 NA
ATOM      3  C   UNL d   1      -5.107  -3.753   1.137  0.00  0.00     0.099 C 
ATOM      4  C   UNL d   1      -2.715  -0.887   1.263  0.00  0.00     0.026 A 
ATOM      5  C   UNL d   1      -1.842  -2.575  -0.254  0.00  0.00     0.026 A 
ATOM      6  C   UNL d   1      -3.963  -2.929   0.874  0.00  0.00     0.044 A 
ATOM      7  C   UNL d   1      -2.970  -3.365  -0.012  0.00  0.00     0.024 A 
ATOM      8  C   UNL d   1      -3.835  -1.685   1.507  0.00  0.00     0.024 A 
ENDROOT
BRANCH   1   9
ATOM      9  S   UNL d   1      -0.265  -0.338   0.139  0.00  0.00     0.247 S 
ATOM     10  O   UNL d   1       0.617  -1.029  -0.778  0.00  0.00    -0.205 OA
ATOM     11  O   UNL d   1      -0.741   1.002  -0.128  0.00  0.00    -0.205 OA
BRANCH   9  12
ATOM     12  N   UNL d   1       0.455  -0.305   1.669  0.00  0.00    -0.165 NA
ATOM     13  H   UNL d   1      -0.121   0.266   2.283  0.00  0.00     0.147 HD
BRANCH  12  14
ATOM     14  C   UNL d   1       0.822  -1.516   2.240  0.00  0.00     0.117 A 
ATOM     15  C   UNL d   1       2.035  -2.195   2.040  0.00  0.00     0.080 A 
ATOM     16  C   UNL d   1       1.972  -3.271   2.896  0.00  0.00     0.087 A 
ATOM     17  O   UNL d   1       0.766  -3.245   3.538  0.00  0.00    -0.240 OA
ATOM     18  N   UNL d   1       0.064  -2.113   3.158  0.00  0.00    -0.249 N 
ATOM     19  HN  UNL d   1      -0.843  -1.802   3.508  1.00  0.00     0.196 HD
BRANCH  16  20
ATOM     20  C   UNL d   1       2.913  -4.386   3.269  0.00  0.00     0.000 C 
ATOM     21  C   UNL d   1       4.286  -4.181   2.602  0.00  0.00     0.021 C 
ATOM     22  C   UNL d   1       3.116  -4.415   4.796  0.00  0.00     0.021 C 
ATOM     23  C   UNL d   1       2.337  -5.736   2.809  0.00  0.00     0.021 C 
ENDBRANCH  16  20
ENDBRANCH  12  14
ENDBRANCH   9  12
ENDBRANCH   1   9
TORSDOF 4
