REMARK  5 active torsions:
REMARK  status: ('A' for Active; 'I' for Inactive)
REMARK    1  A    between atoms: N_2  and  C_1 
REMARK    2  A    between atoms: C_7  and  C_3 
REMARK    3  A    between atoms: C_6  and  C_5 
REMARK    4  A    between atoms: O_15  and  C_7 
REMARK    5  A    between atoms: C_16  and  O_15 
ROOT
ATOM      1  C   UNL d   1       0.765  -3.763   0.016  0.00  0.00     0.120 C 
ATOM      2  C   UNL d   1      -0.279  -2.910  -0.033  0.00  0.00     0.048 C 
ATOM      3  C   UNL d   1       0.637  -5.172   0.137  0.00  0.00     0.105 C 
ATOM      4  N   UNL d   1       0.507  -6.324   0.216  0.00  0.00    -0.191 NA
ENDROOT
BRANCH   1   5
ATOM      5  C   UNL d   1       2.128  -3.183  -0.129  0.00  0.00     0.304 C 
ATOM      6  O   UNL d   1       2.364  -1.992  -0.257  0.00  0.00    -0.258 OA
BRANCH   5   7
ATOM      7  O   UNL d   1       3.040  -4.184  -0.202  0.00  0.00    -0.317 OA
BRANCH   7   8
ATOM      8  C   UNL d   1       4.342  -3.840  -0.697  0.00  0.00     0.174 C 
ATOM      9  C   UNL d   1       4.329  -3.970  -2.209  0.00  0.00     0.034 C 
ENDBRANCH   7   8
ENDBRANCH   5   7
ENDBRANCH   1   5
BRANCH   2  10
ATOM     10  C   UNL d   1      -1.647  -3.325  -0.043  0.00  0.00     0.009 A 
ATOM     11  S   UNL d   1      -2.828  -2.365   0.775  0.00  0.00    -0.066 SA
ATOM     12  C   UNL d   1      -4.087  -3.423   0.357  0.00  0.00     0.144 A 
ATOM     13  C   UNL d   1      -3.662  -4.478  -0.416  0.00  0.00     0.045 A 
ATOM     14  C   UNL d   1      -2.260  -4.404  -0.666  0.00  0.00     0.022 A 
BRANCH  12  15
ATOM     15  N   UNL d   1      -5.437  -3.178   0.794  0.00  0.00    -0.108 N 
ATOM     16  O   UNL d   1      -6.278  -4.031   0.478  0.00  0.00    -0.531 OA
ATOM     17  O   UNL d   1      -5.668  -2.149   1.440  0.00  0.00    -0.531 OA
ENDBRANCH  12  15
ENDBRANCH   2  10
TORSDOF 5
