REMARK  8 active torsions:
REMARK  status: ('A' for Active; 'I' for Inactive)
REMARK    1  A    between atoms: N_3  and  C_1 
REMARK    2  A    between atoms: N_4  and  C_1 
REMARK       I    between atoms: C_2  and  N_5 
REMARK    3  A    between atoms: C_13  and  C_2 
REMARK    4  A    between atoms: N_5  and  N_3 
REMARK    5  A    between atoms: C_12  and  N_4 
REMARK    6  A    between atoms: C_9  and  C_14 
REMARK    7  A    between atoms: S_10  and  C_13 
REMARK    8  A    between atoms: C_14  and  S_10 
ROOT
ATOM      1  C   UNL d   1       0.094   2.578   2.562  0.00  0.00     0.245 C 
ATOM      2  N   UNL d   1       0.148   1.237   2.909  0.00  0.00    -0.267 N 
ATOM      3  O   UNL d   1      -0.452   2.968   1.532  0.00  0.00    -0.271 OA
ATOM      4  H   UNL d   1       0.758   0.892   3.646  0.00  0.00     0.190 HD
ENDROOT
BRANCH   1   5
ATOM      5  C   UNL d   1       0.770   3.496   3.562  0.00  0.00     0.178 C 
BRANCH   5   6
ATOM      6  S   UNL d   1      -0.424   4.520   4.465  0.00  0.00    -0.155 SA
BRANCH   6   7
ATOM      7  C   UNL d   1      -1.381   3.210   5.294  0.00  0.00     0.113 C 
BRANCH   7   8
ATOM      8  C   UNL d   1      -2.505   3.788   6.124  0.00  0.00    -0.038 A 
ATOM      9  C   UNL d   1      -2.346   4.179   7.486  0.00  0.00    -0.019 A 
ATOM     10  C   UNL d   1      -3.472   4.691   8.179  0.00  0.00    -0.025 A 
ATOM     11  C   UNL d   1      -1.127   4.093   8.200  0.00  0.00     0.013 A 
ATOM     12  C   UNL d   1      -3.358   5.073   9.527  0.00  0.00     0.012 A 
ATOM     13  C   UNL d   1      -4.704   4.823   7.521  0.00  0.00     0.012 A 
ATOM     14  C   UNL d   1      -2.146   4.965  10.203  0.00  0.00     0.001 A 
ATOM     15  C   UNL d   1      -1.028   4.479   9.539  0.00  0.00     0.001 A 
ATOM     16  C   UNL d   1      -4.844   4.461   6.186  0.00  0.00     0.001 A 
ATOM     17  C   UNL d   1      -3.754   3.949   5.494  0.00  0.00     0.009 A 
ENDBRANCH   7   8
ENDBRANCH   6   7
ENDBRANCH   5   6
ENDBRANCH   1   5
BRANCH   2  18
ATOM     18  N   UNL d   1      -0.196   0.307   1.923  0.00  0.00    -0.274 N 
ATOM     19  H   UNL d   1      -0.486   0.707   1.028  0.00  0.00     0.189 HD
BRANCH  18  20
ATOM     20  C   UNL d   1      -0.636  -0.953   2.226  0.00  0.00     0.191 C 
ATOM     21  S   UNL d   1      -1.118  -1.452   3.750  0.00  0.00    -0.039 SA
BRANCH  20  22
ATOM     22  N   UNL d   1      -0.664  -1.860   1.199  0.00  0.00    -0.332 N 
ATOM     23  H   UNL d   1      -1.185  -2.703   1.426  0.00  0.00     0.168 HD
BRANCH  22  24
ATOM     24  C   UNL d   1       0.085  -1.906   0.002  0.00  0.00     0.034 A 
ATOM     25  C   UNL d   1       1.116  -1.018  -0.322  0.00  0.00     0.029 A 
ATOM     26  C   UNL d   1       1.835  -1.152  -1.510  0.00  0.00     0.002 A 
ATOM     27  C   UNL d   1       1.548  -2.198  -2.383  0.00  0.00     0.000 A 
ATOM     28  C   UNL d   1       0.548  -3.109  -2.061  0.00  0.00     0.002 A 
ATOM     29  C   UNL d   1      -0.180  -2.966  -0.877  0.00  0.00     0.029 A 
ENDBRANCH  22  24
ENDBRANCH  20  22
ENDBRANCH  18  20
ENDBRANCH   2  18
TORSDOF 8
