REMARK  5 active torsions:
REMARK  status: ('A' for Active; 'I' for Inactive)
REMARK    1  A    between atoms: C_3  and  C_1 
REMARK    2  A    between atoms: C_2  and  C_4 
REMARK    3  A    between atoms: N_9  and  C_6 
REMARK       I    between atoms: C_7  and  N_9 
REMARK    4  A    between atoms: C_8  and  C_7 
REMARK    5  A    between atoms: O_21  and  N_12 
ROOT
ATOM      1  C   UNL d   1       0.666   0.116   1.300  0.00  0.00     0.050 A 
ATOM      2  C   UNL d   1      -0.080  -1.017   3.325  0.00  0.00     0.050 A 
ATOM      3  C   UNL d   1       0.338  -1.062   1.986  0.00  0.00     0.032 A 
ATOM      4  C   UNL d   1       0.168   1.415   3.308  0.00  0.00     0.036 A 
ATOM      5  C   UNL d   1       0.574   1.346   1.973  0.00  0.00     0.045 A 
ATOM      6  C   UNL d   1      -0.180   0.231   3.968  0.00  0.00     0.045 A 
ENDROOT
BRANCH   4   7
ATOM      7  N   UNL d   1       0.136   2.615   4.052  0.00  0.00    -0.322 N 
ATOM      8  C   UNL d   1       0.584   3.851   3.625  0.00  0.00     0.263 C 
ATOM      9  O   UNL d   1       0.995   4.179   2.522  0.00  0.00    -0.267 OA
ATOM     10  H   UNL d   1      -0.184   2.551   5.011  0.00  0.00     0.169 HD
BRANCH   8  11
ATOM     11  C   UNL d   1       0.646   4.874   4.728  0.00  0.00     0.188 C 
ATOM     12  N   UNL d   1      -0.130   5.908   4.716  0.00  0.00    -0.275 N 
ATOM     13  HN  UNL d   1      -0.847   6.107   4.019  1.00  0.00     0.193 HD
BRANCH  12  14
ATOM     14  O   UNL d   1       0.179   6.708   5.823  0.00  0.00    -0.290 OA
ATOM     15  H   UNL d   1      -0.292   7.540   5.620  0.00  0.00     0.244 HD
ENDBRANCH  12  14
ENDBRANCH   8  11
ENDBRANCH   4   7
BRANCH   1  16
ATOM     16  C   UNL d   1       1.133   0.089  -0.137  0.00  0.00     0.417 C 
ATOM     17  F   UNL d   1       1.236  -1.170  -0.646  0.00  0.00    -0.166 F 
ATOM     18  F   UNL d   1       2.360   0.655  -0.297  0.00  0.00    -0.166 F 
ATOM     19  F   UNL d   1       0.293   0.761  -0.972  0.00  0.00    -0.166 F 
ENDBRANCH   1  16
BRANCH   2  20
ATOM     20  C   UNL d   1      -0.411  -2.285   4.077  0.00  0.00     0.417 C 
ATOM     21  F   UNL d   1      -0.016  -3.417   3.433  0.00  0.00    -0.166 F 
ATOM     22  F   UNL d   1       0.181  -2.327   5.303  0.00  0.00    -0.166 F 
ATOM     23  F   UNL d   1      -1.746  -2.422   4.300  0.00  0.00    -0.166 F 
ENDBRANCH   2  20
TORSDOF 5
