REMARK  3 active torsions:
REMARK  status: ('A' for Active; 'I' for Inactive)
REMARK       I    between atoms: C_6  and  N_1 
REMARK    1  A    between atoms: C_10  and  C_6 
REMARK    2  A    between atoms: C_12  and  C_7 
REMARK    3  A    between atoms: N_11  and  C_10 
ROOT
ATOM      1  N   UNL d   1      -3.053   0.962   0.030  0.00  0.00    -0.249 N 
ATOM      2  N   UNL d   1      -1.751   1.413   0.000  0.00  0.00    -0.298 N 
ATOM      3  HN  UNL d   1      -1.430   2.359  -0.206  1.00  0.00     0.187 HD
ATOM      4  C   UNL d   1      -1.018   0.380   0.290  0.00  0.00     0.043 C 
ATOM      5  C   UNL d   1      -1.762  -0.841   0.764  0.00  0.00     0.068 C 
ATOM      6  C   UNL d   1      -4.162   1.766  -0.168  0.00  0.00     0.267 C 
ATOM      7  C   UNL d   1      -3.151  -0.492   0.220  0.00  0.00     0.154 C 
ATOM      8  C   UNL d   1       0.445   0.322   0.217  0.00  0.00    -0.005 A 
ATOM      9  C   UNL d   1      -1.100  -2.180   0.450  0.00  0.00     0.018 C 
ATOM     10  O   UNL d   1      -5.308   1.302  -0.187  0.00  0.00    -0.270 OA
ATOM     11  C   UNL d   1       1.020  -0.917  -0.102  0.00  0.00    -0.046 A 
ATOM     12  C   UNL d   1       0.135  -2.087  -0.450  0.00  0.00     0.040 C 
ATOM     13  C   UNL d   1       1.231   1.456   0.423  0.00  0.00     0.014 A 
ATOM     14  C   UNL d   1       2.412  -1.008  -0.203  0.00  0.00     0.008 A 
ATOM     15  C   UNL d   1       2.619   1.346   0.336  0.00  0.00     0.001 A 
ATOM     16  C   UNL d   1       3.208   0.118   0.026  0.00  0.00     0.001 A 
ENDROOT
BRANCH   6  17
ATOM     17  C   UNL d   1      -3.930   3.270  -0.304  0.00  0.00     0.376 C 
BRANCH  17  18
ATOM     18  N   UNL d   1      -3.831   3.786  -1.683  0.00  0.00     0.097 N 
ATOM     19  C   UNL d   1      -4.955   3.420  -2.549  0.00  0.00     0.273 C 
ATOM     20  C   UNL d   1      -4.898   4.229  -3.851  0.00  0.00     0.030 C 
ATOM     21  C   UNL d   1      -3.538   4.133  -4.542  0.00  0.00     0.003 C 
ATOM     22  C   UNL d   1      -2.397   4.363  -3.556  0.00  0.00     0.030 C 
ATOM     23  C   UNL d   1      -2.550   3.480  -2.318  0.00  0.00     0.273 C 
ENDBRANCH  17  18
ENDBRANCH   6  17
BRANCH   7  24
ATOM     24  C   UNL d   1      -3.588  -1.200  -1.051  0.00  0.00    -0.033 A 
ATOM     25  C   UNL d   1      -4.770  -1.962  -1.037  0.00  0.00     0.012 A 
ATOM     26  C   UNL d   1      -5.209  -2.617  -2.188  0.00  0.00     0.043 A 
ATOM     27  C   UNL d   1      -4.468  -2.512  -3.357  0.00  0.00     0.116 A 
ATOM     28  C   UNL d   1      -3.305  -1.753  -3.401  0.00  0.00     0.043 A 
ATOM     29  F   UNL d   1      -4.886  -3.144  -4.461  0.00  0.00    -0.206 F 
ATOM     30  C   UNL d   1      -2.870  -1.088  -2.253  0.00  0.00     0.012 A 
ENDBRANCH   7  24
TORSDOF 3
