REMARK  5 active torsions:
REMARK  status: ('A' for Active; 'I' for Inactive)
REMARK    1  A    between atoms: C_6  and  N_1 
REMARK    2  A    between atoms: N_9  and  C_6 
REMARK    3  A    between atoms: C_12  and  C_7 
REMARK    4  A    between atoms: C_15  and  N_9 
REMARK    5  A    between atoms: O_28  and  C_19 
ROOT
ATOM      1  N   UNL d   1      -3.075   1.015  -0.202  0.00  0.00    -0.257 N 
ATOM      2  N   UNL d   1      -1.753   1.444  -0.249  0.00  0.00    -0.298 N 
ATOM      3  HN  UNL d   1      -1.423   2.370  -0.520  1.00  0.00     0.187 HD
ATOM      4  C   UNL d   1      -1.020   0.438   0.119  0.00  0.00     0.043 C 
ATOM      5  C   UNL d   1      -1.767  -0.743   0.673  0.00  0.00     0.068 C 
ATOM      6  C   UNL d   1      -3.164  -0.431   0.123  0.00  0.00     0.153 C 
ATOM      7  C   UNL d   1       0.441   0.392   0.087  0.00  0.00    -0.005 A 
ATOM      8  C   UNL d   1      -1.101  -2.097   0.433  0.00  0.00     0.018 C 
ATOM      9  C   UNL d   1       1.028  -0.862  -0.138  0.00  0.00    -0.046 A 
ATOM     10  C   UNL d   1       0.154  -2.050  -0.445  0.00  0.00     0.040 C 
ATOM     11  C   UNL d   1       1.215   1.538   0.262  0.00  0.00     0.014 A 
ATOM     12  C   UNL d   1       2.423  -0.953  -0.179  0.00  0.00     0.008 A 
ATOM     13  C   UNL d   1       2.605   1.429   0.240  0.00  0.00     0.001 A 
ATOM     14  C   UNL d   1       3.207   0.186   0.022  0.00  0.00     0.001 A 
ENDROOT
BRANCH   1  15
ATOM     15  C   UNL d   1      -4.126   1.915  -0.301  0.00  0.00     0.194 C 
ATOM     16  S   UNL d   1      -5.638   1.677   0.398  0.00  0.00    -0.039 SA
BRANCH  15  17
ATOM     17  N   UNL d   1      -3.914   3.130  -0.903  0.00  0.00    -0.332 N 
ATOM     18  H   UNL d   1      -4.532   3.868  -0.589  0.00  0.00     0.168 HD
BRANCH  17  19
ATOM     19  C   UNL d   1      -3.038   3.453  -1.956  0.00  0.00     0.034 A 
ATOM     20  C   UNL d   1      -2.582   2.503  -2.870  0.00  0.00     0.032 A 
ATOM     21  C   UNL d   1      -1.622   2.841  -3.823  0.00  0.00     0.039 A 
ATOM     22  C   UNL d   1      -1.123   4.140  -3.885  0.00  0.00     0.068 A 
ATOM     23  C   UNL d   1      -1.669   5.120  -3.054  0.00  0.00     0.039 A 
ATOM     24  C   UNL d   1      -2.637   4.780  -2.102  0.00  0.00     0.032 A 
BRANCH  22  25
ATOM     25  O   UNL d   1      -0.118   4.329  -4.792  0.00  0.00    -0.356 OA
ATOM     26  C   UNL d   1       0.636   5.527  -4.649  0.00  0.00     0.210 C 
ENDBRANCH  22  25
ENDBRANCH  17  19
ENDBRANCH  15  17
ENDBRANCH   1  15
BRANCH   6  27
ATOM     27  C   UNL d   1      -3.601  -1.236  -1.093  0.00  0.00    -0.033 A 
ATOM     28  C   UNL d   1      -4.794  -1.976  -1.042  0.00  0.00     0.012 A 
ATOM     29  C   UNL d   1      -5.192  -2.758  -2.127  0.00  0.00     0.043 A 
ATOM     30  C   UNL d   1      -4.402  -2.801  -3.269  0.00  0.00     0.116 A 
ATOM     31  C   UNL d   1      -3.234  -2.058  -3.356  0.00  0.00     0.043 A 
ATOM     32  F   UNL d   1      -4.774  -3.570  -4.301  0.00  0.00    -0.206 F 
ATOM     33  C   UNL d   1      -2.840  -1.269  -2.276  0.00  0.00     0.012 A 
ENDBRANCH   6  27
TORSDOF 5
