REMARK  3 active torsions:
REMARK  status: ('A' for Active; 'I' for Inactive)
REMARK       I    between atoms: N_2  and  C_1 
REMARK       I    between atoms: N_3  and  C_1 
REMARK    1  A    between atoms: C_5  and  N_3 
REMARK    2  A    between atoms: C_6  and  N_4 
REMARK    3  A    between atoms: O_19  and  C_14 
ROOT
ATOM      1  C   UNL d   1       1.340   0.148  -0.324  0.00  0.00     0.323 C 
ATOM      2  N   UNL d   1       0.886  -1.037  -0.914  0.00  0.00    -0.331 N 
ATOM      3  N   UNL d   1       0.660   1.290  -0.693  0.00  0.00    -0.308 N 
ATOM      4  N   UNL d   1      -0.154  -3.656  -1.509  0.00  0.00    -0.376 N 
ATOM      5  O   UNL d   1       2.301   0.131   0.442  0.00  0.00    -0.247 OA
ATOM      6  C   UNL d   1       1.526  -2.259  -0.389  0.00  0.00     0.147 C 
ATOM      7  C   UNL d   1      -0.491  -1.223  -1.406  0.00  0.00     0.147 C 
ATOM      8  C   UNL d   1       1.288  -3.530  -1.228  0.00  0.00     0.143 C 
ATOM      9  C   UNL d   1      -0.666  -2.496  -2.256  0.00  0.00     0.143 C 
ATOM     10  H   UNL d   1       0.173   1.225  -1.569  0.00  0.00     0.170 HD
ENDROOT
BRANCH   3  11
ATOM     11  C   UNL d   1       0.929   2.607  -0.229  0.00  0.00     0.045 A 
ATOM     12  C   UNL d   1       1.683   2.838   0.930  0.00  0.00     0.072 A 
ATOM     13  C   UNL d   1       2.061   4.128   1.288  0.00  0.00     0.118 A 
ATOM     14  F   UNL d   1       2.810   4.318   2.382  0.00  0.00    -0.206 F 
ATOM     15  C   UNL d   1       1.690   5.218   0.521  0.00  0.00     0.043 A 
ATOM     16  C   UNL d   1       0.874   5.017  -0.588  0.00  0.00     0.012 A 
ATOM     17  C   UNL d   1       0.450   3.722  -0.955  0.00  0.00    -0.035 A 
ATOM     18  C   UNL d   1      -0.459   3.626  -2.151  0.00  0.00     0.050 C 
ENDBRANCH   3  11
BRANCH   4  19
ATOM     19  C   UNL d   1      -0.643  -4.934  -1.800  0.00  0.00     0.064 A 
ATOM     20  C   UNL d   1      -0.620  -5.991  -0.864  0.00  0.00     0.094 A 
ATOM     21  C   UNL d   1      -1.215  -7.232  -1.153  0.00  0.00     0.039 A 
ATOM     22  C   UNL d   1      -1.846  -7.449  -2.376  0.00  0.00     0.003 A 
ATOM     23  C   UNL d   1      -1.845  -6.442  -3.329  0.00  0.00     0.002 A 
ATOM     24  C   UNL d   1      -1.250  -5.208  -3.045  0.00  0.00     0.032 A 
BRANCH  20  25
ATOM     25  O   UNL d   1       0.017  -5.966   0.351  0.00  0.00    -0.354 OA
ATOM     26  C   UNL d   1      -0.409  -4.929   1.235  0.00  0.00     0.210 C 
ENDBRANCH  20  25
ENDBRANCH   4  19
TORSDOF 3
