REMARK  6 active torsions:
REMARK  status: ('A' for Active; 'I' for Inactive)
REMARK    1  A    between atoms: C_2  and  C_1 
REMARK       I    between atoms: N_3  and  C_2 
REMARK       I    between atoms: C_9  and  N_3 
REMARK    2  A    between atoms: S_13  and  C_6 
REMARK    3  A    between atoms: S_14  and  C_7 
REMARK    4  A    between atoms: O_12  and  C_9 
REMARK    5  A    between atoms: C_15  and  O_12 
REMARK    6  A    between atoms: C_16  and  C_15 
ROOT
ATOM      1  C   UNL d   1      -2.878  -1.124  -0.380  0.00  0.00     0.264 C 
ATOM      2  N   UNL d   1      -3.820  -0.511  -1.177  0.00  0.00    -0.269 N 
ATOM      3  C   UNL d   1      -3.852   0.834  -1.405  0.00  0.00     0.367 C 
ATOM      4  O   UNL d   1      -2.037  -0.483   0.241  0.00  0.00    -0.267 OA
ATOM      5  O   UNL d   1      -4.905   1.464  -1.342  0.00  0.00    -0.238 OA
ATOM      6  H   UNL d   1      -4.741  -0.924  -1.150  0.00  0.00     0.174 HD
ENDROOT
BRANCH   1   7
ATOM      7  C   UNL d   1      -2.963  -2.589  -0.287  0.00  0.00     0.091 A 
ATOM      8  C   UNL d   1      -1.908  -3.396   0.151  0.00  0.00     0.076 A 
ATOM      9  S   UNL d   1      -2.455  -5.026   0.241  0.00  0.00    -0.006 SA
ATOM     10  N   UNL d   1      -3.954  -4.751  -0.363  0.00  0.00    -0.319 N 
ATOM     11  C   UNL d   1      -4.089  -3.454  -0.607  0.00  0.00     0.093 A 
ATOM     12  HN  UNL d   1      -4.668  -5.461  -0.525  1.00  0.00     0.175 HD
BRANCH   8  13
ATOM     13  S   UNL d   1      -0.249  -3.062   0.647  0.00  0.00    -0.125 SA
ATOM     14  C   UNL d   1       0.369  -1.896  -0.584  0.00  0.00     0.096 C 
ENDBRANCH   8  13
BRANCH  11  15
ATOM     15  S   UNL d   1      -5.638  -2.904  -1.272  0.00  0.00    -0.115 SA
ATOM     16  C   UNL d   1      -6.521  -4.461  -1.550  0.00  0.00     0.097 C 
ENDBRANCH  11  15
ENDBRANCH   1   7
BRANCH   3  17
ATOM     17  O   UNL d   1      -2.652   1.337  -1.775  0.00  0.00    -0.299 OA
BRANCH  17  18
ATOM     18  C   UNL d   1      -2.620   2.722  -2.155  0.00  0.00     0.219 C 
BRANCH  18  19
ATOM     19  C   UNL d   1      -1.524   3.481  -1.442  0.00  0.00    -0.034 A 
ATOM     20  C   UNL d   1      -0.668   2.871  -0.514  0.00  0.00     0.009 A 
ATOM     21  C   UNL d   1       0.318   3.613   0.139  0.00  0.00     0.001 A 
ATOM     22  C   UNL d   1       0.463   4.972  -0.127  0.00  0.00     0.000 A 
ATOM     23  C   UNL d   1      -0.373   5.591  -1.053  0.00  0.00     0.001 A 
ATOM     24  C   UNL d   1      -1.359   4.850  -1.708  0.00  0.00     0.009 A 
ENDBRANCH  18  19
ENDBRANCH  17  18
ENDBRANCH   3  17
TORSDOF 6
