REMARK  1 active torsions:
REMARK  status: ('A' for Active; 'I' for Inactive)
REMARK    1  A    between atoms: C_18  and  O_21 
ROOT
ATOM      1  C   UNL d   1      14.347   9.146  -2.564  0.00  0.00    -0.036 C 
ATOM      2  C   UNL d   1      10.602  10.802  -4.035  0.00  0.00     0.021 C 
ATOM      3  C   UNL d   1      12.768   9.095  -2.689  0.00  0.00    -0.002 C 
ATOM      4  C   UNL d   1      11.512   9.876  -4.886  0.00  0.00     0.006 C 
ATOM      5  C   UNL d   1      12.161   8.715  -4.085  0.00  0.00    -0.004 C 
ATOM      6  C   UNL d   1      14.933   7.997  -3.431  0.00  0.00    -0.004 C 
ATOM      7  C   UNL d   1       9.234  10.603  -4.663  0.00  0.00     0.135 C 
ATOM      8  C   UNL d   1      10.610  10.442  -2.545  0.00  0.00     0.018 C 
ATOM      9  C   UNL d   1      12.041  10.292  -2.036  0.00  0.00     0.007 C 
ATOM     10  C   UNL d   1      14.768   8.896  -1.080  0.00  0.00     0.012 C 
ATOM     11  C   UNL d   1      10.603   9.292  -6.004  0.00  0.00     0.013 C 
ATOM     12  C   UNL d   1      13.052   7.839  -4.990  0.00  0.00     0.006 C 
ATOM     13  C   UNL d   1      14.532   8.153  -4.891  0.00  0.00     0.006 C 
ATOM     14  C   UNL d   1       9.344  10.127  -6.079  0.00  0.00     0.079 C 
ATOM     15  C   UNL d   1      16.440   7.783  -3.266  0.00  0.00     0.037 C 
ATOM     16  O   UNL d   1       8.171  10.907  -4.130  0.00  0.00    -0.297 OA
ATOM     17  C   UNL d   1      16.263   8.597  -0.884  0.00  0.00     0.032 C 
ATOM     18  C   UNL d   1      16.787   7.494  -1.807  0.00  0.00     0.118 C 
ATOM     19  C   UNL d   1      14.903  10.530  -2.987  0.00  0.00     0.016 C 
ATOM     20  C   UNL d   1      10.964  12.280  -4.262  0.00  0.00     0.024 C 
ENDROOT
BRANCH  18  21
ATOM     21  O   UNL d   1      16.263   6.228  -1.413  0.00  0.00    -0.396 OA
ATOM     22  H   UNL d   1      15.301   6.296  -1.309  0.00  0.00     0.210 HD
ENDBRANCH  18  21
TORSDOF 1
