REMARK  4 active torsions:
REMARK  status: ('A' for Active; 'I' for Inactive)
REMARK    1  A    between atoms: S_14  and  C_1 
REMARK       I    between atoms: N_9  and  C_12 
REMARK    2  A    between atoms: C_13  and  N_9 
REMARK    3  A    between atoms: C_12  and  C_17 
REMARK    4  A    between atoms: C_17  and  S_14 
ROOT
ATOM      1  C   UNL d   1      -4.209   1.022   0.394  0.00  0.00     0.145 A 
ATOM      2  N   UNL d   1      -4.917   1.151  -0.702  0.00  0.00    -0.335 N 
ATOM      3  HN  UNL d   1      -5.492   0.443  -1.158  1.00  0.00     0.168 HD
ATOM      4  N   UNL d   1      -3.607   2.187   0.766  0.00  0.00    -0.335 N 
ATOM      5  C   UNL d   1      -4.715   2.446  -1.099  0.00  0.00     0.062 A 
ATOM      6  C   UNL d   1      -3.892   3.120  -0.202  0.00  0.00     0.062 A 
ATOM      7  C   UNL d   1      -5.205   3.107  -2.232  0.00  0.00     0.057 A 
ATOM      8  C   UNL d   1      -3.507   4.451  -0.380  0.00  0.00     0.057 A 
ATOM      9  C   UNL d   1      -4.814   4.435  -2.448  0.00  0.00     0.058 A 
ATOM     10  C   UNL d   1      -3.977   5.095  -1.537  0.00  0.00     0.058 A 
ATOM     11 CL   UNL d   1      -3.455   6.726  -1.789  0.00  0.00    -0.082 Cl
ATOM     12 CL   UNL d   1      -5.402   5.200  -3.885  0.00  0.00    -0.082 Cl
ATOM     13  H   UNL d   1      -3.035   2.314   1.589  0.00  0.00     0.168 HD
ENDROOT
BRANCH   1  14
ATOM     14  S   UNL d   1      -4.052  -0.411   1.335  0.00  0.00    -0.085 SA
BRANCH  14  15
ATOM     15  C   UNL d   1      -4.743  -1.651   0.186  0.00  0.00     0.185 C 
BRANCH  15  16
ATOM     16  C   UNL d   1      -6.266  -1.725   0.209  0.00  0.00     0.231 C 
ATOM     17  N   UNL d   1      -6.914  -0.512   0.123  0.00  0.00    -0.325 N 
ATOM     18  H   UNL d   1      -6.377   0.218  -0.346  0.00  0.00     0.169 HD
ATOM     19  O   UNL d   1      -6.832  -2.818   0.162  0.00  0.00    -0.272 OA
BRANCH  17  20
ATOM     20  C   UNL d   1      -8.290  -0.264   0.304  0.00  0.00     0.056 A 
ATOM     21  C   UNL d   1      -9.124  -0.915   1.230  0.00  0.00     0.060 A 
ATOM     22 CL   UNL d   1      -8.551  -2.019   2.433  0.00  0.00    -0.082 Cl
ATOM     23  C   UNL d   1     -10.476  -0.555   1.324  0.00  0.00     0.026 A 
ATOM     24  C   UNL d   1     -11.000   0.459   0.523  0.00  0.00     0.002 A 
ATOM     25  C   UNL d   1     -10.172   1.134  -0.367  0.00  0.00     0.002 A 
ATOM     26  C   UNL d   1      -8.824   0.782  -0.465  0.00  0.00     0.031 A 
ENDBRANCH  17  20
ENDBRANCH  15  16
ENDBRANCH  14  15
ENDBRANCH   1  14
TORSDOF 4
