REMARK  1 active torsions:
REMARK  status: ('A' for Active; 'I' for Inactive)
REMARK    1  A    between atoms: N_7  and  C_3 
ROOT
ATOM      1  C   UNL d   1       0.524  -0.718  -0.107  0.00  0.00     0.044 A 
ATOM      2  C   UNL d   1       1.135   0.524  -0.218  0.00  0.00     0.089 A 
ATOM      3  C   UNL d   1       1.401  -1.831  -0.053  0.00  0.00     0.097 A 
ATOM      4  S   UNL d   1       0.026   1.818  -0.247  0.00  0.00    -0.075 SA
ATOM      5  C   UNL d   1      -0.917  -0.566  -0.029  0.00  0.00    -0.029 A 
ATOM      6  C   UNL d   1      -1.294   0.766  -0.071  0.00  0.00    -0.008 A 
ATOM      7  N   UNL d   1       2.452   0.774  -0.288  0.00  0.00    -0.346 N 
ATOM      8  HN  UNL d   1       2.851   1.708  -0.386  1.00  0.00     0.167 HD
ATOM      9  N   UNL d   1       2.736  -1.602  -0.098  0.00  0.00    -0.342 N 
ATOM     10  HN  UNL d   1       3.396  -2.378  -0.044  1.00  0.00     0.167 HD
ATOM     11  C   UNL d   1       3.179  -0.342  -0.214  0.00  0.00     0.182 A 
ATOM     12  C   UNL d   1      -1.939  -1.654   0.146  0.00  0.00     0.041 C 
ATOM     13  C   UNL d   1      -2.701   1.275   0.005  0.00  0.00     0.047 C 
ATOM     14  C   UNL d   1      -3.368  -1.164  -0.133  0.00  0.00     0.005 C 
ATOM     15  C   UNL d   1      -3.642   0.186   0.537  0.00  0.00     0.005 C 
ENDROOT
BRANCH   3  16
ATOM     16  N   UNL d   1       0.927  -3.136   0.116  0.00  0.00    -0.265 NA
ATOM     17  C   UNL d   1       1.853  -4.018   0.858  0.00  0.00     0.123 C 
ATOM     18  C   UNL d   1       1.132  -5.351   1.129  0.00  0.00     0.182 C 
ATOM     19  O   UNL d   1       0.686  -5.975  -0.091  0.00  0.00    -0.389 OA
ATOM     20  C   UNL d   1      -0.170  -5.088  -0.834  0.00  0.00     0.182 C 
ATOM     21  C   UNL d   1       0.554  -3.769  -1.165  0.00  0.00     0.123 C 
ENDBRANCH   3  16
TORSDOF 1
