REMARK  3 active torsions:
REMARK  status: ('A' for Active; 'I' for Inactive)
REMARK    1  A    between atoms: N_8  and  C_1 
REMARK    2  A    between atoms: C_10  and  C_2 
REMARK       I    between atoms: C_7  and  N_8 
REMARK       I    between atoms: N_9  and  C_7 
REMARK    3  A    between atoms: C_12  and  N_9 
ROOT
ATOM      1  C   UNL d   1      -0.210  -1.146  -0.364  0.00  0.00     0.097 C 
ATOM      2  C   UNL d   1      -1.569  -0.968  -0.177  0.00  0.00     0.137 C 
ATOM      3  O   UNL d   1      -1.908   0.299  -0.533  0.00  0.00    -0.235 OA
ATOM      4  N   UNL d   1      -0.806   0.933  -1.072  0.00  0.00    -0.263 N 
ATOM      5  HN  UNL d   1      -0.760   1.889  -1.424  1.00  0.00     0.194 HD
ATOM      6  C   UNL d   1       0.191   0.036  -1.039  0.00  0.00     0.058 C 
ATOM      7  C   UNL d   1       1.485   0.387  -1.665  0.00  0.00     0.072 C 
ENDROOT
BRANCH   1   8
ATOM      8  N   UNL d   1       0.455  -2.302   0.017  0.00  0.00    -0.304 N 
ATOM      9  C   UNL d   1       1.473  -2.920  -0.677  0.00  0.00     0.325 C 
ATOM     10  N   UNL d   1       1.882  -4.120  -0.124  0.00  0.00    -0.309 N 
ATOM     11  O   UNL d   1       1.895  -2.566  -1.767  0.00  0.00    -0.247 OA
ATOM     12  H   UNL d   1       2.202  -4.782  -0.819  0.00  0.00     0.170 HD
ATOM     13  H   UNL d   1      -0.069  -2.915   0.627  0.00  0.00     0.171 HD
BRANCH  10  14
ATOM     14  C   UNL d   1       1.653  -4.561   1.186  0.00  0.00     0.036 A 
ATOM     15  C   UNL d   1       1.258  -5.881   1.400  0.00  0.00     0.029 A 
ATOM     16  C   UNL d   1       0.871  -6.287   2.679  0.00  0.00     0.002 A 
ATOM     17  C   UNL d   1       0.941  -5.397   3.752  0.00  0.00     0.000 A 
ATOM     18  C   UNL d   1       1.428  -4.106   3.556  0.00  0.00     0.002 A 
ATOM     19  C   UNL d   1       1.781  -3.689   2.275  0.00  0.00     0.029 A 
ENDBRANCH  10  14
ENDBRANCH   1   8
BRANCH   2  20
ATOM     20  C   UNL d   1      -2.687  -1.873   0.062  0.00  0.00     0.002 A 
ATOM     21  C   UNL d   1      -3.823  -1.479   0.774  0.00  0.00     0.014 A 
ATOM     22  C   UNL d   1      -4.940  -2.322   0.838  0.00  0.00     0.001 A 
ATOM     23  C   UNL d   1      -4.925  -3.560   0.195  0.00  0.00     0.000 A 
ATOM     24  C   UNL d   1      -3.792  -3.971  -0.499  0.00  0.00     0.001 A 
ATOM     25  C   UNL d   1      -2.681  -3.134  -0.561  0.00  0.00     0.014 A 
ENDBRANCH   2  20
TORSDOF 3
