REMARK  6 active torsions:
REMARK  status: ('A' for Active; 'I' for Inactive)
REMARK    1  A    between atoms: C_6  and  C_1 
REMARK    2  A    between atoms: C_7  and  C_2 
REMARK    3  A    between atoms: O_11  and  C_3 
REMARK    4  A    between atoms: O_10  and  C_4 
REMARK    5  A    between atoms: O_13  and  C_6 
REMARK    6  A    between atoms: O_12  and  C_7 
ROOT
ATOM      1  C   UNL d   1      -0.255   1.143   0.013  0.00  0.00     0.145 A 
ATOM      2  C   UNL d   1      -0.260  -1.147   0.022  0.00  0.00     0.145 A 
ATOM      3  C   UNL d   1       1.048  -0.705   0.012  0.00  0.00     0.134 A 
ATOM      4  C   UNL d   1       1.051   0.698   0.010  0.00  0.00     0.134 A 
ATOM      5  N   UNL d   1      -1.040  -0.001   0.021  0.00  0.00    -0.342 N 
ATOM      6  H   UNL d   1      -2.054   0.002   0.027  0.00  0.00     0.166 HD
ENDROOT
BRANCH   1   7
ATOM      7  C   UNL d   1      -0.723   2.512   0.012  0.00  0.00     0.312 C 
ATOM      8  O   UNL d   1      -0.021   3.514   0.007  0.00  0.00    -0.258 OA
BRANCH   7   9
ATOM      9  O   UNL d   1      -2.091   2.549   0.020  0.00  0.00    -0.321 OA
ATOM     10  C   UNL d   1      -2.595   3.889   0.023  0.00  0.00     0.213 C 
ENDBRANCH   7   9
ENDBRANCH   1   7
BRANCH   4  11
ATOM     11  O   UNL d   1       2.104   1.527   0.007  0.00  0.00    -0.356 OA
ATOM     12  H   UNL d   1       2.944   1.047   0.050  0.00  0.00     0.218 HD
ENDBRANCH   4  11
BRANCH   3  13
ATOM     13  O   UNL d   1       2.100  -1.538   0.005  0.00  0.00    -0.356 OA
ATOM     14  H   UNL d   1       2.939  -1.058  -0.042  0.00  0.00     0.218 HD
ENDBRANCH   3  13
BRANCH   2  15
ATOM     15  C   UNL d   1      -0.731  -2.514   0.028  0.00  0.00     0.312 C 
ATOM     16  O   UNL d   1      -0.031  -3.518   0.025  0.00  0.00    -0.258 OA
BRANCH  15  17
ATOM     17  O   UNL d   1      -2.099  -2.548   0.037  0.00  0.00    -0.321 OA
ATOM     18  C   UNL d   1      -2.604  -3.889   0.041  0.00  0.00     0.213 C 
ENDBRANCH  15  17
ENDBRANCH   2  15
TORSDOF 6
