REMARK  4 active torsions:
REMARK  status: ('A' for Active; 'I' for Inactive)
REMARK    1  A    between atoms: C_14  and  N_1 
REMARK    2  A    between atoms: C_9  and  C_2 
REMARK    3  A    between atoms: N_11  and  C_10 
REMARK       I    between atoms: C_12  and  N_11 
REMARK    4  A    between atoms: C_13  and  N_11 
ROOT
ATOM      1  N   UNL d   1       0.239  -0.406   0.781  0.00  0.00    -0.223 N 
ATOM      2  C   UNL d   1       1.026  -0.764  -0.324  0.00  0.00     0.145 A 
ATOM      3  N   UNL d   1      -0.905  -0.107  -1.022  0.00  0.00    -0.226 N 
ATOM      4  HN  UNL d   1      -1.667   0.130  -1.657  1.00  0.00     0.210 HD
ATOM      5  N   UNL d   1      -0.975  -0.027   0.293  0.00  0.00    -0.219 N 
ATOM      6  HN  UNL d   1      -1.785   0.264   0.840  1.00  0.00     0.210 HD
ATOM      7  N   UNL d   1       0.319  -0.547  -1.419  0.00  0.00    -0.268 N 
ATOM      8  HN  UNL d   1       0.632  -0.683  -2.380  1.00  0.00     0.190 HD
ENDROOT
BRANCH   2   9
ATOM      9  C   UNL d   1       2.356  -1.251  -0.278  0.00  0.00     0.069 C 
ATOM     10  C   UNL d   1       2.602  -2.537   0.022  0.00  0.00     0.104 C 
BRANCH  10  11
ATOM     11  N   UNL d   1       3.829  -3.219  -0.005  0.00  0.00    -0.293 N 
ATOM     12  C   UNL d   1       5.092  -2.595  -0.111  0.00  0.00     0.224 C 
ATOM     13  O   UNL d   1       6.067  -3.100  -0.676  0.00  0.00    -0.273 OA
ATOM     14  C   UNL d   1       5.304  -1.267   0.577  0.00  0.00     0.118 C 
BRANCH  11  15
ATOM     15  C   UNL d   1       3.826  -4.681   0.002  0.00  0.00     0.041 A 
ATOM     16  C   UNL d   1       4.914  -5.402   0.522  0.00  0.00     0.030 A 
ATOM     17  C   UNL d   1       4.919  -6.802   0.551  0.00  0.00     0.009 A 
ATOM     18  C   UNL d   1       3.829  -7.525   0.060  0.00  0.00    -0.062 A 
ATOM     19  C   UNL d   1       2.739  -6.825  -0.457  0.00  0.00     0.009 A 
ATOM     20  C   UNL d   1       3.858  -9.025   0.081  0.00  0.00     0.048 C 
ATOM     21  C   UNL d   1       2.736  -5.423  -0.483  0.00  0.00     0.030 A 
ENDBRANCH  11  15
ENDBRANCH  10  11
ENDBRANCH   2   9
BRANCH   1  22
ATOM     22  C   UNL d   1       0.465  -0.370   2.191  0.00  0.00     0.060 A 
ATOM     23  C   UNL d   1       1.699  -0.669   2.775  0.00  0.00     0.031 A 
ATOM     24  C   UNL d   1       1.858  -0.640   4.165  0.00  0.00     0.002 A 
ATOM     25  C   UNL d   1       0.791  -0.301   4.990  0.00  0.00     0.000 A 
ATOM     26  C   UNL d   1      -0.439   0.019   4.427  0.00  0.00     0.002 A 
ATOM     27  C   UNL d   1      -0.602  -0.012   3.039  0.00  0.00     0.031 A 
ENDBRANCH   1  22
TORSDOF 4
