REMARK  2 active torsions:
REMARK  status: ('A' for Active; 'I' for Inactive)
REMARK    1  A    between atoms: O_8  and  C_1 
REMARK    2  A    between atoms: C_15  and  O_8 
ROOT
ATOM      1  C   UNL d   1      -0.299  -1.523  -0.732  0.00  0.00     0.098 C 
ATOM      2  C   UNL d   1       2.263   1.776   1.014  0.00  0.00     0.021 C 
ATOM      3  C   UNL d   1      -1.740  -1.169  -1.096  0.00  0.00    -0.041 C 
ATOM      4  C   UNL d   1       0.494  -0.398   0.047  0.00  0.00     0.030 C 
ATOM      5  C   UNL d   1       0.873   2.148   0.406  0.00  0.00     0.006 C 
ATOM      6  C   UNL d   1       0.116   1.036  -0.365  0.00  0.00    -0.002 C 
ATOM      7  C   UNL d   1      -2.743  -2.068  -1.103  0.00  0.00     0.056 C 
ATOM      8  C   UNL d   1       1.999   1.894   2.517  0.00  0.00     0.135 C 
ATOM      9  C   UNL d   1       2.825   0.363   0.772  0.00  0.00     0.018 C 
ATOM     10  C   UNL d   1      -0.343  -2.774   0.201  0.00  0.00     0.051 C 
ATOM     11  C   UNL d   1       2.011  -0.551  -0.120  0.00  0.00     0.009 C 
ATOM     12  C   UNL d   1      -1.407   1.212  -0.386  0.00  0.00     0.010 C 
ATOM     13  C   UNL d   1       0.123   2.844   1.561  0.00  0.00     0.013 C 
ATOM     14  C   UNL d   1      -2.062   0.273  -1.391  0.00  0.00     0.038 C 
ATOM     15  C   UNL d   1      -2.514  -3.497  -0.792  0.00  0.00     0.149 C 
ATOM     16  C   UNL d   1       0.555   2.139   2.826  0.00  0.00     0.079 C 
ATOM     17  O   UNL d   1       2.853   1.750   3.387  0.00  0.00    -0.297 OA
ATOM     18  O   UNL d   1      -3.449  -4.292  -0.885  0.00  0.00    -0.293 OA
ATOM     19  C   UNL d   1      -1.124  -3.932  -0.419  0.00  0.00     0.086 C 
ATOM     20  C   UNL d   1       3.302   2.835   0.615  0.00  0.00     0.024 C 
ENDROOT
BRANCH   1  21
ATOM     21  O   UNL d   1       0.454  -2.022  -1.880  0.00  0.00    -0.305 OA
BRANCH  21  22
ATOM     22  C   UNL d   1       0.795  -1.282  -2.959  0.00  0.00     0.255 C 
ATOM     23  O   UNL d   1       0.308  -0.217  -3.300  0.00  0.00    -0.266 OA
ATOM     24  C   UNL d   1       1.963  -1.918  -3.656  0.00  0.00     0.126 C 
ENDBRANCH  21  22
ENDBRANCH   1  21
TORSDOF 2
