REMARK  5 active torsions:
REMARK  status: ('A' for Active; 'I' for Inactive)
REMARK    1  A    between atoms: N_2  and  C_1 
REMARK    2  A    between atoms: N_4  and  C_1 
REMARK    3  A    between atoms: C_5  and  N_3 
REMARK    4  A    between atoms: C_11  and  N_4 
REMARK    5  A    between atoms: O_13  and  C_12 
ROOT
ATOM      1  N   UNL d   1       0.615   1.348   0.705  0.00  0.00    -0.355 N 
ATOM      2  N   UNL d   1      -1.022   3.707   0.978  0.00  0.00    -0.376 N 
ATOM      3  C   UNL d   1       0.910   2.579  -0.061  0.00  0.00     0.145 C 
ATOM      4  C   UNL d   1      -0.780   1.278   1.178  0.00  0.00     0.145 C 
ATOM      5  C   UNL d   1       0.398   3.874   0.616  0.00  0.00     0.143 C 
ATOM      6  C   UNL d   1      -1.249   2.562   1.875  0.00  0.00     0.143 C 
ENDROOT
BRANCH   1   7
ATOM      7  C   UNL d   1       1.137   0.135   0.290  0.00  0.00     0.170 C 
ATOM      8  S   UNL d   1       1.494  -0.290  -1.291  0.00  0.00    -0.041 SA
BRANCH   7   9
ATOM      9  N   UNL d   1       1.257  -0.840   1.242  0.00  0.00    -0.359 N 
ATOM     10  H   UNL d   1       1.500  -1.711   0.779  0.00  0.00     0.162 HD
BRANCH   9  11
ATOM     11  C   UNL d   1       1.911  -0.732   2.570  0.00  0.00     0.021 C 
ATOM     12  C   UNL d   1       1.522   0.497   3.405  0.00  0.00     0.037 C 
ATOM     13  C   UNL d   1       1.510  -1.990   3.361  0.00  0.00     0.037 C 
ATOM     14  C   UNL d   1       3.438  -0.721   2.379  0.00  0.00     0.037 C 
ENDBRANCH   9  11
ENDBRANCH   7   9
ENDBRANCH   1   7
BRANCH   2  15
ATOM     15  C   UNL d   1      -1.895   4.787   0.985  0.00  0.00     0.064 A 
ATOM     16  C   UNL d   1      -2.103   5.630  -0.131  0.00  0.00     0.094 A 
ATOM     17  C   UNL d   1      -3.090   6.628  -0.119  0.00  0.00     0.039 A 
ATOM     18  C   UNL d   1      -3.898   6.813   1.000  0.00  0.00     0.003 A 
ATOM     19  C   UNL d   1      -3.691   6.036   2.124  0.00  0.00     0.002 A 
ATOM     20  C   UNL d   1      -2.704   5.046   2.115  0.00  0.00     0.032 A 
BRANCH  16  21
ATOM     21  O   UNL d   1      -1.344   5.602  -1.275  0.00  0.00    -0.354 OA
ATOM     22  C   UNL d   1      -1.497   4.408  -2.038  0.00  0.00     0.210 C 
ENDBRANCH  16  21
ENDBRANCH   2  15
TORSDOF 5
