REMARK  5 active torsions:
REMARK  status: ('A' for Active; 'I' for Inactive)
REMARK    1  A    between atoms: C_8  and  N_1 
REMARK    2  A    between atoms: C_7  and  C_2 
REMARK    3  A    between atoms: N_12  and  C_9 
REMARK    4  A    between atoms: C_13  and  N_12 
REMARK    5  A    between atoms: O_23  and  C_15 
ROOT
ATOM      1  N   UNL d   1       4.939  -1.052  -0.038  0.00  0.00    -0.225 N 
ATOM      2  C   UNL d   1       3.638  -0.600  -0.272  0.00  0.00     0.139 C 
ATOM      3  N   UNL d   1       4.912   1.073   0.200  0.00  0.00    -0.007 NA
ATOM      4  N   UNL d   1       5.675   0.006   0.380  0.00  0.00     0.001 NA
ATOM      5  N   UNL d   1       3.655   0.720  -0.217  0.00  0.00    -0.270 N 
ATOM      6  HN  UNL d   1       2.885   1.350  -0.440  1.00  0.00     0.185 HD
ENDROOT
BRANCH   2   7
ATOM      7  C   UNL d   1       2.551  -1.502  -0.366  0.00  0.00     0.068 C 
ATOM      8  C   UNL d   1       1.380  -1.232  -0.956  0.00  0.00     0.092 C 
BRANCH   8   9
ATOM      9  N   UNL d   1       0.929  -0.108  -1.595  0.00  0.00    -0.366 N 
ATOM     10  H   UNL d   1       1.550   0.700  -1.556  0.00  0.00     0.165 HD
BRANCH   9  11
ATOM     11  C   UNL d   1      -0.334   0.106  -2.183  0.00  0.00     0.032 A 
ATOM     12  C   UNL d   1      -1.378  -0.833  -2.134  0.00  0.00     0.031 A 
ATOM     13  C   UNL d   1      -2.600  -0.604  -2.776  0.00  0.00     0.026 A 
ATOM     14  C   UNL d   1      -2.795   0.571  -3.491  0.00  0.00     0.034 A 
ATOM     15  C   UNL d   1      -1.775   1.515  -3.568  0.00  0.00     0.026 A 
ATOM     16 CL   UNL d   1      -4.295   0.851  -4.284  0.00  0.00    -0.084 Cl
ATOM     17  C   UNL d   1      -0.555   1.279  -2.921  0.00  0.00     0.031 A 
ENDBRANCH   9  11
ENDBRANCH   8   9
ENDBRANCH   2   7
BRANCH   1  18
ATOM     18  C   UNL d   1       5.514  -2.345  -0.172  0.00  0.00     0.056 A 
ATOM     19  C   UNL d   1       5.000  -3.274  -1.089  0.00  0.00     0.034 A 
ATOM     20  C   UNL d   1       5.529  -4.567  -1.157  0.00  0.00     0.039 A 
ATOM     21  C   UNL d   1       6.566  -4.944  -0.305  0.00  0.00     0.068 A 
ATOM     22  C   UNL d   1       7.129  -3.997   0.552  0.00  0.00     0.039 A 
ATOM     23  C   UNL d   1       6.617  -2.697   0.616  0.00  0.00     0.034 A 
BRANCH  21  24
ATOM     24  O   UNL d   1       7.117  -6.194  -0.249  0.00  0.00    -0.356 OA
ATOM     25  C   UNL d   1       6.249  -7.264  -0.612  0.00  0.00     0.210 C 
ENDBRANCH  21  24
ENDBRANCH   1  18
TORSDOF 5
