REMARK  3 active torsions:
REMARK  status: ('A' for Active; 'I' for Inactive)
REMARK    1  A    between atoms: N_11  and  N_6 
REMARK    2  A    between atoms: C_20  and  C_9 
REMARK    3  A    between atoms: C_23  and  C_18 
ROOT
ATOM      1  C   UNL d   1      -0.205   0.646  -0.037  0.00  0.00     0.069 A 
ATOM      2  C   UNL d   1      -0.089  -0.722  -0.051  0.00  0.00     0.091 A 
ATOM      3  C   UNL d   1       1.008   1.447  -0.006  0.00  0.00     0.280 A 
ATOM      4  N   UNL d   1       1.059  -1.440  -0.041  0.00  0.00    -0.344 N 
ATOM      5  HN  UNL d   1       1.077  -2.459  -0.067  1.00  0.00     0.167 HD
ATOM      6  N   UNL d   1       2.191   0.671   0.034  0.00  0.00    -0.215 N 
ATOM      7  C   UNL d   1      -1.568   1.074  -0.040  0.00  0.00     0.040 A 
ATOM      8  S   UNL d   1      -1.605  -1.486  -0.072  0.00  0.00    -0.071 SA
ATOM      9  C   UNL d   1      -2.454   0.009  -0.020  0.00  0.00     0.018 A 
ATOM     10  C   UNL d   1       2.134  -0.714   0.004  0.00  0.00     0.211 A 
ATOM     11  O   UNL d   1       0.960   2.674  -0.011  0.00  0.00    -0.265 OA
ENDROOT
BRANCH   6  12
ATOM     12  N   UNL d   1       3.362   1.401   0.117  0.00  0.00    -0.301 N 
ATOM     13  C   UNL d   1       4.533   0.861   0.163  0.00  0.00     0.119 C 
ATOM     14  HN  UNL d   1       3.297   2.419   0.143  1.00  0.00     0.186 HD
BRANCH  13  15
ATOM     15  C   UNL d   1       5.738   1.715   0.259  0.00  0.00    -0.017 A 
ATOM     16  C   UNL d   1       7.001   1.112   0.286  0.00  0.00     0.052 A 
ATOM     17  C   UNL d   1       8.095   1.953   0.328  0.00  0.00     0.105 A 
ATOM     18  O   UNL d   1       9.397   1.559   0.348  0.00  0.00    -0.323 OA
ATOM     19  C   UNL d   1       7.963   3.322   0.346  0.00  0.00     0.105 A 
ATOM     20  C   UNL d   1      10.066   2.837   0.431  0.00  0.00     0.352 A 
ATOM     21  O   UNL d   1       9.163   3.959   0.362  0.00  0.00    -0.323 OA
ATOM     22  C   UNL d   1       6.730   3.938   0.343  0.00  0.00     0.040 A 
ATOM     23  C   UNL d   1       5.602   3.118   0.303  0.00  0.00     0.016 A 
ENDBRANCH  13  15
ENDBRANCH   6  12
BRANCH   9  24
ATOM     24  C   UNL d   1      -3.925   0.026   0.031  0.00  0.00    -0.019 A 
ATOM     25  C   UNL d   1      -4.648   1.041  -0.614  0.00  0.00     0.013 A 
ATOM     26  C   UNL d   1      -6.044   1.087  -0.532  0.00  0.00     0.001 A 
ATOM     27  C   UNL d   1      -6.735   0.121   0.196  0.00  0.00     0.000 A 
ATOM     28  C   UNL d   1      -6.035  -0.899   0.833  0.00  0.00     0.001 A 
ATOM     29  C   UNL d   1      -4.642  -0.946   0.749  0.00  0.00     0.013 A 
ENDBRANCH   9  24
TORSDOF 3
