REMARK  5 active torsions:
REMARK  status: ('A' for Active; 'I' for Inactive)
REMARK    1  A    between atoms: C_11  and  C_3 
REMARK    2  A    between atoms: C_13  and  C_4 
REMARK    3  A    between atoms: C_8  and  O_10 
REMARK    4  A    between atoms: C_9  and  C_8 
REMARK    5  A    between atoms: O_10  and  C_13 
ROOT
ATOM      1  N   UNL d   1       1.307   0.087  -0.517  0.00  0.00    -0.321 N 
ATOM      2  HN  UNL d   1       2.216   0.239  -0.954  1.00  0.00     0.169 HD
ATOM      3  C   UNL d   1       0.645  -1.041  -0.359  0.00  0.00     0.182 A 
ATOM      4  C   UNL d   1       0.461   1.005   0.059  0.00  0.00     0.128 A 
ATOM      5  N   UNL d   1      -0.689   0.495   0.522  0.00  0.00    -0.245 N 
ATOM      6  HN  UNL d   1      -1.468   0.986   0.961  1.00  0.00     0.196 HD
ATOM      7  O   UNL d   1      -0.564  -0.869   0.258  0.00  0.00    -0.217 OA
ENDROOT
BRANCH   4   8
ATOM      8  C   UNL d   1       0.742   2.467   0.106  0.00  0.00     0.257 C 
BRANCH   8   9
ATOM      9  O   UNL d   1       2.137   2.817  -0.002  0.00  0.00    -0.313 OA
BRANCH   9  10
ATOM     10  C   UNL d   1       2.851   2.701   1.146  0.00  0.00     0.266 C 
ATOM     11  O   UNL d   1       2.396   2.275   2.200  0.00  0.00    -0.264 OA
BRANCH  10  12
ATOM     12  C   UNL d   1       4.278   3.248   0.999  0.00  0.00     0.037 C 
ATOM     13  C   UNL d   1       4.628   3.634  -0.447  0.00  0.00     0.025 C 
ATOM     14  C   UNL d   1       4.388   4.493   1.891  0.00  0.00     0.025 C 
ATOM     15  C   UNL d   1       5.269   2.178   1.477  0.00  0.00     0.025 C 
ENDBRANCH  10  12
ENDBRANCH   9  10
ENDBRANCH   8   9
ENDBRANCH   4   8
BRANCH   3  16
ATOM     16  C   UNL d   1       1.008  -2.401  -0.742  0.00  0.00     0.017 A 
ATOM     17  C   UNL d   1       2.247  -2.635  -1.359  0.00  0.00     0.016 A 
ATOM     18  C   UNL d   1       2.631  -3.926  -1.728  0.00  0.00     0.001 A 
ATOM     19  C   UNL d   1       1.781  -5.002  -1.486  0.00  0.00     0.000 A 
ATOM     20  C   UNL d   1       0.545  -4.788  -0.879  0.00  0.00     0.001 A 
ATOM     21  C   UNL d   1       0.160  -3.496  -0.509  0.00  0.00     0.016 A 
ENDBRANCH   3  16
TORSDOF 5
