REMARK  4 active torsions:
REMARK  status: ('A' for Active; 'I' for Inactive)
REMARK    1  A    between atoms: N_2  and  S_1 
REMARK    2  A    between atoms: C_6  and  S_1 
REMARK    3  A    between atoms: C_4  and  N_2 
REMARK    4  A    between atoms: C_3  and  C_7 
ROOT
ATOM      1  S   UNL d   1       1.119   0.117  -0.228  0.00  0.00     0.242 S 
ATOM      2  O   UNL d   1       2.330  -0.277  -0.909  0.00  0.00    -0.206 OA
ATOM      3  O   UNL d   1       1.086   1.236   0.691  0.00  0.00    -0.206 OA
ENDROOT
BRANCH   1   4
ATOM      4  N   UNL d   1       0.528  -1.234   0.625  0.00  0.00    -0.202 NA
ATOM      5  H   UNL d   1      -0.492  -1.235   0.621  0.00  0.00     0.141 HD
BRANCH   4   6
ATOM      6  C   UNL d   1       1.057  -2.577   0.235  0.00  0.00     0.163 C 
ATOM      7  C   UNL d   1       0.620  -3.000  -1.168  0.00  0.00     0.236 C 
ATOM      8  N   UNL d   1       1.220  -4.084  -1.740  0.00  0.00    -0.360 N 
ATOM      9  O   UNL d   1      -0.288  -2.439  -1.781  0.00  0.00    -0.272 OA
ATOM     10  C   UNL d   1       2.057  -5.051  -1.067  0.00  0.00     0.122 C 
ATOM     11  H   UNL d   1       0.865  -4.310  -2.663  0.00  0.00     0.162 HD
ATOM     12  C   UNL d   1       1.316  -5.729   0.079  0.00  0.00     0.020 C 
ATOM     13  C   UNL d   1       1.304  -4.889   1.356  0.00  0.00     0.004 C 
ATOM     14  C   UNL d   1       0.516  -3.582   1.266  0.00  0.00     0.030 C 
ENDBRANCH   4   6
ENDBRANCH   1   4
BRANCH   1  15
ATOM     15  C   UNL d   1      -0.149   0.440  -1.431  0.00  0.00     0.075 A 
ATOM     16  C   UNL d   1       0.151   0.410  -2.799  0.00  0.00     0.041 A 
ATOM     17  C   UNL d   1      -0.878   0.579  -3.740  0.00  0.00     0.049 A 
ATOM     18  C   UNL d   1      -2.190   0.797  -3.284  0.00  0.00     0.016 A 
ATOM     19  C   UNL d   1      -2.473   0.862  -1.918  0.00  0.00     0.002 A 
ATOM     20  C   UNL d   1      -1.450   0.693  -0.988  0.00  0.00     0.025 A 
BRANCH  17  21
ATOM     21  C   UNL d   1      -0.609   0.503  -5.223  0.00  0.00     0.417 C 
ATOM     22  F   UNL d   1       0.697   0.278  -5.536  0.00  0.00    -0.166 F 
ATOM     23  F   UNL d   1      -1.315  -0.491  -5.832  0.00  0.00    -0.166 F 
ATOM     24  F   UNL d   1      -0.954   1.652  -5.871  0.00  0.00    -0.166 F 
ENDBRANCH  17  21
ENDBRANCH   1  15
TORSDOF 4
