REMARK  7 active torsions:
REMARK  status: ('A' for Active; 'I' for Inactive)
REMARK    1  A    between atoms: C_2  and  S_1 
REMARK    2  A    between atoms: N_5  and  S_1 
REMARK    3  A    between atoms: C_7  and  N_5 
REMARK    4  A    between atoms: C_7  and  C_14 
REMARK    5  A    between atoms: C_7  and  C_9 
REMARK    6  A    between atoms: O_16  and  C_9 
REMARK    7  A    between atoms: C_19  and  O_16 
ROOT
ATOM      1  N   UNL d   1       2.359  -0.217   2.546  0.00  0.00    -0.201 NA
ATOM      2  H   UNL d   1       2.744   0.718   2.706  0.00  0.00     0.141 HD
ENDROOT
BRANCH   1   3
ATOM      3  S   UNL d   1       3.167  -0.869   1.209  0.00  0.00     0.248 S 
ATOM      4  O   UNL d   1       2.354  -0.699   0.030  0.00  0.00    -0.205 OA
ATOM      5  O   UNL d   1       4.524  -0.374   1.271  0.00  0.00    -0.205 OA
BRANCH   3   6
ATOM      6  C   UNL d   1       3.298  -2.627   1.391  0.00  0.00     0.118 A 
ATOM      7  S   UNL d   1       4.234  -3.197   2.710  0.00  0.00    -0.064 SA
ATOM      8  C   UNL d   1       4.091  -4.804   2.184  0.00  0.00     0.093 A 
ATOM      9 CL   UNL d   1       4.920  -6.039   3.045  0.00  0.00    -0.075 Cl
ATOM     10  C   UNL d   1       3.298  -4.927   1.074  0.00  0.00     0.041 A 
ATOM     11  C   UNL d   1       2.818  -3.673   0.618  0.00  0.00     0.053 A 
ATOM     12 BR   UNL d   1       2.872  -6.524   0.165  0.00  0.00    -0.049 Br
ENDBRANCH   3   6
ENDBRANCH   1   3
BRANCH   1  13
ATOM     13  C   UNL d   1       0.861  -0.190   2.500  0.00  0.00     0.174 C 
BRANCH  13  14
ATOM     14  C   UNL d   1       0.326   0.401   3.832  0.00  0.00     0.006 C 
ATOM     15  C   UNL d   1      -1.205   0.521   3.834  0.00  0.00     0.011 C 
ATOM     16  C   UNL d   1       0.759  -0.425   5.047  0.00  0.00     0.011 C 
ENDBRANCH  13  14
BRANCH  13  17
ATOM     17  C   UNL d   1       0.422   0.718   1.349  0.00  0.00     0.278 C 
ATOM     18  O   UNL d   1       0.831   1.863   1.198  0.00  0.00    -0.263 OA
BRANCH  17  19
ATOM     19  O   UNL d   1      -0.466   0.071   0.544  0.00  0.00    -0.321 OA
BRANCH  19  20
ATOM     20  C   UNL d   1      -0.841   0.781  -0.643  0.00  0.00     0.174 C 
ATOM     21  C   UNL d   1      -2.058   1.637  -0.355  0.00  0.00     0.034 C 
ENDBRANCH  19  20
ENDBRANCH  17  19
ENDBRANCH  13  17
ENDBRANCH   1  13
TORSDOF 7
