REMARK  4 active torsions:
REMARK  status: ('A' for Active; 'I' for Inactive)
REMARK    1  A    between atoms: C_2  and  C_1 
REMARK       I    between atoms: N_3  and  C_2 
REMARK    2  A    between atoms: C_5  and  N_3 
REMARK    3  A    between atoms: O_14  and  C_4 
REMARK    4  A    between atoms: C_18  and  O_14 
ROOT
ATOM      1  C   UNL d   1      -0.289   2.762  -0.267  0.00  0.00     0.266 C 
ATOM      2  N   UNL d   1      -1.647   2.982  -0.071  0.00  0.00    -0.320 N 
ATOM      3  O   UNL d   1       0.509   3.662  -0.512  0.00  0.00    -0.267 OA
ATOM      4  H   UNL d   1      -2.201   2.185   0.226  0.00  0.00     0.169 HD
ENDROOT
BRANCH   1   5
ATOM      5  C   UNL d   1       0.134   1.373  -0.132  0.00  0.00     0.106 A 
ATOM      6  C   UNL d   1       1.323   0.828   0.334  0.00  0.00     0.091 A 
ATOM      7  C   UNL d   1       1.387  -0.582   0.120  0.00  0.00     0.045 A 
ATOM      8  C   UNL d   1       0.253  -1.084  -0.470  0.00  0.00     0.053 A 
ATOM      9  S   UNL d   1      -0.907   0.134  -0.741  0.00  0.00    -0.094 SA
BRANCH   6  10
ATOM     10  O   UNL d   1       2.401   1.466   0.863  0.00  0.00    -0.350 OA
BRANCH  10  11
ATOM     11  C   UNL d   1       2.127   2.571   1.723  0.00  0.00     0.171 C 
ATOM     12  C   UNL d   1       3.197   2.611   2.803  0.00  0.00     0.034 C 
ENDBRANCH  10  11
ENDBRANCH   6  10
ENDBRANCH   1   5
BRANCH   2  13
ATOM     13  C   UNL d   1      -2.351   4.200  -0.230  0.00  0.00     0.076 A 
ATOM     14  C   UNL d   1      -1.786   5.364  -0.753  0.00  0.00     0.074 A 
ATOM     15  C   UNL d   1      -2.565   6.508  -0.902  0.00  0.00     0.118 A 
ATOM     16  F   UNL d   1      -2.011   7.613  -1.420  0.00  0.00    -0.206 F 
ATOM     17  C   UNL d   1      -3.904   6.527  -0.538  0.00  0.00     0.045 A 
ATOM     18  C   UNL d   1      -4.483   5.373  -0.012  0.00  0.00     0.047 A 
ATOM     19  C   UNL d   1      -3.709   4.223   0.134  0.00  0.00     0.143 A 
ATOM     20  F   UNL d   1      -4.276   3.117   0.640  0.00  0.00    -0.204 F 
ENDBRANCH   2  13
TORSDOF 4
