REMARK  2 active torsions:
REMARK  status: ('A' for Active; 'I' for Inactive)
REMARK    1  A    between atoms: C_4  and  C_1 
REMARK    2  A    between atoms: C_6  and  C_4 
ROOT
ATOM      1  C   UNL d   1       2.312   0.779   0.011  0.00  0.00     0.060 A 
ATOM      2  N   UNL d   1       2.406  -0.572   0.015  0.00  0.00    -0.363 N 
ATOM      3  HN  UNL d   1       3.310  -1.044   0.024  1.00  0.00     0.165 HD
ATOM      4  C   UNL d   1       1.102   1.463  -0.011  0.00  0.00     0.044 A 
ATOM      5  C   UNL d   1      -0.089   0.726  -0.021  0.00  0.00    -0.022 A 
ATOM      6  C   UNL d   1       1.245  -1.264   0.006  0.00  0.00     0.100 A 
ATOM      7  C   UNL d   1      -0.023  -0.682  -0.009  0.00  0.00    -0.011 A 
ATOM      8  C   UNL d   1      -1.347   1.349  -0.040  0.00  0.00     0.012 A 
ATOM      9  C   UNL d   1      -1.209  -1.437  -0.006  0.00  0.00     0.013 A 
ATOM     10  C   UNL d   1      -2.519   0.589  -0.040  0.00  0.00     0.001 A 
ATOM     11  C   UNL d   1      -2.450  -0.802  -0.021  0.00  0.00     0.001 A 
ENDROOT
BRANCH   1  12
ATOM     12  C   UNL d   1       3.607   1.533   0.015  0.00  0.00     0.063 C 
ATOM     13  N   UNL d   1       3.747   2.678  -0.591  0.00  0.00    -0.397 N 
ATOM     14  H   UNL d   1       2.899   2.963  -1.087  0.00  0.00     0.156 HD
ATOM     15  HN  UNL d   1       4.605   3.228  -0.572  1.00  0.00     0.156 HD
BRANCH  12  16
ATOM     16  C   UNL d   1       4.795   0.964   0.727  0.00  0.00    -0.008 A 
ATOM     17  C   UNL d   1       6.077   1.285   0.258  0.00  0.00     0.015 A 
ATOM     18  C   UNL d   1       7.213   0.802   0.914  0.00  0.00     0.024 A 
ATOM     19  C   UNL d   1       7.068   0.004   2.047  0.00  0.00     0.034 A 
ATOM     20  C   UNL d   1       5.800  -0.315   2.528  0.00  0.00     0.024 A 
ATOM     21 CL   UNL d   1       8.464  -0.580   2.866  0.00  0.00    -0.084 Cl
ATOM     22  C   UNL d   1       4.663   0.168   1.872  0.00  0.00     0.015 A 
ENDBRANCH  12  16
ENDBRANCH   1  12
TORSDOF 2
