REMARK  3 active torsions:
REMARK  status: ('A' for Active; 'I' for Inactive)
REMARK    1  A    between atoms: S_11  and  C_5 
REMARK    2  A    between atoms: C_9  and  N_8 
REMARK    3  A    between atoms: O_12  and  C_10 
ROOT
ATOM      1  C   UNL d   1       3.550  -1.351  -1.168  0.00  0.00     0.166 A 
ATOM      2  S   UNL d   1       2.167  -1.976  -1.996  0.00  0.00    -0.027 SA
ATOM      3  N   UNL d   1       4.614  -2.124  -1.297  0.00  0.00    -0.278 N 
ATOM      4  HN  UNL d   1       5.506  -1.933  -0.842  1.00  0.00     0.189 HD
ATOM      5  C   UNL d   1       3.162  -3.247  -2.554  0.00  0.00     0.127 A 
ATOM      6  N   UNL d   1       4.395  -3.216  -2.111  0.00  0.00    -0.286 N 
ATOM      7  HN  UNL d   1       5.104  -3.913  -2.339  1.00  0.00     0.188 HD
ATOM      8  N   UNL d   1       3.462  -0.197  -0.466  0.00  0.00    -0.333 N 
ATOM      9  H   UNL d   1       2.573   0.291  -0.461  0.00  0.00     0.168 HD
ENDROOT
BRANCH   8  10
ATOM     10  C   UNL d   1       4.532   0.685  -0.183  0.00  0.00     0.067 A 
ATOM     11  C   UNL d   1       4.471   1.594   0.892  0.00  0.00     0.094 A 
ATOM     12  C   UNL d   1       5.518   2.502   1.107  0.00  0.00     0.039 A 
ATOM     13  C   UNL d   1       6.642   2.507   0.279  0.00  0.00     0.003 A 
ATOM     14  C   UNL d   1       6.727   1.603  -0.769  0.00  0.00     0.002 A 
ATOM     15  C   UNL d   1       5.688   0.696  -0.990  0.00  0.00     0.032 A 
BRANCH  11  16
ATOM     16  O   UNL d   1       3.417   1.757   1.757  0.00  0.00    -0.354 OA
ATOM     17  C   UNL d   1       2.792   0.572   2.237  0.00  0.00     0.210 C 
ENDBRANCH  11  16
ENDBRANCH   8  10
BRANCH   5  18
ATOM     18  S   UNL d   1       2.608  -4.494  -3.643  0.00  0.00    -0.117 SA
ATOM     19  H   UNL d   1       1.385  -3.994  -3.860  0.00  0.00     0.109 HD
ENDBRANCH   5  18
TORSDOF 3
