REMARK  6 active torsions:
REMARK  status: ('A' for Active; 'I' for Inactive)
REMARK    1  A    between atoms: C_14  and  N_2 
REMARK    2  A    between atoms: C_11  and  C_4 
REMARK    3  A    between atoms: C_13  and  N_5 
REMARK    4  A    between atoms: O_20  and  C_11 
REMARK    5  A    between atoms: C_19  and  C_12 
REMARK    6  A    between atoms: C_27  and  O_20 
ROOT
ATOM      1  C   UNL d   1      -0.007  -0.232  -0.323  0.00  0.00     0.247 C 
ATOM      2  N   UNL d   1       1.124  -1.075  -0.626  0.00  0.00    -0.265 N 
ATOM      3  S   UNL d   1      -0.658  -0.593   1.371  0.00  0.00    -0.037 SA
ATOM      4  C   UNL d   1      -2.202  -0.134   0.760  0.00  0.00     0.166 C 
ATOM      5  N   UNL d   1      -1.211  -0.286  -1.190  0.00  0.00    -0.241 N 
ATOM      6  N   UNL d   1      -2.405  -0.044  -0.505  0.00  0.00    -0.283 N 
ATOM      7  HN  UNL d   1      -3.301   0.171  -0.943  1.00  0.00     0.188 HD
ATOM      8  S   UNL d   1       0.660   1.495  -0.239  0.00  0.00    -0.056 SA
ATOM      9  C   UNL d   1       2.345  -0.567  -0.160  0.00  0.00     0.268 C 
ATOM     10  C   UNL d   1       2.255   0.908   0.078  0.00  0.00     0.074 C 
ATOM     11  C   UNL d   1       3.260   1.724   0.430  0.00  0.00     0.035 C 
ATOM     12  O   UNL d   1       3.361  -1.216   0.019  0.00  0.00    -0.266 OA
ENDROOT
BRANCH   2  13
ATOM     13  C   UNL d   1       1.083  -2.362  -1.226  0.00  0.00     0.041 A 
ATOM     14  C   UNL d   1       0.065  -3.289  -1.000  0.00  0.00     0.030 A 
ATOM     15  C   UNL d   1       0.099  -4.537  -1.636  0.00  0.00     0.002 A 
ATOM     16  C   UNL d   1       1.117  -4.853  -2.536  0.00  0.00     0.000 A 
ATOM     17  C   UNL d   1       2.126  -3.931  -2.785  0.00  0.00     0.002 A 
ATOM     18  C   UNL d   1       2.115  -2.705  -2.121  0.00  0.00     0.030 A 
ENDBRANCH   2  13
BRANCH   5  19
ATOM     19  C   UNL d   1      -1.283  -0.239  -2.589  0.00  0.00     0.055 A 
ATOM     20  C   UNL d   1      -0.167  -0.133  -3.431  0.00  0.00     0.033 A 
ATOM     21  C   UNL d   1      -0.292  -0.179  -4.831  0.00  0.00     0.026 A 
ATOM     22  C   UNL d   1      -1.543  -0.316  -5.419  0.00  0.00     0.034 A 
ATOM     23  C   UNL d   1      -2.676  -0.378  -4.624  0.00  0.00     0.026 A 
ATOM     24 CL   UNL d   1      -1.689  -0.418  -7.129  0.00  0.00    -0.084 Cl
ATOM     25  C   UNL d   1      -2.539  -0.337  -3.231  0.00  0.00     0.033 A 
ENDBRANCH   5  19
BRANCH   4  26
ATOM     26  C   UNL d   1      -3.174   0.079   1.889  0.00  0.00     0.318 C 
ATOM     27  O   UNL d   1      -2.868   0.461   3.000  0.00  0.00    -0.257 OA
BRANCH  26  28
ATOM     28  O   UNL d   1      -4.405  -0.297   1.464  0.00  0.00    -0.316 OA
BRANCH  28  29
ATOM     29  C   UNL d   1      -5.361  -0.534   2.506  0.00  0.00     0.175 C 
ATOM     30  C   UNL d   1      -5.293  -2.011   2.843  0.00  0.00     0.034 C 
ENDBRANCH  28  29
ENDBRANCH  26  28
ENDBRANCH   4  26
BRANCH  11  31
ATOM     31  C   UNL d   1       4.651   1.318   0.649  0.00  0.00    -0.035 A 
ATOM     32  C   UNL d   1       5.539   1.247  -0.431  0.00  0.00     0.011 A 
ATOM     33  C   UNL d   1       6.867   0.868  -0.226  0.00  0.00     0.001 A 
ATOM     34  C   UNL d   1       7.314   0.559   1.058  0.00  0.00     0.000 A 
ATOM     35  C   UNL d   1       6.433   0.623   2.136  0.00  0.00     0.001 A 
ATOM     36  C   UNL d   1       5.103   1.001   1.934  0.00  0.00     0.011 A 
ENDBRANCH  11  31
TORSDOF 6
