REMARK  4 active torsions:
REMARK  status: ('A' for Active; 'I' for Inactive)
REMARK    1  A    between atoms: C_6  and  C_1 
REMARK    2  A    between atoms: N_2  and  C_5 
REMARK    3  A    between atoms: N_7  and  C_3 
REMARK    4  A    between atoms: O_15  and  C_6 
REMARK       I    between atoms: C_8  and  N_7 
ROOT
ATOM      1  C   UNL d   1       1.462  -0.132   0.158  0.00  0.00     0.066 A 
ATOM      2  C   UNL d   1       0.647  -1.283   0.202  0.00  0.00     0.051 A 
ATOM      3  C   UNL d   1       0.881   1.144   0.088  0.00  0.00     0.056 A 
ATOM      4  C   UNL d   1      -0.513   1.274   0.089  0.00  0.00     0.104 A 
ATOM      5  C   UNL d   1      -0.747  -1.128   0.172  0.00  0.00     0.033 A 
ATOM      6  C   UNL d   1      -1.331   0.139   0.120  0.00  0.00     0.038 A 
ENDROOT
BRANCH   2   7
ATOM      7  N   UNL d   1       1.233  -2.572   0.252  0.00  0.00    -0.327 N 
ATOM      8  C   UNL d   1       0.630  -3.716   0.740  0.00  0.00     0.218 C 
ATOM      9  O   UNL d   1      -0.452  -3.761   1.318  0.00  0.00    -0.274 OA
ATOM     10  C   UNL d   1       1.426  -4.973   0.502  0.00  0.00     0.117 C 
ATOM     11  H   UNL d   1       2.233  -2.620   0.039  0.00  0.00     0.169 HD
ENDBRANCH   2   7
BRANCH   1  12
ATOM     12  C   UNL d   1       2.940  -0.273   0.197  0.00  0.00     0.178 C 
ATOM     13  O   UNL d   1       3.511  -1.228  -0.308  0.00  0.00    -0.646 OA
BRANCH  12  14
ATOM     14  O   UNL d   1       3.579   0.689   0.887  0.00  0.00    -0.773 OA
ATOM     15  H   UNL d   1       3.024   1.286   1.423  0.00  0.00     0.167 HD
ENDBRANCH  12  14
ENDBRANCH   1  12
BRANCH   4  16
ATOM     16  N   UNL d   1      -1.123   2.606   0.072  0.00  0.00    -0.116 N 
ATOM     17  O   UNL d   1      -0.363   3.576   0.209  0.00  0.00    -0.532 OA
ATOM     18  O   UNL d   1      -2.352   2.683  -0.061  0.00  0.00    -0.532 OA
ENDBRANCH   4  16
TORSDOF 4
