REMARK  7 active torsions:
REMARK  status: ('A' for Active; 'I' for Inactive)
REMARK    1  A    between atoms: C_2  and  C_1 
REMARK    2  A    between atoms: C_5  and  C_1 
REMARK    3  A    between atoms: C_6  and  C_2 
REMARK    4  A    between atoms: N_7  and  N_3 
REMARK    5  A    between atoms: O_16  and  C_5 
REMARK    6  A    between atoms: O_19  and  C_6 
REMARK    7  A    between atoms: C_8  and  N_7 
ROOT
ATOM      1  C   UNL d   1       1.024  -0.112   0.136  0.00  0.00     0.105 C 
ATOM      2  N   UNL d   1       0.367  -0.871  -0.694  0.00  0.00    -0.315 N 
ATOM      3  HN  UNL d   1       0.858  -1.506  -1.323  1.00  0.00     0.181 HD
ENDROOT
BRANCH   2   4
ATOM      4  N   UNL d   1      -0.994  -0.792  -0.701  0.00  0.00    -0.206 NA
ATOM      5  H   UNL d   1      -1.374   0.162  -0.800  0.00  0.00     0.153 HD
BRANCH   4   6
ATOM      6  C   UNL d   1      -1.628  -1.667  -1.624  0.00  0.00     0.030 A 
ATOM      7  C   UNL d   1      -1.083  -2.920  -1.939  0.00  0.00     0.049 A 
ATOM      8  C   UNL d   1      -1.732  -3.771  -2.834  0.00  0.00     0.037 A 
ATOM      9 CL   UNL d   1      -1.030  -5.292  -3.229  0.00  0.00    -0.084 Cl
ATOM     10  C   UNL d   1      -2.941  -3.400  -3.413  0.00  0.00     0.047 A 
ATOM     11  C   UNL d   1      -3.506  -2.175  -3.071  0.00  0.00     0.037 A 
ATOM     12  C   UNL d   1      -2.869  -1.319  -2.170  0.00  0.00     0.049 A 
ATOM     13 CL   UNL d   1      -5.006  -1.705  -3.775  0.00  0.00    -0.084 Cl
ENDBRANCH   4   6
ENDBRANCH   2   4
BRANCH   1  14
ATOM     14  C   UNL d   1       0.464   0.793   1.198  0.00  0.00     0.175 C 
BRANCH  14  15
ATOM     15  C   UNL d   1      -0.403   1.913   0.701  0.00  0.00     0.264 C 
ATOM     16  O   UNL d   1      -1.040   1.906  -0.343  0.00  0.00    -0.265 OA
BRANCH  15  17
ATOM     17  O   UNL d   1      -0.462   2.901   1.640  0.00  0.00    -0.326 OA
ATOM     18  C   UNL d   1      -1.356   3.973   1.326  0.00  0.00     0.213 C 
ENDBRANCH  15  17
ENDBRANCH  14  15
ENDBRANCH   1  14
BRANCH   1  19
ATOM     19  C   UNL d   1       2.545  -0.194   0.081  0.00  0.00     0.306 C 
ATOM     20  O   UNL d   1       3.248   0.787   0.248  0.00  0.00    -0.258 OA
BRANCH  19  21
ATOM     21  O   UNL d   1       2.935  -1.468  -0.116  0.00  0.00    -0.322 OA
ATOM     22  C   UNL d   1       4.347  -1.655  -0.198  0.00  0.00     0.213 C 
ENDBRANCH  19  21
ENDBRANCH   1  19
TORSDOF 7
