REMARK  6 active torsions:
REMARK  status: ('A' for Active; 'I' for Inactive)
REMARK    1  A    between atoms: C_4  and  C_1 
REMARK    2  A    between atoms: C_2  and  C_3 
REMARK    3  A    between atoms: C_7  and  C_6 
REMARK    4  A    between atoms: C_11  and  C_7 
REMARK    5  A    between atoms: C_8  and  N_14 
REMARK    6  A    between atoms: N_14  and  C_12 
ROOT
ATOM      1  C   UNL d   1       1.014   0.004  -1.690  0.00  0.00     0.050 A 
ATOM      2  C   UNL d   1      -0.585   1.176  -3.104  0.00  0.00     0.050 A 
ATOM      3  C   UNL d   1       0.397   1.191  -2.103  0.00  0.00     0.032 A 
ATOM      4  C   UNL d   1      -0.942  -0.053  -3.690  0.00  0.00     0.045 A 
ATOM      5  C   UNL d   1       0.626  -1.209  -2.285  0.00  0.00     0.045 A 
ATOM      6  C   UNL d   1      -0.341  -1.257  -3.297  0.00  0.00     0.033 A 
ENDROOT
BRANCH   6   7
ATOM      7  N   UNL d   1      -0.783  -2.464  -3.865  0.00  0.00    -0.366 N 
ATOM      8  H   UNL d   1      -1.217  -2.390  -4.779  0.00  0.00     0.165 HD
BRANCH   7   9
ATOM      9  C   UNL d   1      -0.673  -3.726  -3.334  0.00  0.00     0.092 C 
ATOM     10  C   UNL d   1      -0.987  -4.885  -3.930  0.00  0.00     0.072 C 
BRANCH  10  11
ATOM     11  C   UNL d   1      -0.872  -6.149  -3.148  0.00  0.00     0.183 C 
ATOM     12  O   UNL d   1      -0.201  -6.195  -2.121  0.00  0.00    -0.288 OA
BRANCH  11  13
ATOM     13  C   UNL d   1      -1.604  -7.369  -3.611  0.00  0.00     0.014 A 
ATOM     14  C   UNL d   1      -2.435  -7.399  -4.740  0.00  0.00     0.017 A 
ATOM     15  C   UNL d   1      -3.120  -8.570  -5.086  0.00  0.00     0.020 A 
ATOM     16  C   UNL d   1      -2.986  -9.714  -4.303  0.00  0.00     0.011 A 
ATOM     17  C   UNL d   1      -2.166  -9.704  -3.179  0.00  0.00     0.020 A 
ATOM     18 BR   UNL d   1      -3.933 -11.283  -4.764  0.00  0.00    -0.051 Br
ATOM     19  C   UNL d   1      -1.478  -8.535  -2.837  0.00  0.00     0.017 A 
ENDBRANCH  11  13
ENDBRANCH  10  11
ENDBRANCH   7   9
ENDBRANCH   6   7
BRANCH   1  20
ATOM     20  C   UNL d   1       2.088  -0.001  -0.628  0.00  0.00     0.417 C 
ATOM     21  F   UNL d   1       2.380   1.240  -0.150  0.00  0.00    -0.166 F 
ATOM     22  F   UNL d   1       1.746  -0.749   0.456  0.00  0.00    -0.166 F 
ATOM     23  F   UNL d   1       3.265  -0.511  -1.084  0.00  0.00    -0.166 F 
ENDBRANCH   1  20
BRANCH   2  24
ATOM     24  C   UNL d   1      -1.259   2.450  -3.554  0.00  0.00     0.417 C 
ATOM     25  F   UNL d   1      -0.804   3.562  -2.912  0.00  0.00    -0.166 F 
ATOM     26  F   UNL d   1      -2.606   2.427  -3.353  0.00  0.00    -0.166 F 
ATOM     27  F   UNL d   1      -1.083   2.688  -4.883  0.00  0.00    -0.166 F 
ENDBRANCH   2  24
TORSDOF 6
