REMARK  6 active torsions:
REMARK  status: ('A' for Active; 'I' for Inactive)
REMARK    1  A    between atoms: C_2  and  S_1 
REMARK    2  A    between atoms: N_7  and  S_1 
REMARK    3  A    between atoms: C_16  and  N_7 
REMARK    4  A    between atoms: N_9  and  C_8 
REMARK    5  A    between atoms: C_17  and  C_16 
REMARK    6  A    between atoms: C_18  and  C_17 
ROOT
ATOM      1  C   UNL d   1       0.418   1.662   0.413  0.00  0.00     0.090 A 
ATOM      2  C   UNL d   1       0.901   2.856  -0.203  0.00  0.00    -0.001 A 
ATOM      3  C   UNL d   1       0.621   4.101   0.440  0.00  0.00    -0.003 A 
ATOM      4  C   UNL d   1       1.167   5.313  -0.080  0.00  0.00     0.017 A 
ATOM      5  C   UNL d   1       1.642   2.912  -1.409  0.00  0.00     0.014 A 
ATOM      6  C   UNL d   1      -0.418   1.710   1.542  0.00  0.00     0.026 A 
ATOM      7  C   UNL d   1      -0.208   4.095   1.588  0.00  0.00     0.014 A 
ATOM      8  C   UNL d   1      -0.746   2.925   2.116  0.00  0.00     0.002 A 
ATOM      9  C   UNL d   1       2.193   4.095  -1.896  0.00  0.00     0.003 A 
ATOM     10  C   UNL d   1       2.000   5.276  -1.203  0.00  0.00     0.024 A 
ENDROOT
BRANCH   1  11
ATOM     11  S   UNL d   1       0.843   0.009  -0.113  0.00  0.00     0.259 S 
ATOM     12  O   UNL d   1       1.730  -0.003  -1.249  0.00  0.00    -0.201 OA
ATOM     13  O   UNL d   1      -0.385  -0.760  -0.123  0.00  0.00    -0.201 OA
BRANCH  11  14
ATOM     14  N   UNL d   1       1.727  -0.577   1.209  0.00  0.00    -0.315 N 
ATOM     15  H   UNL d   1       1.408  -1.514   1.449  0.00  0.00     0.172 HD
BRANCH  14  16
ATOM     16  C   UNL d   1       3.171  -0.304   1.243  0.00  0.00     0.132 C 
BRANCH  16  17
ATOM     17  C   UNL d   1       3.832  -1.009   2.433  0.00  0.00     0.020 C 
BRANCH  17  18
ATOM     18  C   UNL d   1       3.786  -2.537   2.323  0.00  0.00    -0.003 C 
ATOM     19  C   UNL d   1       4.583  -3.213   3.429  0.00  0.00     0.005 C 
ENDBRANCH  17  18
ENDBRANCH  16  17
ENDBRANCH  14  16
ENDBRANCH  11  14
ENDBRANCH   1  11
BRANCH   4  20
ATOM     20  N   UNL d   1       1.089   6.539   0.620  0.00  0.00    -0.302 NA
ATOM     21  H   UNL d   1       0.225   6.670   1.131  0.00  0.00     0.124 HD
ATOM     22  H   UNL d   1       1.303   7.347   0.044  0.00  0.00     0.124 HD
ENDBRANCH   4  20
TORSDOF 6
