REMARK  5 active torsions:
REMARK  status: ('A' for Active; 'I' for Inactive)
REMARK    1  A    between atoms: C_2  and  C_1 
REMARK    2  A    between atoms: C_10  and  C_2 
REMARK    3  A    between atoms: C_12  and  N_3 
REMARK    4  A    between atoms: C_14  and  C_10 
REMARK    5  A    between atoms: N_15  and  C_11 
ROOT
ATOM      1  C   UNL d   1      -0.165  -1.480   0.089  0.00  0.00     0.160 A 
ATOM      2  N   UNL d   1      -0.185  -0.738   1.277  0.00  0.00    -0.222 N 
ATOM      3  N   UNL d   1       0.313   0.495   0.976  0.00  0.00    -0.219 N 
ATOM      4  HN  UNL d   1       0.420   1.279   1.619  1.00  0.00     0.210 HD
ATOM      5  N   UNL d   1       0.630   0.483  -0.305  0.00  0.00    -0.226 N 
ATOM      6  HN  UNL d   1       1.032   1.274  -0.808  1.00  0.00     0.210 HD
ATOM      7  N   UNL d   1       0.349  -0.726  -0.866  0.00  0.00    -0.267 N 
ATOM      8  HN  UNL d   1       0.506  -0.997  -1.836  1.00  0.00     0.190 HD
ENDROOT
BRANCH   1   9
ATOM      9  C   UNL d   1      -0.605  -2.823  -0.001  0.00  0.00     0.077 C 
ATOM     10  C   UNL d   1       0.379  -3.747   0.109  0.00  0.00     0.104 C 
BRANCH   9  11
ATOM     11  C   UNL d   1      -2.057  -3.126  -0.246  0.00  0.00     0.197 C 
ATOM     12  O   UNL d   1      -2.596  -4.144   0.191  0.00  0.00    -0.286 OA
BRANCH  11  13
ATOM     13  C   UNL d   1      -2.949  -2.212  -1.020  0.00  0.00     0.015 A 
ATOM     14  C   UNL d   1      -3.831  -2.816  -1.931  0.00  0.00     0.015 A 
ATOM     15  C   UNL d   1      -4.797  -2.060  -2.600  0.00  0.00     0.001 A 
ATOM     16  C   UNL d   1      -4.892  -0.692  -2.368  0.00  0.00     0.000 A 
ATOM     17  C   UNL d   1      -4.024  -0.080  -1.468  0.00  0.00     0.001 A 
ATOM     18  C   UNL d   1      -3.066  -0.838  -0.785  0.00  0.00     0.015 A 
ENDBRANCH  11  13
ENDBRANCH   9  11
BRANCH  10  19
ATOM     19  N   UNL d   1       0.476  -5.133   0.148  0.00  0.00    -0.398 N 
ATOM     20  C   UNL d   1      -0.616  -6.044   0.487  0.00  0.00     0.148 C 
ATOM     21  C   UNL d   1       1.714  -5.817  -0.241  0.00  0.00     0.148 C 
ENDBRANCH  10  19
ENDBRANCH   1   9
BRANCH   2  22
ATOM     22  C   UNL d   1      -0.634  -1.004   2.610  0.00  0.00     0.060 A 
ATOM     23  C   UNL d   1      -1.190  -2.228   3.006  0.00  0.00     0.034 A 
ATOM     24  C   UNL d   1      -1.620  -2.419   4.327  0.00  0.00     0.044 A 
ATOM     25  C   UNL d   1      -1.493  -1.397   5.255  0.00  0.00     0.116 A 
ATOM     26  C   UNL d   1      -0.946  -0.176   4.889  0.00  0.00     0.044 A 
ATOM     27  F   UNL d   1      -1.899  -1.591   6.515  0.00  0.00    -0.206 F 
ATOM     28  C   UNL d   1      -0.521   0.022   3.573  0.00  0.00     0.034 A 
ENDBRANCH   2  22
TORSDOF 5
