REMARK  5 active torsions:
REMARK  status: ('A' for Active; 'I' for Inactive)
REMARK    1  A    between atoms: N_7  and  C_1 
REMARK    2  A    between atoms: C_9  and  N_2 
REMARK    3  A    between atoms: N_5  and  N_7 
REMARK    4  A    between atoms: C_10  and  C_8 
REMARK    5  A    between atoms: C_16  and  C_9 
ROOT
ATOM      1  C   UNL d   1       1.987  -1.702  -0.018  0.00  0.00     0.691 A 
ATOM      2  N   UNL d   1       1.089  -0.684  -0.138  0.00  0.00    -0.211 N 
ATOM      3  N   UNL d   1       3.255  -1.364   0.024  0.00  0.00    -0.223 N 
ATOM      4  HN  UNL d   1       4.063  -1.982   0.092  1.00  0.00     0.177 HD
ATOM      5  C   UNL d   1       3.251   0.121  -0.049  0.00  0.00     0.158 A 
ATOM      6  C   UNL d   1       1.802   0.563  -0.264  0.00  0.00     0.161 A 
ENDROOT
BRANCH   1   7
ATOM      7  N   UNL d   1       1.630  -3.021  -0.003  0.00  0.00    -0.132 N 
ATOM      8  H   UNL d   1       2.460  -3.593   0.086  0.00  0.00     0.205 HD
BRANCH   7   9
ATOM      9  N   UNL d   1       0.477  -3.549  -0.492  0.00  0.00    -0.290 N 
ATOM     10  C   UNL d   1       0.460  -4.772  -0.940  0.00  0.00     0.032 C 
ATOM     11  C   UNL d   1       1.648  -5.710  -1.004  0.00  0.00     0.070 C 
ATOM     12  HN  UNL d   1      -0.375  -2.987  -0.508  1.00  0.00     0.187 HD
BRANCH  10  13
ATOM     13  C   UNL d   1      -0.844  -5.300  -1.452  0.00  0.00    -0.013 A 
ATOM     14  C   UNL d   1      -1.772  -4.406  -2.003  0.00  0.00     0.015 A 
ATOM     15  C   UNL d   1      -2.996  -4.872  -2.491  0.00  0.00     0.024 A 
ATOM     16  C   UNL d   1      -3.295  -6.231  -2.420  0.00  0.00     0.034 A 
ATOM     17  C   UNL d   1      -2.383  -7.127  -1.865  0.00  0.00     0.024 A 
ATOM     18 CL   UNL d   1      -4.801  -6.808  -3.018  0.00  0.00    -0.084 Cl
ATOM     19  C   UNL d   1      -1.155  -6.664  -1.381  0.00  0.00     0.015 A 
ENDBRANCH  10  13
ENDBRANCH   7   9
ENDBRANCH   1   7
BRANCH   2  20
ATOM     20  C   UNL d   1      -0.329  -0.684   0.125  0.00  0.00     0.179 C 
BRANCH  20  21
ATOM     21  C   UNL d   1      -0.659  -0.546   1.597  0.00  0.00    -0.040 A 
ATOM     22  C   UNL d   1      -0.910   0.714   2.165  0.00  0.00     0.009 A 
ATOM     23  C   UNL d   1      -1.258   0.831   3.513  0.00  0.00     0.001 A 
ATOM     24  C   UNL d   1      -1.357  -0.307   4.310  0.00  0.00     0.000 A 
ATOM     25  C   UNL d   1      -1.097  -1.563   3.763  0.00  0.00     0.001 A 
ATOM     26  C   UNL d   1      -0.744  -1.681   2.417  0.00  0.00     0.009 A 
ENDBRANCH  20  21
ENDBRANCH   2  20
TORSDOF 5
