REMARK  1 active torsions:
REMARK  status: ('A' for Active; 'I' for Inactive)
REMARK    1  A    between atoms: C_11  and  C_7 
ROOT
ATOM      1  N   UNL d   1      -0.437   0.281  -0.103  0.00  0.00    -0.293 N 
ATOM      2  C   UNL d   1      -1.163  -0.864  -0.149  0.00  0.00     0.150 A 
ATOM      3  C   UNL d   1      -2.638   0.603   0.227  0.00  0.00     0.104 A 
ATOM      4  N   UNL d   1      -2.438  -0.742   0.037  0.00  0.00    -0.332 N 
ATOM      5  HN  UNL d   1      -3.140  -1.481   0.040  1.00  0.00     0.168 HD
ATOM      6  C   UNL d   1      -1.315   1.301   0.180  0.00  0.00     0.276 A 
ATOM      7  C   UNL d   1      -3.863   1.119   0.391  0.00  0.00     0.046 C 
ATOM      8  S   UNL d   1      -0.530  -2.433  -0.500  0.00  0.00    -0.094 SA
ATOM      9  O   UNL d   1      -1.079   2.478   0.370  0.00  0.00    -0.265 OA
ATOM     10  C   UNL d   1       0.999   0.523  -0.194  0.00  0.00     0.134 C 
ATOM     11  C   UNL d   1       1.153  -2.371   0.115  0.00  0.00     0.082 C 
ATOM     12  C   UNL d   1       1.696  -0.272  -1.293  0.00  0.00     0.021 C 
ATOM     13  C   UNL d   1       2.083  -1.695  -0.884  0.00  0.00     0.012 C 
ENDROOT
BRANCH   7  14
ATOM     14  C   UNL d   1      -4.245   2.518   0.553  0.00  0.00    -0.034 A 
ATOM     15  C   UNL d   1      -4.554   3.298  -0.567  0.00  0.00     0.011 A 
ATOM     16  C   UNL d   1      -5.022   4.604  -0.407  0.00  0.00     0.001 A 
ATOM     17  C   UNL d   1      -5.185   5.136   0.872  0.00  0.00     0.000 A 
ATOM     18  C   UNL d   1      -4.877   4.363   1.991  0.00  0.00     0.001 A 
ATOM     19  C   UNL d   1      -4.408   3.057   1.834  0.00  0.00     0.011 A 
ENDBRANCH   7  14
TORSDOF 1
