REMARK  1 active torsions:
REMARK  status: ('A' for Active; 'I' for Inactive)
REMARK    1  A    between atoms: C_9  and  N_6 
ROOT
ATOM      1  C   UNL d   1      -1.139   0.687  -0.027  0.00  0.00     0.114 A 
ATOM      2  C   UNL d   1      -1.724  -0.711  -0.326  0.00  0.00     0.273 A 
ATOM      3  N   UNL d   1      -0.639  -1.567  -0.315  0.00  0.00    -0.321 N 
ATOM      4  C   UNL d   1       0.312   0.498   0.004  0.00  0.00     0.023 A 
ATOM      5  C   UNL d   1       0.547  -0.868  -0.137  0.00  0.00     0.047 A 
ATOM      6  N   UNL d   1      -1.712   1.824   0.207  0.00  0.00    -0.351 N 
ATOM      7  HN  UNL d   1      -1.130   2.644   0.380  1.00  0.00     0.166 HD
ATOM      8  O   UNL d   1      -2.877  -1.005  -0.538  0.00  0.00    -0.266 OA
ATOM      9  C   UNL d   1       1.336   1.412   0.152  0.00  0.00     0.016 A 
ATOM     10  C   UNL d   1       1.826  -1.382  -0.110  0.00  0.00     0.030 A 
ATOM     11  C   UNL d   1       2.640   0.909   0.166  0.00  0.00     0.001 A 
ATOM     12  C   UNL d   1       2.881  -0.475   0.045  0.00  0.00     0.002 A 
ATOM     13  H   UNL d   1      -0.726  -2.559  -0.479  0.00  0.00     0.169 HD
ENDROOT
BRANCH   6  14
ATOM     14  C   UNL d   1      -3.105   1.967   0.230  0.00  0.00     0.032 A 
ATOM     15  C   UNL d   1      -3.937   1.206   1.057  0.00  0.00     0.031 A 
ATOM     16  C   UNL d   1      -5.319   1.424   1.079  0.00  0.00     0.026 A 
ATOM     17  C   UNL d   1      -5.869   2.446   0.310  0.00  0.00     0.034 A 
ATOM     18  C   UNL d   1      -5.049   3.249  -0.478  0.00  0.00     0.026 A 
ATOM     19 CL   UNL d   1      -7.565   2.728   0.349  0.00  0.00    -0.084 Cl
ATOM     20  C   UNL d   1      -3.672   3.007  -0.515  0.00  0.00     0.031 A 
ENDBRANCH   6  14
TORSDOF 1
