REMARK  3 active torsions:
REMARK  status: ('A' for Active; 'I' for Inactive)
REMARK       I    between atoms: C_9  and  N_1 
REMARK    1  A    between atoms: C_3  and  S_15 
REMARK    2  A    between atoms: C_16  and  C_9 
REMARK    3  A    between atoms: S_15  and  C_16 
ROOT
ATOM      1  N   UNL d   1      -0.035  -1.295   0.912  0.00  0.00    -0.279 N 
ATOM      2  S   UNL d   1      -0.035   1.747   0.381  0.00  0.00    -0.086 SA
ATOM      3  C   UNL d   1       1.198  -0.738   0.439  0.00  0.00     0.059 A 
ATOM      4  C   UNL d   1      -1.224  -0.774   0.288  0.00  0.00     0.059 A 
ATOM      5  C   UNL d   1      -0.110  -2.312   1.882  0.00  0.00     0.238 C 
ATOM      6  C   UNL d   1       1.320   0.624   0.117  0.00  0.00     0.033 A 
ATOM      7  C   UNL d   1      -1.353   0.603   0.018  0.00  0.00     0.033 A 
ATOM      8  O   UNL d   1      -1.030  -3.133   1.956  0.00  0.00    -0.272 OA
ATOM      9  C   UNL d   1       2.286  -1.588   0.177  0.00  0.00     0.031 A 
ATOM     10  C   UNL d   1      -2.287  -1.618  -0.069  0.00  0.00     0.031 A 
ATOM     11  C   UNL d   1      -2.540   1.114  -0.526  0.00  0.00     0.021 A 
ATOM     12  C   UNL d   1       2.519   1.122  -0.410  0.00  0.00     0.021 A 
ATOM     13  C   UNL d   1      -3.451  -1.109  -0.652  0.00  0.00     0.002 A 
ATOM     14  C   UNL d   1       3.476  -1.089  -0.359  0.00  0.00     0.002 A 
ATOM     15  C   UNL d   1       3.594   0.267  -0.647  0.00  0.00     0.002 A 
ATOM     16  C   UNL d   1      -3.586   0.258  -0.862  0.00  0.00     0.002 A 
ENDROOT
BRANCH   5  17
ATOM     17  C   UNL d   1       0.977  -2.347   2.961  0.00  0.00     0.186 C 
BRANCH  17  18
ATOM     18  S   UNL d   1       1.134  -0.776   3.864  0.00  0.00    -0.083 SA
BRANCH  18  19
ATOM     19  C   UNL d   1      -0.360  -0.683   4.706  0.00  0.00     0.160 A 
ATOM     20  N   UNL d   1      -0.826   0.516   5.149  0.00  0.00    -0.331 N 
ATOM     21  C   UNL d   1      -1.998   0.247   5.791  0.00  0.00     0.199 A 
ATOM     22  H   UNL d   1      -0.383   1.411   5.020  0.00  0.00     0.168 HD
ATOM     23  N   UNL d   1      -2.223  -1.049   5.749  0.00  0.00    -0.294 N 
ATOM     24  N   UNL d   1      -1.180  -1.640   5.060  0.00  0.00    -0.279 N 
ATOM     25  HN  UNL d   1      -3.025  -1.532   6.154  1.00  0.00     0.187 HD
ATOM     26  HN  UNL d   1      -1.070  -2.635   4.865  1.00  0.00     0.189 HD
ENDBRANCH  18  19
ENDBRANCH  17  18
ENDBRANCH   5  17
TORSDOF 3
