REMARK  5 active torsions:
REMARK  status: ('A' for Active; 'I' for Inactive)
REMARK    1  A    between atoms: S_2  and  C_1 
REMARK    2  A    between atoms: N_8  and  S_2 
REMARK    3  A    between atoms: C_19  and  N_8 
REMARK    4  A    between atoms: C_9  and  C_13 
REMARK    5  A    between atoms: C_23  and  C_19 
ROOT
ATOM      1  N   UNL d   1      -0.196   3.541   1.487  0.00  0.00    -0.211 NA
ATOM      2  H   UNL d   1      -0.094   4.546   1.400  0.00  0.00     0.140 HD
ENDROOT
BRANCH   1   3
ATOM      3  S   UNL d   1      -0.883   2.907   0.091  0.00  0.00     0.245 S 
ATOM      4  O   UNL d   1      -0.937   1.473   0.225  0.00  0.00    -0.206 OA
ATOM      5  O   UNL d   1      -0.235   3.559  -1.026  0.00  0.00    -0.206 OA
BRANCH   3   6
ATOM      6  C   UNL d   1      -2.513   3.470   0.003  0.00  0.00     0.121 A 
ATOM      7  C   UNL d   1      -3.705   2.704  -0.021  0.00  0.00     0.047 A 
ATOM      8  N   UNL d   1      -4.782   3.500  -0.089  0.00  0.00    -0.302 N 
ATOM      9  C   UNL d   1      -3.949   1.239   0.025  0.00  0.00     0.071 C 
ATOM     10  N   UNL d   1      -4.290   4.746  -0.152  0.00  0.00    -0.299 N 
ATOM     11  HN  UNL d   1      -5.763   3.219  -0.092  1.00  0.00     0.186 HD
ATOM     12  C   UNL d   1      -2.924   4.799  -0.058  0.00  0.00     0.049 A 
ATOM     13  C   UNL d   1      -5.226   5.835  -0.311  0.00  0.00     0.177 C 
ATOM     14  C   UNL d   1      -2.168   6.077  -0.069  0.00  0.00     0.071 C 
ENDBRANCH   3   6
ENDBRANCH   1   3
BRANCH   1  15
ATOM     15  C   UNL d   1      -0.735   3.058   2.764  0.00  0.00     0.143 C 
BRANCH  15  16
ATOM     16  C   UNL d   1      -0.064   3.681   3.972  0.00  0.00    -0.044 A 
ATOM     17  C   UNL d   1       0.357   5.017   3.986  0.00  0.00     0.009 A 
ATOM     18  C   UNL d   1       0.957   5.572   5.122  0.00  0.00     0.013 A 
ATOM     19  C   UNL d   1       1.140   4.819   6.288  0.00  0.00    -0.019 A 
ATOM     20  C   UNL d   1       0.682   3.493   6.288  0.00  0.00     0.013 A 
ATOM     21  C   UNL d   1       0.087   2.932   5.149  0.00  0.00     0.009 A 
BRANCH  19  22
ATOM     22  C   UNL d   1       1.772   5.396   7.489  0.00  0.00     0.015 A 
ATOM     23  S   UNL d   1       3.037   6.556   7.345  0.00  0.00    -0.101 SA
ATOM     24  C   UNL d   1       3.194   6.715   9.036  0.00  0.00     0.050 A 
ATOM     25  C   UNL d   1       2.328   5.889   9.713  0.00  0.00     0.008 A 
ATOM     26  C   UNL d   1       1.514   5.127   8.823  0.00  0.00     0.020 A 
ENDBRANCH  19  22
ENDBRANCH  15  16
ENDBRANCH   1  15
TORSDOF 5
