REMARK  4 active torsions:
REMARK  status: ('A' for Active; 'I' for Inactive)
REMARK    1  A    between atoms: C_8  and  N_1 
REMARK    2  A    between atoms: C_7  and  C_2 
REMARK    3  A    between atoms: N_12  and  C_9 
REMARK    4  A    between atoms: C_13  and  N_12 
ROOT
ATOM      1  N   UNL d   1       3.715   0.661   0.048  0.00  0.00    -0.225 N 
ATOM      2  C   UNL d   1       3.611  -0.728  -0.041  0.00  0.00     0.139 C 
ATOM      3  N   UNL d   1       5.687  -0.156  -0.096  0.00  0.00    -0.007 NA
ATOM      4  N   UNL d   1       5.020   0.986  -0.119  0.00  0.00     0.001 NA
ATOM      5  N   UNL d   1       4.835  -1.224  -0.034  0.00  0.00    -0.270 N 
ATOM      6  HN  UNL d   1       5.094  -2.210   0.010  1.00  0.00     0.185 HD
ENDROOT
BRANCH   2   7
ATOM      7  C   UNL d   1       2.367  -1.375  -0.242  0.00  0.00     0.068 C 
ATOM      8  C   UNL d   1       2.133  -2.648   0.098  0.00  0.00     0.092 C 
BRANCH   8   9
ATOM      9  N   UNL d   1       2.961  -3.575   0.673  0.00  0.00    -0.366 N 
ATOM     10  H   UNL d   1       3.939  -3.298   0.765  0.00  0.00     0.165 HD
BRANCH   9  11
ATOM     11  C   UNL d   1       2.643  -4.887   1.067  0.00  0.00     0.032 A 
ATOM     12  C   UNL d   1       3.677  -5.820   1.238  0.00  0.00     0.031 A 
ATOM     13  C   UNL d   1       3.402  -7.155   1.559  0.00  0.00     0.026 A 
ATOM     14  C   UNL d   1       2.084  -7.574   1.713  0.00  0.00     0.034 A 
ATOM     15  C   UNL d   1       1.042  -6.667   1.557  0.00  0.00     0.026 A 
ATOM     16 CL   UNL d   1       1.739  -9.216   2.090  0.00  0.00    -0.084 Cl
ATOM     17  C   UNL d   1       1.323  -5.335   1.234  0.00  0.00     0.031 A 
ENDBRANCH   9  11
ENDBRANCH   8   9
ENDBRANCH   2   7
BRANCH   1  18
ATOM     18  C   UNL d   1       2.745   1.666   0.320  0.00  0.00     0.056 A 
ATOM     19  C   UNL d   1       1.561   1.368   1.012  0.00  0.00     0.033 A 
ATOM     20  C   UNL d   1       0.635   2.378   1.289  0.00  0.00     0.026 A 
ATOM     21  C   UNL d   1       0.886   3.686   0.879  0.00  0.00     0.034 A 
ATOM     22  C   UNL d   1       2.064   3.996   0.205  0.00  0.00     0.026 A 
ATOM     23 CL   UNL d   1      -0.257   4.923   1.226  0.00  0.00    -0.084 Cl
ATOM     24  C   UNL d   1       3.001   2.992  -0.065  0.00  0.00     0.033 A 
ENDBRANCH   1  18
TORSDOF 4
