REMARK  5 active torsions:
REMARK  status: ('A' for Active; 'I' for Inactive)
REMARK    1  A    between atoms: N_2  and  C_1 
REMARK    2  A    between atoms: C_5  and  O_8 
REMARK    3  A    between atoms: C_11  and  C_5 
REMARK    4  A    between atoms: O_8  and  C_15 
REMARK    5  A    between atoms: C_13  and  C_14 
ROOT
ATOM      1  O   UNL d   1       5.564  -0.979  -1.035  0.00  0.00    -0.275 OA
ENDROOT
BRANCH   1   2
ATOM      2  C   UNL d   1       4.791  -0.564   0.052  0.00  0.00     0.298 C 
ATOM      3  O   UNL d   1       4.204  -1.276   0.850  0.00  0.00    -0.259 OA
BRANCH   2   4
ATOM      4  C   UNL d   1       4.747   0.927   0.106  0.00  0.00     0.040 A 
ATOM      5  C   UNL d   1       3.970   1.549   1.090  0.00  0.00     0.018 A 
ATOM      6  C   UNL d   1       3.836   2.947   1.118  0.00  0.00     0.009 A 
ATOM      7  C   UNL d   1       4.470   3.762   0.161  0.00  0.00    -0.051 A 
ATOM      8  C   UNL d   1       5.298   3.119  -0.775  0.00  0.00     0.009 A 
ATOM      9  C   UNL d   1       5.434   1.726  -0.808  0.00  0.00     0.018 A 
BRANCH   7  10
ATOM     10  C   UNL d   1       4.210   5.282   0.116  0.00  0.00    -0.024 C 
ATOM     11  C   UNL d   1       4.965   5.994  -1.032  0.00  0.00     0.019 C 
ATOM     12  C   UNL d   1       2.702   5.538  -0.110  0.00  0.00     0.019 C 
ATOM     13  C   UNL d   1       4.635   5.962   1.433  0.00  0.00     0.019 C 
ENDBRANCH   7  10
ENDBRANCH   2   4
ENDBRANCH   1   2
BRANCH   1  14
ATOM     14  C   UNL d   1       5.864  -2.317  -1.421  0.00  0.00     0.080 A 
ATOM     15  C   UNL d   1       6.741  -2.436  -2.517  0.00  0.00     0.054 A 
ATOM     16  C   UNL d   1       7.119  -3.726  -2.952  0.00  0.00     0.035 A 
ATOM     17  C   UNL d   1       7.925  -4.292  -3.986  0.00  0.00     0.138 A 
ATOM     18  C   UNL d   1       6.615  -4.820  -2.251  0.00  0.00     0.087 A 
ATOM     19  C   UNL d   1       7.897  -5.660  -3.809  0.00  0.00     0.179 A 
ATOM     20  O   UNL d   1       7.099  -5.986  -2.761  0.00  0.00    -0.319 OA
ATOM     21  C   UNL d   1       5.729  -4.726  -1.180  0.00  0.00     0.041 A 
ATOM     22  C   UNL d   1       5.348  -3.440  -0.779  0.00  0.00     0.040 A 
BRANCH  17  23
ATOM     23  N   UNL d   1       8.631  -3.645  -5.047  0.00  0.00    -0.113 N 
ATOM     24  O   UNL d   1       8.525  -2.414  -5.127  0.00  0.00    -0.532 OA
ATOM     25  O   UNL d   1       9.287  -4.363  -5.811  0.00  0.00    -0.532 OA
ENDBRANCH  17  23
ENDBRANCH   1  14
TORSDOF 5
