REMARK  5 active torsions:
REMARK  status: ('A' for Active; 'I' for Inactive)
REMARK    1  A    between atoms: C_8  and  N_1 
REMARK    2  A    between atoms: C_16  and  C_8 
REMARK    3  A    between atoms: C_9  and  O_15 
REMARK    4  A    between atoms: O_17  and  C_10 
REMARK    5  A    between atoms: O_15  and  C_16 
ROOT
ATOM      1  C   UNL d   1       1.574  -2.989  -0.059  0.00  0.00     0.196 C 
ENDROOT
BRANCH   1   2
ATOM      2  O   UNL d   1       1.438  -4.412  -0.047  0.00  0.00    -0.350 OA
BRANCH   2   3
ATOM      3  C   UNL d   1       2.569  -5.170   0.071  0.00  0.00     0.069 A 
ATOM      4  C   UNL d   1       3.874  -4.690   0.182  0.00  0.00     0.039 A 
ATOM      5  C   UNL d   1       4.949  -5.578   0.305  0.00  0.00     0.039 A 
ATOM      6  C   UNL d   1       4.731  -6.954   0.306  0.00  0.00     0.068 A 
ATOM      7  C   UNL d   1       3.427  -7.437   0.205  0.00  0.00     0.039 A 
ATOM      8  C   UNL d   1       2.354  -6.550   0.079  0.00  0.00     0.039 A 
BRANCH   6   9
ATOM      9  O   UNL d   1       5.705  -7.905   0.433  0.00  0.00    -0.356 OA
ATOM     10  C   UNL d   1       7.004  -7.511   0.002  0.00  0.00     0.210 C 
ENDBRANCH   6   9
ENDBRANCH   2   3
ENDBRANCH   1   2
BRANCH   1  11
ATOM     11  C   UNL d   1       1.857  -2.485  -1.476  0.00  0.00     0.161 C 
BRANCH  11  12
ATOM     12  N   UNL d   1       2.089  -1.047  -1.524  0.00  0.00    -0.291 N 
ATOM     13  C   UNL d   1       1.162  -0.053  -1.664  0.00  0.00     0.177 A 
ATOM     14  N   UNL d   1       1.815   1.161  -1.661  0.00  0.00    -0.358 N 
ATOM     15  S   UNL d   1      -0.483  -0.161  -1.814  0.00  0.00    -0.041 SA
ATOM     16  C   UNL d   1       3.237   1.008  -1.520  0.00  0.00     0.225 A 
ATOM     17  H   UNL d   1       1.323   2.041  -1.770  0.00  0.00     0.162 HD
ATOM     18  C   UNL d   1       3.345  -0.502  -1.385  0.00  0.00     0.243 A 
ATOM     19  O   UNL d   1       4.386  -1.116  -1.184  0.00  0.00    -0.271 OA
ENDBRANCH  11  12
ENDBRANCH   1  11
TORSDOF 5
