REMARK  4 active torsions:
REMARK  status: ('A' for Active; 'I' for Inactive)
REMARK       I    between atoms: N_4  and  C_1 
REMARK       I    between atoms: N_7  and  C_1 
REMARK    1  A    between atoms: C_2  and  N_7 
REMARK    2  A    between atoms: C_3  and  C_9 
REMARK    3  A    between atoms: C_5  and  N_4 
REMARK    4  A    between atoms: N_8  and  C_6 
ROOT
ATOM      1  C   UNL d   1      -1.161   0.899  -0.869  0.00  0.00     0.063 A 
ATOM      2  C   UNL d   1      -1.802   0.812   0.399  0.00  0.00     0.057 A 
ATOM      3  C   UNL d   1      -3.261   1.360  -2.015  0.00  0.00     0.050 A 
ATOM      4  C   UNL d   1      -1.881   1.142  -2.050  0.00  0.00     0.048 A 
ATOM      5  C   UNL d   1      -3.190   1.033   0.398  0.00  0.00     0.032 A 
ATOM      6  C   UNL d   1      -3.906   1.309  -0.776  0.00  0.00     0.018 A 
ENDROOT
BRANCH   1   7
ATOM      7  N   UNL d   1       0.206   0.565  -0.963  0.00  0.00    -0.306 N 
ATOM      8  C   UNL d   1       1.237   1.394  -1.334  0.00  0.00     0.325 C 
ATOM      9  N   UNL d   1       0.924   2.508  -2.062  0.00  0.00    -0.303 N 
ATOM     10  O   UNL d   1       2.369   1.101  -0.942  0.00  0.00    -0.247 OA
ATOM     11  H   UNL d   1       0.047   2.556  -2.548  0.00  0.00     0.171 HD
ATOM     12  H   UNL d   1       0.516  -0.055  -0.223  0.00  0.00     0.170 HD
BRANCH   9  13
ATOM     13  C   UNL d   1       1.843   3.475  -2.388  0.00  0.00     0.077 A 
ATOM     14  S   UNL d   1       1.345   4.514  -3.637  0.00  0.00    -0.084 SA
ATOM     15  C   UNL d   1       2.847   5.340  -3.618  0.00  0.00     0.052 A 
ATOM     16  C   UNL d   1       3.677   4.872  -2.622  0.00  0.00     0.010 A 
ATOM     17  C   UNL d   1       3.091   3.786  -1.904  0.00  0.00     0.038 A 
ENDBRANCH   9  13
ENDBRANCH   1   7
BRANCH   2  18
ATOM     18  N   UNL d   1      -1.088   0.516   1.568  0.00  0.00    -0.379 N 
ATOM     19  C   UNL d   1      -1.751   0.116   2.824  0.00  0.00     0.123 C 
ATOM     20  C   UNL d   1      -1.201   1.075   3.874  0.00  0.00     0.021 C 
ATOM     21  C   UNL d   1       0.226   1.274   3.414  0.00  0.00     0.021 C 
ATOM     22  C   UNL d   1       0.083   1.363   1.897  0.00  0.00     0.123 C 
ENDBRANCH   2  18
BRANCH   3  23
ATOM     23  C   UNL d   1      -4.051   1.607  -3.275  0.00  0.00     0.417 C 
ATOM     24  F   UNL d   1      -3.275   1.697  -4.391  0.00  0.00    -0.166 F 
ATOM     25  F   UNL d   1      -4.955   0.622  -3.526  0.00  0.00    -0.166 F 
ATOM     26  F   UNL d   1      -4.764   2.766  -3.223  0.00  0.00    -0.166 F 
ENDBRANCH   3  23
TORSDOF 4
