REMARK  3 active torsions:
REMARK  status: ('A' for Active; 'I' for Inactive)
REMARK    1  A    between atoms: C_10  and  N_2 
REMARK    2  A    between atoms: C_15  and  C_8 
REMARK    3  A    between atoms: C_9  and  C_10 
ROOT
ATOM      1  N   UNL d   1       2.337  -4.248   1.172  0.00  0.00    -0.351 N 
ATOM      2  HN  UNL d   1       2.450  -3.813   2.088  1.00  0.00     0.166 HD
ATOM      3  C   UNL d   1       2.225  -5.549   0.972  0.00  0.00     0.084 A 
ATOM      4  C   UNL d   1       2.283  -3.550  -0.030  0.00  0.00     0.035 A 
ATOM      5  S   UNL d   1       2.029  -5.997  -0.682  0.00  0.00    -0.081 SA
ATOM      6  C   UNL d   1       2.117  -4.354  -1.142  0.00  0.00     0.078 A 
ENDROOT
BRANCH   4   7
ATOM      7  C   UNL d   1       2.475  -2.063  -0.029  0.00  0.00     0.202 C 
BRANCH   7   8
ATOM      8  N   UNL d   1       1.196  -1.368  -0.029  0.00  0.00    -0.231 N 
ATOM      9  S   UNL d   1       0.521  -0.918  -1.494  0.00  0.00     0.268 S 
ATOM     10  C   UNL d   1      -0.822  -0.114  -0.738  0.00  0.00     0.095 A 
ATOM     11  O   UNL d   1       1.364   0.074  -2.115  0.00  0.00    -0.200 OA
ATOM     12  O   UNL d   1       0.030  -2.090  -2.180  0.00  0.00    -0.200 OA
ATOM     13  C   UNL d   1      -0.694  -0.145   0.645  0.00  0.00     0.056 A 
ATOM     14  C   UNL d   1      -1.897   0.476  -1.378  0.00  0.00     0.026 A 
ATOM     15  C   UNL d   1      -1.662   0.431   1.452  0.00  0.00     0.018 A 
ATOM     16  C   UNL d   1       0.531  -0.836   1.095  0.00  0.00     0.269 A 
ATOM     17  C   UNL d   1      -2.763   1.034   0.832  0.00  0.00     0.001 A 
ATOM     18  C   UNL d   1      -2.878   1.058  -0.572  0.00  0.00     0.002 A 
ATOM     19  O   UNL d   1       0.910  -0.895   2.248  0.00  0.00    -0.266 OA
ENDBRANCH   7   8
ENDBRANCH   4   7
BRANCH   3  20
ATOM     20  C   UNL d   1       2.335  -6.568   2.035  0.00  0.00    -0.002 A 
ATOM     21  C   UNL d   1       1.803  -7.864   1.913  0.00  0.00     0.016 A 
ATOM     22  C   UNL d   1       1.947  -8.802   2.943  0.00  0.00     0.024 A 
ATOM     23  C   UNL d   1       2.621  -8.454   4.110  0.00  0.00     0.034 A 
ATOM     24  C   UNL d   1       3.153  -7.177   4.256  0.00  0.00     0.024 A 
ATOM     25 CL   UNL d   1       2.788  -9.605   5.376  0.00  0.00    -0.084 Cl
ATOM     26  C   UNL d   1       3.006  -6.240   3.227  0.00  0.00     0.016 A 
ENDBRANCH   3  20
TORSDOF 3
