REMARK  6 active torsions:
REMARK  status: ('A' for Active; 'I' for Inactive)
REMARK    1  A    between atoms: N_8  and  C_2 
REMARK    2  A    between atoms: O_18  and  C_3 
REMARK    3  A    between atoms: O_19  and  C_6 
REMARK    4  A    between atoms: O_20  and  C_7 
REMARK    5  A    between atoms: N_10  and  N_8 
REMARK    6  A    between atoms: C_14  and  C_17 
ROOT
ATOM      1  C   UNL d   1       8.347   0.541  -0.085  0.00  0.00     0.135 A 
ATOM      2  C   UNL d   1       7.937   1.631   0.721  0.00  0.00     0.105 A 
ATOM      3  C   UNL d   1       7.367  -0.147  -0.843  0.00  0.00     0.105 A 
ATOM      4  C   UNL d   1       6.583   1.988   0.781  0.00  0.00     0.052 A 
ATOM      5  C   UNL d   1       6.014   0.214  -0.742  0.00  0.00     0.052 A 
ATOM      6  C   UNL d   1       5.624   1.270   0.073  0.00  0.00    -0.014 A 
ENDROOT
BRANCH   6   7
ATOM      7  C   UNL d   1       4.199   1.632   0.169  0.00  0.00     0.118 C 
ATOM      8  N   UNL d   1       3.822   2.620   0.914  0.00  0.00    -0.309 N 
ATOM      9  HN  UNL d   1       4.461   3.197   1.461  1.00  0.00     0.186 HD
BRANCH   8  10
ATOM     10  N   UNL d   1       2.442   2.804   0.883  0.00  0.00    -0.280 N 
ATOM     11  HN  UNL d   1       1.805   2.193   0.371  1.00  0.00     0.189 HD
BRANCH  10  12
ATOM     12  C   UNL d   1       2.050   3.824   1.569  0.00  0.00     0.162 A 
ATOM     13  N   UNL d   1       0.733   4.126   1.645  0.00  0.00    -0.306 N 
ATOM     14  C   UNL d   1       0.363   5.203   2.394  0.00  0.00     0.233 A 
ATOM     15  H   UNL d   1       0.047   3.566   1.169  0.00  0.00     0.171 HD
ATOM     16  O   UNL d   1      -0.800   5.555   2.537  0.00  0.00    -0.272 OA
ATOM     17  C   UNL d   1       1.546   5.896   3.021  0.00  0.00     0.185 A 
ATOM     18  S   UNL d   1       2.998   4.958   2.493  0.00  0.00    -0.083 SA
ENDBRANCH  10  12
ENDBRANCH   8  10
ENDBRANCH   6   7
BRANCH   2  19
ATOM     19  O   UNL d   1       8.880   2.387   1.377  0.00  0.00    -0.353 OA
ATOM     20  C   UNL d   1       8.467   2.962   2.616  0.00  0.00     0.210 C 
ENDBRANCH   2  19
BRANCH   3  21
ATOM     21  O   UNL d   1       7.523  -1.180  -1.733  0.00  0.00    -0.353 OA
ATOM     22  C   UNL d   1       8.807  -1.717  -2.002  0.00  0.00     0.210 C 
ENDBRANCH   3  21
BRANCH   1  23
ATOM     23  O   UNL d   1       9.629   0.074  -0.199  0.00  0.00    -0.351 OA
ATOM     24  C   UNL d   1      10.648   0.531   0.676  0.00  0.00     0.210 C 
ENDBRANCH   1  23
TORSDOF 6
