REMARK  6 active torsions:
REMARK  status: ('A' for Active; 'I' for Inactive)
REMARK    1  A    between atoms: C_13  and  N_1 
REMARK    2  A    between atoms: C_10  and  C_2 
REMARK    3  A    between atoms: S_8  and  C_3 
REMARK    4  A    between atoms: C_11  and  S_8 
REMARK    5  A    between atoms: N_9  and  C_12 
REMARK    6  A    between atoms: O_21  and  C_18 
ROOT
ATOM      1  N   UNL d   1      -0.332  -1.357  -0.055  0.00  0.00    -0.274 N 
ATOM      2  C   UNL d   1       0.920  -0.724  -0.132  0.00  0.00     0.142 A 
ATOM      3  C   UNL d   1      -1.237  -0.314  -0.183  0.00  0.00     0.174 A 
ATOM      4  N   UNL d   1       0.729   0.583  -0.210  0.00  0.00    -0.282 N 
ATOM      5  HN  UNL d   1       1.466   1.287  -0.252  1.00  0.00     0.188 HD
ATOM      6  N   UNL d   1      -0.611   0.838  -0.224  0.00  0.00    -0.277 N 
ATOM      7  HN  UNL d   1      -1.048   1.759  -0.260  1.00  0.00     0.189 HD
ENDROOT
BRANCH   3   8
ATOM      8  S   UNL d   1      -2.966  -0.443  -0.116  0.00  0.00    -0.032 SA
BRANCH   8   9
ATOM      9  C   UNL d   1      -3.316  -0.403  -1.874  0.00  0.00     0.110 A 
ATOM     10  C   UNL d   1      -4.590  -0.222  -2.395  0.00  0.00     0.136 A 
ATOM     11  C   UNL d   1      -4.820  -0.297  -3.772  0.00  0.00     0.040 A 
ATOM     12  C   UNL d   1      -3.742  -0.540  -4.615  0.00  0.00     0.020 A 
ATOM     13  C   UNL d   1      -2.495  -0.713  -4.040  0.00  0.00     0.089 A 
ATOM     14  N   UNL d   1      -2.275  -0.672  -2.707  0.00  0.00    -0.358 N 
ATOM     15  HN  UNL d   1      -1.342  -0.840  -2.331  1.00  0.00     0.166 HD
BRANCH  10  16
ATOM     16  N   UNL d   1      -5.716  -0.008  -1.530  0.00  0.00    -0.113 N 
ATOM     17  O   UNL d   1      -5.837   1.113  -1.023  0.00  0.00    -0.532 OA
ATOM     18  O   UNL d   1      -6.505  -0.954  -1.402  0.00  0.00    -0.532 OA
ENDBRANCH  10  16
ENDBRANCH   8   9
ENDBRANCH   3   8
BRANCH   1  19
ATOM     19  C   UNL d   1      -0.592  -2.751   0.129  0.00  0.00     0.043 A 
ATOM     20  C   UNL d   1       0.195  -3.502   1.016  0.00  0.00     0.030 A 
ATOM     21  C   UNL d   1       0.002  -4.882   1.132  0.00  0.00     0.002 A 
ATOM     22  C   UNL d   1      -0.983  -5.519   0.381  0.00  0.00     0.000 A 
ATOM     23  C   UNL d   1      -1.780  -4.779  -0.486  0.00  0.00     0.002 A 
ATOM     24  C   UNL d   1      -1.583  -3.402  -0.615  0.00  0.00     0.030 A 
ENDBRANCH   1  19
BRANCH   2  25
ATOM     25  C   UNL d   1       2.244  -1.367  -0.214  0.00  0.00     0.043 A 
ATOM     26  C   UNL d   1       3.388  -0.848   0.424  0.00  0.00     0.082 A 
ATOM     27  C   UNL d   1       4.626  -1.495   0.297  0.00  0.00     0.038 A 
ATOM     28  C   UNL d   1       4.747  -2.667  -0.446  0.00  0.00     0.003 A 
ATOM     29  C   UNL d   1       3.639  -3.174  -1.110  0.00  0.00     0.001 A 
ATOM     30  C   UNL d   1       2.410  -2.517  -1.014  0.00  0.00     0.018 A 
BRANCH  26  31
ATOM     31  O   UNL d   1       3.452   0.341   1.103  0.00  0.00    -0.355 OA
ATOM     32  C   UNL d   1       2.614   0.426   2.250  0.00  0.00     0.210 C 
ENDBRANCH  26  31
ENDBRANCH   2  25
TORSDOF 6
