REMARK  3 active torsions:
REMARK  status: ('A' for Active; 'I' for Inactive)
REMARK    1  A    between atoms: S_7  and  C_1 
REMARK    2  A    between atoms: C_5  and  S_7 
REMARK    3  A    between atoms: N_19  and  C_6 
ROOT
ATOM      1  C   UNL d   1      -0.030   1.474  -0.072  0.00  0.00     0.097 A 
ATOM      2  C   UNL d   1       0.817   0.354  -0.061  0.00  0.00     0.084 A 
ATOM      3  N   UNL d   1      -1.385   1.361  -0.032  0.00  0.00    -0.353 N 
ATOM      4  HN  UNL d   1      -1.978   2.191  -0.020  1.00  0.00     0.166 HD
ATOM      5  C   UNL d   1       0.244  -0.931  -0.029  0.00  0.00    -0.037 A 
ATOM      6  C   UNL d   1       2.242   0.514  -0.057  0.00  0.00     0.103 C 
ATOM      7  N   UNL d   1       3.400   0.605  -0.042  0.00  0.00    -0.191 NA
ATOM      8  C   UNL d   1      -1.924   0.120  -0.010  0.00  0.00     0.006 A 
ATOM      9  C   UNL d   1      -1.151  -1.036  -0.008  0.00  0.00     0.033 A 
ATOM     10  C   UNL d   1       1.047  -2.206  -0.015  0.00  0.00     0.050 C 
ATOM     11  C   UNL d   1      -3.420   0.008   0.013  0.00  0.00     0.068 C 
ENDROOT
BRANCH   1  12
ATOM     12  S   UNL d   1       0.639   3.134  -0.001  0.00  0.00    -0.053 SA
BRANCH  12  13
ATOM     13  C   UNL d   1      -0.531   4.113  -0.917  0.00  0.00     0.080 A 
ATOM     14  N   UNL d   1      -0.358   4.194  -2.251  0.00  0.00    -0.327 N 
ATOM     15  C   UNL d   1      -1.118   5.085  -2.893  0.00  0.00     0.155 A 
ATOM     16  HN  UNL d   1       0.317   3.608  -2.743  1.00  0.00     0.169 HD
ATOM     17  N   UNL d   1      -2.043   5.859  -2.320  0.00  0.00    -0.337 N 
ATOM     18  C   UNL d   1      -2.190   5.761  -0.986  0.00  0.00     0.010 A 
ATOM     19  HN  UNL d   1      -2.616   6.499  -2.871  1.00  0.00     0.168 HD
ATOM     20  C   UNL d   1      -1.440   4.888  -0.229  0.00  0.00     0.062 A 
ATOM     21  C   UNL d   1      -3.173   6.683  -0.329  0.00  0.00     0.068 C 
BRANCH  15  22
ATOM     22  N   UNL d   1      -0.938   5.227  -4.252  0.00  0.00    -0.274 NA
ATOM     23  H   UNL d   1      -0.549   4.385  -4.648  0.00  0.00     0.127 HD
ATOM     24  H   UNL d   1      -1.770   5.612  -4.675  0.00  0.00     0.127 HD
ENDBRANCH  15  22
ENDBRANCH  12  13
ENDBRANCH   1  12
TORSDOF 3
