REMARK  1 active torsions:
REMARK  status: ('A' for Active; 'I' for Inactive)
REMARK    1  A    between atoms: C_6  and  N_1 
ROOT
ATOM      1  N   UNL d   1      -2.336  -0.850  -0.596  0.00  0.00    -0.252 N 
ATOM      2  C   UNL d   1      -1.140  -0.344  -1.041  0.00  0.00     0.240 C 
ATOM      3  C   UNL d   1      -2.746  -0.126   0.491  0.00  0.00     0.232 C 
ATOM      4  C   UNL d   1      -0.363   0.168   0.155  0.00  0.00     0.051 C 
ATOM      5  C   UNL d   1      -1.556   0.640   1.018  0.00  0.00     0.123 C 
ATOM      6  C   UNL d   1       0.393  -0.985   0.866  0.00  0.00     0.028 C 
ATOM      7  C   UNL d   1       1.736  -1.419   0.222  0.00  0.00    -0.046 C 
ATOM      8  C   UNL d   1       0.567   1.344  -0.167  0.00  0.00     0.024 C 
ATOM      9  O   UNL d   1      -3.862  -0.027   0.980  0.00  0.00    -0.273 OA
ATOM     10  O   UNL d   1      -0.793  -0.242  -2.205  0.00  0.00    -0.272 OA
ATOM     11  C   UNL d   1       1.936   0.999  -0.775  0.00  0.00    -0.017 C 
ATOM     12  C   UNL d   1       2.616  -0.182  -0.071  0.00  0.00     0.013 C 
ATOM     13  C   UNL d   1       1.524  -2.296  -1.025  0.00  0.00     0.015 C 
ATOM     14  C   UNL d   1       2.502  -2.315   1.226  0.00  0.00     0.015 C 
ATOM     15  C   UNL d   1       1.938   0.872  -2.299  0.00  0.00     0.010 C 
ENDROOT
BRANCH   1  16
ATOM     16  C   UNL d   1      -3.080  -1.810  -1.324  0.00  0.00     0.045 A 
ATOM     17  C   UNL d   1      -4.469  -1.937  -1.220  0.00  0.00     0.032 A 
ATOM     18  C   UNL d   1      -5.149  -2.952  -1.909  0.00  0.00     0.026 A 
ATOM     19  C   UNL d   1      -4.441  -3.869  -2.683  0.00  0.00     0.034 A 
ATOM     20  C   UNL d   1      -3.061  -3.772  -2.790  0.00  0.00     0.026 A 
ATOM     21 CL   UNL d   1      -5.273  -5.135  -3.496  0.00  0.00    -0.084 Cl
ATOM     22  C   UNL d   1      -2.390  -2.742  -2.126  0.00  0.00     0.032 A 
ENDBRANCH   1  16
TORSDOF 1
