REMARK  1 active torsions:
REMARK  status: ('A' for Active; 'I' for Inactive)
REMARK    1  A    between atoms: C_10  and  N_2 
ROOT
ATOM      1  C   UNL d   1       0.751   0.435  -0.009  0.00  0.00     0.074 A 
ATOM      2  N   UNL d   1       3.021   1.214   0.031  0.00  0.00    -0.229 N 
ATOM      3  C   UNL d   1       1.262  -0.826  -0.090  0.00  0.00     0.094 A 
ATOM      4  C   UNL d   1       1.656   1.557   0.095  0.00  0.00     0.270 A 
ATOM      5  C   UNL d   1       3.513  -0.100  -0.123  0.00  0.00     0.335 A 
ATOM      6  N   UNL d   1       2.584  -1.117  -0.144  0.00  0.00    -0.301 N 
ATOM      7  C   UNL d   1      -0.676   0.399  -0.056  0.00  0.00    -0.026 A 
ATOM      8  C   UNL d   1      -1.143  -0.907  -0.055  0.00  0.00    -0.008 A 
ATOM      9  S   UNL d   1       0.122  -2.057  -0.125  0.00  0.00    -0.075 SA
ATOM     10  C   UNL d   1      -1.597   1.585  -0.045  0.00  0.00     0.041 C 
ATOM     11  O   UNL d   1       4.703  -0.402  -0.198  0.00  0.00    -0.246 OA
ATOM     12  O   UNL d   1       1.219   2.702   0.199  0.00  0.00    -0.266 OA
ATOM     13  C   UNL d   1      -2.589  -1.302  -0.016  0.00  0.00     0.051 C 
ATOM     14  C   UNL d   1      -3.053   1.175  -0.316  0.00  0.00     0.009 C 
ATOM     15  C   UNL d   1      -3.461  -0.107   0.443  0.00  0.00    -0.014 C 
ATOM     16  C   UNL d   1      -3.388   0.093   1.962  0.00  0.00     0.010 C 
ATOM     17  H   UNL d   1       2.910  -2.072  -0.212  0.00  0.00     0.171 HD
ENDROOT
BRANCH   2  18
ATOM     18  C   UNL d   1       3.962   2.286   0.109  0.00  0.00     0.047 A 
ATOM     19  C   UNL d   1       4.916   2.472  -0.900  0.00  0.00     0.032 A 
ATOM     20  C   UNL d   1       5.780   3.570  -0.856  0.00  0.00     0.026 A 
ATOM     21  C   UNL d   1       5.719   4.460   0.215  0.00  0.00     0.034 A 
ATOM     22  C   UNL d   1       4.793   4.272   1.237  0.00  0.00     0.026 A 
ATOM     23 CL   UNL d   1       6.788   5.807   0.270  0.00  0.00    -0.084 Cl
ATOM     24  C   UNL d   1       3.906   3.196   1.177  0.00  0.00     0.032 A 
ENDBRANCH   2  18
TORSDOF 1
