REMARK  5 active torsions:
REMARK  status: ('A' for Active; 'I' for Inactive)
REMARK    1  A    between atoms: S_8  and  C_2 
REMARK    2  A    between atoms: N_9  and  C_3 
REMARK    3  A    between atoms: C_11  and  S_8 
REMARK    4  A    between atoms: O_10  and  C_12 
REMARK    5  A    between atoms: C_12  and  C_11 
ROOT
ATOM      1  S   UNL d   1       0.296  -1.034   0.686  0.00  0.00    -0.027 SA
ATOM      2  C   UNL d   1       1.600  -0.215  -0.060  0.00  0.00     0.130 A 
ATOM      3  C   UNL d   1      -0.680   0.327   0.303  0.00  0.00     0.159 A 
ATOM      4  N   UNL d   1       1.286   0.955  -0.571  0.00  0.00    -0.286 N 
ATOM      5  HN  UNL d   1       1.944   1.556  -1.068  1.00  0.00     0.188 HD
ATOM      6  N   UNL d   1      -0.041   1.271  -0.353  0.00  0.00    -0.279 N 
ATOM      7  HN  UNL d   1      -0.477   2.139  -0.665  1.00  0.00     0.189 HD
ENDROOT
BRANCH   2   8
ATOM      8  S   UNL d   1       3.215  -0.871  -0.123  0.00  0.00    -0.101 SA
BRANCH   8   9
ATOM      9  C   UNL d   1       4.213   0.656  -0.058  0.00  0.00     0.107 C 
BRANCH   9  10
ATOM     10  C   UNL d   1       3.999   1.482   1.211  0.00  0.00     0.174 C 
BRANCH  10  11
ATOM     11  O   UNL d   1       4.372   0.744   2.370  0.00  0.00    -0.400 OA
ATOM     12  H   UNL d   1       4.119   1.280   3.142  0.00  0.00     0.209 HD
ENDBRANCH  10  11
ENDBRANCH   9  10
ENDBRANCH   8   9
ENDBRANCH   2   8
BRANCH   3  13
ATOM     13  N   UNL d   1      -1.977   0.381   0.652  0.00  0.00    -0.379 N 
ATOM     14  H   UNL d   1      -2.456  -0.486   0.865  0.00  0.00     0.158 HD
ATOM     15  H   UNL d   1      -2.546   1.066   0.166  0.00  0.00     0.158 HD
ENDBRANCH   3  13
TORSDOF 5
