REMARK  1 active torsions:
REMARK  status: ('A' for Active; 'I' for Inactive)
REMARK    1  A    between atoms: N_10  and  C_4 
ROOT
ATOM      1  C   UNL d   1      -2.451   0.457  -0.271  0.00  0.00     0.018 C 
ATOM      2  C   UNL d   1      -1.253   1.336  -0.171  0.00  0.00     0.192 C 
ATOM      3  C   UNL d   1       0.066   0.658  -0.028  0.00  0.00     0.033 A 
ATOM      4  C   UNL d   1      -3.384   0.787  -1.181  0.00  0.00     0.096 C 
ATOM      5  S   UNL d   1      -1.190  -1.863   0.218  0.00  0.00    -0.124 SA
ATOM      6  C   UNL d   1       0.191  -0.739   0.072  0.00  0.00     0.015 A 
ATOM      7  C   UNL d   1      -2.466  -0.672   0.694  0.00  0.00     0.123 C 
ATOM      8  C   UNL d   1       1.218   1.461  -0.058  0.00  0.00     0.040 A 
ATOM      9  O   UNL d   1      -1.334   2.559  -0.233  0.00  0.00    -0.287 OA
ATOM     10  C   UNL d   1       1.468  -1.317   0.071  0.00  0.00     0.021 A 
ATOM     11  C   UNL d   1       2.480   0.869  -0.029  0.00  0.00     0.035 A 
ATOM     12  C   UNL d   1       2.609  -0.516   0.017  0.00  0.00     0.025 A 
ATOM     13 CL   UNL d   1       3.889   1.852  -0.066  0.00  0.00    -0.084 Cl
ENDROOT
BRANCH   4  14
ATOM     14  N   UNL d   1      -4.541   0.131  -1.587  0.00  0.00    -0.398 N 
ATOM     15  C   UNL d   1      -4.683  -1.327  -1.596  0.00  0.00     0.148 C 
ATOM     16  C   UNL d   1      -5.574   0.829  -2.357  0.00  0.00     0.148 C 
ENDBRANCH   4  14
TORSDOF 1
