REMARK  3 active torsions:
REMARK  status: ('A' for Active; 'I' for Inactive)
REMARK    1  A    between atoms: C_3  and  C_1 
REMARK    2  A    between atoms: O_17  and  C_12 
REMARK    3  A    between atoms: O_18  and  C_14 
ROOT
ATOM      1  C   UNL d   1       5.138   1.855  -0.611  0.00  0.00     0.058 C 
ATOM      2  C   UNL d   1       6.649   1.937  -0.638  0.00  0.00     0.001 C 
ATOM      3  N   UNL d   1       4.498   1.521   0.469  0.00  0.00    -0.388 N 
ATOM      4  HN  UNL d   1       3.478   1.492   0.451  1.00  0.00     0.159 HD
ATOM      5  C   UNL d   1       7.474   2.099  -1.751  0.00  0.00     0.054 C 
ATOM      6  C   UNL d   1       7.274   1.746   0.613  0.00  0.00    -0.041 C 
ATOM      7  C   UNL d   1       8.848   1.821  -1.641  0.00  0.00     0.102 C 
ATOM      8  C   UNL d   1       8.607   1.355   0.699  0.00  0.00     0.047 C 
ATOM      9  C   UNL d   1       9.362   1.276  -0.460  0.00  0.00     0.102 C 
ATOM     10  C   UNL d   1       5.190   1.186   1.705  0.00  0.00     0.124 C 
ATOM     11  C   UNL d   1       6.465   1.984   1.849  0.00  0.00     0.059 C 
ENDROOT
BRANCH   1  12
ATOM     12  C   UNL d   1       4.241   2.009  -1.757  0.00  0.00     0.055 A 
ATOM     13  S   UNL d   1       4.533   1.246  -3.259  0.00  0.00    -0.086 SA
ATOM     14  C   UNL d   1       2.920   1.499  -3.817  0.00  0.00     0.017 A 
ATOM     15  C   UNL d   1       2.351   1.061  -5.033  0.00  0.00     0.020 A 
ATOM     16  C   UNL d   1       2.165   2.206  -2.881  0.00  0.00     0.004 A 
ATOM     17  C   UNL d   1       1.002   1.329  -5.295  0.00  0.00     0.001 A 
ATOM     18  C   UNL d   1       0.228   2.014  -4.372  0.00  0.00     0.001 A 
ATOM     19  C   UNL d   1       0.796   2.454  -3.176  0.00  0.00     0.014 A 
ATOM     20  C   UNL d   1       2.955   2.531  -1.724  0.00  0.00     0.065 A 
ATOM     21 CL   UNL d   1       2.261   3.405  -0.404  0.00  0.00    -0.082 Cl
ENDBRANCH   1  12
BRANCH   7  22
ATOM     22  O   UNL d   1       9.668   1.995  -2.726  0.00  0.00    -0.353 OA
ATOM     23  C   UNL d   1      10.067   3.369  -2.816  0.00  0.00     0.210 C 
ENDBRANCH   7  22
BRANCH   9  24
ATOM     24  O   UNL d   1      10.591   0.675  -0.444  0.00  0.00    -0.353 OA
ATOM     25  C   UNL d   1      10.448  -0.712  -0.081  0.00  0.00     0.210 C 
ENDBRANCH   9  24
TORSDOF 3
