REMARK  5 active torsions:
REMARK  status: ('A' for Active; 'I' for Inactive)
REMARK    1  A    between atoms: C_2  and  C_1 
REMARK    2  A    between atoms: C_3  and  N_4 
REMARK    3  A    between atoms: C_6  and  C_3 
REMARK    4  A    between atoms: N_4  and  C_5 
REMARK    5  A    between atoms: O_15  and  N_7 
ROOT
ATOM      1  C   UNL d   1      -0.190  -1.179   1.865  0.00  0.00     0.137 C 
ATOM      2  N   UNL d   1       0.158  -0.503   2.920  0.00  0.00    -0.252 N 
ATOM      3  HN  UNL d   1      -0.301  -0.599   3.827  1.00  0.00     0.196 HD
ENDROOT
BRANCH   1   4
ATOM      4  N   UNL d   1       0.266  -1.097   0.558  0.00  0.00    -0.340 N 
ATOM      5  H   UNL d   1       0.333  -1.988   0.079  0.00  0.00     0.167 HD
BRANCH   4   6
ATOM      6  C   UNL d   1       0.850  -0.046  -0.174  0.00  0.00     0.048 A 
ATOM      7  C   UNL d   1       0.534   1.319  -0.067  0.00  0.00     0.074 A 
ATOM      8  C   UNL d   1       1.299   2.261  -0.800  0.00  0.00     0.018 A 
ATOM      9  C   UNL d   1       2.301   1.863  -1.682  0.00  0.00     0.001 A 
ATOM     10  C   UNL d   1       2.568   0.514  -1.843  0.00  0.00     0.002 A 
ATOM     11  C   UNL d   1       1.865  -0.422  -1.084  0.00  0.00     0.030 A 
BRANCH   7  12
ATOM     12  C   UNL d   1      -0.643   1.870   0.705  0.00  0.00     0.419 C 
ATOM     13  F   UNL d   1      -1.621   0.975   1.006  0.00  0.00    -0.166 F 
ATOM     14  F   UNL d   1      -1.291   2.837  -0.021  0.00  0.00    -0.166 F 
ATOM     15  F   UNL d   1      -0.296   2.491   1.867  0.00  0.00    -0.166 F 
ENDBRANCH   7  12
ENDBRANCH   4   6
ENDBRANCH   1   4
BRANCH   1  16
ATOM     16  C   UNL d   1      -1.186  -2.276   2.109  0.00  0.00     0.025 A 
ATOM     17  C   UNL d   1      -2.091  -2.647   1.120  0.00  0.00     0.102 A 
ATOM     18  N   UNL d   1      -2.934  -3.703   1.221  0.00  0.00    -0.374 N 
ATOM     19  C   UNL d   1      -2.890  -4.401   2.377  0.00  0.00     0.087 A 
ATOM     20  HN  UNL d   1      -3.569  -3.957   0.464  1.00  0.00     0.164 HD
ATOM     21  C   UNL d   1      -2.053  -4.090   3.436  0.00  0.00     0.018 A 
ATOM     22  C   UNL d   1      -1.187  -3.005   3.299  0.00  0.00     0.018 A 
ENDBRANCH   1  16
BRANCH   2  23
ATOM     23  O   UNL d   1       1.222   0.367   2.684  0.00  0.00    -0.288 OA
ATOM     24  H   UNL d   1       1.321   0.811   3.549  0.00  0.00     0.244 HD
ENDBRANCH   2  23
TORSDOF 5
