REMARK  6 active torsions:
REMARK  status: ('A' for Active; 'I' for Inactive)
REMARK    1  A    between atoms: N_2  and  C_1 
REMARK       I    between atoms: C_5  and  N_2 
REMARK    2  A    between atoms: C_12  and  C_3 
REMARK    3  A    between atoms: C_11  and  C_4 
REMARK    4  A    between atoms: C_6  and  C_5 
REMARK    5  A    between atoms: C_7  and  C_8 
REMARK    6  A    between atoms: O_13  and  C_7 
ROOT
ATOM      1  C   UNL d   1       1.499  -0.252   0.147  0.00  0.00     0.048 C 
ATOM      2  C   UNL d   1       0.710  -1.279  -0.423  0.00  0.00    -0.027 C 
ATOM      3  C   UNL d   1       1.018   1.078   0.190  0.00  0.00    -0.027 C 
ATOM      4  C   UNL d   1      -0.331   1.331  -0.091  0.00  0.00     0.010 C 
ATOM      5  C   UNL d   1      -0.639  -0.976  -0.704  0.00  0.00     0.010 C 
ATOM      6  C   UNL d   1      -1.168   0.297  -0.483  0.00  0.00     0.001 C 
ENDROOT
BRANCH   1   7
ATOM      7  N   UNL d   1       2.612  -0.526   0.977  0.00  0.00    -0.323 N 
ATOM      8  C   UNL d   1       3.781  -1.169   0.659  0.00  0.00     0.245 C 
ATOM      9  O   UNL d   1       4.176  -1.498  -0.450  0.00  0.00    -0.268 OA
ATOM     10  H   UNL d   1       2.635   0.032   1.822  0.00  0.00     0.169 HD
BRANCH   8  11
ATOM     11  C   UNL d   1       4.626  -1.364   1.863  0.00  0.00     0.081 C 
ATOM     12  C   UNL d   1       5.931  -1.644   1.728  0.00  0.00     0.086 C 
BRANCH  12  13
ATOM     13  C   UNL d   1       6.728  -1.877   2.942  0.00  0.00     0.165 C 
ATOM     14  O   UNL d   1       6.279  -1.845   4.077  0.00  0.00    -0.647 OA
BRANCH  13  15
ATOM     15  O   UNL d   1       8.020  -2.124   2.663  0.00  0.00    -0.773 OA
ATOM     16  H   UNL d   1       8.255  -2.135   1.717  0.00  0.00     0.167 HD
ENDBRANCH  13  15
ENDBRANCH  12  13
ENDBRANCH   8  11
ENDBRANCH   1   7
BRANCH   2  17
ATOM     17  C   UNL d   1       1.282  -2.628  -0.835  0.00  0.00     0.013 C 
ATOM     18  C   UNL d   1       0.285  -3.795  -0.867  0.00  0.00     0.015 C 
ATOM     19  C   UNL d   1       1.906  -2.483  -2.232  0.00  0.00     0.015 C 
ENDBRANCH   2  17
BRANCH   3  20
ATOM     20  C   UNL d   1       2.022   2.234   0.229  0.00  0.00     0.013 C 
ATOM     21  C   UNL d   1       2.275   2.699  -1.216  0.00  0.00     0.015 C 
ATOM     22  C   UNL d   1       1.615   3.413   1.109  0.00  0.00     0.015 C 
ENDBRANCH   3  20
TORSDOF 6
