REMARK  3 active torsions:
REMARK  status: ('A' for Active; 'I' for Inactive)
REMARK    1  A    between atoms: C_12  and  N_3 
REMARK    2  A    between atoms: C_13  and  C_4 
REMARK    3  A    between atoms: O_15  and  C_7 
ROOT
ATOM      1  C   UNL d   1      -0.018  -0.727  -0.059  0.00  0.00     0.100 A 
ATOM      2  C   UNL d   1       1.280  -1.472  -0.104  0.00  0.00     0.268 A 
ATOM      3  N   UNL d   1       2.465  -0.708  -0.026  0.00  0.00    -0.277 N 
ATOM      4  C   UNL d   1       2.419   0.691   0.049  0.00  0.00     0.056 A 
ATOM      5  C   UNL d   1       0.011   0.610   0.008  0.00  0.00     0.100 A 
ATOM      6  C   UNL d   1       1.243   1.342   0.049  0.00  0.00     0.069 A 
ATOM      7  C   UNL d   1      -1.306  -1.381  -0.063  0.00  0.00     0.090 A 
ATOM      8  C   UNL d   1      -2.433  -0.663  -0.032  0.00  0.00     0.120 A 
ATOM      9  O   UNL d   1      -1.154   1.399   0.039  0.00  0.00    -0.274 OA
ATOM     10  C   UNL d   1      -2.389   0.807   0.006  0.00  0.00     0.290 A 
ATOM     11  O   UNL d   1       1.226  -2.704  -0.168  0.00  0.00    -0.267 OA
ATOM     12  O   UNL d   1      -3.426   1.459   0.014  0.00  0.00    -0.260 OA
ENDROOT
BRANCH   3  13
ATOM     13  C   UNL d   1       3.687  -1.450   0.013  0.00  0.00     0.043 A 
ATOM     14  C   UNL d   1       4.024  -2.307  -1.043  0.00  0.00     0.030 A 
ATOM     15  C   UNL d   1       5.180  -3.087  -0.977  0.00  0.00     0.002 A 
ATOM     16  C   UNL d   1       5.995  -3.032   0.152  0.00  0.00     0.000 A 
ATOM     17  C   UNL d   1       5.663  -2.190   1.211  0.00  0.00     0.002 A 
ATOM     18  C   UNL d   1       4.515  -1.398   1.141  0.00  0.00     0.030 A 
ENDBRANCH   3  13
BRANCH   4  19
ATOM     19  C   UNL d   1       3.634   1.526   0.021  0.00  0.00    -0.009 A 
ATOM     20  C   UNL d   1       4.216   1.983   1.211  0.00  0.00     0.014 A 
ATOM     21  C   UNL d   1       5.326   2.829   1.178  0.00  0.00     0.001 A 
ATOM     22  C   UNL d   1       5.844   3.251  -0.046  0.00  0.00     0.000 A 
ATOM     23  C   UNL d   1       5.264   2.816  -1.237  0.00  0.00     0.001 A 
ATOM     24  C   UNL d   1       4.166   1.953  -1.205  0.00  0.00     0.014 A 
ENDBRANCH   4  19
BRANCH   7  25
ATOM     25  O   UNL d   1      -1.366  -2.760  -0.083  0.00  0.00    -0.359 OA
ATOM     26  H   UNL d   1      -0.450  -3.122  -0.096  0.00  0.00     0.217 HD
ENDBRANCH   7  25
TORSDOF 3
