REMARK  4 active torsions:
REMARK  status: ('A' for Active; 'I' for Inactive)
REMARK    1  A    between atoms: S_2  and  C_1 
REMARK    2  A    between atoms: O_7  and  S_2 
REMARK    3  A    between atoms: C_12  and  O_7 
REMARK    4  A    between atoms: O_18  and  C_13 
ROOT
ATOM      1  S   UNL d   1       3.725  -4.086  -0.595  0.00  0.00     0.311 S 
ATOM      2  O   UNL d   1       5.136  -3.862  -0.833  0.00  0.00    -0.192 OA
ATOM      3  O   UNL d   1       3.084  -5.359  -0.854  0.00  0.00    -0.192 OA
ENDROOT
BRANCH   1   4
ATOM      4  C   UNL d   1       3.505  -3.800   1.142  0.00  0.00     0.146 A 
ATOM      5  S   UNL d   1       3.419  -2.158   1.643  0.00  0.00    -0.067 SA
ATOM      6  C   UNL d   1       3.270  -2.603   3.271  0.00  0.00     0.054 A 
ATOM      7 BR   UNL d   1       3.114  -1.358   4.662  0.00  0.00    -0.043 Br
ATOM      8  C   UNL d   1       3.287  -3.959   3.470  0.00  0.00     0.048 A 
ATOM      9  C   UNL d   1       3.433  -4.641   2.232  0.00  0.00     0.043 A 
ATOM     10 BR   UNL d   1       3.536  -6.528   2.198  0.00  0.00    -0.049 Br
ENDBRANCH   1   4
BRANCH   1  11
ATOM     11  O   UNL d   1       2.850  -2.883  -1.262  0.00  0.00    -0.229 OA
BRANCH  11  12
ATOM     12  C   UNL d   1       2.468  -2.925  -2.579  0.00  0.00     0.089 A 
ATOM     13  C   UNL d   1       1.356  -2.148  -2.912  0.00  0.00     0.041 A 
ATOM     14  C   UNL d   1       0.856  -2.146  -4.219  0.00  0.00     0.039 A 
ATOM     15  C   UNL d   1       1.473  -2.915  -5.204  0.00  0.00     0.068 A 
ATOM     16  C   UNL d   1       2.606  -3.662  -4.874  0.00  0.00     0.039 A 
ATOM     17  C   UNL d   1       3.110  -3.664  -3.570  0.00  0.00     0.041 A 
BRANCH  15  18
ATOM     18  O   UNL d   1       1.077  -3.023  -6.508  0.00  0.00    -0.356 OA
ATOM     19  C   UNL d   1      -0.089  -2.305  -6.889  0.00  0.00     0.210 C 
ENDBRANCH  15  18
ENDBRANCH  11  12
ENDBRANCH   1  11
TORSDOF 4
