REMARK  4 active torsions:
REMARK  status: ('A' for Active; 'I' for Inactive)
REMARK    1  A    between atoms: N_2  and  S_1 
REMARK    2  A    between atoms: C_3  and  S_1 
REMARK    3  A    between atoms: C_9  and  N_2 
REMARK       I    between atoms: C_6  and  N_8 
REMARK    4  A    between atoms: N_8  and  C_16 
ROOT
ATOM      1  S   UNL d   1       0.888   0.073   0.074  0.00  0.00     0.263 S 
ATOM      2  O   UNL d   1       0.117  -0.301   1.239  0.00  0.00    -0.200 OA
ATOM      3  O   UNL d   1       2.336   0.078   0.099  0.00  0.00    -0.200 OA
ENDROOT
BRANCH   1   4
ATOM      4  N   UNL d   1       0.421   1.615  -0.449  0.00  0.00    -0.281 N 
ATOM      5  H   UNL d   1       1.050   1.976  -1.163  0.00  0.00     0.179 HD
BRANCH   4   6
ATOM      6  C   UNL d   1      -0.966   1.881  -0.616  0.00  0.00     0.043 A 
ATOM      7  C   UNL d   1      -1.562   1.745  -1.871  0.00  0.00     0.038 A 
ATOM      8  C   UNL d   1      -2.943   1.951  -2.034  0.00  0.00    -0.043 A 
ATOM      9  C   UNL d   1      -3.551   1.772  -3.397  0.00  0.00     0.049 C 
ATOM     10  C   UNL d   1      -3.706   2.312  -0.911  0.00  0.00     0.017 A 
ATOM     11  C   UNL d   1      -3.103   2.451   0.344  0.00  0.00     0.022 A 
ATOM     12 BR   UNL d   1      -5.576   2.619  -1.024  0.00  0.00    -0.051 Br
ATOM     13  C   UNL d   1      -1.735   2.224   0.493  0.00  0.00     0.031 A 
ENDBRANCH   4   6
ENDBRANCH   1   4
BRANCH   1  14
ATOM     14  C   UNL d   1       0.397  -0.974  -1.280  0.00  0.00     0.080 A 
ATOM     15  C   UNL d   1       1.287  -1.212  -2.331  0.00  0.00     0.027 A 
ATOM     16  C   UNL d   1       0.897  -2.032  -3.397  0.00  0.00     0.031 A 
ATOM     17  C   UNL d   1      -0.378  -2.619  -3.419  0.00  0.00     0.034 A 
ATOM     18  C   UNL d   1      -1.244  -2.391  -2.345  0.00  0.00     0.031 A 
ATOM     19  C   UNL d   1      -0.858  -1.580  -1.272  0.00  0.00     0.027 A 
BRANCH  17  20
ATOM     20  N   UNL d   1      -0.706  -3.414  -4.540  0.00  0.00    -0.328 N 
ATOM     21  C   UNL d   1      -1.912  -4.043  -4.794  0.00  0.00     0.218 C 
ATOM     22  O   UNL d   1      -2.915  -4.019  -4.087  0.00  0.00    -0.274 OA
ATOM     23  C   UNL d   1      -1.928  -4.810  -6.093  0.00  0.00     0.117 C 
ATOM     24  H   UNL d   1       0.021  -3.519  -5.236  0.00  0.00     0.169 HD
ENDBRANCH  17  20
ENDBRANCH   1  14
TORSDOF 4
