REMARK  5 active torsions:
REMARK  status: ('A' for Active; 'I' for Inactive)
REMARK    1  A    between atoms: C_8  and  C_1 
REMARK    2  A    between atoms: C_7  and  S_9 
REMARK    3  A    between atoms: O_11  and  C_7 
REMARK    4  A    between atoms: S_9  and  C_8 
REMARK    5  A    between atoms: C_17  and  O_11 
ROOT
ATOM      1  C   UNL d   1      -1.214   1.124  -0.043  0.00  0.00    -0.035 C 
ATOM      2  C   UNL d   1       0.062   1.760   0.102  0.00  0.00    -0.048 C 
ATOM      3  C   UNL d   1      -1.261  -0.309  -0.049  0.00  0.00    -0.048 C 
ATOM      4  C   UNL d   1       1.271   0.990   0.012  0.00  0.00    -0.049 C 
ATOM      5  C   UNL d   1      -0.045  -1.080  -0.015  0.00  0.00    -0.049 C 
ATOM      6  C   UNL d   1       1.210  -0.428  -0.022  0.00  0.00    -0.049 C 
ATOM      7  C   UNL d   1      -0.068  -2.595   0.030  0.00  0.00     0.049 C 
ATOM      8  C   UNL d   1       0.216   3.236   0.366  0.00  0.00     0.049 C 
ATOM      9  C   UNL d   1       2.509  -1.204  -0.030  0.00  0.00     0.049 C 
ATOM     10  C   UNL d   1      -2.561  -1.081  -0.061  0.00  0.00     0.049 C 
ATOM     11  C   UNL d   1       2.625   1.654  -0.046  0.00  0.00     0.049 C 
ENDROOT
BRANCH   1  12
ATOM     12  C   UNL d   1      -2.547   1.880  -0.078  0.00  0.00     0.121 C 
BRANCH  12  13
ATOM     13  S   UNL d   1      -2.648   3.552  -0.768  0.00  0.00    -0.089 SA
BRANCH  13  14
ATOM     14  C   UNL d   1      -4.334   4.012  -0.546  0.00  0.00     0.175 C 
ATOM     15  S   UNL d   1      -5.356   3.465   0.663  0.00  0.00    -0.045 SA
BRANCH  14  16
ATOM     16  O   UNL d   1      -4.763   4.910  -1.482  0.00  0.00    -0.336 OA
BRANCH  16  17
ATOM     17  C   UNL d   1      -5.843   5.839  -1.241  0.00  0.00     0.172 C 
ATOM     18  C   UNL d   1      -5.637   7.042  -2.145  0.00  0.00     0.034 C 
ENDBRANCH  16  17
ENDBRANCH  14  16
ENDBRANCH  13  14
ENDBRANCH  12  13
ENDBRANCH   1  12
TORSDOF 5
