REMARK  7 active torsions:
REMARK  status: ('A' for Active; 'I' for Inactive)
REMARK    1  A    between atoms: O_18  and  C_3 
REMARK    2  A    between atoms: O_19  and  C_6 
REMARK    3  A    between atoms: C_10  and  C_7 
REMARK    4  A    between atoms: O_20  and  C_8 
REMARK    5  A    between atoms: O_21  and  C_9 
REMARK    6  A    between atoms: O_22  and  C_11 
REMARK    7  A    between atoms: O_23  and  C_14 
ROOT
ATOM      1  C   UNL d   1      -0.405   1.018   0.726  0.00  0.00     0.058 A 
ATOM      2  C   UNL d   1       1.929   0.486   0.417  0.00  0.00    -0.002 A 
ATOM      3  C   UNL d   1      -1.685   1.578   0.864  0.00  0.00     0.119 A 
ATOM      4  C   UNL d   1       0.950   1.606   0.538  0.00  0.00     0.192 A 
ATOM      5  C   UNL d   1      -0.225  -0.374   0.751  0.00  0.00    -0.034 A 
ATOM      6  C   UNL d   1      -2.784   0.680   1.071  0.00  0.00     0.136 A 
ATOM      7  C   UNL d   1       3.221   0.715   0.127  0.00  0.00     0.026 C 
ATOM      8  C   UNL d   1      -2.570  -0.724   1.112  0.00  0.00     0.104 A 
ATOM      9  C   UNL d   1       1.196  -0.808   0.555  0.00  0.00     0.082 A 
ATOM     10  C   UNL d   1      -1.285  -1.242   0.939  0.00  0.00     0.048 A 
ATOM     11  O   UNL d   1       1.282   2.771   0.452  0.00  0.00    -0.287 OA
ENDROOT
BRANCH   7  12
ATOM     12  C   UNL d   1       4.142  -0.388  -0.153  0.00  0.00     0.001 A 
ATOM     13  C   UNL d   1       4.478  -0.844  -1.451  0.00  0.00     0.114 A 
ATOM     14  C   UNL d   1       5.304  -1.991  -1.591  0.00  0.00     0.136 A 
ATOM     15  C   UNL d   1       5.832  -2.616  -0.440  0.00  0.00     0.104 A 
ATOM     16  C   UNL d   1       5.516  -2.126   0.828  0.00  0.00     0.040 A 
ATOM     17  C   UNL d   1       4.681  -1.026   0.972  0.00  0.00     0.017 A 
BRANCH  13  18
ATOM     18  O   UNL d   1       4.163  -0.185  -2.618  0.00  0.00    -0.352 OA
ATOM     19  C   UNL d   1       2.900   0.456  -2.740  0.00  0.00     0.210 C 
ENDBRANCH  13  18
BRANCH  14  20
ATOM     20  O   UNL d   1       5.666  -2.543  -2.796  0.00  0.00    -0.351 OA
ATOM     21  C   UNL d   1       4.738  -2.503  -3.872  0.00  0.00     0.210 C 
ENDBRANCH  14  20
BRANCH  15  22
ATOM     22  O   UNL d   1       6.616  -3.741  -0.381  0.00  0.00    -0.353 OA
ATOM     23  C   UNL d   1       7.508  -3.976  -1.464  0.00  0.00     0.210 C 
ENDBRANCH  15  22
ENDBRANCH   7  12
BRANCH   3  24
ATOM     24  O   UNL d   1      -2.022   2.896   0.827  0.00  0.00    -0.352 OA
ATOM     25  C   UNL d   1      -1.115   3.921   0.478  0.00  0.00     0.210 C 
ENDBRANCH   3  24
BRANCH   6  26
ATOM     26  O   UNL d   1      -4.099   1.053   1.221  0.00  0.00    -0.351 OA
ATOM     27  C   UNL d   1      -4.501   2.410   1.294  0.00  0.00     0.210 C 
ENDBRANCH   6  26
BRANCH   8  28
ATOM     28  O   UNL d   1      -3.479  -1.737   1.296  0.00  0.00    -0.353 OA
ATOM     29  C   UNL d   1      -4.828  -1.433   1.610  0.00  0.00     0.210 C 
ENDBRANCH   8  28
TORSDOF 7
