REMARK  4 active torsions:
REMARK  status: ('A' for Active; 'I' for Inactive)
REMARK    1  A    between atoms: O_9  and  S_1 
REMARK    2  A    between atoms: C_13  and  S_1 
REMARK    3  A    between atoms: C_2  and  C_11 
REMARK    4  A    between atoms: C_11  and  O_9 
ROOT
ATOM      1  C   UNL d   1       0.464  -7.802   0.823  0.00  0.00     0.010 C 
ATOM      2  C   UNL d   1      -0.757 -11.967  -0.538  0.00  0.00     0.021 C 
ATOM      3  C   UNL d   1       0.269  -6.725  -0.260  0.00  0.00    -0.065 C 
ATOM      4  C   UNL d   1       0.182  -9.261   0.215  0.00  0.00     0.005 C 
ATOM      5  C   UNL d   1      -1.253 -10.741  -1.371  0.00  0.00     0.006 C 
ATOM      6  C   UNL d   1      -0.998  -9.331  -0.773  0.00  0.00    -0.004 C 
ATOM      7  C   UNL d   1       1.104  -5.690  -0.456  0.00  0.00     0.053 C 
ATOM      8  C   UNL d   1       0.341 -12.544  -1.437  0.00  0.00     0.135 C 
ATOM      9  C   UNL d   1      -0.103 -11.729   0.832  0.00  0.00     0.018 C 
ATOM     10  C   UNL d   1      -0.084 -10.300   1.316  0.00  0.00     0.007 C 
ATOM     11  C   UNL d   1       1.962  -7.794   1.270  0.00  0.00     0.024 C 
ATOM     12  C   UNL d   1      -0.913  -8.230  -1.831  0.00  0.00     0.010 C 
ATOM     13  C   UNL d   1      -0.738 -11.029  -2.799  0.00  0.00     0.013 C 
ATOM     14  C   UNL d   1      -0.930  -6.865  -1.163  0.00  0.00     0.036 C 
ATOM     15  C   UNL d   1       2.296  -5.464   0.384  0.00  0.00     0.149 C 
ATOM     16  C   UNL d   1       0.617 -11.676  -2.628  0.00  0.00     0.079 C 
ATOM     17  O   UNL d   1       0.982 -13.559  -1.187  0.00  0.00    -0.297 OA
ATOM     18  O   UNL d   1       2.990  -4.471   0.181  0.00  0.00    -0.293 OA
ATOM     19  C   UNL d   1       2.579  -6.421   1.506  0.00  0.00     0.084 C 
ATOM     20  C   UNL d   1      -1.924 -12.953  -0.393  0.00  0.00     0.024 C 
ENDROOT
BRANCH   1  21
ATOM     21  C   UNL d   1      -0.504  -7.496   2.024  0.00  0.00     0.205 C 
BRANCH  21  22
ATOM     22  O   UNL d   1      -0.017  -6.513   2.935  0.00  0.00    -0.271 OA
BRANCH  22  23
ATOM     23  S   UNL d   1      -0.027  -6.933   4.518  0.00  0.00     0.298 S 
ATOM     24  O   UNL d   1       0.862  -8.065   4.684  0.00  0.00    -0.193 OA
ATOM     25  O   UNL d   1      -1.417  -7.028   4.933  0.00  0.00    -0.193 OA
BRANCH  23  26
ATOM     26  C   UNL d   1       0.705  -5.561   5.362  0.00  0.00     0.086 A 
ATOM     27  C   UNL d   1      -0.081  -4.727   6.157  0.00  0.00     0.026 A 
ATOM     28  C   UNL d   1       0.520  -3.669   6.840  0.00  0.00     0.008 A 
ATOM     29  C   UNL d   1       1.900  -3.444   6.731  0.00  0.00    -0.062 A 
ATOM     30  C   UNL d   1       2.679  -4.305   5.950  0.00  0.00     0.008 A 
ATOM     31  C   UNL d   1       2.529  -2.296   7.464  0.00  0.00     0.048 C 
ATOM     32  C   UNL d   1       2.087  -5.371   5.274  0.00  0.00     0.026 A 
ENDBRANCH  23  26
ENDBRANCH  22  23
ENDBRANCH  21  22
ENDBRANCH   1  21
TORSDOF 4
