REMARK  6 active torsions:
REMARK  status: ('A' for Active; 'I' for Inactive)
REMARK    1  A    between atoms: C_4  and  C_1 
REMARK    2  A    between atoms: C_2  and  C_3 
REMARK    3  A    between atoms: C_9  and  O_16 
REMARK    4  A    between atoms: O_15  and  C_10 
REMARK    5  A    between atoms: C_23  and  O_15 
REMARK    6  A    between atoms: O_16  and  C_24 
ROOT
ATOM      1  C   UNL d   1      -1.642   5.330  -2.586  0.00  0.00     0.078 A 
ATOM      2  C   UNL d   1      -3.824   5.837  -4.260  0.00  0.00     0.078 A 
ATOM      3  C   UNL d   1      -2.936   5.026  -2.158  0.00  0.00     0.040 A 
ATOM      4  C   UNL d   1      -1.456   5.992  -3.803  0.00  0.00     0.040 A 
ATOM      5  C   UNL d   1      -4.022   5.269  -2.999  0.00  0.00     0.040 A 
ATOM      6  C   UNL d   1      -2.547   6.251  -4.638  0.00  0.00     0.040 A 
ENDROOT
BRANCH   1   7
ATOM      7  O   UNL d   1      -0.507   5.070  -1.855  0.00  0.00    -0.294 OA
BRANCH   7   8
ATOM      8  C   UNL d   1      -0.439   3.944  -1.064  0.00  0.00     0.147 A 
ATOM      9  C   UNL d   1      -1.045   2.733  -1.386  0.00  0.00     0.057 A 
ATOM     10  C   UNL d   1      -0.924   1.663  -0.499  0.00  0.00     0.022 A 
ATOM     11  C   UNL d   1      -0.148   1.803   0.654  0.00  0.00     0.063 A 
ATOM     12  C   UNL d   1       0.465   3.029   0.862  0.00  0.00     0.106 A 
ATOM     13  N   UNL d   1       0.332   4.093   0.036  0.00  0.00    -0.346 N 
ATOM     14  HN  UNL d   1       0.799   4.977   0.237  1.00  0.00     0.167 HD
BRANCH  11  15
ATOM     15  C   UNL d   1       0.025   0.678   1.626  0.00  0.00     0.418 C 
ATOM     16  F   UNL d   1       0.863   0.969   2.658  0.00  0.00    -0.166 F 
ATOM     17  F   UNL d   1       0.531  -0.442   1.039  0.00  0.00    -0.166 F 
ATOM     18  F   UNL d   1      -1.152   0.299   2.197  0.00  0.00    -0.166 F 
ENDBRANCH  11  15
ENDBRANCH   7   8
ENDBRANCH   1   7
BRANCH   2  19
ATOM     19  O   UNL d   1      -4.849   6.085  -5.146  0.00  0.00    -0.294 OA
BRANCH  19  20
ATOM     20  C   UNL d   1      -5.852   5.129  -5.245  0.00  0.00     0.147 A 
ATOM     21  N   UNL d   1      -5.569   3.826  -5.011  0.00  0.00    -0.346 N 
ATOM     22  C   UNL d   1      -6.603   2.955  -5.043  0.00  0.00     0.106 A 
ATOM     23  HN  UNL d   1      -4.617   3.514  -4.819  1.00  0.00     0.167 HD
ATOM     24  C   UNL d   1      -7.912   3.315  -5.324  0.00  0.00     0.063 A 
ATOM     25  C   UNL d   1      -8.163   4.661  -5.621  0.00  0.00     0.022 A 
ATOM     26  C   UNL d   1      -7.118   5.583  -5.585  0.00  0.00     0.057 A 
BRANCH  24  27
ATOM     27  C   UNL d   1      -9.008   2.295  -5.285  0.00  0.00     0.418 C 
ATOM     28  F   UNL d   1      -8.579   1.050  -4.937  0.00  0.00    -0.166 F 
ATOM     29  F   UNL d   1      -9.979   2.616  -4.385  0.00  0.00    -0.166 F 
ATOM     30  F   UNL d   1      -9.636   2.156  -6.482  0.00  0.00    -0.166 F 
ENDBRANCH  24  27
ENDBRANCH  19  20
ENDBRANCH   2  19
TORSDOF 6
