REMARK  6 active torsions:
REMARK  status: ('A' for Active; 'I' for Inactive)
REMARK    1  A    between atoms: C_12  and  C_5 
REMARK    2  A    between atoms: N_15  and  C_9 
REMARK    3  A    between atoms: O_20  and  C_12 
REMARK    4  A    between atoms: N_13  and  N_15 
REMARK    5  A    between atoms: C_23  and  C_19 
REMARK    6  A    between atoms: C_26  and  O_20 
ROOT
ATOM      1  C   UNL d   1       1.547  -0.893  -0.028  0.00  0.00     0.162 A 
ATOM      2  N   UNL d   1       0.884   0.309   0.058  0.00  0.00    -0.221 N 
ATOM      3  N   UNL d   1       0.895  -2.079  -0.140  0.00  0.00    -0.324 N 
ATOM      4  HN  UNL d   1       1.420  -2.948  -0.232  1.00  0.00     0.169 HD
ATOM      5  C   UNL d   1       2.883  -0.528  -0.004  0.00  0.00     0.167 A 
ATOM      6  N   UNL d   1       1.737   1.345   0.130  0.00  0.00    -0.013 NA
ATOM      7  N   UNL d   1       2.969   0.846   0.100  0.00  0.00    -0.275 N 
ATOM      8  HN  UNL d   1       3.832   1.388   0.147  1.00  0.00     0.184 HD
ATOM      9  C   UNL d   1      -0.417  -2.093  -0.130  0.00  0.00     0.134 A 
ATOM     10  C   UNL d   1      -1.211  -0.815  -0.003  0.00  0.00     0.038 A 
ATOM     11  C   UNL d   1      -0.512   0.400   0.054  0.00  0.00     0.070 A 
ATOM     12  C   UNL d   1      -2.610  -0.791  -0.009  0.00  0.00     0.017 A 
ATOM     13  C   UNL d   1      -1.176   1.627   0.086  0.00  0.00     0.032 A 
ATOM     14  C   UNL d   1      -3.283   0.434   0.034  0.00  0.00     0.001 A 
ATOM     15  C   UNL d   1      -2.570   1.637   0.071  0.00  0.00     0.002 A 
ENDROOT
BRANCH   9  16
ATOM     16  N   UNL d   1      -1.105  -3.297  -0.287  0.00  0.00    -0.285 N 
ATOM     17  H   UNL d   1      -1.924  -3.391   0.309  0.00  0.00     0.188 HD
BRANCH  16  18
ATOM     18  N   UNL d   1      -0.525  -4.509  -0.586  0.00  0.00    -0.309 N 
ATOM     19  C   UNL d   1       0.303  -4.474  -1.587  0.00  0.00     0.118 C 
ATOM     20  HN  UNL d   1      -0.727  -5.363  -0.066  1.00  0.00     0.186 HD
BRANCH  19  21
ATOM     21  C   UNL d   1       1.097  -5.641  -2.003  0.00  0.00    -0.017 A 
ATOM     22  C   UNL d   1       0.946  -6.870  -1.373  0.00  0.00     0.030 A 
ATOM     23  C   UNL d   1       1.746  -7.911  -1.806  0.00  0.00     0.088 A 
ATOM     24  N   UNL d   1       2.659  -7.795  -2.798  0.00  0.00    -0.375 N 
ATOM     25  C   UNL d   1       2.778  -6.586  -3.386  0.00  0.00     0.088 A 
ATOM     26  HN  UNL d   1       3.231  -8.588  -3.089  1.00  0.00     0.164 HD
ATOM     27  C   UNL d   1       2.025  -5.484  -3.031  0.00  0.00     0.030 A 
ENDBRANCH  19  21
ENDBRANCH  16  18
ENDBRANCH   9  16
BRANCH   5  28
ATOM     28  C   UNL d   1       4.051  -1.390  -0.121  0.00  0.00     0.315 C 
ATOM     29  O   UNL d   1       5.203  -0.972  -0.101  0.00  0.00    -0.257 OA
BRANCH  28  30
ATOM     30  O   UNL d   1       3.724  -2.704  -0.320  0.00  0.00    -0.317 OA
BRANCH  30  31
ATOM     31  C   UNL d   1       4.771  -3.601  -0.697  0.00  0.00     0.175 C 
ATOM     32  C   UNL d   1       5.103  -4.545   0.440  0.00  0.00     0.034 C 
ENDBRANCH  30  31
ENDBRANCH  28  30
ENDBRANCH   5  28
TORSDOF 6
