REMARK  3 active torsions:
REMARK  status: ('A' for Active; 'I' for Inactive)
REMARK       I    between atoms: N_2  and  C_1 
REMARK    1  A    between atoms: O_5  and  C_1 
REMARK    2  A    between atoms: C_6  and  N_2 
REMARK    3  A    between atoms: C_4  and  O_5 
ROOT
ATOM      1  C   UNL d   1       1.072  -0.001   0.089  0.00  0.00     0.365 C 
ATOM      2  N   UNL d   1       2.413  -0.034   0.365  0.00  0.00    -0.301 N 
ATOM      3  O   UNL d   1       0.597  -0.581  -0.880  0.00  0.00    -0.238 OA
ATOM      4  H   UNL d   1       2.985  -0.227  -0.446  0.00  0.00     0.171 HD
ENDROOT
BRANCH   1   5
ATOM      5  O   UNL d   1       0.384   0.827   0.911  0.00  0.00    -0.296 OA
BRANCH   5   6
ATOM      6  C   UNL d   1      -1.051   0.859   0.793  0.00  0.00     0.166 C 
ATOM      7  C   UNL d   1      -1.580   1.295  -0.599  0.00  0.00     0.305 C 
ATOM      8  N   UNL d   1      -2.437   2.510  -0.527  0.00  0.00     0.090 N 
ATOM      9  C   UNL d   1      -1.613   3.613   0.010  0.00  0.00     0.273 C 
ATOM     10  C   UNL d   1      -3.564   2.257   0.395  0.00  0.00     0.273 C 
ATOM     11  C   UNL d   1      -1.078   3.290   1.413  0.00  0.00     0.037 C 
ATOM     12  C   UNL d   1      -1.550   1.884   1.836  0.00  0.00     0.020 C 
ATOM     13  C   UNL d   1      -3.083   1.884   1.806  0.00  0.00     0.037 C 
ENDBRANCH   5   6
ENDBRANCH   1   5
BRANCH   2  14
ATOM     14  C   UNL d   1       3.057   0.214   1.596  0.00  0.00     0.058 A 
ATOM     15  C   UNL d   1       2.540  -0.123   2.864  0.00  0.00     0.060 A 
ATOM     16 CL   UNL d   1       1.094  -1.051   3.096  0.00  0.00    -0.082 Cl
ATOM     17  C   UNL d   1       3.285   0.138   4.020  0.00  0.00     0.026 A 
ATOM     18  C   UNL d   1       4.550   0.715   3.933  0.00  0.00     0.002 A 
ATOM     19  C   UNL d   1       5.084   1.019   2.683  0.00  0.00     0.002 A 
ATOM     20  C   UNL d   1       4.348   0.757   1.524  0.00  0.00     0.031 A 
ENDBRANCH   2  14
TORSDOF 3
