REMARK  6 active torsions:
REMARK  status: ('A' for Active; 'I' for Inactive)
REMARK    1  A    between atoms: N_6  and  C_1 
REMARK    2  A    between atoms: C_9  and  C_2 
REMARK    3  A    between atoms: C_11  and  N_3 
REMARK       I    between atoms: C_8  and  N_6 
REMARK       I    between atoms: N_10  and  C_8 
REMARK    4  A    between atoms: O_17  and  C_9 
REMARK    5  A    between atoms: C_13  and  N_10 
REMARK    6  A    between atoms: C_24  and  O_17 
ROOT
ATOM      1  C   UNL d   1       0.871  -0.780  -0.092  0.00  0.00     0.149 C 
ATOM      2  C   UNL d   1      -0.468  -1.117  -0.223  0.00  0.00     0.102 C 
ATOM      3  N   UNL d   1       0.891   0.589   0.206  0.00  0.00    -0.239 N 
ATOM      4  N   UNL d   1      -0.334   1.029   0.574  0.00  0.00    -0.302 N 
ATOM      5  HN  UNL d   1      -0.575   1.918   1.012  1.00  0.00     0.186 HD
ATOM      6  C   UNL d   1      -1.151   0.036   0.232  0.00  0.00     0.129 C 
ENDROOT
BRANCH   1   7
ATOM      7  N   UNL d   1       1.991  -1.612   0.010  0.00  0.00    -0.292 N 
ATOM      8  C   UNL d   1       2.693  -2.242  -1.058  0.00  0.00     0.326 C 
ATOM      9  N   UNL d   1       1.942  -2.743  -2.070  0.00  0.00    -0.309 N 
ATOM     10  O   UNL d   1       3.899  -2.255  -0.915  0.00  0.00    -0.247 OA
ATOM     11  H   UNL d   1       0.999  -3.021  -1.819  0.00  0.00     0.170 HD
ATOM     12  H   UNL d   1       2.663  -1.344   0.727  0.00  0.00     0.172 HD
BRANCH   9  13
ATOM     13  C   UNL d   1       2.480  -3.341  -3.229  0.00  0.00     0.037 A 
ATOM     14  C   UNL d   1       3.732  -2.998  -3.749  0.00  0.00     0.053 A 
ATOM     15  C   UNL d   1       4.217  -3.652  -4.883  0.00  0.00     0.036 A 
ATOM     16 CL   UNL d   1       5.754  -3.217  -5.524  0.00  0.00    -0.084 Cl
ATOM     17  C   UNL d   1       3.469  -4.649  -5.501  0.00  0.00     0.024 A 
ATOM     18  C   UNL d   1       2.211  -4.979  -4.998  0.00  0.00     0.004 A 
ATOM     19  C   UNL d   1       1.711  -4.315  -3.876  0.00  0.00     0.029 A 
ENDBRANCH   9  13
ENDBRANCH   1   7
BRANCH   2  20
ATOM     20  C   UNL d   1      -1.068  -2.357  -0.652  0.00  0.00     0.298 C 
ATOM     21  O   UNL d   1      -0.404  -3.301  -1.060  0.00  0.00    -0.259 OA
BRANCH  20  22
ATOM     22  O   UNL d   1      -2.428  -2.301  -0.664  0.00  0.00    -0.318 OA
BRANCH  22  23
ATOM     23  C   UNL d   1      -3.105  -3.363  -1.358  0.00  0.00     0.174 C 
ATOM     24  C   UNL d   1      -3.419  -2.898  -2.768  0.00  0.00     0.034 C 
ENDBRANCH  22  23
ENDBRANCH  20  22
ENDBRANCH   2  20
BRANCH   3  25
ATOM     25  C   UNL d   1       1.995   1.481   0.131  0.00  0.00     0.058 A 
ATOM     26  C   UNL d   1       3.092   1.198  -0.697  0.00  0.00     0.031 A 
ATOM     27  C   UNL d   1       4.156   2.097  -0.787  0.00  0.00     0.002 A 
ATOM     28  C   UNL d   1       4.130   3.282  -0.059  0.00  0.00     0.000 A 
ATOM     29  C   UNL d   1       3.033   3.580   0.750  0.00  0.00     0.002 A 
ATOM     30  C   UNL d   1       1.960   2.689   0.837  0.00  0.00     0.031 A 
ENDBRANCH   3  25
TORSDOF 6
