REMARK  5 active torsions:
REMARK  status: ('A' for Active; 'I' for Inactive)
REMARK    1  A    between atoms: C_2  and  C_1 
REMARK       I    between atoms: N_4  and  C_1 
REMARK    2  A    between atoms: C_3  and  C_2 
REMARK    3  A    between atoms: S_5  and  C_3 
REMARK    4  A    between atoms: C_7  and  N_4 
REMARK    5  A    between atoms: C_8  and  S_5 
ROOT
ATOM      1  C   UNL d   1       0.448  -0.625  -1.045  0.00  0.00     0.123 C 
ENDROOT
BRANCH   1   2
ATOM      2  C   UNL d   1      -0.683   0.247  -1.587  0.00  0.00     0.223 C 
ATOM      3  N   UNL d   1      -0.290   1.215  -2.485  0.00  0.00    -0.327 N 
ATOM      4  H   UNL d   1       0.618   1.083  -2.921  0.00  0.00     0.169 HD
ATOM      5  O   UNL d   1      -1.820   0.101  -1.144  0.00  0.00    -0.273 OA
BRANCH   3   6
ATOM      6  C   UNL d   1      -1.019   2.348  -2.904  0.00  0.00     0.034 A 
ATOM      7  C   UNL d   1      -2.249   2.723  -2.354  0.00  0.00     0.032 A 
ATOM      8  C   UNL d   1      -2.895   3.885  -2.788  0.00  0.00     0.044 A 
ATOM      9  C   UNL d   1      -2.311   4.672  -3.770  0.00  0.00     0.116 A 
ATOM     10  C   UNL d   1      -1.087   4.322  -4.324  0.00  0.00     0.044 A 
ATOM     11  F   UNL d   1      -2.931   5.785  -4.183  0.00  0.00    -0.206 F 
ATOM     12  C   UNL d   1      -0.439   3.161  -3.889  0.00  0.00     0.032 A 
ENDBRANCH   3   6
ENDBRANCH   1   2
BRANCH   1  13
ATOM     13  C   UNL d   1       1.379  -1.340  -2.042  0.00  0.00     0.014 C 
ATOM     14  C   UNL d   1       2.282  -2.323  -1.272  0.00  0.00     0.027 C 
ATOM     15  C   UNL d   1       0.552  -2.159  -3.051  0.00  0.00     0.027 C 
BRANCH  13  16
ATOM     16  S   UNL d   1       2.450  -0.173  -3.037  0.00  0.00    -0.120 SA
BRANCH  16  17
ATOM     17  C   UNL d   1       3.389   0.675  -1.779  0.00  0.00     0.001 A 
ATOM     18  C   UNL d   1       4.646   0.194  -1.400  0.00  0.00     0.020 A 
ATOM     19  C   UNL d   1       5.388   0.854  -0.413  0.00  0.00     0.025 A 
ATOM     20  C   UNL d   1       4.877   2.003   0.184  0.00  0.00     0.034 A 
ATOM     21  C   UNL d   1       3.643   2.511  -0.208  0.00  0.00     0.025 A 
ATOM     22 CL   UNL d   1       5.777   2.805   1.411  0.00  0.00    -0.084 Cl
ATOM     23  C   UNL d   1       2.908   1.855  -1.199  0.00  0.00     0.020 A 
ENDBRANCH  16  17
ENDBRANCH  13  16
ENDBRANCH   1  13
TORSDOF 5
