REMARK  1 active torsions:
REMARK  status: ('A' for Active; 'I' for Inactive)
REMARK    1  A    between atoms: O_16  and  C_7 
ROOT
ATOM      1  N   UNL d   1      -0.444  -0.210  -0.003  0.00  0.00    -0.280 N 
ATOM      2  C   UNL d   1      -0.126   1.145  -0.001  0.00  0.00     0.035 A 
ATOM      3  C   UNL d   1       1.935  -0.759  -0.005  0.00  0.00     0.100 A 
ATOM      4  C   UNL d   1       0.505  -1.223  -0.005  0.00  0.00     0.268 A 
ATOM      5  C   UNL d   1       2.193   0.559  -0.006  0.00  0.00     0.100 A 
ATOM      6  C   UNL d   1       1.150   1.552  -0.004  0.00  0.00     0.065 A 
ATOM      7  C   UNL d   1       3.055  -1.672  -0.003  0.00  0.00     0.090 A 
ATOM      8  C   UNL d   1      -1.841  -0.385  -0.003  0.00  0.00     0.050 A 
ATOM      9  C   UNL d   1      -1.415   1.975   0.008  0.00  0.00     0.025 A 
ATOM     10  C   UNL d   1       4.308  -1.211  -0.003  0.00  0.00     0.120 A 
ATOM     11  C   UNL d   1      -2.465   0.874  -0.000  0.00  0.00    -0.017 A 
ATOM     12  O   UNL d   1       3.502   1.080  -0.006  0.00  0.00    -0.274 OA
ATOM     13  C   UNL d   1       4.580   0.235  -0.005  0.00  0.00     0.290 A 
ATOM     14  O   UNL d   1       0.280  -2.435  -0.005  0.00  0.00    -0.267 OA
ATOM     15  O   UNL d   1       5.733   0.650  -0.005  0.00  0.00    -0.260 OA
ATOM     16  C   UNL d   1      -1.525   2.853  -1.243  0.00  0.00     0.027 C 
ATOM     17  C   UNL d   1      -1.520   2.818   1.284  0.00  0.00     0.027 C 
ATOM     18  C   UNL d   1      -2.581  -1.554  -0.005  0.00  0.00     0.031 A 
ATOM     19  C   UNL d   1      -3.848   0.980  -0.001  0.00  0.00     0.011 A 
ATOM     20  C   UNL d   1      -3.975  -1.451  -0.004  0.00  0.00     0.002 A 
ATOM     21  C   UNL d   1      -4.603  -0.196  -0.003  0.00  0.00     0.001 A 
ENDROOT
BRANCH   7  22
ATOM     22  O   UNL d   1       2.818  -3.033  -0.001  0.00  0.00    -0.359 OA
ATOM     23  H   UNL d   1       1.847  -3.191  -0.001  0.00  0.00     0.217 HD
ENDBRANCH   7  22
TORSDOF 1
