REMARK  3 active torsions:
REMARK  status: ('A' for Active; 'I' for Inactive)
REMARK    1  A    between atoms: N_3  and  C_1 
REMARK       I    between atoms: C_2  and  N_3 
REMARK       I    between atoms: N_7  and  C_2 
REMARK    2  A    between atoms: C_11  and  N_10 
REMARK    3  A    between atoms: O_24  and  C_19 
ROOT
ATOM      1  C   UNL d   1       1.211   3.083  -0.072  0.00  0.00     0.323 C 
ATOM      2  N   UNL d   1       0.434   2.872  -1.183  0.00  0.00    -0.305 N 
ATOM      3  N   UNL d   1       2.481   2.527  -0.089  0.00  0.00    -0.331 N 
ATOM      4  N   UNL d   1       5.030   1.263   0.452  0.00  0.00    -0.378 N 
ATOM      5  O   UNL d   1       0.842   3.737   0.901  0.00  0.00    -0.247 OA
ATOM      6  C   UNL d   1       3.084   1.640  -1.096  0.00  0.00     0.147 C 
ATOM      7  C   UNL d   1       3.454   3.112   0.843  0.00  0.00     0.147 C 
ATOM      8  C   UNL d   1       4.343   2.053   1.493  0.00  0.00     0.143 C 
ATOM      9  C   UNL d   1       4.088   0.616  -0.493  0.00  0.00     0.143 C 
ATOM     10  H   UNL d   1       0.735   2.191  -1.855  0.00  0.00     0.171 HD
ENDROOT
BRANCH   2  11
ATOM     11  C   UNL d   1      -0.823   3.436  -1.416  0.00  0.00     0.092 A 
ATOM     12  C   UNL d   1      -1.505   4.450  -0.769  0.00  0.00     0.101 A 
ATOM     13  O   UNL d   1      -2.722   4.619  -1.356  0.00  0.00    -0.240 OA
ATOM     14  C   UNL d   1      -1.239   5.399   0.333  0.00  0.00     0.081 C 
ATOM     15  N   UNL d   1      -2.848   3.773  -2.433  0.00  0.00    -0.263 N 
ATOM     16  C   UNL d   1      -1.704   3.086  -2.486  0.00  0.00     0.058 A 
ATOM     17  HN  UNL d   1      -3.648   3.688  -3.060  1.00  0.00     0.194 HD
ATOM     18  C   UNL d   1      -1.495   2.120  -3.588  0.00  0.00     0.072 C 
ENDBRANCH   2  11
BRANCH   4  19
ATOM     19  C   UNL d   1       6.129   0.492   0.859  0.00  0.00     0.030 A 
ATOM     20  C   UNL d   1       6.444   0.254   2.208  0.00  0.00     0.032 A 
ATOM     21  C   UNL d   1       7.608  -0.424   2.596  0.00  0.00     0.039 A 
ATOM     22  C   UNL d   1       8.500  -0.881   1.633  0.00  0.00     0.068 A 
ATOM     23  C   UNL d   1       8.189  -0.703   0.289  0.00  0.00     0.039 A 
ATOM     24  C   UNL d   1       7.027  -0.018  -0.093  0.00  0.00     0.032 A 
BRANCH  22  25
ATOM     25  O   UNL d   1       9.673  -1.532   1.897  0.00  0.00    -0.356 OA
ATOM     26  C   UNL d   1      10.301  -1.175   3.126  0.00  0.00     0.210 C 
ENDBRANCH  22  25
ENDBRANCH   4  19
TORSDOF 3
