REMARK  2 active torsions:
REMARK  status: ('A' for Active; 'I' for Inactive)
REMARK    1  A    between atoms: C_16  and  N_7 
REMARK    2  A    between atoms: C_19  and  C_13 
ROOT
ATOM      1  C   UNL d   1       0.732  -0.790  -0.057  0.00  0.00     0.173 A 
ATOM      2  C   UNL d   1       0.444   0.557  -0.119  0.00  0.00     0.090 A 
ATOM      3  C   UNL d   1       1.934  -1.546   0.182  0.00  0.00     0.285 C 
ATOM      4  C   UNL d   1      -0.987   0.667  -0.210  0.00  0.00     0.051 A 
ATOM      5  C   UNL d   1      -1.461  -0.641  -0.125  0.00  0.00     0.162 A 
ATOM      6  O   UNL d   1      -0.425  -1.512  -0.109  0.00  0.00    -0.285 OA
ATOM      7  N   UNL d   1       2.949  -0.840   0.845  0.00  0.00    -0.303 N 
ATOM      8  N   UNL d   1       1.330   1.611  -0.050  0.00  0.00    -0.322 N 
ATOM      9  N   UNL d   1      -2.732  -1.056  -0.024  0.00  0.00    -0.335 N 
ATOM     10  HN  UNL d   1      -2.990  -2.042   0.015  1.00  0.00     0.168 HD
ATOM     11  C   UNL d   1      -1.956   1.692  -0.302  0.00  0.00    -0.043 A 
ATOM     12  C   UNL d   1       2.681   1.605   0.094  0.00  0.00     0.240 C 
ATOM     13  C   UNL d   1      -3.641  -0.062   0.021  0.00  0.00     0.044 A 
ATOM     14  C   UNL d   1       3.506   0.318   0.157  0.00  0.00     0.235 C 
ATOM     15  C   UNL d   1      -3.299   1.281  -0.159  0.00  0.00     0.038 A 
ATOM     16  O   UNL d   1       2.014  -2.751  -0.053  0.00  0.00    -0.265 OA
ATOM     17  O   UNL d   1       3.254   2.698   0.031  0.00  0.00    -0.271 OA
ATOM     18  C   UNL d   1      -1.693   3.161  -0.467  0.00  0.00     0.049 C 
ATOM     19  H   UNL d   1       0.953   2.548  -0.099  0.00  0.00     0.169 HD
ENDROOT
BRANCH   7  20
ATOM     20  C   UNL d   1       3.701  -1.551   1.842  0.00  0.00     0.038 A 
ATOM     21  C   UNL d   1       5.076  -1.372   2.055  0.00  0.00     0.033 A 
ATOM     22  C   UNL d   1       5.739  -2.080   3.067  0.00  0.00     0.044 A 
ATOM     23  C   UNL d   1       5.035  -2.961   3.877  0.00  0.00     0.116 A 
ATOM     24  C   UNL d   1       3.676  -3.154   3.696  0.00  0.00     0.044 A 
ATOM     25  F   UNL d   1       5.676  -3.632   4.842  0.00  0.00    -0.206 F 
ATOM     26  C   UNL d   1       3.017  -2.453   2.684  0.00  0.00     0.033 A 
ENDBRANCH   7  20
BRANCH  13  27
ATOM     27  C   UNL d   1      -5.028  -0.483   0.324  0.00  0.00    -0.009 A 
ATOM     28  C   UNL d   1      -5.899   0.329   1.077  0.00  0.00     0.013 A 
ATOM     29  C   UNL d   1      -7.203  -0.079   1.376  0.00  0.00     0.001 A 
ATOM     30  C   UNL d   1      -7.664  -1.315   0.935  0.00  0.00     0.000 A 
ATOM     31  C   UNL d   1      -6.819  -2.146   0.205  0.00  0.00     0.001 A 
ATOM     32  C   UNL d   1      -5.516  -1.735  -0.093  0.00  0.00     0.013 A 
ENDBRANCH  13  27
TORSDOF 2
