REMARK  2 active torsions:
REMARK  status: ('A' for Active; 'I' for Inactive)
REMARK    1  A    between atoms: C_6  and  C_3 
REMARK    2  A    between atoms: C_12  and  N_8 
ROOT
ATOM      1  N   UNL d   1       1.431  -0.527  -0.132  0.00  0.00    -0.335 N 
ATOM      2  HN  UNL d   1       2.328  -0.984  -0.297  1.00  0.00     0.168 HD
ATOM      3  C   UNL d   1       1.280   0.831   0.044  0.00  0.00     0.052 A 
ATOM      4  C   UNL d   1       0.286  -1.161  -0.061  0.00  0.00     0.149 A 
ATOM      5  S   UNL d   1      -1.070  -0.123   0.197  0.00  0.00    -0.064 SA
ATOM      6  C   UNL d   1      -0.029   1.242   0.195  0.00  0.00     0.083 A 
ATOM      7  N   UNL d   1       0.109  -2.498  -0.166  0.00  0.00    -0.335 N 
ATOM      8  H   UNL d   1      -0.826  -2.857  -0.031  0.00  0.00     0.168 HD
ENDROOT
BRANCH   7   9
ATOM      9  C   UNL d   1       1.043  -3.440  -0.639  0.00  0.00     0.049 A 
ATOM     10  C   UNL d   1       2.287  -3.128  -1.192  0.00  0.00     0.117 A 
ATOM     11  N   UNL d   1       3.194  -4.038  -1.640  0.00  0.00    -0.373 N 
ATOM     12  C   UNL d   1       2.864  -5.335  -1.503  0.00  0.00     0.088 A 
ATOM     13  HN  UNL d   1       4.079  -3.752  -2.058  1.00  0.00     0.164 HD
ATOM     14  C   UNL d   1       1.676  -5.765  -0.941  0.00  0.00     0.019 A 
ATOM     15  C   UNL d   1       0.763  -4.806  -0.502  0.00  0.00     0.032 A 
ENDBRANCH   7   9
BRANCH   3  16
ATOM     16  C   UNL d   1       2.436   1.719   0.016  0.00  0.00     0.013 A 
ATOM     17  C   UNL d   1       3.652   1.394   0.648  0.00  0.00     0.046 A 
ATOM     18 CL   UNL d   1       3.868  -0.019   1.629  0.00  0.00    -0.083 Cl
ATOM     19  C   UNL d   1       4.758   2.247   0.539  0.00  0.00     0.025 A 
ATOM     20  C   UNL d   1       4.666   3.433  -0.186  0.00  0.00     0.002 A 
ATOM     21  C   UNL d   1       3.467   3.773  -0.805  0.00  0.00     0.001 A 
ATOM     22  C   UNL d   1       2.362   2.922  -0.710  0.00  0.00     0.015 A 
ENDBRANCH   3  16
TORSDOF 2
