REMARK  5 active torsions:
REMARK  status: ('A' for Active; 'I' for Inactive)
REMARK    1  A    between atoms: C_3  and  C_9 
REMARK    2  A    between atoms: O_13  and  C_3 
REMARK    3  A    between atoms: N_5  and  C_7 
REMARK    4  A    between atoms: C_9  and  N_5 
REMARK    5  A    between atoms: C_14  and  O_13 
ROOT
ATOM      1  C   UNL d   1      -1.147  -1.152   0.770  0.00  0.00     0.058 A 
ATOM      2  C   UNL d   1      -2.346  -0.427   0.812  0.00  0.00     0.054 A 
ATOM      3  C   UNL d   1      -0.052  -0.643   0.071  0.00  0.00     0.055 A 
ATOM      4  C   UNL d   1      -2.475   0.815   0.174  0.00  0.00     0.030 A 
ATOM      5  C   UNL d   1      -0.159   0.594  -0.560  0.00  0.00     0.028 A 
ATOM      6 CL   UNL d   1      -1.084  -2.655   1.620  0.00  0.00    -0.082 Cl
ATOM      7 CL   UNL d   1       1.456  -1.476  -0.038  0.00  0.00    -0.083 Cl
ATOM      8  C   UNL d   1      -1.351   1.323  -0.487  0.00  0.00     0.031 A 
ENDROOT
BRANCH   4   9
ATOM      9  N   UNL d   1      -3.665   1.512   0.328  0.00  0.00    -0.381 N 
ATOM     10  H   UNL d   1      -4.512   0.943   0.273  0.00  0.00     0.160 HD
BRANCH   9  11
ATOM     11  C   UNL d   1      -3.844   2.885  -0.148  0.00  0.00     0.231 C 
BRANCH  11  12
ATOM     12  C   UNL d   1      -5.315   3.222  -0.354  0.00  0.00     0.276 C 
ATOM     13  O   UNL d   1      -6.227   2.407  -0.386  0.00  0.00    -0.263 OA
BRANCH  12  14
ATOM     14  O   UNL d   1      -5.434   4.559  -0.603  0.00  0.00    -0.321 OA
BRANCH  14  15
ATOM     15  C   UNL d   1      -6.701   4.995  -1.109  0.00  0.00     0.174 C 
ATOM     16  C   UNL d   1      -6.676   4.893  -2.623  0.00  0.00     0.034 C 
ENDBRANCH  14  15
ENDBRANCH  12  14
ENDBRANCH  11  12
ENDBRANCH   9  11
ENDBRANCH   4   9
TORSDOF 5
