REMARK  5 active torsions:
REMARK  status: ('A' for Active; 'I' for Inactive)
REMARK    1  A    between atoms: N_7  and  N_1 
REMARK    2  A    between atoms: C_13  and  C_4 
REMARK    3  A    between atoms: C_10  and  C_9 
REMARK    4  A    between atoms: C_18  and  C_14 
REMARK    5  A    between atoms: O_24  and  C_19 
ROOT
ATOM      1  N   UNL d   1       1.528  -0.993  -0.174  0.00  0.00    -0.201 N 
ATOM      2  N   UNL d   1      -0.628  -0.375   0.086  0.00  0.00    -0.336 N 
ATOM      3  HN  UNL d   1      -1.637  -0.428   0.221  1.00  0.00     0.168 HD
ATOM      4  C   UNL d   1       0.212  -1.364  -0.030  0.00  0.00     0.141 A 
ATOM      5  C   UNL d   1       1.588   0.385  -0.168  0.00  0.00     0.295 A 
ATOM      6  C   UNL d   1       0.149   0.758  -0.012  0.00  0.00     0.105 A 
ATOM      7  C   UNL d   1      -0.253   2.038  -0.016  0.00  0.00     0.054 C 
ATOM      8  O   UNL d   1       2.524   1.161  -0.267  0.00  0.00    -0.264 OA
ENDROOT
BRANCH   1   9
ATOM      9  N   UNL d   1       2.547  -1.897  -0.286  0.00  0.00    -0.300 N 
ATOM     10  C   UNL d   1       3.776  -1.500  -0.312  0.00  0.00     0.119 C 
ATOM     11  HN  UNL d   1       2.336  -2.893  -0.349  1.00  0.00     0.186 HD
BRANCH  10  12
ATOM     12  C   UNL d   1       4.879  -2.468  -0.509  0.00  0.00    -0.019 A 
ATOM     13  C   UNL d   1       4.627  -3.835  -0.673  0.00  0.00     0.015 A 
ATOM     14  C   UNL d   1       5.686  -4.722  -0.894  0.00  0.00     0.037 A 
ATOM     15  C   UNL d   1       6.996  -4.244  -0.943  0.00  0.00     0.068 A 
ATOM     16  C   UNL d   1       7.239  -2.877  -0.790  0.00  0.00     0.037 A 
ATOM     17  C   UNL d   1       6.187  -1.988  -0.564  0.00  0.00     0.015 A 
BRANCH  15  18
ATOM     18  O   UNL d   1       8.107  -5.007  -1.177  0.00  0.00    -0.356 OA
ATOM     19  C   UNL d   1       8.019  -6.368  -0.771  0.00  0.00     0.210 C 
ENDBRANCH  15  18
ENDBRANCH  10  12
ENDBRANCH   1   9
BRANCH   4  20
ATOM     20  C   UNL d   1      -0.236  -2.775   0.040  0.00  0.00     0.010 A 
ATOM     21  C   UNL d   1       0.395  -3.809  -0.659  0.00  0.00     0.015 A 
ATOM     22  C   UNL d   1      -0.036  -5.129  -0.505  0.00  0.00     0.001 A 
ATOM     23  C   UNL d   1      -1.122  -5.417   0.320  0.00  0.00     0.000 A 
ATOM     24  C   UNL d   1      -1.792  -4.387   0.976  0.00  0.00     0.001 A 
ATOM     25  C   UNL d   1      -1.355  -3.068   0.833  0.00  0.00     0.015 A 
ENDBRANCH   4  20
BRANCH   7  26
ATOM     26  C   UNL d   1      -1.625   2.417   0.097  0.00  0.00     0.007 A 
ATOM     27  S   UNL d   1      -2.152   3.902  -0.605  0.00  0.00    -0.102 SA
ATOM     28  C   UNL d   1      -3.778   3.634  -0.153  0.00  0.00     0.050 A 
ATOM     29  C   UNL d   1      -3.930   2.468   0.557  0.00  0.00     0.008 A 
ATOM     30  C   UNL d   1      -2.693   1.778   0.710  0.00  0.00     0.019 A 
ENDBRANCH   7  26
TORSDOF 5
