REMARK  7 active torsions:
REMARK  status: ('A' for Active; 'I' for Inactive)
REMARK    1  A    between atoms: C_2  and  C_1 
REMARK    2  A    between atoms: N_20  and  C_4 
REMARK    3  A    between atoms: S_16  and  C_10 
REMARK    4  A    between atoms: C_23  and  S_16 
REMARK    5  A    between atoms: C_19  and  C_23 
REMARK    6  A    between atoms: O_24  and  C_19 
REMARK    7  A    between atoms: C_27  and  O_24 
ROOT
ATOM      1  C   UNL d   1       2.587   0.121  -0.232  0.00  0.00     0.079 A 
ATOM      2  C   UNL d   1       1.832  -0.912  -0.779  0.00  0.00     0.060 A 
ATOM      3  S   UNL d   1       1.632   1.514   0.017  0.00  0.00    -0.065 SA
ATOM      4  C   UNL d   1       0.431  -0.568  -0.970  0.00  0.00     0.031 A 
ATOM      5  C   UNL d   1       0.220   0.729  -0.500  0.00  0.00     0.088 A 
ATOM      6  N   UNL d   1      -0.943   1.408  -0.438  0.00  0.00    -0.354 N 
ATOM      7  HN  UNL d   1      -1.004   2.356  -0.065  1.00  0.00     0.166 HD
ATOM      8  C   UNL d   1      -0.723  -1.226  -1.497  0.00  0.00    -0.045 A 
ATOM      9  C   UNL d   1      -1.948  -0.528  -1.437  0.00  0.00     0.032 A 
ATOM     10  C   UNL d   1      -2.014   0.748  -0.901  0.00  0.00     0.006 A 
ATOM     11  C   UNL d   1      -0.785  -2.590  -2.134  0.00  0.00     0.049 C 
ATOM     12  C   UNL d   1      -3.332   1.464  -0.836  0.00  0.00     0.068 C 
ENDROOT
BRANCH   1  13
ATOM     13  C   UNL d   1       4.006   0.134   0.043  0.00  0.00     0.143 A 
ATOM     14  N   UNL d   1       4.654   0.675   1.135  0.00  0.00    -0.315 N 
ATOM     15  C   UNL d   1       5.992   0.527   0.878  0.00  0.00     0.163 A 
ATOM     16  C   UNL d   1       4.080   1.240   2.326  0.00  0.00     0.160 C 
ATOM     17  N   UNL d   1       6.164  -0.137  -0.240  0.00  0.00    -0.278 N 
ATOM     18  N   UNL d   1       4.912  -0.405  -0.754  0.00  0.00    -0.282 N 
ATOM     19  HN  UNL d   1       7.057  -0.406  -0.652  1.00  0.00     0.189 HD
ATOM     20  HN  UNL d   1       4.719  -0.931  -1.607  1.00  0.00     0.188 HD
BRANCH  15  21
ATOM     21  S   UNL d   1       7.236   1.141   1.918  0.00  0.00    -0.083 SA
BRANCH  21  22
ATOM     22  C   UNL d   1       8.592   1.399   0.737  0.00  0.00     0.193 C 
BRANCH  22  23
ATOM     23  C   UNL d   1       8.224   2.393  -0.342  0.00  0.00     0.268 C 
ATOM     24  O   UNL d   1       7.411   3.303  -0.239  0.00  0.00    -0.264 OA
BRANCH  23  25
ATOM     25  O   UNL d   1       8.956   2.122  -1.464  0.00  0.00    -0.321 OA
BRANCH  25  26
ATOM     26  C   UNL d   1       8.456   2.702  -2.676  0.00  0.00     0.174 C 
ATOM     27  C   UNL d   1       7.405   1.768  -3.249  0.00  0.00     0.034 C 
ENDBRANCH  25  26
ENDBRANCH  23  25
ENDBRANCH  22  23
ENDBRANCH  21  22
ENDBRANCH  15  21
ENDBRANCH   1  13
BRANCH   2  28
ATOM     28  N   UNL d   1       2.388  -2.115  -1.064  0.00  0.00    -0.397 N 
ATOM     29  H   UNL d   1       3.409  -2.190  -1.103  0.00  0.00     0.156 HD
ATOM     30  H   UNL d   1       1.944  -2.804  -1.652  0.00  0.00     0.156 HD
ENDBRANCH   2  28
TORSDOF 7
