REMARK  5 active torsions:
REMARK  status: ('A' for Active; 'I' for Inactive)
REMARK    1  A    between atoms: N_3  and  S_1 
REMARK    2  A    between atoms: C_5  and  S_1 
REMARK    3  A    between atoms: N_2  and  C_8 
REMARK    4  A    between atoms: C_4  and  N_12 
REMARK    5  A    between atoms: C_6  and  C_7 
ROOT
ATOM      1  N   UNL d   1       0.489  -1.033  -0.310  0.00  0.00    -0.204 NA
ATOM      2  N   UNL d   1      -1.258  -2.464   1.547  0.00  0.00    -0.266 NA
ATOM      3  C   UNL d   1      -0.978  -0.719  -0.194  0.00  0.00     0.122 C 
ATOM      4  C   UNL d   1       0.747  -2.457   0.109  0.00  0.00     0.122 C 
ATOM      5  C   UNL d   1       0.195  -2.758   1.520  0.00  0.00     0.112 C 
ATOM      6  C   UNL d   1      -1.526  -1.041   1.219  0.00  0.00     0.112 C 
ENDROOT
BRANCH   1   7
ATOM      7  S   UNL d   1       1.548   0.129   0.340  0.00  0.00     0.243 S 
ATOM      8  O   UNL d   1       2.780  -0.530   0.714  0.00  0.00    -0.206 OA
ATOM      9  O   UNL d   1       0.825   0.954   1.284  0.00  0.00    -0.206 OA
BRANCH   7  10
ATOM     10  C   UNL d   1       1.930   1.175  -1.060  0.00  0.00     0.077 A 
ATOM     11  C   UNL d   1       1.098   2.253  -1.379  0.00  0.00     0.061 A 
ATOM     12  C   UNL d   1       1.527   3.219  -2.315  0.00  0.00     0.110 A 
ATOM     13  C   UNL d   1       2.815   3.133  -2.893  0.00  0.00    -0.029 A 
ATOM     14  C   UNL d   1       3.600   2.002  -2.600  0.00  0.00     0.011 A 
ATOM     15  C   UNL d   1       3.428   4.188  -3.778  0.00  0.00     0.050 C 
ATOM     16  C   UNL d   1       3.165   1.032  -1.693  0.00  0.00     0.025 A 
BRANCH  12  17
ATOM     17  N   UNL d   1       0.585   4.314  -2.641  0.00  0.00    -0.115 N 
ATOM     18  O   UNL d   1      -0.433   4.414  -1.941  0.00  0.00    -0.532 OA
ATOM     19  O   UNL d   1       0.835   5.046  -3.605  0.00  0.00    -0.532 OA
ENDBRANCH  12  17
ENDBRANCH   7  10
ENDBRANCH   1   7
BRANCH   2  20
ATOM     20  C   UNL d   1      -1.905  -2.869   2.733  0.00  0.00     0.104 A 
ATOM     21  N   UNL d   1      -1.154  -3.101   3.839  0.00  0.00    -0.354 N 
ATOM     22  C   UNL d   1      -1.775  -3.475   4.988  0.00  0.00     0.105 A 
ATOM     23  HN  UNL d   1      -0.140  -2.998   3.808  1.00  0.00     0.166 HD
ATOM     24  C   UNL d   1      -3.143  -3.636   5.117  0.00  0.00     0.065 A 
ATOM     25  C   UNL d   1      -3.916  -3.430   3.976  0.00  0.00     0.044 A 
ATOM     26  C   UNL d   1      -3.302  -3.057   2.776  0.00  0.00     0.073 A 
ATOM     27 CL   UNL d   1      -4.317  -2.923   1.379  0.00  0.00    -0.081 Cl
BRANCH  24  28
ATOM     28  C   UNL d   1      -3.737  -4.047   6.428  0.00  0.00     0.418 C 
ATOM     29  F   UNL d   1      -5.098  -4.103   6.410  0.00  0.00    -0.166 F 
ATOM     30  F   UNL d   1      -3.318  -5.278   6.827  0.00  0.00    -0.166 F 
ATOM     31  F   UNL d   1      -3.412  -3.193   7.435  0.00  0.00    -0.166 F 
ENDBRANCH  24  28
ENDBRANCH   2  20
TORSDOF 5
