REMARK  5 active torsions:
REMARK  status: ('A' for Active; 'I' for Inactive)
REMARK       I    between atoms: C_3  and  N_1 
REMARK    1  A    between atoms: C_8  and  C_3 
REMARK    2  A    between atoms: C_15  and  C_4 
REMARK    3  A    between atoms: C_5  and  C_10 
REMARK    4  A    between atoms: C_7  and  O_18 
REMARK    5  A    between atoms: O_18  and  C_27 
ROOT
ATOM      1  N   UNL d   1      -2.646   0.416  -0.225  0.00  0.00    -0.335 N 
ATOM      2  C   UNL d   1      -0.248   0.842   0.061  0.00  0.00    -0.017 A 
ATOM      3  C   UNL d   1      -3.493   0.551  -1.346  0.00  0.00     0.254 C 
ATOM      4  C   UNL d   1      -1.646   1.403   0.264  0.00  0.00     0.155 C 
ATOM      5  C   UNL d   1      -0.010  -0.504  -0.163  0.00  0.00    -0.007 A 
ATOM      6  C   UNL d   1      -2.421  -0.972   0.234  0.00  0.00     0.132 C 
ATOM      7  S   UNL d   1       1.642  -0.874  -0.307  0.00  0.00    -0.106 SA
ATOM      8  C   UNL d   1      -1.084  -1.543  -0.279  0.00  0.00     0.067 C 
ATOM      9  C   UNL d   1       0.982   1.580   0.072  0.00  0.00     0.018 A 
ATOM     10  C   UNL d   1       2.082   0.767  -0.101  0.00  0.00     0.051 A 
ATOM     11  O   UNL d   1      -4.064  -0.419  -1.841  0.00  0.00    -0.267 OA
ENDROOT
BRANCH   3  12
ATOM     12  C   UNL d   1      -3.746   1.864  -2.026  0.00  0.00     0.033 C 
ATOM     13  C   UNL d   1      -3.780   3.082  -1.354  0.00  0.00     0.033 C 
ATOM     14  C   UNL d   1      -3.903   4.307  -2.032  0.00  0.00     0.048 C 
ATOM     15  C   UNL d   1      -4.173   4.287  -3.403  0.00  0.00     0.016 C 
ATOM     16  C   UNL d   1      -4.280   3.070  -4.076  0.00  0.00     0.002 C 
ATOM     17  C   UNL d   1      -4.043   1.869  -3.396  0.00  0.00     0.017 C 
BRANCH  14  18
ATOM     18  C   UNL d   1      -3.713   5.615  -1.302  0.00  0.00     0.417 C 
ATOM     19  F   UNL d   1      -3.289   5.450  -0.017  0.00  0.00    -0.166 F 
ATOM     20  F   UNL d   1      -2.778   6.408  -1.895  0.00  0.00    -0.166 F 
ATOM     21  F   UNL d   1      -4.851   6.354  -1.230  0.00  0.00    -0.166 F 
ENDBRANCH  14  18
ENDBRANCH   3  12
BRANCH   4  22
ATOM     22  C   UNL d   1      -1.786   1.737   1.761  0.00  0.00    -0.031 A 
ATOM     23  C   UNL d   1      -2.551   2.845   2.164  0.00  0.00     0.012 A 
ATOM     24  C   UNL d   1      -2.709   3.204   3.509  0.00  0.00     0.037 A 
ATOM     25  C   UNL d   1      -2.048   2.496   4.500  0.00  0.00     0.078 A 
ATOM     26  C   UNL d   1      -1.318   1.365   4.138  0.00  0.00     0.037 A 
ATOM     27  C   UNL d   1      -1.196   0.986   2.794  0.00  0.00     0.012 A 
BRANCH  25  28
ATOM     28  O   UNL d   1      -2.022   2.807   5.827  0.00  0.00    -0.255 OA
BRANCH  28  29
ATOM     29  C   UNL d   1      -2.395   4.127   6.199  0.00  0.00     0.530 C 
ATOM     30  F   UNL d   1      -1.933   5.058   5.336  0.00  0.00    -0.144 F 
ATOM     31  F   UNL d   1      -3.738   4.227   6.287  0.00  0.00    -0.144 F 
ATOM     32  F   UNL d   1      -1.867   4.397   7.413  0.00  0.00    -0.144 F 
ENDBRANCH  28  29
ENDBRANCH  25  28
ENDBRANCH   4  22
TORSDOF 5
