REMARK  3 active torsions:
REMARK  status: ('A' for Active; 'I' for Inactive)
REMARK    1  A    between atoms: C_3  and  C_1 
REMARK       I    between atoms: N_10  and  C_3 
REMARK    2  A    between atoms: C_15  and  N_10 
REMARK    3  A    between atoms: O_21  and  C_16 
ROOT
ATOM      1  C   UNL d   1      -1.353  -2.768  -0.027  0.00  0.00     0.258 C 
ATOM      2  N   UNL d   1      -0.238  -3.585  -0.030  0.00  0.00    -0.323 N 
ATOM      3  O   UNL d   1      -1.370  -1.577   0.279  0.00  0.00    -0.267 OA
ATOM      4  H   UNL d   1      -0.357  -4.539  -0.363  0.00  0.00     0.169 HD
ENDROOT
BRANCH   1   5
ATOM      5  C   UNL d   1      -2.639  -3.342  -0.479  0.00  0.00     0.061 A 
ATOM      6  C   UNL d   1      -2.866  -4.711  -0.766  0.00  0.00     0.082 A 
ATOM      7  N   UNL d   1      -1.985  -5.727  -0.689  0.00  0.00    -0.310 N 
ATOM      8  C   UNL d   1      -4.237  -5.169  -1.228  0.00  0.00     0.068 A 
ATOM      9  S   UNL d   1      -2.807  -7.107  -1.119  0.00  0.00     0.068 SA
ATOM     10  HN  UNL d   1      -1.004  -5.663  -0.419  1.00  0.00     0.176 HD
ATOM     11  N   UNL d   1      -4.308  -6.489  -1.453  0.00  0.00    -0.310 N 
ATOM     12  HN  UNL d   1      -5.126  -7.010  -1.768  1.00  0.00     0.176 HD
ATOM     13  C   UNL d   1      -5.305  -4.253  -1.391  0.00  0.00     0.032 A 
ATOM     14  C   UNL d   1      -5.024  -2.912  -1.099  0.00  0.00     0.003 A 
ATOM     15  C   UNL d   1      -3.752  -2.480  -0.662  0.00  0.00     0.019 A 
ENDBRANCH   1   5
BRANCH   2  16
ATOM     16  C   UNL d   1       1.090  -3.166   0.235  0.00  0.00     0.035 A 
ATOM     17  C   UNL d   1       1.402  -1.921   0.788  0.00  0.00     0.032 A 
ATOM     18  C   UNL d   1       2.729  -1.498   0.914  0.00  0.00     0.039 A 
ATOM     19  C   UNL d   1       3.765  -2.318   0.484  0.00  0.00     0.068 A 
ATOM     20  C   UNL d   1       3.471  -3.600   0.019  0.00  0.00     0.039 A 
ATOM     21  C   UNL d   1       2.140  -4.024  -0.105  0.00  0.00     0.032 A 
BRANCH  19  22
ATOM     22  O   UNL d   1       5.087  -1.965   0.501  0.00  0.00    -0.356 OA
ATOM     23  C   UNL d   1       5.327  -0.574   0.283  0.00  0.00     0.210 C 
ENDBRANCH  19  22
ENDBRANCH   2  16
TORSDOF 3
