REMARK  3 active torsions:
REMARK  status: ('A' for Active; 'I' for Inactive)
REMARK    1  A    between atoms: C_3  and  C_1 
REMARK    2  A    between atoms: C_2  and  C_6 
REMARK    3  A    between atoms: C_4  and  C_3 
ROOT
ATOM      1  C   UNL d   1       1.341  -2.836  -0.167  0.00  0.00     0.209 C 
ATOM      2  O   UNL d   1       0.528  -3.502  -0.806  0.00  0.00    -0.285 OA
ENDROOT
BRANCH   1   3
ATOM      3  C   UNL d   1       1.192  -1.350  -0.055  0.00  0.00     0.094 A 
ATOM      4  C   UNL d   1      -0.080  -0.724  -0.028  0.00  0.00     0.005 A 
ATOM      5  C   UNL d   1      -0.079   0.690  -0.005  0.00  0.00    -0.022 A 
ATOM      6  C   UNL d   1      -1.340  -1.379  -0.008  0.00  0.00     0.014 A 
ATOM      7  C   UNL d   1      -1.294   1.397   0.009  0.00  0.00     0.012 A 
ATOM      8  C   UNL d   1       1.136   1.383   0.001  0.00  0.00     0.029 A 
ATOM      9  C   UNL d   1      -2.515   0.725   0.011  0.00  0.00     0.001 A 
ATOM     10  C   UNL d   1      -2.539  -0.663   0.008  0.00  0.00     0.001 A 
ATOM     11  C   UNL d   1       2.317   0.669  -0.013  0.00  0.00     0.089 A 
ATOM     12  N   UNL d   1       2.378  -0.675  -0.040  0.00  0.00    -0.362 N 
ATOM     13  HN  UNL d   1       3.271  -1.168  -0.048  1.00  0.00     0.165 HD
ENDBRANCH   1   3
BRANCH   1  14
ATOM     14  C   UNL d   1       2.484  -3.554   0.469  0.00  0.00     0.017 A 
ATOM     15  C   UNL d   1       3.136  -3.072   1.611  0.00  0.00     0.031 A 
ATOM     16  C   UNL d   1       4.164  -3.817   2.217  0.00  0.00     0.048 A 
ATOM     17  C   UNL d   1       4.531  -5.053   1.661  0.00  0.00     0.016 A 
ATOM     18  C   UNL d   1       3.883  -5.539   0.526  0.00  0.00     0.002 A 
ATOM     19  C   UNL d   1       2.861  -4.795  -0.062  0.00  0.00     0.015 A 
BRANCH  16  20
ATOM     20  C   UNL d   1       4.856  -3.319   3.462  0.00  0.00     0.417 C 
ATOM     21  F   UNL d   1       4.397  -2.111   3.896  0.00  0.00    -0.166 F 
ATOM     22  F   UNL d   1       4.703  -4.171   4.514  0.00  0.00    -0.166 F 
ATOM     23  F   UNL d   1       6.198  -3.170   3.293  0.00  0.00    -0.166 F 
ENDBRANCH  16  20
ENDBRANCH   1  14
TORSDOF 3
