REMARK  5 active torsions:
REMARK  status: ('A' for Active; 'I' for Inactive)
REMARK    1  A    between atoms: N_3  and  S_1 
REMARK    2  A    between atoms: C_7  and  S_1 
REMARK    3  A    between atoms: N_2  and  C_8 
REMARK    4  A    between atoms: C_15  and  N_3 
REMARK    5  A    between atoms: C_16  and  C_15 
ROOT
ATOM      1  C   UNL d   1      -0.050  -2.039  -6.417  0.00  0.00     0.030 A 
ATOM      2  C   UNL d   1       0.245  -2.768  -5.255  0.00  0.00     0.030 A 
ATOM      3  C   UNL d   1      -0.005  -0.643  -6.320  0.00  0.00     0.030 A 
ATOM      4  C   UNL d   1       0.620  -0.744  -3.972  0.00  0.00    -0.040 A 
ATOM      5  C   UNL d   1       0.574  -2.139  -4.050  0.00  0.00     0.011 A 
ATOM      6  C   UNL d   1       0.324  -0.002  -5.120  0.00  0.00     0.011 A 
ENDROOT
BRANCH   4   7
ATOM      7  C   UNL d   1       0.958  -0.049  -2.677  0.00  0.00     0.170 C 
BRANCH   7   8
ATOM      8  N   UNL d   1       2.328  -0.326  -2.241  0.00  0.00    -0.311 N 
ATOM      9  H   UNL d   1       2.651  -1.286  -2.313  0.00  0.00     0.172 HD
BRANCH   8  10
ATOM     10  S   UNL d   1       2.883   0.462  -0.871  0.00  0.00     0.259 S 
ATOM     11  O   UNL d   1       2.477   1.849  -0.940  0.00  0.00    -0.201 OA
ATOM     12  O   UNL d   1       4.264   0.079  -0.698  0.00  0.00    -0.201 OA
BRANCH  10  13
ATOM     13  C   UNL d   1       1.947  -0.319   0.427  0.00  0.00     0.079 A 
ATOM     14  C   UNL d   1       2.468  -1.451   1.058  0.00  0.00     0.025 A 
ATOM     15  C   UNL d   1       1.760  -2.043   2.102  0.00  0.00     0.002 A 
ATOM     16  C   UNL d   1       0.540  -1.502   2.512  0.00  0.00     0.000 A 
ATOM     17  C   UNL d   1       0.027  -0.366   1.883  0.00  0.00     0.002 A 
ATOM     18  C   UNL d   1       0.733   0.236   0.843  0.00  0.00     0.025 A 
ENDBRANCH  10  13
ENDBRANCH   8  10
ENDBRANCH   7   8
ENDBRANCH   4   7
BRANCH   1  19
ATOM     19  N   UNL d   1      -0.289  -2.710  -7.608  0.00  0.00    -0.378 N 
ATOM     20  C   UNL d   1      -0.109  -2.025  -8.898  0.00  0.00     0.153 C 
ATOM     21  C   UNL d   1       0.164  -3.082  -9.993  0.00  0.00     0.291 C 
ATOM     22  N   UNL d   1      -0.914  -4.094 -10.093  0.00  0.00     0.087 N 
ATOM     23  C   UNL d   1      -1.119  -4.725  -8.767  0.00  0.00     0.291 C 
ATOM     24  C   UNL d   1      -0.568  -5.103 -11.092  0.00  0.00     0.310 C 
ATOM     25  C   UNL d   1      -1.387  -3.696  -7.640  0.00  0.00     0.153 C 
ENDBRANCH   1  19
TORSDOF 5
