REMARK  5 active torsions:
REMARK  status: ('A' for Active; 'I' for Inactive)
REMARK    1  A    between atoms: C_5  and  C_1 
REMARK    2  A    between atoms: C_2  and  C_4 
REMARK    3  A    between atoms: O_8  and  C_2 
REMARK    4  A    between atoms: C_4  and  C_5 
REMARK    5  A    between atoms: C_11  and  O_8 
ROOT
ATOM      1  C   UNL d   1       0.524   5.083  -0.238  0.00  0.00     0.288 C 
ATOM      2  O   UNL d   1       1.416   5.915  -0.326  0.00  0.00    -0.260 OA
ENDROOT
BRANCH   1   3
ATOM      3  C   UNL d   1       0.844   3.651  -0.049  0.00  0.00     0.084 C 
BRANCH   3   4
ATOM      4  C   UNL d   1      -0.053   2.656   0.040  0.00  0.00     0.025 C 
BRANCH   4   5
ATOM      5  C   UNL d   1       0.350   1.295   0.204  0.00  0.00     0.005 A 
ATOM      6  S   UNL d   1      -0.868   0.068   0.244  0.00  0.00    -0.102 SA
ATOM      7  C   UNL d   1       0.278  -1.182   0.441  0.00  0.00     0.050 A 
ATOM      8  C   UNL d   1       1.564  -0.700   0.480  0.00  0.00     0.008 A 
ATOM      9  C   UNL d   1       1.604   0.719   0.346  0.00  0.00     0.019 A 
ENDBRANCH   4   5
ENDBRANCH   3   4
ENDBRANCH   1   3
BRANCH   1  10
ATOM     10  O   UNL d   1      -0.844   5.298  -0.309  0.00  0.00    -0.276 OA
BRANCH  10  11
ATOM     11  C   UNL d   1      -1.461   6.556  -0.525  0.00  0.00     0.079 A 
ATOM     12  C   UNL d   1      -2.832   6.502  -0.792  0.00  0.00     0.039 A 
ATOM     13  C   UNL d   1      -3.546   7.681  -1.022  0.00  0.00     0.021 A 
ATOM     14  C   UNL d   1      -2.884   8.908  -0.982  0.00  0.00     0.006 A 
ATOM     15  C   UNL d   1      -1.517   8.963  -0.707  0.00  0.00     0.021 A 
ATOM     16  I   UNL d   1      -3.937  10.665  -1.331  0.00  0.00    -0.045 I 
ATOM     17  C   UNL d   1      -0.803   7.783  -0.472  0.00  0.00     0.039 A 
ENDBRANCH  10  11
ENDBRANCH   1  10
TORSDOF 5
