REMARK  7 active torsions:
REMARK  status: ('A' for Active; 'I' for Inactive)
REMARK       I    between atoms: N_4  and  C_1 
REMARK    1  A    between atoms: C_17  and  C_1 
REMARK       I    between atoms: C_2  and  N_3 
REMARK    2  A    between atoms: N_3  and  C_9 
REMARK    3  A    between atoms: C_10  and  N_4 
REMARK    4  A    between atoms: C_5  and  C_18 
REMARK    5  A    between atoms: O_12  and  C_5 
REMARK    6  A    between atoms: O_11  and  C_17 
REMARK    7  A    between atoms: C_18  and  O_11 
ROOT
ATOM      1  C   UNL d   1       2.229  -5.001   0.508  0.00  0.00     0.034 A 
ATOM      2  C   UNL d   1       0.829  -2.570   0.159  0.00  0.00     0.034 A 
ATOM      3  C   UNL d   1       0.555  -3.667  -0.658  0.00  0.00     0.032 A 
ATOM      4  C   UNL d   1       1.251  -4.870  -0.482  0.00  0.00     0.032 A 
ATOM      5  C   UNL d   1       2.477  -3.914   1.345  0.00  0.00     0.032 A 
ATOM      6  C   UNL d   1       1.787  -2.707   1.167  0.00  0.00     0.032 A 
ENDROOT
BRANCH   2   7
ATOM      7  N   UNL d   1       0.223  -1.304   0.001  0.00  0.00    -0.325 N 
ATOM      8  C   UNL d   1      -0.828  -0.982  -0.845  0.00  0.00     0.245 C 
ATOM      9  O   UNL d   1      -1.499  -1.772  -1.502  0.00  0.00    -0.271 OA
ATOM     10  H   UNL d   1       0.575  -0.576   0.611  0.00  0.00     0.169 HD
BRANCH   8  11
ATOM     11  C   UNL d   1      -1.129   0.533  -0.878  0.00  0.00     0.271 C 
BRANCH  11  12
ATOM     12  O   UNL d   1      -2.495   0.923  -0.993  0.00  0.00    -0.372 OA
BRANCH  12  13
ATOM     13  C   UNL d   1      -3.292   0.463   0.099  0.00  0.00     0.277 C 
BRANCH  13  14
ATOM     14  C   UNL d   1      -2.982   1.242   1.367  0.00  0.00     0.164 C 
ATOM     15  O   UNL d   1      -2.729   0.739   2.450  0.00  0.00    -0.648 OA
BRANCH  14  16
ATOM     16  O   UNL d   1      -2.962   2.581   1.150  0.00  0.00    -0.775 OA
ATOM     17  H   UNL d   1      -3.125   2.780   0.202  0.00  0.00     0.167 HD
ENDBRANCH  14  16
ENDBRANCH  13  14
ENDBRANCH  12  13
ENDBRANCH  11  12
ENDBRANCH   8  11
ENDBRANCH   2   7
BRANCH   1  18
ATOM     18  N   UNL d   1       2.923  -6.226   0.571  0.00  0.00    -0.328 N 
ATOM     19  C   UNL d   1       3.968  -6.560   1.414  0.00  0.00     0.218 C 
ATOM     20  O   UNL d   1       4.442  -5.865   2.305  0.00  0.00    -0.274 OA
ATOM     21  C   UNL d   1       4.540  -7.928   1.131  0.00  0.00     0.117 C 
ATOM     22  H   UNL d   1       2.642  -6.922  -0.108  0.00  0.00     0.169 HD
ENDBRANCH   1  18
TORSDOF 7
