REMARK  2 active torsions:
REMARK  status: ('A' for Active; 'I' for Inactive)
REMARK    1  A    between atoms: C_10  and  C_4 
REMARK    2  A    between atoms: C_9  and  N_5 
ROOT
ATOM      1  N   UNL d   1       0.543  -0.559   0.914  0.00  0.00    -0.289 N 
ATOM      2  HN  UNL d   1       0.997  -1.075   1.668  1.00  0.00     0.188 HD
ATOM      3  C   UNL d   1      -0.131   1.101  -0.477  0.00  0.00     0.093 A 
ATOM      4  C   UNL d   1       0.704   0.741   0.603  0.00  0.00     0.116 A 
ATOM      5  N   UNL d   1      -0.352  -1.042   0.010  0.00  0.00    -0.266 N 
ATOM      6  C   UNL d   1      -0.778  -0.053  -0.845  0.00  0.00     0.142 A 
ATOM      7  C   UNL d   1      -0.303   2.371  -1.102  0.00  0.00     0.103 C 
ATOM      8  N   UNL d   1      -0.493   3.376  -1.650  0.00  0.00    -0.191 NA
ENDROOT
BRANCH   4   9
ATOM      9  C   UNL d   1       1.641   1.617   1.319  0.00  0.00     0.174 C 
ATOM     10  O   UNL d   1       1.771   2.799   0.997  0.00  0.00    -0.291 OA
ATOM     11  C   UNL d   1       2.472   1.064   2.449  0.00  0.00     0.098 C 
ENDBRANCH   4   9
BRANCH   5  12
ATOM     12  C   UNL d   1      -0.750  -2.408   0.014  0.00  0.00     0.056 A 
ATOM     13  C   UNL d   1      -0.288  -3.267   1.020  0.00  0.00     0.032 A 
ATOM     14  C   UNL d   1      -0.696  -4.605   1.043  0.00  0.00     0.009 A 
ATOM     15  C   UNL d   1      -1.557  -5.104   0.058  0.00  0.00    -0.062 A 
ATOM     16  C   UNL d   1      -2.004  -4.248  -0.952  0.00  0.00     0.009 A 
ATOM     17  C   UNL d   1      -2.010  -6.534   0.103  0.00  0.00     0.048 C 
ATOM     18  C   UNL d   1      -1.606  -2.909  -0.976  0.00  0.00     0.032 A 
ENDBRANCH   5  12
TORSDOF 2
