REMARK  3 active torsions:
REMARK  status: ('A' for Active; 'I' for Inactive)
REMARK    1  A    between atoms: C_2  and  C_1 
REMARK       I    between atoms: N_6  and  C_2 
REMARK       I    between atoms: C_3  and  N_8 
REMARK    2  A    between atoms: C_10  and  C_3 
REMARK    3  A    between atoms: N_8  and  N_6 
ROOT
ATOM      1  C   UNL d   1       1.354   4.758  -0.027  0.00  0.00     0.270 C 
ATOM      2  N   UNL d   1       0.636   3.591   0.128  0.00  0.00    -0.263 N 
ATOM      3  O   UNL d   1       2.573   4.773  -0.181  0.00  0.00    -0.266 OA
ATOM      4  H   UNL d   1      -0.338   3.552   0.423  0.00  0.00     0.190 HD
ENDROOT
BRANCH   2   5
ATOM      5  N   UNL d   1       1.332   2.375   0.110  0.00  0.00    -0.261 N 
ATOM      6  C   UNL d   1       0.624   1.197   0.260  0.00  0.00     0.295 C 
ATOM      7  O   UNL d   1      -0.590   1.209   0.473  0.00  0.00    -0.264 OA
ATOM      8  H   UNL d   1       2.327   2.409  -0.114  0.00  0.00     0.190 HD
BRANCH   6   9
ATOM      9  C   UNL d   1       1.395  -0.013   0.142  0.00  0.00     0.169 A 
ATOM     10  O   UNL d   1       2.741   0.058  -0.076  0.00  0.00    -0.233 OA
ATOM     11  N   UNL d   1       3.266  -1.223  -0.155  0.00  0.00    -0.272 N 
ATOM     12  C   UNL d   1       2.227  -2.043   0.017  0.00  0.00     0.117 A 
ATOM     13  HN  UNL d   1       4.240  -1.484  -0.311  1.00  0.00     0.194 HD
ATOM     14  C   UNL d   1       1.027  -1.339   0.206  0.00  0.00     0.064 A 
ENDBRANCH   6   9
ENDBRANCH   2   5
BRANCH   1  15
ATOM     15  C   UNL d   1       0.580   6.028   0.016  0.00  0.00     0.033 A 
ATOM     16  C   UNL d   1       1.230   7.189   0.457  0.00  0.00     0.019 A 
ATOM     17  C   UNL d   1       0.557   8.414   0.470  0.00  0.00     0.025 A 
ATOM     18  C   UNL d   1      -0.764   8.481   0.031  0.00  0.00     0.034 A 
ATOM     19  C   UNL d   1      -1.420   7.333  -0.414  0.00  0.00     0.025 A 
ATOM     20 CL   UNL d   1      -1.586   9.992   0.022  0.00  0.00    -0.084 Cl
ATOM     21  C   UNL d   1      -0.750   6.103  -0.423  0.00  0.00     0.019 A 
ENDBRANCH   1  15
TORSDOF 3
