REMARK  7 active torsions:
REMARK  status: ('A' for Active; 'I' for Inactive)
REMARK    1  A    between atoms: C_2  and  C_1 
REMARK    2  A    between atoms: O_12  and  C_2 
REMARK    3  A    between atoms: N_5  and  C_3 
REMARK    4  A    between atoms: O_14  and  C_4 
REMARK    5  A    between atoms: C_11  and  N_5 
REMARK    6  A    between atoms: O_16  and  C_6 
REMARK    7  A    between atoms: C_10  and  C_11 
ROOT
ATOM      1  N   UNL d   1       3.074  -2.226  -1.339  0.00  0.00    -0.288 NA
ATOM      2  H   UNL d   1       4.063  -2.483  -1.397  0.00  0.00     0.128 HD
ENDROOT
BRANCH   1   3
ATOM      3  C   UNL d   1       2.942  -0.807  -1.293  0.00  0.00     0.025 A 
ATOM      4  C   UNL d   1       3.795   0.047  -2.037  0.00  0.00     0.058 A 
ATOM      5  C   UNL d   1       3.622   1.445  -2.004  0.00  0.00     0.020 A 
ATOM      6  C   UNL d   1       2.588   2.019  -1.271  0.00  0.00     0.001 A 
ATOM      7  C   UNL d   1       1.710   1.198  -0.580  0.00  0.00     0.002 A 
ATOM      8  C   UNL d   1       1.873  -0.190  -0.611  0.00  0.00     0.024 A 
BRANCH   4   9
ATOM      9  C   UNL d   1       4.938  -0.431  -2.864  0.00  0.00     0.177 C 
ATOM     10  O   UNL d   1       5.952   0.227  -3.046  0.00  0.00    -0.646 OA
BRANCH   9  11
ATOM     11  O   UNL d   1       4.736  -1.639  -3.426  0.00  0.00    -0.773 OA
ATOM     12  H   UNL d   1       3.826  -1.977  -3.261  0.00  0.00     0.167 HD
ENDBRANCH   9  11
ENDBRANCH   4   9
ENDBRANCH   1   3
BRANCH   1  13
ATOM     13  C   UNL d   1       2.443  -2.971  -0.235  0.00  0.00     0.131 C 
BRANCH  13  14
ATOM     14  C   UNL d   1       2.680  -4.463  -0.316  0.00  0.00    -0.042 A 
ATOM     15  C   UNL d   1       1.583  -5.351  -0.265  0.00  0.00     0.048 A 
ATOM     16  C   UNL d   1       1.758  -6.744  -0.207  0.00  0.00     0.102 A 
ATOM     17  C   UNL d   1       3.064  -7.259  -0.230  0.00  0.00     0.101 A 
ATOM     18  C   UNL d   1       4.155  -6.380  -0.265  0.00  0.00     0.040 A 
ATOM     19  C   UNL d   1       3.970  -4.997  -0.305  0.00  0.00     0.011 A 
BRANCH  16  20
ATOM     20  O   UNL d   1       0.724  -7.633  -0.076  0.00  0.00    -0.353 OA
ATOM     21  C   UNL d   1      -0.603  -7.127  -0.006  0.00  0.00     0.210 C 
ENDBRANCH  16  20
BRANCH  17  22
ATOM     22  O   UNL d   1       3.439  -8.576  -0.151  0.00  0.00    -0.353 OA
ATOM     23  C   UNL d   1       2.563  -9.531  -0.736  0.00  0.00     0.210 C 
ENDBRANCH  17  22
ENDBRANCH  13  14
ENDBRANCH   1  13
TORSDOF 7
