REMARK  7 active torsions:
REMARK  status: ('A' for Active; 'I' for Inactive)
REMARK    1  A    between atoms: C_9  and  N_1 
REMARK    2  A    between atoms: N_2  and  C_10 
REMARK    3  A    between atoms: C_13  and  C_3 
REMARK    4  A    between atoms: C_14  and  C_4 
REMARK    5  A    between atoms: C_10  and  C_9 
REMARK    6  A    between atoms: O_27  and  C_21 
REMARK    7  A    between atoms: O_28  and  C_22 
ROOT
ATOM      1  C   UNL d   1      -1.390  -2.207   0.188  0.00  0.00     0.147 C 
ENDROOT
BRANCH   1   2
ATOM      2  N   UNL d   1      -0.448  -1.196  -0.295  0.00  0.00    -0.332 N 
ATOM      3  C   UNL d   1       0.939  -1.138   0.121  0.00  0.00     0.183 A 
ATOM      4  S   UNL d   1       1.640   0.387  -0.575  0.00  0.00    -0.130 SA
ATOM      5  C   UNL d   1       0.170   0.788  -1.529  0.00  0.00     0.179 A 
ATOM      6  C   UNL d   1      -0.900  -0.204  -1.153  0.00  0.00     0.230 A 
ATOM      7  O   UNL d   1      -2.042  -0.129  -1.591  0.00  0.00    -0.273 OA
BRANCH   3   8
ATOM      8  C   UNL d   1       1.224  -1.206   1.609  0.00  0.00    -0.025 A 
ATOM      9  C   UNL d   1       2.425  -1.794   2.053  0.00  0.00     0.013 A 
ATOM     10  C   UNL d   1       2.784  -1.789   3.408  0.00  0.00     0.037 A 
ATOM     11  C   UNL d   1       1.948  -1.191   4.347  0.00  0.00     0.068 A 
ATOM     12  C   UNL d   1       0.752  -0.613   3.920  0.00  0.00     0.037 A 
ATOM     13  C   UNL d   1       0.391  -0.616   2.569  0.00  0.00     0.013 A 
BRANCH  11  14
ATOM     14  O   UNL d   1       2.206  -1.058   5.683  0.00  0.00    -0.356 OA
ATOM     15  C   UNL d   1       3.203  -1.905   6.237  0.00  0.00     0.210 C 
ENDBRANCH  11  14
ENDBRANCH   3   8
ENDBRANCH   1   2
BRANCH   1  16
ATOM     16  C   UNL d   1      -0.851  -3.636   0.363  0.00  0.00     0.147 C 
BRANCH  16  17
ATOM     17  N   UNL d   1      -1.941  -4.603   0.527  0.00  0.00    -0.332 N 
ATOM     18  C   UNL d   1      -1.909  -5.880  -0.155  0.00  0.00     0.183 C 
ATOM     19  S   UNL d   1      -3.410  -6.773   0.326  0.00  0.00    -0.130 SA
ATOM     20  C   UNL d   1      -3.808  -5.635   1.662  0.00  0.00     0.179 C 
ATOM     21  C   UNL d   1      -2.792  -4.521   1.618  0.00  0.00     0.230 C 
ATOM     22  O   UNL d   1      -2.753  -3.630   2.459  0.00  0.00    -0.273 OA
BRANCH  18  23
ATOM     23  C   UNL d   1      -1.778  -5.785  -1.659  0.00  0.00    -0.025 A 
ATOM     24  C   UNL d   1      -0.798  -6.538  -2.327  0.00  0.00     0.013 A 
ATOM     25  C   UNL d   1      -0.680  -6.494  -3.722  0.00  0.00     0.037 A 
ATOM     26  C   UNL d   1      -1.546  -5.702  -4.474  0.00  0.00     0.068 A 
ATOM     27  C   UNL d   1      -2.510  -4.936  -3.817  0.00  0.00     0.037 A 
ATOM     28  C   UNL d   1      -2.630  -4.976  -2.426  0.00  0.00     0.013 A 
BRANCH  26  29
ATOM     29  O   UNL d   1      -1.550  -5.585  -5.837  0.00  0.00    -0.356 OA
ATOM     30  C   UNL d   1      -0.700  -6.466  -6.560  0.00  0.00     0.210 C 
ENDBRANCH  26  29
ENDBRANCH  18  23
ENDBRANCH  16  17
ENDBRANCH   1  16
TORSDOF 7
