REMARK  3 active torsions:
REMARK  status: ('A' for Active; 'I' for Inactive)
REMARK    1  A    between atoms: N_3  and  C_1 
REMARK    2  A    between atoms: C_10  and  N_2 
REMARK       I    between atoms: C_7  and  N_3 
REMARK       I    between atoms: N_9  and  C_7 
REMARK    3  A    between atoms: C_12  and  N_9 
ROOT
ATOM      1  C   UNL d   1      -0.189  -1.117   0.315  0.00  0.00     0.133 C 
ATOM      2  N   UNL d   1       1.146  -0.776   0.085  0.00  0.00    -0.240 N 
ATOM      3  N   UNL d   1       1.307   0.579   0.125  0.00  0.00    -0.297 N 
ATOM      4  HN  UNL d   1       2.125   1.117  -0.162  1.00  0.00     0.187 HD
ATOM      5  C   UNL d   1      -0.774   0.011   0.852  0.00  0.00     0.076 C 
ATOM      6  C   UNL d   1       0.159   1.045   0.622  0.00  0.00     0.026 C 
ATOM      7  C   UNL d   1      -0.026   2.504   0.797  0.00  0.00     0.070 C 
ENDROOT
BRANCH   1   8
ATOM      8  N   UNL d   1      -0.767  -2.335  -0.003  0.00  0.00    -0.293 N 
ATOM      9  C   UNL d   1      -1.605  -2.987   0.902  0.00  0.00     0.326 C 
ATOM     10  N   UNL d   1      -1.986  -4.216   0.382  0.00  0.00    -0.309 N 
ATOM     11  O   UNL d   1      -1.891  -2.557   2.012  0.00  0.00    -0.247 OA
ATOM     12  H   UNL d   1      -1.905  -4.310  -0.619  0.00  0.00     0.170 HD
ATOM     13  H   UNL d   1      -0.279  -2.927  -0.659  0.00  0.00     0.172 HD
BRANCH  10  14
ATOM     14  C   UNL d   1      -2.559  -5.302   1.071  0.00  0.00     0.036 A 
ATOM     15  C   UNL d   1      -2.779  -5.321   2.450  0.00  0.00     0.031 A 
ATOM     16  C   UNL d   1      -3.294  -6.465   3.072  0.00  0.00     0.026 A 
ATOM     17  C   UNL d   1      -3.586  -7.596   2.317  0.00  0.00     0.034 A 
ATOM     18  C   UNL d   1      -3.380  -7.590   0.940  0.00  0.00     0.026 A 
ATOM     19 CL   UNL d   1      -4.189  -9.011   3.087  0.00  0.00    -0.084 Cl
ATOM     20  C   UNL d   1      -2.871  -6.445   0.320  0.00  0.00     0.031 A 
ENDBRANCH  10  14
ENDBRANCH   1   8
BRANCH   2  21
ATOM     21  C   UNL d   1       2.286  -1.620  -0.111  0.00  0.00     0.058 A 
ATOM     22  C   UNL d   1       2.228  -3.012   0.048  0.00  0.00     0.031 A 
ATOM     23  C   UNL d   1       3.365  -3.800  -0.154  0.00  0.00     0.002 A 
ATOM     24  C   UNL d   1       4.582  -3.204  -0.468  0.00  0.00     0.000 A 
ATOM     25  C   UNL d   1       4.667  -1.819  -0.576  0.00  0.00     0.002 A 
ATOM     26  C   UNL d   1       3.528  -1.030  -0.404  0.00  0.00     0.031 A 
ENDBRANCH   2  21
TORSDOF 3
