REMARK  6 active torsions:
REMARK  status: ('A' for Active; 'I' for Inactive)
REMARK    1  A    between atoms: C_2  and  S_1 
REMARK    2  A    between atoms: N_9  and  S_1 
REMARK       I    between atoms: C_3  and  N_8 
REMARK    3  A    between atoms: O_17  and  C_3 
REMARK    4  A    between atoms: C_19  and  N_9 
REMARK    5  A    between atoms: N_11  and  C_12 
REMARK    6  A    between atoms: C_24  and  O_17 
ROOT
ATOM      1  C   UNL d   1       1.469  -2.662  -4.766  0.00  0.00     0.103 A 
ATOM      2  N   UNL d   1       1.330  -1.341  -4.511  0.00  0.00    -0.350 N 
ATOM      3  HN  UNL d   1       1.325  -0.664  -5.274  1.00  0.00     0.166 HD
ATOM      4  C   UNL d   1       1.181  -1.787  -2.133  0.00  0.00     0.058 A 
ATOM      5  C   UNL d   1       1.473  -3.578  -3.707  0.00  0.00     0.051 A 
ATOM      6  C   UNL d   1       1.196  -0.933  -3.224  0.00  0.00     0.119 A 
ATOM      7  C   UNL d   1       1.337  -3.141  -2.383  0.00  0.00     0.035 A 
ENDROOT
BRANCH   1   8
ATOM      8  N   UNL d   1       1.507  -3.102  -6.079  0.00  0.00    -0.364 N 
ATOM      9  C   UNL d   1       1.018  -2.188  -7.133  0.00  0.00     0.144 C 
ATOM     10  C   UNL d   1       2.170  -1.550  -7.926  0.00  0.00     0.148 C 
ATOM     11  N   UNL d   1       3.074  -2.587  -8.428  0.00  0.00    -0.325 N 
ATOM     12  C   UNL d   1       3.262  -2.760  -9.788  0.00  0.00     0.363 C 
ATOM     13  C   UNL d   1       3.633  -3.440  -7.376  0.00  0.00     0.148 C 
ATOM     14  O   UNL d   1       2.790  -2.015 -10.633  0.00  0.00    -0.238 OA
ATOM     15  C   UNL d   1       2.526  -4.081  -6.505  0.00  0.00     0.144 C 
BRANCH  12  16
ATOM     16  O   UNL d   1       4.027  -3.847 -10.071  0.00  0.00    -0.294 OA
BRANCH  16  17
ATOM     17  C   UNL d   1       4.468  -4.129 -11.430  0.00  0.00     0.061 C 
ATOM     18  C   UNL d   1       5.355  -2.997 -11.964  0.00  0.00     0.046 C 
ATOM     19  C   UNL d   1       5.307  -5.412 -11.310  0.00  0.00     0.046 C 
ATOM     20  C   UNL d   1       3.300  -4.413 -12.385  0.00  0.00     0.046 C 
ENDBRANCH  16  17
ENDBRANCH  12  16
ENDBRANCH   1   8
BRANCH   4  21
ATOM     21  N   UNL d   1       1.008  -1.313  -0.800  0.00  0.00    -0.279 N 
ATOM     22  H   UNL d   1       0.233  -0.670  -0.630  0.00  0.00     0.179 HD
BRANCH  21  23
ATOM     23  S   UNL d   1       2.360  -0.979   0.140  0.00  0.00     0.267 S 
ATOM     24  O   UNL d   1       1.866  -0.329   1.331  0.00  0.00    -0.200 OA
ATOM     25  O   UNL d   1       3.179  -2.170   0.223  0.00  0.00    -0.200 OA
BRANCH  23  26
ATOM     26  C   UNL d   1       3.346   0.195  -0.610  0.00  0.00     0.135 A 
ATOM     27  C   UNL d   1       3.302   1.570  -0.502  0.00  0.00     0.098 A 
ATOM     28  O   UNL d   1       4.268   2.101  -1.296  0.00  0.00    -0.241 OA
ATOM     29  C   UNL d   1       2.508   2.563   0.244  0.00  0.00     0.081 C 
ATOM     30  N   UNL d   1       4.987   1.097  -1.905  0.00  0.00    -0.264 N 
ATOM     31  C   UNL d   1       4.449  -0.051  -1.473  0.00  0.00     0.054 A 
ATOM     32  HN  UNL d   1       5.769   1.204  -2.552  1.00  0.00     0.194 HD
ATOM     33  C   UNL d   1       5.053  -1.338  -1.907  0.00  0.00     0.072 C 
ENDBRANCH  23  26
ENDBRANCH  21  23
ENDBRANCH   4  21
TORSDOF 6
