REMARK  2 active torsions:
REMARK  status: ('A' for Active; 'I' for Inactive)
REMARK    1  A    between atoms: N_15  and  C_2 
REMARK    2  A    between atoms: C_9  and  C_4 
ROOT
ATOM      1  C   UNL d   1       3.069   0.571  -0.021  0.00  0.00     0.078 C 
ATOM      2  C   UNL d   1       3.189  -0.769   0.087  0.00  0.00     0.138 C 
ATOM      3  C   UNL d   1       0.585   0.264  -0.155  0.00  0.00    -0.011 A 
ATOM      4  C   UNL d   1       1.740   1.224  -0.388  0.00  0.00     0.100 C 
ATOM      5  O   UNL d   1       2.114  -1.620  -0.139  0.00  0.00    -0.297 OA
ATOM      6  C   UNL d   1       0.841  -1.109  -0.102  0.00  0.00     0.084 A 
ATOM      7  C   UNL d   1       4.187   1.423   0.211  0.00  0.00     0.100 C 
ATOM      8  N   UNL d   1       5.080   2.151   0.339  0.00  0.00    -0.192 NA
ATOM      9  C   UNL d   1      -0.740   0.707  -0.019  0.00  0.00     0.029 A 
ATOM     10  C   UNL d   1      -0.201  -2.031   0.001  0.00  0.00     0.039 A 
ATOM     11  C   UNL d   1      -1.782  -0.217   0.085  0.00  0.00     0.011 A 
ATOM     12  C   UNL d   1      -1.519  -1.584   0.083  0.00  0.00     0.022 A 
ATOM     13 BR   UNL d   1      -3.566   0.396   0.200  0.00  0.00    -0.051 Br
ENDROOT
BRANCH   2  14
ATOM     14  N   UNL d   1       4.343  -1.449   0.394  0.00  0.00    -0.282 NA
ATOM     15  H   UNL d   1       5.221  -0.981   0.182  0.00  0.00     0.126 HD
ATOM     16  H   UNL d   1       4.319  -2.415   0.073  0.00  0.00     0.126 HD
ENDBRANCH   2  14
BRANCH   4  17
ATOM     17  C   UNL d   1       1.782   1.819  -1.831  0.00  0.00     0.213 C 
ATOM     18  C   UNL d   1       0.613   2.671  -2.108  0.00  0.00     0.079 C 
ATOM     19  N   UNL d   1      -0.308   3.349  -2.297  0.00  0.00    -0.196 NA
ATOM     20  C   UNL d   1       1.942   0.775  -2.857  0.00  0.00     0.079 C 
ATOM     21  N   UNL d   1       2.108  -0.051  -3.655  0.00  0.00    -0.196 NA
ENDBRANCH   4  17
TORSDOF 2
