REMARK  5 active torsions:
REMARK  status: ('A' for Active; 'I' for Inactive)
REMARK    1  A    between atoms: C_8  and  C_3 
REMARK    2  A    between atoms: C_10  and  C_7 
REMARK    3  A    between atoms: O_11  and  C_12 
REMARK    4  A    between atoms: C_13  and  O_11 
REMARK    5  A    between atoms: C_18  and  C_13 
ROOT
ATOM      1  C   UNL d   1      -0.914  -2.865  -0.032  0.00  0.00    -0.034 A 
ATOM      2  C   UNL d   1      -3.300  -4.333  -0.022  0.00  0.00     0.069 A 
ATOM      3  C   UNL d   1      -1.831  -2.722  -1.077  0.00  0.00     0.014 A 
ATOM      4  C   UNL d   1      -1.173  -3.776   0.995  0.00  0.00     0.014 A 
ATOM      5  C   UNL d   1      -2.357  -4.517   0.992  0.00  0.00     0.037 A 
ATOM      6  C   UNL d   1      -3.018  -3.460  -1.073  0.00  0.00     0.037 A 
ENDROOT
BRANCH   1   7
ATOM      7  C   UNL d   1       0.308  -2.067  -0.008  0.00  0.00     0.047 C 
ATOM      8  C   UNL d   1       0.445  -0.877   0.592  0.00  0.00     0.111 A 
ATOM      9  N   UNL d   1       1.607  -0.149   0.546  0.00  0.00    -0.331 N 
ATOM     10  C   UNL d   1      -0.598  -0.131   1.357  0.00  0.00     0.316 A 
ATOM     11  C   UNL d   1       1.292   0.934   1.183  0.00  0.00     0.162 A 
ATOM     12  HN  UNL d   1       2.498  -0.398   0.117  1.00  0.00     0.168 HD
ATOM     13  O   UNL d   1       0.042   1.026   1.689  0.00  0.00    -0.256 OA
ATOM     14  O   UNL d   1      -1.740  -0.429   1.643  0.00  0.00    -0.257 OA
BRANCH  11  15
ATOM     15  C   UNL d   1       2.152   2.107   1.400  0.00  0.00     0.015 A 
ATOM     16  C   UNL d   1       3.453   2.093   0.881  0.00  0.00     0.016 A 
ATOM     17  C   UNL d   1       4.274   3.213   1.020  0.00  0.00     0.001 A 
ATOM     18  C   UNL d   1       3.800   4.347   1.678  0.00  0.00     0.000 A 
ATOM     19  C   UNL d   1       2.510   4.361   2.209  0.00  0.00     0.001 A 
ATOM     20  C   UNL d   1       1.685   3.242   2.073  0.00  0.00     0.016 A 
ENDBRANCH  11  15
ENDBRANCH   1   7
BRANCH   2  21
ATOM     21  O   UNL d   1      -4.521  -4.953  -0.077  0.00  0.00    -0.347 OA
BRANCH  21  22
ATOM     22  C   UNL d   1      -5.023  -5.390   1.186  0.00  0.00     0.214 C 
BRANCH  22  23
ATOM     23  C   UNL d   1      -6.520  -5.542   1.111  0.00  0.00    -0.034 A 
ATOM     24  C   UNL d   1      -7.102  -6.780   0.814  0.00  0.00     0.009 A 
ATOM     25  C   UNL d   1      -8.491  -6.919   0.795  0.00  0.00     0.001 A 
ATOM     26  C   UNL d   1      -9.307  -5.820   1.061  0.00  0.00     0.000 A 
ATOM     27  C   UNL d   1      -8.737  -4.577   1.333  0.00  0.00     0.001 A 
ATOM     28  C   UNL d   1      -7.350  -4.437   1.353  0.00  0.00     0.009 A 
ENDBRANCH  22  23
ENDBRANCH  21  22
ENDBRANCH   2  21
TORSDOF 5
