REMARK  6 active torsions:
REMARK  status: ('A' for Active; 'I' for Inactive)
REMARK    1  A    between atoms: C_4  and  C_1 
REMARK    2  A    between atoms: O_10  and  C_2 
REMARK    3  A    between atoms: C_8  and  C_3 
REMARK    4  A    between atoms: O_17  and  C_4 
REMARK    5  A    between atoms: O_18  and  C_6 
REMARK    6  A    between atoms: C_11  and  O_10 
ROOT
ATOM      1  C   UNL d   1       0.813  -0.236   0.899  0.00  0.00     0.120 C 
ATOM      2  C   UNL d   1       0.304   0.956   0.527  0.00  0.00     0.040 C 
ATOM      3  C   UNL d   1       1.991  -0.369   1.693  0.00  0.00     0.105 C 
ATOM      4  N   UNL d   1       2.944  -0.453   2.347  0.00  0.00    -0.191 NA
ENDROOT
BRANCH   1   5
ATOM      5  C   UNL d   1       0.116  -1.456   0.410  0.00  0.00     0.303 C 
ATOM      6  O   UNL d   1      -0.897  -1.439  -0.274  0.00  0.00    -0.258 OA
BRANCH   5   7
ATOM      7  O   UNL d   1       0.775  -2.575   0.803  0.00  0.00    -0.322 OA
ATOM      8  C   UNL d   1       0.206  -3.796   0.330  0.00  0.00     0.213 C 
ENDBRANCH   5   7
ENDBRANCH   1   5
BRANCH   2   9
ATOM      9  C   UNL d   1       0.959   2.237   0.828  0.00  0.00    -0.030 A 
ATOM     10  C   UNL d   1       1.909   2.721  -0.077  0.00  0.00     0.033 A 
ATOM     11  C   UNL d   1       2.701   3.820   0.257  0.00  0.00     0.048 A 
ATOM     12 BR   UNL d   1       4.115   4.239  -0.940  0.00  0.00    -0.048 Br
ATOM     13  C   UNL d   1       2.498   4.473   1.479  0.00  0.00     0.129 A 
ATOM     14  C   UNL d   1       1.497   4.036   2.371  0.00  0.00     0.104 A 
ATOM     15  C   UNL d   1       0.736   2.906   2.036  0.00  0.00     0.051 A 
BRANCH  13  16
ATOM     16  O   UNL d   1       3.434   5.412   1.972  0.00  0.00    -0.275 OA
BRANCH  16  17
ATOM     17  C   UNL d   1       3.650   6.604   1.290  0.00  0.00     0.260 C 
ATOM     18  O   UNL d   1       2.971   7.056   0.379  0.00  0.00    -0.265 OA
ATOM     19  C   UNL d   1       4.886   7.260   1.841  0.00  0.00     0.126 C 
ENDBRANCH  16  17
ENDBRANCH  13  16
BRANCH  14  20
ATOM     20  O   UNL d   1       1.375   4.735   3.545  0.00  0.00    -0.353 OA
ATOM     21  C   UNL d   1       0.348   4.328   4.444  0.00  0.00     0.210 C 
ENDBRANCH  14  20
ENDBRANCH   2   9
TORSDOF 6
