REMARK  3 active torsions:
REMARK  status: ('A' for Active; 'I' for Inactive)
REMARK    1  A    between atoms: C_14  and  N_4 
REMARK    2  A    between atoms: C_16  and  C_9 
REMARK       I    between atoms: N_11  and  C_13 
REMARK       I    between atoms: C_12  and  N_11 
REMARK       I    between atoms: N_19  and  C_12 
REMARK    3  A    between atoms: C_13  and  C_14 
ROOT
ATOM      1  C   UNL d   1      -0.257   0.774   0.217  0.00  0.00     0.067 A 
ATOM      2  C   UNL d   1      -0.173  -0.407   0.912  0.00  0.00     0.091 A 
ATOM      3  C   UNL d   1       0.974   1.484  -0.058  0.00  0.00     0.262 A 
ATOM      4  N   UNL d   1       2.122   0.846   0.405  0.00  0.00    -0.301 N 
ATOM      5  N   UNL d   1       0.953  -0.966   1.421  0.00  0.00    -0.346 N 
ATOM      6  HN  UNL d   1       0.943  -1.821   1.977  1.00  0.00     0.167 HD
ATOM      7  C   UNL d   1      -1.602   1.105  -0.133  0.00  0.00     0.039 A 
ATOM      8  S   UNL d   1      -1.689  -1.157   1.058  0.00  0.00    -0.071 SA
ATOM      9  C   UNL d   1      -2.515   0.143   0.277  0.00  0.00     0.018 A 
ATOM     10  C   UNL d   1       2.040  -0.324   1.143  0.00  0.00     0.187 A 
ATOM     11  O   UNL d   1       1.011   2.564  -0.640  0.00  0.00    -0.267 OA
ENDROOT
BRANCH   4  12
ATOM     12  C   UNL d   1       3.419   1.292  -0.086  0.00  0.00     0.236 C 
BRANCH  12  13
ATOM     13  C   UNL d   1       4.037   2.516   0.589  0.00  0.00     0.243 C 
ATOM     14  N   UNL d   1       3.237   3.642   0.644  0.00  0.00    -0.278 N 
ATOM     15  C   UNL d   1       3.584   4.925   0.990  0.00  0.00     0.322 C 
ATOM     16  H   UNL d   1       2.274   3.581   0.324  0.00  0.00     0.173 HD
ATOM     17  O   UNL d   1       2.730   5.805   1.021  0.00  0.00    -0.247 OA
ATOM     18  N   UNL d   1       4.905   5.137   1.250  0.00  0.00    -0.347 N 
ATOM     19  C   UNL d   1       5.455   6.423   1.591  0.00  0.00     0.151 C 
ATOM     20  H   UNL d   1       5.515   4.323   1.261  0.00  0.00     0.163 HD
ATOM     21  O   UNL d   1       5.227   2.513   0.914  0.00  0.00    -0.271 OA
ENDBRANCH  12  13
ENDBRANCH   4  12
BRANCH   9  22
ATOM     22  C   UNL d   1      -3.988   0.113   0.116  0.00  0.00    -0.019 A 
ATOM     23  C   UNL d   1      -4.619   0.900  -0.863  0.00  0.00     0.013 A 
ATOM     24  C   UNL d   1      -6.011   0.892  -1.012  0.00  0.00     0.001 A 
ATOM     25  C   UNL d   1      -6.800   0.097  -0.189  0.00  0.00     0.000 A 
ATOM     26  C   UNL d   1      -6.199  -0.692   0.787  0.00  0.00     0.001 A 
ATOM     27  C   UNL d   1      -4.809  -0.679   0.938  0.00  0.00     0.013 A 
ENDBRANCH   9  22
TORSDOF 3
