REMARK  4 active torsions:
REMARK  status: ('A' for Active; 'I' for Inactive)
REMARK    1  A    between atoms: C_14  and  N_2 
REMARK    2  A    between atoms: C_9  and  C_3 
REMARK    3  A    between atoms: C_16  and  C_8 
REMARK    4  A    between atoms: N_10  and  C_15 
ROOT
ATOM      1  C   UNL d   1      -1.267   0.050   0.018  0.00  0.00     0.161 A 
ATOM      2  N   UNL d   1      -3.412  -0.581  -0.602  0.00  0.00    -0.281 N 
ATOM      3  C   UNL d   1      -2.316   0.142   1.099  0.00  0.00     0.064 C 
ATOM      4  N   UNL d   1      -3.494  -0.273   0.732  0.00  0.00    -0.299 N 
ATOM      5  HN  UNL d   1      -4.321  -0.353   1.324  1.00  0.00     0.187 HD
ATOM      6  C   UNL d   1      -0.320   1.216  -0.135  0.00  0.00     0.185 A 
ATOM      7  C   UNL d   1      -0.339  -1.134   0.200  0.00  0.00     0.185 A 
ATOM      8  C   UNL d   1      -2.178  -0.065  -1.210  0.00  0.00     0.171 C 
ATOM      9  C   UNL d   1       1.036  -0.673   0.050  0.00  0.00     0.025 A 
ATOM     10  C   UNL d   1       1.051   0.703  -0.121  0.00  0.00     0.025 A 
ATOM     11  O   UNL d   1      -0.612  -2.270   0.548  0.00  0.00    -0.290 OA
ATOM     12  O   UNL d   1      -0.598   2.394  -0.257  0.00  0.00    -0.290 OA
ATOM     13  C   UNL d   1       2.195  -1.419   0.159  0.00  0.00     0.016 A 
ATOM     14  C   UNL d   1       2.243   1.401  -0.195  0.00  0.00     0.016 A 
ATOM     15  C   UNL d   1       3.405  -0.732   0.082  0.00  0.00     0.001 A 
ATOM     16  C   UNL d   1       3.431   0.666  -0.093  0.00  0.00     0.001 A 
ENDROOT
BRANCH   3  17
ATOM     17  C   UNL d   1      -2.013   0.554   2.500  0.00  0.00     0.011 A 
ATOM     18  C   UNL d   1      -2.896   1.337   3.264  0.00  0.00     0.048 A 
ATOM     19  C   UNL d   1      -2.619   1.600   4.614  0.00  0.00     0.048 A 
ATOM     20 CL   UNL d   1      -4.322   2.061   2.610  0.00  0.00    -0.083 Cl
ATOM     21  C   UNL d   1      -1.464   1.096   5.205  0.00  0.00     0.035 A 
ATOM     22  C   UNL d   1      -0.567   0.345   4.455  0.00  0.00     0.025 A 
ATOM     23 CL   UNL d   1      -1.146   1.377   6.870  0.00  0.00    -0.084 Cl
ATOM     24  C   UNL d   1      -0.846   0.073   3.114  0.00  0.00     0.017 A 
ENDBRANCH   3  17
BRANCH   8  25
ATOM     25  C   UNL d   1      -1.611  -0.913  -2.342  0.00  0.00    -0.032 A 
ATOM     26  C   UNL d   1      -0.862  -0.299  -3.357  0.00  0.00     0.010 A 
ATOM     27  C   UNL d   1      -0.373  -1.045  -4.432  0.00  0.00     0.007 A 
ATOM     28  C   UNL d   1      -0.623  -2.420  -4.518  0.00  0.00    -0.062 A 
ATOM     29  C   UNL d   1      -1.315  -3.048  -3.481  0.00  0.00     0.007 A 
ATOM     30  C   UNL d   1      -0.195  -3.186  -5.734  0.00  0.00     0.048 C 
ATOM     31  C   UNL d   1      -1.794  -2.305  -2.402  0.00  0.00     0.010 A 
ENDBRANCH   8  25
BRANCH   2  32
ATOM     32  C   UNL d   1      -4.559  -0.984  -1.278  0.00  0.00     0.051 A 
ATOM     33  C   UNL d   1      -5.390  -1.959  -0.697  0.00  0.00     0.033 A 
ATOM     34  C   UNL d   1      -6.471  -2.515  -1.390  0.00  0.00     0.038 A 
ATOM     35  C   UNL d   1      -6.761  -2.061  -2.679  0.00  0.00     0.103 A 
ATOM     36  C   UNL d   1      -5.988  -1.051  -3.262  0.00  0.00     0.038 A 
ATOM     37  C   UNL d   1      -4.892  -0.527  -2.562  0.00  0.00     0.033 A 
BRANCH  35  38
ATOM     38  N   UNL d   1      -7.868  -2.663  -3.432  0.00  0.00    -0.116 N 
ATOM     39  O   UNL d   1      -8.105  -2.217  -4.565  0.00  0.00    -0.532 OA
ATOM     40  O   UNL d   1      -8.495  -3.589  -2.898  0.00  0.00    -0.532 OA
ENDBRANCH  35  38
ENDBRANCH   2  32
TORSDOF 4
