REMARK  0 active torsions:
REMARK  status: ('A' for Active; 'I' for Inactive)
ROOT
ATOM      1  C   UNL d   1       2.832  -1.089  -0.362  0.00  0.00     0.051 A 
ATOM      2  C   UNL d   1       1.581  -0.482  -0.102  0.00  0.00    -0.031 A 
ATOM      3  C   UNL d   1       1.545   0.923   0.187  0.00  0.00    -0.050 A 
ATOM      4  N   UNL d   1       3.172  -3.605  -0.918  0.00  0.00    -0.191 NA
ATOM      5  C   UNL d   1       2.991  -2.480  -0.670  0.00  0.00     0.100 C 
ATOM      6  C   UNL d   1       4.006  -0.319  -0.328  0.00  0.00     0.030 A 
ATOM      7  C   UNL d   1       2.744   1.660   0.195  0.00  0.00     0.014 A 
ATOM      8  C   UNL d   1       3.975   1.049  -0.049  0.00  0.00    -0.060 A 
ATOM      9  C   UNL d   1       0.267   1.660   0.606  0.00  0.00     0.039 C 
ATOM     10  C   UNL d   1       0.254  -1.196  -0.202  0.00  0.00     0.040 C 
ATOM     11  C   UNL d   1       5.258   1.828  -0.001  0.00  0.00     0.048 C 
ATOM     12  C   UNL d   1      -0.784   1.970  -0.479  0.00  0.00     0.005 C 
ATOM     13  C   UNL d   1      -0.008  -2.698  -0.111  0.00  0.00     0.005 C 
ATOM     14  C   UNL d   1      -1.516  -3.065  -0.196  0.00  0.00     0.000 C 
ATOM     15  C   UNL d   1      -2.137   2.395   0.140  0.00  0.00     0.000 C 
ATOM     16  C   UNL d   1      -2.518  -2.140   0.530  0.00  0.00     0.000 C 
ATOM     17  C   UNL d   1      -3.393   1.582  -0.247  0.00  0.00     0.000 C 
ATOM     18  C   UNL d   1      -2.883  -0.906  -0.309  0.00  0.00     0.000 C 
ATOM     19  C   UNL d   1      -3.561   0.223   0.462  0.00  0.00     0.000 C 
ENDROOT
TORSDOF 0
