REMARK  4 active torsions:
REMARK  status: ('A' for Active; 'I' for Inactive)
REMARK    1  A    between atoms: N_10  and  C_1 
REMARK    2  A    between atoms: C_6  and  S_17 
REMARK       I    between atoms: C_15  and  N_10 
REMARK    3  A    between atoms: C_20  and  C_15 
REMARK    4  A    between atoms: S_17  and  C_20 
ROOT
ATOM      1  C   UNL d   1       2.407  -0.980   0.203  0.00  0.00     0.098 C 
ATOM      2  C   UNL d   1       1.913   0.310   0.310  0.00  0.00     0.085 C 
ATOM      3  C   UNL d   1       0.474   0.350   0.233  0.00  0.00    -0.021 C 
ATOM      4  C   UNL d   1      -0.050  -0.927   0.208  0.00  0.00    -0.007 C 
ATOM      5  S   UNL d   1       1.139  -2.122   0.289  0.00  0.00    -0.075 SA
ATOM      6  C   UNL d   1       2.742   1.476   0.408  0.00  0.00     0.103 C 
ATOM      7  N   UNL d   1       3.417   2.418   0.510  0.00  0.00    -0.191 NA
ATOM      8  C   UNL d   1      -0.415   1.561   0.123  0.00  0.00     0.042 C 
ATOM      9  C   UNL d   1      -1.501  -1.284   0.133  0.00  0.00     0.051 C 
ATOM     10  C   UNL d   1      -1.909   1.213   0.284  0.00  0.00     0.009 C 
ATOM     11  C   UNL d   1      -2.326  -0.102  -0.412  0.00  0.00    -0.014 C 
ATOM     12  C   UNL d   1      -2.225  -0.006  -1.938  0.00  0.00     0.010 C 
ENDROOT
BRANCH   1  13
ATOM     13  N   UNL d   1       3.728  -1.425   0.105  0.00  0.00    -0.319 N 
ATOM     14  C   UNL d   1       4.095  -2.672  -0.406  0.00  0.00     0.232 C 
ATOM     15  O   UNL d   1       3.332  -3.523  -0.860  0.00  0.00    -0.272 OA
ATOM     16  H   UNL d   1       4.453  -0.718   0.187  0.00  0.00     0.169 HD
BRANCH  14  17
ATOM     17  C   UNL d   1       5.595  -2.929  -0.423  0.00  0.00     0.184 C 
BRANCH  17  18
ATOM     18  S   UNL d   1       6.178  -3.054  -2.154  0.00  0.00    -0.096 SA
BRANCH  18  19
ATOM     19  C   UNL d   1       6.262  -1.342  -2.479  0.00  0.00     0.113 C 
ATOM     20  N   UNL d   1       7.321  -0.667  -2.107  0.00  0.00    -0.344 N 
ATOM     21  C   UNL d   1       7.010   0.677  -2.066  0.00  0.00     0.050 A 
ATOM     22  HN  UNL d   1       8.230  -1.071  -1.883  1.00  0.00     0.167 HD
ATOM     23  C   UNL d   1       7.857   1.697  -1.595  0.00  0.00     0.031 A 
ATOM     24  C   UNL d   1       5.707   1.000  -2.452  0.00  0.00     0.034 A 
ATOM     25  C   UNL d   1       7.347   2.986  -1.422  0.00  0.00     0.002 A 
ATOM     26  C   UNL d   1       6.028   3.273  -1.758  0.00  0.00     0.002 A 
ATOM     27  C   UNL d   1       5.197   2.298  -2.318  0.00  0.00     0.021 A 
ATOM     28  S   UNL d   1       4.930  -0.424  -3.031  0.00  0.00    -0.063 SA
ENDBRANCH  18  19
ENDBRANCH  17  18
ENDBRANCH  14  17
ENDBRANCH   1  13
TORSDOF 4
