REMARK  7 active torsions:
REMARK  status: ('A' for Active; 'I' for Inactive)
REMARK    1  A    between atoms: N_4  and  C_1 
REMARK    2  A    between atoms: N_5  and  C_1 
REMARK    3  A    between atoms: N_2  and  C_8 
REMARK    4  A    between atoms: N_7  and  N_4 
REMARK    5  A    between atoms: C_12  and  N_5 
REMARK    6  A    between atoms: C_8  and  C_9 
REMARK    7  A    between atoms: C_9  and  C_12 
ROOT
ATOM      1  N   UNL d   1       2.219  -0.061   0.002  0.00  0.00    -0.366 N 
ATOM      2  H   UNL d   1       1.863  -0.546   0.813  0.00  0.00     0.161 HD
ENDROOT
BRANCH   1   3
ATOM      3  C   UNL d   1       1.743   1.216  -0.169  0.00  0.00     0.181 C 
ATOM      4  S   UNL d   1       1.948   2.179  -1.516  0.00  0.00    -0.040 SA
BRANCH   3   5
ATOM      5  N   UNL d   1       1.043   1.714   0.909  0.00  0.00    -0.300 N 
ATOM      6  H   UNL d   1       0.725   2.682   0.824  0.00  0.00     0.183 HD
BRANCH   5   7
ATOM      7  N   UNL d   1       1.101   1.143   2.193  0.00  0.00    -0.248 NA
ATOM      8  H   UNL d   1       2.048   0.789   2.354  0.00  0.00     0.143 HD
ATOM      9  H   UNL d   1       0.449   0.361   2.244  0.00  0.00     0.143 HD
ENDBRANCH   5   7
ENDBRANCH   3   5
ENDBRANCH   1   3
BRANCH   1  10
ATOM     10  C   UNL d   1       3.022  -0.836  -0.932  0.00  0.00     0.123 C 
BRANCH  10  11
ATOM     11  C   UNL d   1       4.519  -0.613  -0.713  0.00  0.00     0.050 C 
BRANCH  11  12
ATOM     12  C   UNL d   1       5.319  -1.363  -1.784  0.00  0.00     0.274 C 
BRANCH  12  13
ATOM     13  N   UNL d   1       6.781  -1.235  -1.662  0.00  0.00     0.092 N 
ATOM     14  C   UNL d   1       7.271   0.157  -1.800  0.00  0.00     0.298 C 
ATOM     15  C   UNL d   1       7.122   0.727  -3.220  0.00  0.00     0.198 C 
ATOM     16  O   UNL d   1       7.808  -0.091  -4.178  0.00  0.00    -0.388 OA
ATOM     17  C   UNL d   1       7.341  -1.444  -4.129  0.00  0.00     0.198 C 
ATOM     18  C   UNL d   1       7.460  -2.038  -2.711  0.00  0.00     0.298 C 
ENDBRANCH  12  13
ENDBRANCH  11  12
ENDBRANCH  10  11
ENDBRANCH   1  10
TORSDOF 7
