REMARK  5 active torsions:
REMARK  status: ('A' for Active; 'I' for Inactive)
REMARK    1  A    between atoms: C_2  and  N_1 
REMARK       I    between atoms: C_3  and  N_1 
REMARK    2  A    between atoms: N_4  and  C_2 
REMARK    3  A    between atoms: C_7  and  C_3 
REMARK    4  A    between atoms: C_11  and  N_4 
REMARK    5  A    between atoms: C_12  and  C_8 
ROOT
ATOM      1  C   UNL d   1      -0.659   2.581  -0.719  0.00  0.00     0.179 C 
ATOM      2  S   UNL d   1      -1.814   2.880   0.471  0.00  0.00    -0.040 SA
ENDROOT
BRANCH   1   3
ATOM      3  N   UNL d   1      -1.103   1.849  -1.773  0.00  0.00    -0.299 N 
ATOM      4  C   UNL d   1      -0.659   1.707  -3.075  0.00  0.00     0.257 C 
ATOM      5  O   UNL d   1       0.378   1.114  -3.374  0.00  0.00    -0.267 OA
ATOM      6  H   UNL d   1      -2.106   1.760  -1.681  0.00  0.00     0.171 HD
BRANCH   4   7
ATOM      7  C   UNL d   1      -1.559   2.162  -4.182  0.00  0.00     0.032 A 
ATOM      8  C   UNL d   1      -1.095   1.980  -5.497  0.00  0.00     0.017 A 
ATOM      9  C   UNL d   1      -1.708   2.627  -6.570  0.00  0.00     0.001 A 
ATOM     10  C   UNL d   1      -2.820   3.433  -6.346  0.00  0.00     0.000 A 
ATOM     11  C   UNL d   1      -3.365   3.523  -5.066  0.00  0.00     0.001 A 
ATOM     12  C   UNL d   1      -2.746   2.884  -3.983  0.00  0.00     0.017 A 
ENDBRANCH   4   7
ENDBRANCH   1   3
BRANCH   1  13
ATOM     13  N   UNL d   1       0.512   3.207  -0.552  0.00  0.00    -0.333 N 
ATOM     14  H   UNL d   1       0.392   3.887   0.195  0.00  0.00     0.168 HD
BRANCH  13  15
ATOM     15  C   UNL d   1       1.884   3.023  -0.824  0.00  0.00     0.034 A 
ATOM     16  C   UNL d   1       2.740   4.003  -0.275  0.00  0.00     0.030 A 
ATOM     17  C   UNL d   1       4.136   3.856  -0.251  0.00  0.00     0.010 A 
ATOM     18  C   UNL d   1       4.746   2.727  -0.801  0.00  0.00    -0.055 A 
ATOM     19  C   UNL d   1       3.894   1.788  -1.416  0.00  0.00     0.010 A 
ATOM     20  C   UNL d   1       2.488   1.927  -1.416  0.00  0.00     0.030 A 
BRANCH  18  21
ATOM     21  C   UNL d   1       6.240   2.431  -0.636  0.00  0.00     0.010 C 
ATOM     22  C   UNL d   1       6.935   2.061  -1.951  0.00  0.00     0.015 C 
ATOM     23  C   UNL d   1       7.074   3.528   0.053  0.00  0.00     0.015 C 
ENDBRANCH  18  21
ENDBRANCH  13  15
ENDBRANCH   1  13
TORSDOF 5
