REMARK  7 active torsions:
REMARK  status: ('A' for Active; 'I' for Inactive)
REMARK    1  A    between atoms: C_8  and  N_1 
REMARK    2  A    between atoms: S_9  and  C_2 
REMARK    3  A    between atoms: O_26  and  C_3 
REMARK    4  A    between atoms: C_12  and  C_8 
REMARK    5  A    between atoms: C_18  and  S_9 
REMARK    6  A    between atoms: C_11  and  C_14 
REMARK    7  A    between atoms: C_14  and  C_18 
ROOT
ATOM      1  N   UNL d   1       0.649   0.699  -0.710  0.00  0.00    -0.285 N 
ATOM      2  C   UNL d   1       1.236  -0.502  -1.000  0.00  0.00     0.165 A 
ATOM      3  C   UNL d   1      -0.486   0.732  -1.482  0.00  0.00     0.240 A 
ATOM      4  N   UNL d   1       0.527  -1.137  -1.905  0.00  0.00    -0.277 N 
ATOM      5  HN  UNL d   1       0.739  -2.054  -2.300  1.00  0.00     0.189 HD
ATOM      6  N   UNL d   1      -0.552  -0.345  -2.225  0.00  0.00    -0.263 N 
ATOM      7  HN  UNL d   1      -1.272  -0.558  -2.915  1.00  0.00     0.190 HD
ENDROOT
BRANCH   2   8
ATOM      8  S   UNL d   1       2.695  -1.100  -0.281  0.00  0.00    -0.085 SA
BRANCH   8   9
ATOM      9  C   UNL d   1       2.782  -2.764  -1.047  0.00  0.00     0.166 C 
BRANCH   9  10
ATOM     10  C   UNL d   1       4.057  -3.493  -0.645  0.00  0.00     0.169 C 
ATOM     11  O   UNL d   1       5.131  -2.927  -0.444  0.00  0.00    -0.291 OA
BRANCH  10  12
ATOM     12  C   UNL d   1       4.000  -4.977  -0.477  0.00  0.00     0.013 A 
ATOM     13  C   UNL d   1       3.113  -5.782  -1.203  0.00  0.00     0.054 A 
ATOM     14  C   UNL d   1       3.017  -7.146  -0.907  0.00  0.00     0.103 A 
ATOM     15  O   UNL d   1       2.079  -7.865  -1.604  0.00  0.00    -0.346 OA
ATOM     16  C   UNL d   1       3.833  -7.722   0.072  0.00  0.00     0.102 A 
ATOM     17  C   UNL d   1       1.704  -9.040  -0.876  0.00  0.00     0.202 C 
ATOM     18  C   UNL d   1       2.932  -9.815  -0.426  0.00  0.00     0.202 C 
ATOM     19  O   UNL d   1       3.760  -9.037   0.446  0.00  0.00    -0.346 OA
ATOM     20  C   UNL d   1       4.758  -6.934   0.752  0.00  0.00     0.040 A 
ATOM     21  C   UNL d   1       4.845  -5.566   0.476  0.00  0.00     0.018 A 
ENDBRANCH  10  12
ENDBRANCH   9  10
ENDBRANCH   8   9
ENDBRANCH   2   8
BRANCH   1  22
ATOM     22  C   UNL d   1       1.123   1.776   0.131  0.00  0.00     0.200 C 
BRANCH  22  23
ATOM     23  C   UNL d   1       0.351   1.820   1.398  0.00  0.00     0.070 A 
ATOM     24  O   UNL d   1      -0.882   2.407   1.339  0.00  0.00    -0.325 OA
ATOM     25  C   UNL d   1      -1.417   2.331   2.587  0.00  0.00     0.142 A 
ATOM     26  C   UNL d   1      -0.542   1.707   3.445  0.00  0.00     0.027 A 
ATOM     27  C   UNL d   1       0.601   1.380   2.679  0.00  0.00     0.036 A 
ENDBRANCH  22  23
ENDBRANCH   1  22
BRANCH   3  28
ATOM     28  O   UNL d   1      -1.390   1.699  -1.501  0.00  0.00    -0.331 OA
ATOM     29  H   UNL d   1      -1.380   2.152  -0.639  0.00  0.00     0.221 HD
ENDBRANCH   3  28
TORSDOF 7
