REMARK  4 active torsions:
REMARK  status: ('A' for Active; 'I' for Inactive)
REMARK    1  A    between atoms: S_10  and  C_1 
REMARK    2  A    between atoms: C_5  and  C_4 
REMARK    3  A    between atoms: C_9  and  C_5 
REMARK    4  A    between atoms: C_8  and  S_10 
ROOT
ATOM      1  C   UNL d   1       4.292   3.555  -0.163  0.00  0.00     0.063 C 
ATOM      2  C   UNL d   1       3.419   2.565   0.062  0.00  0.00     0.057 C 
ENDROOT
BRANCH   2   3
ATOM      3  S   UNL d   1       1.717   2.888   0.111  0.00  0.00    -0.066 SA
BRANCH   3   4
ATOM      4  C   UNL d   1       1.033   1.261   0.355  0.00  0.00     0.148 A 
ATOM      5  N   UNL d   1      -0.139   1.211   1.011  0.00  0.00    -0.341 N 
ATOM      6  C   UNL d   1      -0.696  -0.002   1.195  0.00  0.00     0.008 A 
ATOM      7  HN  UNL d   1      -0.589   2.059   1.356  1.00  0.00     0.167 HD
ATOM      8  C   UNL d   1      -1.999  -0.051   1.933  0.00  0.00     0.068 C 
ATOM      9  C   UNL d   1      -0.105  -1.160   0.734  0.00  0.00     0.041 A 
ATOM     10  C   UNL d   1       1.088  -1.004   0.068  0.00  0.00     0.092 A 
ATOM     11  N   UNL d   1       1.678   0.189  -0.139  0.00  0.00    -0.346 N 
ATOM     12  HN  UNL d   1       2.562   0.274  -0.641  1.00  0.00     0.167 HD
ENDBRANCH   3   4
ENDBRANCH   2   3
BRANCH   1  13
ATOM     13  C   UNL d   1       5.769   3.402  -0.245  0.00  0.00     0.182 C 
ATOM     14  O   UNL d   1       6.477   4.356   0.066  0.00  0.00    -0.288 OA
BRANCH  13  15
ATOM     15  C   UNL d   1       6.395   2.135  -0.710  0.00  0.00     0.014 A 
ATOM     16  C   UNL d   1       5.770   1.274  -1.619  0.00  0.00     0.016 A 
ATOM     17  C   UNL d   1       6.400   0.091  -2.014  0.00  0.00     0.007 A 
ATOM     18  C   UNL d   1       7.678  -0.228  -1.540  0.00  0.00    -0.062 A 
ATOM     19  C   UNL d   1       8.319   0.655  -0.664  0.00  0.00     0.007 A 
ATOM     20  C   UNL d   1       8.338  -1.501  -1.980  0.00  0.00     0.048 C 
ATOM     21  C   UNL d   1       7.684   1.830  -0.254  0.00  0.00     0.016 A 
ENDBRANCH  13  15
ENDBRANCH   1  13
TORSDOF 4
