REMARK  4 active torsions:
REMARK  status: ('A' for Active; 'I' for Inactive)
REMARK    1  A    between atoms: C_3  and  C_1 
REMARK       I    between atoms: C_4  and  N_9 
REMARK    2  A    between atoms: C_10  and  C_4 
REMARK    3  A    between atoms: C_15  and  C_6 
REMARK    4  A    between atoms: N_9  and  C_15 
ROOT
ATOM      1  C   UNL d   1       0.944  -4.852  -0.228  0.00  0.00     0.251 C 
ATOM      2  N   UNL d   1       1.058  -3.482  -0.156  0.00  0.00    -0.352 N 
ATOM      3  O   UNL d   1      -0.124  -5.447  -0.135  0.00  0.00    -0.268 OA
ATOM      4  H   UNL d   1       1.959  -3.064   0.029  0.00  0.00     0.163 HD
ENDROOT
BRANCH   2   5
ATOM      5  C   UNL d   1      -0.124  -2.675   0.038  0.00  0.00     0.169 C 
BRANCH   5   6
ATOM      6  C   UNL d   1       0.271  -1.234   0.093  0.00  0.00     0.001 A 
ATOM      7  S   UNL d   1       0.639  -0.506   1.597  0.00  0.00    -0.092 SA
ATOM      8  C   UNL d   1       0.880   1.041   0.891  0.00  0.00     0.022 A 
ATOM      9  C   UNL d   1       0.731   0.975  -0.484  0.00  0.00     0.021 A 
ATOM     10  C   UNL d   1       0.384  -0.332  -0.943  0.00  0.00     0.018 A 
BRANCH   8  11
ATOM     11  C   UNL d   1       1.177   2.201   1.703  0.00  0.00     0.021 A 
ATOM     12  S   UNL d   1       0.743   3.787   1.197  0.00  0.00    -0.101 SA
ATOM     13  C   UNL d   1       1.335   4.492   2.635  0.00  0.00     0.050 A 
ATOM     14  C   UNL d   1       1.876   3.555   3.483  0.00  0.00     0.008 A 
ATOM     15  C   UNL d   1       1.788   2.237   2.945  0.00  0.00     0.021 A 
ENDBRANCH   8  11
ENDBRANCH   5   6
ENDBRANCH   2   5
BRANCH   1  16
ATOM     16  C   UNL d   1       2.208  -5.612  -0.416  0.00  0.00     0.032 A 
ATOM     17  C   UNL d   1       2.290  -6.918   0.086  0.00  0.00     0.018 A 
ATOM     18  C   UNL d   1       3.443  -7.681  -0.124  0.00  0.00     0.025 A 
ATOM     19  C   UNL d   1       4.506  -7.140  -0.846  0.00  0.00     0.034 A 
ATOM     20  C   UNL d   1       4.432  -5.843  -1.352  0.00  0.00     0.025 A 
ATOM     21 CL   UNL d   1       5.913  -8.088  -1.134  0.00  0.00    -0.084 Cl
ATOM     22  C   UNL d   1       3.282  -5.077  -1.139  0.00  0.00     0.018 A 
ENDBRANCH   1  16
TORSDOF 4
