REMARK  8 active torsions:
REMARK  status: ('A' for Active; 'I' for Inactive)
REMARK    1  A    between atoms: N_10  and  C_3 
REMARK    2  A    between atoms: N_11  and  C_4 
REMARK       I    between atoms: C_5  and  N_7 
REMARK    3  A    between atoms: C_8  and  C_5 
REMARK    4  A    between atoms: N_7  and  C_6 
REMARK    5  A    between atoms: C_18  and  N_10 
REMARK    6  A    between atoms: C_19  and  N_10 
REMARK    7  A    between atoms: C_20  and  N_11 
REMARK    8  A    between atoms: C_21  and  N_11 
ROOT
ATOM      1  N   UNL d   1      -1.327   0.043  -0.154  0.00  0.00    -0.327 N 
ATOM      2  HN  UNL d   1      -2.306   0.023  -0.442  1.00  0.00     0.169 HD
ATOM      3  C   UNL d   1      -0.693   1.247  -0.035  0.00  0.00     0.132 A 
ATOM      4  C   UNL d   1      -0.689  -1.125   0.101  0.00  0.00     0.104 A 
ATOM      5  C   UNL d   1       0.678   1.265   0.290  0.00  0.00     0.079 A 
ATOM      6  C   UNL d   1       0.654  -1.121   0.458  0.00  0.00     0.051 A 
ATOM      7  C   UNL d   1       1.343   0.074   0.556  0.00  0.00     0.037 A 
ENDROOT
BRANCH   5   8
ATOM      8  N   UNL d   1       1.466   2.433   0.384  0.00  0.00    -0.319 N 
ATOM      9  C   UNL d   1       1.963   3.044  -0.762  0.00  0.00     0.263 C 
ATOM     10  O   UNL d   1       1.625   2.741  -1.903  0.00  0.00    -0.267 OA
ATOM     11  H   UNL d   1       2.145   2.447   1.138  0.00  0.00     0.169 HD
BRANCH   9  12
ATOM     12  C   UNL d   1       3.009   4.036  -0.500  0.00  0.00     0.072 A 
ATOM     13  S   UNL d   1       3.336   4.614   1.086  0.00  0.00    -0.097 SA
ATOM     14  C   UNL d   1       4.572   5.654   0.533  0.00  0.00     0.050 A 
ATOM     15  C   UNL d   1       4.750   5.562  -0.828  0.00  0.00     0.009 A 
ATOM     16  C   UNL d   1       3.849   4.631  -1.423  0.00  0.00     0.025 A 
ENDBRANCH   9  12
ENDBRANCH   5   8
BRANCH   3  17
ATOM     17  N   UNL d   1      -1.461   2.401  -0.169  0.00  0.00    -0.366 N 
BRANCH  17  18
ATOM     18  C   UNL d   1      -2.668   2.327  -0.994  0.00  0.00     0.120 C 
ATOM     19  C   UNL d   1      -3.934   2.139  -0.172  0.00  0.00     0.026 C 
ENDBRANCH  17  18
BRANCH  17  20
ATOM     20  C   UNL d   1      -1.265   3.601   0.647  0.00  0.00     0.120 C 
ATOM     21  C   UNL d   1      -1.367   3.333   2.143  0.00  0.00     0.026 C 
ENDBRANCH  17  20
ENDBRANCH   3  17
BRANCH   4  22
ATOM     22  N   UNL d   1      -1.387  -2.325   0.029  0.00  0.00    -0.368 N 
BRANCH  22  23
ATOM     23  C   UNL d   1      -2.520  -2.418  -0.888  0.00  0.00     0.120 C 
ATOM     24  C   UNL d   1      -3.851  -2.406  -0.156  0.00  0.00     0.026 C 
ENDBRANCH  22  23
BRANCH  22  25
ATOM     25  C   UNL d   1      -1.045  -3.487   0.847  0.00  0.00     0.120 C 
ATOM     26  C   UNL d   1      -1.284  -3.226   2.330  0.00  0.00     0.026 C 
ENDBRANCH  22  25
ENDBRANCH   4  22
TORSDOF 8
