REMARK  2 active torsions:
REMARK  status: ('A' for Active; 'I' for Inactive)
REMARK    1  A    between atoms: N_3  and  C_1 
REMARK    2  A    between atoms: C_4  and  N_3 
ROOT
ATOM      1  C   UNL d   1       2.142  -2.858   1.361  0.00  0.00     0.082 A 
ATOM      2  C   UNL d   1       1.290  -3.210   0.289  0.00  0.00     0.057 A 
ATOM      3  C   UNL d   1       3.408  -3.451   1.489  0.00  0.00     0.058 A 
ATOM      4 CL   UNL d   1       1.594  -1.666   2.504  0.00  0.00    -0.080 Cl
ATOM      5 CL   UNL d   1       4.503  -3.040   2.764  0.00  0.00    -0.082 Cl
ATOM      6  C   UNL d   1       1.742  -4.178  -0.621  0.00  0.00     0.031 A 
ATOM      7  C   UNL d   1       2.997  -4.774  -0.486  0.00  0.00     0.004 A 
ATOM      8  C   UNL d   1       3.833  -4.406   0.564  0.00  0.00     0.026 A 
ENDROOT
BRANCH   2   9
ATOM      9  N   UNL d   1       0.043  -2.568   0.130  0.00  0.00    -0.336 N 
ATOM     10  H   UNL d   1      -0.252  -2.011   0.924  0.00  0.00     0.168 HD
BRANCH   9  11
ATOM     11  C   UNL d   1      -0.632  -2.337  -1.029  0.00  0.00     0.140 C 
ATOM     12  N   UNL d   1      -0.339  -2.696  -2.234  0.00  0.00    -0.370 N 
ATOM     13  C   UNL d   1      -1.313  -2.135  -3.185  0.00  0.00     0.132 C 
ATOM     14  HN  UNL d   1       0.455  -3.284  -2.490  1.00  0.00     0.161 HD
ATOM     15  C   UNL d   1      -2.639  -1.915  -2.484  0.00  0.00     0.102 C 
ATOM     16  S   UNL d   1      -2.115  -1.418  -0.834  0.00  0.00    -0.093 SA
ENDBRANCH   9  11
ENDBRANCH   2   9
TORSDOF 2
