REMARK  3 active torsions:
REMARK  status: ('A' for Active; 'I' for Inactive)
REMARK       I    between atoms: N_3  and  C_1 
REMARK    1  A    between atoms: C_5  and  C_1 
REMARK       I    between atoms: C_2  and  N_3 
REMARK    2  A    between atoms: C_4  and  C_2 
REMARK    3  A    between atoms: O_11  and  C_7 
ROOT
ATOM      1  C   UNL d   1       1.113   0.217   0.156  0.00  0.00     0.261 C 
ATOM      2  C   UNL d   1       1.097   1.758  -1.747  0.00  0.00     0.260 C 
ATOM      3  N   UNL d   1       0.497   0.819  -0.926  0.00  0.00    -0.289 N 
ATOM      4  O   UNL d   1       2.254   0.437   0.550  0.00  0.00    -0.267 OA
ATOM      5  O   UNL d   1       2.233   2.196  -1.605  0.00  0.00    -0.267 OA
ATOM      6  H   UNL d   1      -0.480   0.622  -1.086  0.00  0.00     0.172 HD
ENDROOT
BRANCH   2   7
ATOM      7  C   UNL d   1       0.317   2.218  -2.936  0.00  0.00     0.054 A 
ATOM      8  C   UNL d   1      -1.081   2.296  -3.019  0.00  0.00     0.049 A 
ATOM      9 CL   UNL d   1      -2.136   1.958  -1.692  0.00  0.00    -0.083 Cl
ATOM     10  C   UNL d   1      -1.691   2.691  -4.218  0.00  0.00     0.025 A 
ATOM     11  C   UNL d   1      -0.921   3.022  -5.333  0.00  0.00     0.002 A 
ATOM     12  C   UNL d   1       0.467   2.979  -5.252  0.00  0.00     0.001 A 
ATOM     13  C   UNL d   1       1.080   2.584  -4.062  0.00  0.00     0.019 A 
ENDBRANCH   2   7
BRANCH   1  14
ATOM     14  C   UNL d   1       0.298  -0.750   0.942  0.00  0.00     0.065 A 
ATOM     15  C   UNL d   1       0.578  -0.923   2.306  0.00  0.00     0.081 A 
ATOM     16  C   UNL d   1      -0.166  -1.808   3.083  0.00  0.00     0.037 A 
ATOM     17  C   UNL d   1      -1.183  -2.559   2.495  0.00  0.00     0.003 A 
ATOM     18  C   UNL d   1      -1.451  -2.425   1.133  0.00  0.00     0.001 A 
ATOM     19  C   UNL d   1      -0.716  -1.523   0.353  0.00  0.00     0.020 A 
BRANCH  15  20
ATOM     20  O   UNL d   1       1.583  -0.253   2.953  0.00  0.00    -0.360 OA
ATOM     21  H   UNL d   1       2.159   0.164   2.269  0.00  0.00     0.217 HD
ENDBRANCH  15  20
ENDBRANCH   1  14
TORSDOF 3
