REMARK  2 active torsions:
REMARK  status: ('A' for Active; 'I' for Inactive)
REMARK    1  A    between atoms: C_7  and  C_2 
REMARK    2  A    between atoms: C_8  and  C_4 
ROOT
ATOM      1  C   UNL d   1      -0.474  -0.406  -0.003  0.00  0.00     0.125 A 
ATOM      2  C   UNL d   1       0.285  -1.530  -0.021  0.00  0.00     0.026 A 
ATOM      3  C   UNL d   1       0.205   0.923   0.033  0.00  0.00     0.267 A 
ATOM      4  C   UNL d   1       2.345  -0.205   0.062  0.00  0.00     0.070 A 
ATOM      5  N   UNL d   1       1.572   0.923   0.077  0.00  0.00    -0.320 N 
ATOM      6  C   UNL d   1       1.746  -1.403   0.015  0.00  0.00     0.048 A 
ATOM      7  C   UNL d   1      -1.897  -0.378   0.013  0.00  0.00     0.106 C 
ATOM      8  N   UNL d   1      -3.059  -0.354   0.047  0.00  0.00    -0.191 NA
ATOM      9  O   UNL d   1      -0.410   1.985   0.023  0.00  0.00    -0.266 OA
ATOM     10  H   UNL d   1       1.998   1.839   0.095  0.00  0.00     0.169 HD
ENDROOT
BRANCH   2  11
ATOM     11  C   UNL d   1      -0.350  -2.823  -0.089  0.00  0.00     0.086 A 
ATOM     12  O   UNL d   1      -1.540  -3.055  -0.746  0.00  0.00    -0.322 OA
ATOM     13  C   UNL d   1      -1.854  -4.367  -0.638  0.00  0.00     0.142 A 
ATOM     14  C   UNL d   1      -0.883  -5.031   0.063  0.00  0.00     0.027 A 
ATOM     15  C   UNL d   1       0.075  -4.050   0.416  0.00  0.00     0.040 A 
ENDBRANCH   2  11
BRANCH   4  16
ATOM     16  C   UNL d   1       3.770  -0.084   0.070  0.00  0.00     0.101 A 
ATOM     17  O   UNL d   1       4.629  -1.166  -0.008  0.00  0.00    -0.321 OA
ATOM     18  C   UNL d   1       5.904  -0.710  -0.007  0.00  0.00     0.142 A 
ATOM     19  C   UNL d   1       5.924   0.657   0.079  0.00  0.00     0.027 A 
ATOM     20  C   UNL d   1       4.569   1.057   0.137  0.00  0.00     0.041 A 
ENDBRANCH   4  16
TORSDOF 2
