REMARK  2 active torsions:
REMARK  status: ('A' for Active; 'I' for Inactive)
REMARK    1  A    between atoms: C_6  and  C_1 
REMARK    2  A    between atoms: C_15  and  N_9 
ROOT
ATOM      1  C   UNL d   1      -0.919   1.040  -0.108  0.00  0.00     0.177 A 
ATOM      2  S   UNL d   1      -1.445  -0.527  -0.597  0.00  0.00    -0.029 SA
ATOM      3  N   UNL d   1       0.220   1.025   0.554  0.00  0.00    -0.288 N 
ATOM      4  HN  UNL d   1       0.663   1.858   0.942  1.00  0.00     0.187 HD
ATOM      5  C   UNL d   1       0.012  -1.165   0.073  0.00  0.00     0.166 A 
ATOM      6  N   UNL d   1       0.742  -0.240   0.662  0.00  0.00    -0.279 N 
ATOM      7  HN  UNL d   1       1.613  -0.445   1.152  1.00  0.00     0.189 HD
ATOM      8  N   UNL d   1       0.301  -2.485  -0.028  0.00  0.00    -0.334 N 
ATOM      9  H   UNL d   1      -0.406  -3.096  -0.419  0.00  0.00     0.168 HD
ENDROOT
BRANCH   8  10
ATOM     10  C   UNL d   1       1.587  -3.058   0.037  0.00  0.00     0.049 A 
ATOM     11  C   UNL d   1       2.780  -2.333   0.104  0.00  0.00     0.117 A 
ATOM     12  N   UNL d   1       4.020  -2.877   0.196  0.00  0.00    -0.373 N 
ATOM     13  C   UNL d   1       4.088  -4.219   0.256  0.00  0.00     0.088 A 
ATOM     14  HN  UNL d   1       4.859  -2.296   0.218  1.00  0.00     0.164 HD
ATOM     15  C   UNL d   1       2.976  -5.040   0.226  0.00  0.00     0.019 A 
ATOM     16  C   UNL d   1       1.715  -4.450   0.120  0.00  0.00     0.032 A 
ENDBRANCH   8  10
BRANCH   1  17
ATOM     17  C   UNL d   1      -1.701   2.268  -0.428  0.00  0.00     0.440 C 
ATOM     18  F   UNL d   1      -2.818   2.016  -1.169  0.00  0.00    -0.164 F 
ATOM     19  F   UNL d   1      -2.128   2.909   0.693  0.00  0.00    -0.164 F 
ATOM     20  F   UNL d   1      -0.971   3.167  -1.138  0.00  0.00    -0.164 F 
ENDBRANCH   1  17
TORSDOF 2
