REMARK  0 active torsions:
REMARK  status: ('A' for Active; 'I' for Inactive)
ROOT
ATOM      1  C   UNL d   1       0.829  -0.405   0.022  0.00  0.00     0.058 A 
ATOM      2  C   UNL d   1       0.074  -1.679  -0.097  0.00  0.00     0.254 C 
ATOM      3  N   UNL d   1      -1.030   1.184  -0.550  0.00  0.00    -0.325 N 
ATOM      4  C   UNL d   1       0.313   0.869  -0.272  0.00  0.00     0.050 A 
ATOM      5  N   UNL d   1      -1.275  -1.699   0.097  0.00  0.00    -0.348 N 
ATOM      6  C   UNL d   1      -2.164   0.548  -0.125  0.00  0.00     0.239 C 
ATOM      7  O   UNL d   1       0.654  -2.726  -0.371  0.00  0.00    -0.268 OA
ATOM      8  C   UNL d   1      -2.022  -0.667   0.765  0.00  0.00     0.226 C 
ATOM      9  O   UNL d   1      -3.259   1.068  -0.346  0.00  0.00    -0.271 OA
ATOM     10  C   UNL d   1       2.197  -0.541   0.326  0.00  0.00     0.019 A 
ATOM     11  C   UNL d   1       1.196   1.964  -0.306  0.00  0.00     0.030 A 
ATOM     12  C   UNL d   1       3.047   0.563   0.340  0.00  0.00     0.001 A 
ATOM     13  C   UNL d   1       2.547   1.816   0.012  0.00  0.00     0.002 A 
ATOM     14  H   UNL d   1      -1.234   2.087  -0.963  0.00  0.00     0.169 HD
ATOM     15  H   UNL d   1      -1.673  -2.629   0.048  0.00  0.00     0.163 HD
ENDROOT
TORSDOF 0
