REMARK  6 active torsions:
REMARK  status: ('A' for Active; 'I' for Inactive)
REMARK       I    between atoms: N_2  and  C_1 
REMARK    1  A    between atoms: C_3  and  C_1 
REMARK    2  A    between atoms: C_7  and  N_2 
REMARK    3  A    between atoms: C_9  and  N_2 
REMARK    4  A    between atoms: C_5  and  C_4 
REMARK    5  A    between atoms: O_10  and  C_5 
REMARK    6  A    between atoms: C_11  and  C_7 
ROOT
ATOM      1  C   UNL d   1       1.057   0.191  -0.079  0.00  0.00     0.255 C 
ATOM      2  N   UNL d   1       0.245   0.881   0.843  0.00  0.00    -0.340 N 
ATOM      3  O   UNL d   1       2.279   0.384  -0.102  0.00  0.00    -0.267 OA
ENDROOT
BRANCH   1   4
ATOM      4  C   UNL d   1       0.589  -0.893  -0.994  0.00  0.00     0.049 A 
ATOM      5  C   UNL d   1       1.407  -2.020  -1.262  0.00  0.00     0.053 A 
ATOM      6  C   UNL d   1       0.944  -3.021  -2.144  0.00  0.00     0.019 A 
ATOM      7  C   UNL d   1      -0.304  -2.929  -2.751  0.00  0.00     0.001 A 
ATOM      8  C   UNL d   1      -1.082  -1.801  -2.535  0.00  0.00     0.001 A 
ATOM      9  C   UNL d   1      -0.620  -0.778  -1.699  0.00  0.00     0.018 A 
BRANCH   5  10
ATOM     10  C   UNL d   1       2.775  -2.294  -0.727  0.00  0.00     0.177 C 
ATOM     11  O   UNL d   1       3.589  -2.977  -1.334  0.00  0.00    -0.646 OA
BRANCH  10  12
ATOM     12  O   UNL d   1       2.970  -1.927   0.552  0.00  0.00    -0.773 OA
ATOM     13  H   UNL d   1       2.872  -0.945   0.611  0.00  0.00     0.167 HD
ENDBRANCH  10  12
ENDBRANCH   5  10
ENDBRANCH   1   4
BRANCH   2  14
ATOM     14  C   UNL d   1      -1.226   0.853   0.913  0.00  0.00     0.165 C 
BRANCH  14  15
ATOM     15  C   UNL d   1      -1.867  -0.482   1.206  0.00  0.00    -0.040 A 
ATOM     16  C   UNL d   1      -1.246  -1.451   2.003  0.00  0.00     0.009 A 
ATOM     17  C   UNL d   1      -1.875  -2.671   2.254  0.00  0.00     0.001 A 
ATOM     18  C   UNL d   1      -3.140  -2.927   1.730  0.00  0.00     0.000 A 
ATOM     19  C   UNL d   1      -3.786  -1.959   0.966  0.00  0.00     0.001 A 
ATOM     20  C   UNL d   1      -3.158  -0.739   0.714  0.00  0.00     0.009 A 
ENDBRANCH  14  15
ENDBRANCH   2  14
BRANCH   2  21
ATOM     21  C   UNL d   1       0.930   1.831   1.762  0.00  0.00     0.079 C 
ATOM     22  C   UNL d   1       0.552   3.290   1.488  0.00  0.00     0.032 C 
ATOM     23  C   UNL d   1       0.723   1.461   3.233  0.00  0.00     0.032 C 
ENDBRANCH   2  21
TORSDOF 6
