REMARK  3 active torsions:
REMARK  status: ('A' for Active; 'I' for Inactive)
REMARK       I    between atoms: N_2  and  C_1 
REMARK    1  A    between atoms: C_3  and  C_1 
REMARK       I    between atoms: C_4  and  N_2 
REMARK    2  A    between atoms: C_5  and  C_4 
REMARK    3  A    between atoms: O_15  and  C_6 
ROOT
ATOM      1  C   UNL d   1       0.964   0.279  -0.093  0.00  0.00     0.261 C 
ATOM      2  N   UNL d   1       0.373  -0.164  -1.262  0.00  0.00    -0.289 N 
ATOM      3  C   UNL d   1       0.982  -0.063  -2.503  0.00  0.00     0.258 C 
ATOM      4  O   UNL d   1       2.042   0.864  -0.008  0.00  0.00    -0.267 OA
ATOM      5  O   UNL d   1       2.042   0.503  -2.733  0.00  0.00    -0.267 OA
ATOM      6  H   UNL d   1      -0.576  -0.499  -1.224  0.00  0.00     0.172 HD
ENDROOT
BRANCH   1   7
ATOM      7  C   UNL d   1       0.210   0.084   1.173  0.00  0.00     0.065 A 
ATOM      8  C   UNL d   1       0.401   0.999   2.223  0.00  0.00     0.081 A 
ATOM      9  C   UNL d   1      -0.271   0.848   3.432  0.00  0.00     0.037 A 
ATOM     10  C   UNL d   1      -1.118  -0.242   3.621  0.00  0.00     0.003 A 
ATOM     11  C   UNL d   1      -1.294  -1.176   2.598  0.00  0.00     0.001 A 
ATOM     12  C   UNL d   1      -0.635  -1.016   1.373  0.00  0.00     0.020 A 
BRANCH   8  13
ATOM     13  O   UNL d   1       1.251   2.071   2.135  0.00  0.00    -0.360 OA
ATOM     14  H   UNL d   1       1.835   1.930   1.353  0.00  0.00     0.217 HD
ENDBRANCH   8  13
ENDBRANCH   1   7
BRANCH   3  15
ATOM     15  C   UNL d   1       0.268  -0.679  -3.653  0.00  0.00     0.032 A 
ATOM     16  C   UNL d   1       0.452  -0.104  -4.922  0.00  0.00     0.020 A 
ATOM     17  C   UNL d   1      -0.108  -0.697  -6.054  0.00  0.00     0.043 A 
ATOM     18  C   UNL d   1      -0.844  -1.867  -5.915  0.00  0.00     0.116 A 
ATOM     19  C   UNL d   1      -1.040  -2.447  -4.664  0.00  0.00     0.043 A 
ATOM     20  F   UNL d   1      -1.355  -2.457  -7.002  0.00  0.00    -0.206 F 
ATOM     21  C   UNL d   1      -0.483  -1.855  -3.525  0.00  0.00     0.020 A 
ENDBRANCH   3  15
TORSDOF 3
