REMARK  4 active torsions:
REMARK  status: ('A' for Active; 'I' for Inactive)
REMARK    1  A    between atoms: C_11  and  C_3 
REMARK    2  A    between atoms: C_13  and  C_4 
REMARK    3  A    between atoms: C_10  and  O_12 
REMARK    4  A    between atoms: O_12  and  C_13 
ROOT
ATOM      1  N   UNL d   1       1.343   0.105   0.013  0.00  0.00    -0.321 N 
ATOM      2  HN  UNL d   1       2.342   0.234   0.176  1.00  0.00     0.169 HD
ATOM      3  C   UNL d   1       0.659  -1.015  -0.090  0.00  0.00     0.182 A 
ATOM      4  C   UNL d   1       0.368   1.058  -0.155  0.00  0.00     0.128 A 
ATOM      5  N   UNL d   1      -0.871   0.572  -0.321  0.00  0.00    -0.245 N 
ATOM      6  HN  UNL d   1      -1.743   1.087  -0.443  1.00  0.00     0.196 HD
ATOM      7  O   UNL d   1      -0.678  -0.809  -0.288  0.00  0.00    -0.217 OA
ENDROOT
BRANCH   4   8
ATOM      8  C   UNL d   1       0.636   2.521  -0.065  0.00  0.00     0.254 C 
BRANCH   8   9
ATOM      9  O   UNL d   1       0.902   3.098  -1.351  0.00  0.00    -0.342 OA
BRANCH   9  10
ATOM     10  C   UNL d   1       1.076   4.458  -1.382  0.00  0.00     0.091 A 
ATOM     11  C   UNL d   1       1.947   4.987  -2.350  0.00  0.00     0.069 A 
ATOM     12  C   UNL d   1       2.133   6.369  -2.467  0.00  0.00     0.050 A 
ATOM     13 CL   UNL d   1       2.831   3.959  -3.421  0.00  0.00    -0.081 Cl
ATOM     14  C   UNL d   1       1.437   7.228  -1.622  0.00  0.00     0.035 A 
ATOM     15  C   UNL d   1       0.558   6.721  -0.670  0.00  0.00     0.026 A 
ATOM     16 CL   UNL d   1       1.648   8.929  -1.763  0.00  0.00    -0.084 Cl
ATOM     17  C   UNL d   1       0.373   5.341  -0.553  0.00  0.00     0.040 A 
ENDBRANCH   9  10
ENDBRANCH   8   9
ENDBRANCH   4   8
BRANCH   3  18
ATOM     18  C   UNL d   1       1.113  -2.397  -0.003  0.00  0.00     0.017 A 
ATOM     19  C   UNL d   1       2.468  -2.664   0.239  0.00  0.00     0.016 A 
ATOM     20  C   UNL d   1       2.935  -3.978   0.327  0.00  0.00     0.001 A 
ATOM     21  C   UNL d   1       2.050  -5.042   0.173  0.00  0.00     0.000 A 
ATOM     22  C   UNL d   1       0.700  -4.795  -0.067  0.00  0.00     0.001 A 
ATOM     23  C   UNL d   1       0.233  -3.481  -0.155  0.00  0.00     0.016 A 
ENDBRANCH   3  18
TORSDOF 4
