REMARK  3 active torsions:
REMARK  status: ('A' for Active; 'I' for Inactive)
REMARK    1  A    between atoms: C_4  and  C_1 
REMARK       I    between atoms: C_2  and  N_3 
REMARK    2  A    between atoms: C_5  and  C_2 
REMARK    3  A    between atoms: N_3  and  C_6 
ROOT
ATOM      1  C   UNL d   1       0.819   0.818   1.526  0.00  0.00     0.050 A 
ATOM      2  C   UNL d   1      -0.021  -0.318   3.529  0.00  0.00     0.035 A 
ATOM      3  C   UNL d   1       0.434  -0.350   2.207  0.00  0.00     0.045 A 
ATOM      4  C   UNL d   1       0.680   2.052   2.171  0.00  0.00     0.016 A 
ATOM      5  C   UNL d   1       0.181   2.108   3.472  0.00  0.00     0.003 A 
ATOM      6  C   UNL d   1      -0.161   0.929   4.149  0.00  0.00     0.029 A 
ENDROOT
BRANCH   2   7
ATOM      7  N   UNL d   1      -0.334  -1.486   4.276  0.00  0.00    -0.327 N 
ATOM      8  C   UNL d   1      -0.187  -2.795   3.842  0.00  0.00     0.229 C 
ATOM      9  O   UNL d   1       0.280  -3.116   2.746  0.00  0.00    -0.272 OA
ATOM     10  H   UNL d   1      -0.652  -1.336   5.225  0.00  0.00     0.169 HD
BRANCH   8  11
ATOM     11  C   UNL d   1      -0.600  -3.899   4.842  0.00  0.00     0.030 C 
ATOM     12  C   UNL d   1      -2.020  -3.672   5.376  0.00  0.00     0.025 C 
ATOM     13  C   UNL d   1      -0.572  -5.251   4.096  0.00  0.00     0.025 C 
ATOM     14  C   UNL d   1       0.398  -3.965   6.004  0.00  0.00     0.025 C 
ENDBRANCH   8  11
ENDBRANCH   2   7
BRANCH   1  15
ATOM     15  C   UNL d   1       1.417   0.727   0.144  0.00  0.00     0.417 C 
ATOM     16  F   UNL d   1       1.450  -0.536  -0.365  0.00  0.00    -0.166 F 
ATOM     17  F   UNL d   1       2.706   1.169   0.115  0.00  0.00    -0.166 F 
ATOM     18  F   UNL d   1       0.745   1.478  -0.771  0.00  0.00    -0.166 F 
ENDBRANCH   1  15
TORSDOF 3
