REMARK  2 active torsions:
REMARK  status: ('A' for Active; 'I' for Inactive)
REMARK    1  A    between atoms: N_8  and  C_1 
REMARK       I    between atoms: C_5  and  N_8 
REMARK       I    between atoms: N_9  and  C_5 
REMARK    2  A    between atoms: C_10  and  N_9 
ROOT
ATOM      1  C   UNL d   1       2.100   2.969  -2.053  0.00  0.00     0.321 C 
ATOM      2  N   UNL d   1       1.394   4.135  -2.222  0.00  0.00    -0.305 N 
ATOM      3  N   UNL d   1       1.978   2.497  -0.760  0.00  0.00    -0.334 N 
ATOM      4  O   UNL d   1       2.793   2.410  -2.894  0.00  0.00    -0.247 OA
ATOM      5  H   UNL d   1       1.171   4.635  -1.375  0.00  0.00     0.171 HD
ATOM      6  H   UNL d   1       1.122   2.720  -0.276  0.00  0.00     0.165 HD
ENDROOT
BRANCH   2   7
ATOM      7  C   UNL d   1       1.224   4.832  -3.413  0.00  0.00     0.092 A 
ATOM      8  C   UNL d   1       1.398   4.444  -4.726  0.00  0.00     0.101 A 
ATOM      9  O   UNL d   1       1.090   5.490  -5.545  0.00  0.00    -0.240 OA
ATOM     10  C   UNL d   1       1.791   3.214  -5.439  0.00  0.00     0.081 C 
ATOM     11  N   UNL d   1       0.694   6.577  -4.796  0.00  0.00    -0.263 N 
ATOM     12  C   UNL d   1       0.771   6.181  -3.522  0.00  0.00     0.058 A 
ATOM     13  HN  UNL d   1       0.404   7.491  -5.141  1.00  0.00     0.194 HD
ATOM     14  C   UNL d   1       0.424   7.130  -2.440  0.00  0.00     0.072 C 
ENDBRANCH   2   7
BRANCH   3  15
ATOM     15  C   UNL d   1       2.628   1.252  -0.354  0.00  0.00     0.120 C 
ATOM     16  C   UNL d   1       2.781   1.175   1.160  0.00  0.00    -0.029 A 
ATOM     17  C   UNL d   1       2.599  -0.038   1.855  0.00  0.00    -0.050 A 
ATOM     18  C   UNL d   1       3.220   2.302   1.881  0.00  0.00     0.010 A 
ATOM     19  C   UNL d   1       2.831  -0.091   3.241  0.00  0.00     0.007 A 
ATOM     20  C   UNL d   1       2.111  -1.286   1.165  0.00  0.00     0.039 C 
ATOM     21  C   UNL d   1       3.257   1.038   3.936  0.00  0.00     0.001 A 
ATOM     22  C   UNL d   1       3.447   2.236   3.257  0.00  0.00     0.001 A 
ATOM     23  C   UNL d   1       2.332  -1.266  -0.342  0.00  0.00     0.007 C 
ATOM     24  C   UNL d   1       1.866   0.051  -0.943  0.00  0.00     0.030 C 
ENDBRANCH   3  15
TORSDOF 2
