REMARK  5 active torsions:
REMARK  status: ('A' for Active; 'I' for Inactive)
REMARK    1  A    between atoms: C_11  and  C_3 
REMARK    2  A    between atoms: C_18  and  C_8 
REMARK    3  A    between atoms: C_19  and  C_11 
REMARK    4  A    between atoms: C_14  and  C_21 
REMARK    5  A    between atoms: C_15  and  C_20 
ROOT
ATOM      1  N   UNL d   1       2.569   0.722   0.125  0.00  0.00    -0.283 N 
ATOM      2  N   UNL d   1       3.153   3.198  -1.131  0.00  0.00    -0.190 NA
ATOM      3  C   UNL d   1       2.535  -0.675  -0.009  0.00  0.00     0.099 C 
ATOM      4  C   UNL d   1       1.474   1.591  -0.383  0.00  0.00     0.223 C 
ATOM      5  C   UNL d   1       3.714   2.839   0.251  0.00  0.00     0.204 C 
ATOM      6  N   UNL d   1       3.743   1.395   0.639  0.00  0.00    -0.211 NA
ATOM      7  N   UNL d   1       1.857   2.484  -1.519  0.00  0.00    -0.224 NA
ATOM      8  C   UNL d   1       3.114   4.575  -1.396  0.00  0.00     0.038 C 
ATOM      9  C   UNL d   1       1.357  -1.312  -0.167  0.00  0.00     0.047 C 
ATOM     10  C   UNL d   1       2.855   5.483  -0.439  0.00  0.00     0.037 C 
ATOM     11  C   UNL d   1       0.164   0.838  -0.546  0.00  0.00    -0.009 A 
ATOM     12  C   UNL d   1       2.983   3.716   1.303  0.00  0.00    -0.013 A 
ATOM     13  C   UNL d   1       0.115  -0.551  -0.332  0.00  0.00    -0.024 A 
ATOM     14  C   UNL d   1       2.557   5.006   0.912  0.00  0.00    -0.025 A 
ATOM     15  C   UNL d   1      -1.040   1.551  -0.686  0.00  0.00     0.011 A 
ATOM     16  C   UNL d   1       2.656   3.263   2.592  0.00  0.00     0.011 A 
ATOM     17  C   UNL d   1       1.820   5.809   1.789  0.00  0.00     0.012 A 
ATOM     18  C   UNL d   1      -1.122  -1.204  -0.268  0.00  0.00     0.012 A 
ATOM     19  C   UNL d   1       1.887   4.056   3.448  0.00  0.00     0.001 A 
ATOM     20  C   UNL d   1      -2.268   0.897  -0.592  0.00  0.00     0.001 A 
ATOM     21  C   UNL d   1      -2.309  -0.478  -0.380  0.00  0.00     0.001 A 
ATOM     22  C   UNL d   1       1.471   5.325   3.047  0.00  0.00     0.001 A 
ATOM     23  H   UNL d   1       4.575   0.971   0.217  0.00  0.00     0.149 HD
ATOM     24  H   UNL d   1       2.105   1.855  -2.281  0.00  0.00     0.144 HD
ENDROOT
BRANCH   3  25
ATOM     25  C   UNL d   1       3.828  -1.483   0.017  0.00  0.00     0.209 C 
ATOM     26  O   UNL d   1       4.884  -1.029   0.463  0.00  0.00    -0.285 OA
BRANCH  25  27
ATOM     27  C   UNL d   1       3.888  -2.856  -0.570  0.00  0.00     0.017 A 
ATOM     28  C   UNL d   1       3.228  -3.198  -1.762  0.00  0.00     0.031 A 
ATOM     29  C   UNL d   1       3.291  -4.509  -2.264  0.00  0.00     0.048 A 
ATOM     30  C   UNL d   1       4.078  -5.459  -1.594  0.00  0.00     0.016 A 
ATOM     31  C   UNL d   1       4.785  -5.106  -0.444  0.00  0.00     0.002 A 
ATOM     32  C   UNL d   1       4.687  -3.812   0.068  0.00  0.00     0.015 A 
BRANCH  29  33
ATOM     33  C   UNL d   1       2.518  -4.912  -3.500  0.00  0.00     0.417 C 
ATOM     34  F   UNL d   1       1.741  -3.908  -3.999  0.00  0.00    -0.166 F 
ATOM     35  F   UNL d   1       3.324  -5.305  -4.520  0.00  0.00    -0.166 F 
ATOM     36  F   UNL d   1       1.672  -5.950  -3.264  0.00  0.00    -0.166 F 
ENDBRANCH  29  33
ENDBRANCH  25  27
ENDBRANCH   3  25
BRANCH   8  37
ATOM     37  C   UNL d   1       3.551   5.086  -2.704  0.00  0.00    -0.013 A 
ATOM     38  C   UNL d   1       2.624   5.383  -3.709  0.00  0.00     0.029 A 
ATOM     39  C   UNL d   1       3.025   6.059  -4.875  0.00  0.00     0.048 A 
ATOM     40  C   UNL d   1       4.372   6.427  -5.025  0.00  0.00     0.016 A 
ATOM     41  C   UNL d   1       5.305   6.117  -4.037  0.00  0.00     0.002 A 
ATOM     42  C   UNL d   1       4.895   5.448  -2.883  0.00  0.00     0.013 A 
BRANCH  39  43
ATOM     43  C   UNL d   1       2.027   6.436  -5.941  0.00  0.00     0.417 C 
ATOM     44  F   UNL d   1       0.768   5.974  -5.705  0.00  0.00    -0.166 F 
ATOM     45  F   UNL d   1       1.906   7.787  -6.080  0.00  0.00    -0.166 F 
ATOM     46  F   UNL d   1       2.373   5.966  -7.172  0.00  0.00    -0.166 F 
ENDBRANCH  39  43
ENDBRANCH   8  37
TORSDOF 5
