REMARK  7 active torsions:
REMARK  status: ('A' for Active; 'I' for Inactive)
REMARK    1  A    between atoms: C_2  and  N_1 
REMARK    2  A    between atoms: C_3  and  C_8 
REMARK    3  A    between atoms: C_4  and  C_9 
REMARK       I    between atoms: C_9  and  N_22 
REMARK    4  A    between atoms: N_23  and  C_10 
REMARK    5  A    between atoms: N_22  and  C_27 
REMARK    6  A    between atoms: C_28  and  N_23 
REMARK    7  A    between atoms: C_27  and  C_28 
ROOT
ATOM      1  N   UNL d   1      -2.230   5.203   2.081  0.00  0.00    -0.289 NA
ATOM      2  H   UNL d   1      -2.053   5.050   3.086  0.00  0.00     0.127 HD
ENDROOT
BRANCH   1   3
ATOM      3  C   UNL d   1      -2.832   6.461   1.940  0.00  0.00     0.041 A 
ATOM      4  C   UNL d   1      -4.064   6.756   2.556  0.00  0.00     0.124 A 
ATOM      5  C   UNL d   1      -4.713   7.994   2.404  0.00  0.00     0.054 A 
ATOM      6  C   UNL d   1      -4.121   8.996   1.627  0.00  0.00     0.050 A 
ATOM      7  C   UNL d   1      -2.860   8.749   1.069  0.00  0.00     0.018 A 
ATOM      8  C   UNL d   1      -2.236   7.502   1.214  0.00  0.00     0.027 A 
BRANCH   4   9
ATOM      9  N   UNL d   1      -4.720   5.779   3.411  0.00  0.00    -0.114 N 
ATOM     10  O   UNL d   1      -4.942   6.122   4.583  0.00  0.00    -0.532 OA
ATOM     11  O   UNL d   1      -5.072   4.702   2.907  0.00  0.00    -0.532 OA
ENDBRANCH   4   9
BRANCH   6  12
ATOM     12  C   UNL d   1      -4.814  10.311   1.373  0.00  0.00     0.417 C 
ATOM     13  F   UNL d   1      -6.094  10.345   1.833  0.00  0.00    -0.166 F 
ATOM     14  F   UNL d   1      -4.175  11.362   1.953  0.00  0.00    -0.166 F 
ATOM     15  F   UNL d   1      -4.888  10.602   0.045  0.00  0.00    -0.166 F 
ENDBRANCH   6  12
ENDBRANCH   1   3
BRANCH   1  16
ATOM     16  C   UNL d   1      -0.989   4.869   1.374  0.00  0.00     0.112 C 
BRANCH  16  17
ATOM     17  C   UNL d   1      -0.511   3.464   1.795  0.00  0.00     0.137 C 
BRANCH  17  18
ATOM     18  N   UNL d   1       0.070   3.310   3.135  0.00  0.00    -0.356 N 
ATOM     19  C   UNL d   1       0.011   4.223   4.162  0.00  0.00     0.252 C 
ATOM     20  O   UNL d   1      -0.573   5.298   4.116  0.00  0.00    -0.268 OA
ATOM     21  H   UNL d   1       0.483   2.408   3.339  0.00  0.00     0.162 HD
BRANCH  19  22
ATOM     22  C   UNL d   1       0.698   3.843   5.426  0.00  0.00     0.043 A 
ATOM     23  C   UNL d   1       2.064   3.498   5.424  0.00  0.00    -0.045 A 
ATOM     24  C   UNL d   1       2.690   3.220   6.652  0.00  0.00     0.014 A 
ATOM     25  C   UNL d   1       2.913   3.414   4.184  0.00  0.00     0.049 C 
ATOM     26  C   UNL d   1       2.002   3.342   7.863  0.00  0.00    -0.061 A 
ATOM     27  C   UNL d   1       0.650   3.695   7.847  0.00  0.00     0.014 A 
ATOM     28  C   UNL d   1       2.712   3.086   9.158  0.00  0.00     0.048 C 
ATOM     29  C   UNL d   1      -0.024   3.936   6.639  0.00  0.00    -0.045 A 
ATOM     30  C   UNL d   1      -1.469   4.356   6.717  0.00  0.00     0.049 C 
ENDBRANCH  19  22
ENDBRANCH  17  18
ENDBRANCH  16  17
ENDBRANCH   1  16
TORSDOF 7
