REMARK  5 active torsions:
REMARK  status: ('A' for Active; 'I' for Inactive)
REMARK    1  A    between atoms: C_8  and  C_1 
REMARK    2  A    between atoms: C_10  and  C_2 
REMARK    3  A    between atoms: C_9  and  C_3 
REMARK    4  A    between atoms: O_17  and  C_9 
REMARK    5  A    between atoms: O_18  and  C_10 
ROOT
ATOM      1  C   UNL d   1      -0.037  -1.803   0.127  0.00  0.00     0.012 A 
ATOM      2  C   UNL d   1      -1.208  -1.015   0.189  0.00  0.00     0.072 A 
ATOM      3  C   UNL d   1       1.199  -1.132  -0.005  0.00  0.00     0.072 A 
ATOM      4  N   UNL d   1       0.077   0.995  -0.125  0.00  0.00    -0.362 N 
ATOM      5  HN  UNL d   1       0.117   2.006  -0.253  1.00  0.00     0.165 HD
ATOM      6  C   UNL d   1       1.216   0.262  -0.095  0.00  0.00     0.023 A 
ATOM      7  C   UNL d   1      -1.118   0.370   0.016  0.00  0.00     0.023 A 
ATOM      8  C   UNL d   1      -2.305   1.290   0.026  0.00  0.00     0.069 C 
ATOM      9  C   UNL d   1       2.488   1.062  -0.136  0.00  0.00     0.069 C 
ENDROOT
BRANCH   1  10
ATOM     10  C   UNL d   1      -0.093  -3.274   0.151  0.00  0.00    -0.017 A 
ATOM     11  C   UNL d   1      -0.939  -3.980  -0.689  0.00  0.00     0.061 A 
ATOM     12  S   UNL d   1      -0.745  -5.676  -0.561  0.00  0.00    -0.113 SA
ATOM     13  C   UNL d   1       0.500  -5.499   0.593  0.00  0.00     0.050 A 
ATOM     14  C   UNL d   1       0.733  -4.176   0.902  0.00  0.00     0.020 A 
ENDBRANCH   1  10
BRANCH   2  15
ATOM     15  C   UNL d   1      -2.499  -1.613   0.574  0.00  0.00     0.179 C 
ATOM     16  O   UNL d   1      -2.720  -2.229   1.597  0.00  0.00    -0.646 OA
BRANCH  15  17
ATOM     17  O   UNL d   1      -3.444  -1.421  -0.361  0.00  0.00    -0.773 OA
ATOM     18  H   UNL d   1      -4.248  -1.835   0.023  0.00  0.00     0.167 HD
ENDBRANCH  15  17
ENDBRANCH   2  15
BRANCH   3  19
ATOM     19  C   UNL d   1       2.501  -1.833  -0.022  0.00  0.00     0.179 C 
ATOM     20  O   UNL d   1       3.367  -1.630   0.812  0.00  0.00    -0.646 OA
BRANCH  19  21
ATOM     21  O   UNL d   1       2.661  -2.649  -1.080  0.00  0.00    -0.773 OA
ATOM     22  H   UNL d   1       1.866  -2.799  -1.628  0.00  0.00     0.167 HD
ENDBRANCH  19  21
ENDBRANCH   3  19
TORSDOF 5
