REMARK  6 active torsions:
REMARK  status: ('A' for Active; 'I' for Inactive)
REMARK    1  A    between atoms: C_3  and  C_1 
REMARK       I    between atoms: C_2  and  N_7 
REMARK       I    between atoms: N_6  and  C_2 
REMARK    2  A    between atoms: C_11  and  N_6 
REMARK    3  A    between atoms: N_7  and  C_18 
REMARK    4  A    between atoms: C_8  and  O_12 
REMARK    5  A    between atoms: O_12  and  C_14 
REMARK    6  A    between atoms: O_23  and  C_20 
ROOT
ATOM      1  N   UNL d   1      -2.638   0.515   4.876  0.00  0.00    -0.344 N 
ATOM      2  HN  UNL d   1      -3.370   1.196   5.079  1.00  0.00     0.167 HD
ATOM      3  C   UNL d   1      -1.598   0.817   4.063  0.00  0.00     0.148 A 
ATOM      4  C   UNL d   1      -1.723  -1.720   5.140  0.00  0.00     0.051 A 
ATOM      5  C   UNL d   1      -2.663  -0.732   5.407  0.00  0.00     0.119 A 
ATOM      6  C   UNL d   1      -0.648  -0.113   3.680  0.00  0.00     0.059 A 
ATOM      7  C   UNL d   1      -0.718  -1.394   4.225  0.00  0.00     0.035 A 
ENDROOT
BRANCH   4   8
ATOM      8  N   UNL d   1      -1.784  -2.952   5.837  0.00  0.00    -0.307 N 
ATOM      9  C   UNL d   1      -1.052  -4.086   5.527  0.00  0.00     0.325 C 
ATOM     10  N   UNL d   1      -1.157  -5.056   6.500  0.00  0.00    -0.309 N 
ATOM     11  O   UNL d   1      -0.394  -4.195   4.500  0.00  0.00    -0.247 OA
ATOM     12  H   UNL d   1      -1.469  -4.761   7.412  0.00  0.00     0.170 HD
ATOM     13  H   UNL d   1      -2.527  -3.066   6.509  0.00  0.00     0.170 HD
BRANCH  10  14
ATOM     14  C   UNL d   1      -0.697  -6.393   6.386  0.00  0.00     0.039 A 
ATOM     15  C   UNL d   1      -0.286  -6.956   5.172  0.00  0.00     0.066 A 
ATOM     16  C   UNL d   1       0.039  -8.310   5.072  0.00  0.00     0.070 A 
ATOM     17  C   UNL d   1       0.009  -9.103   6.217  0.00  0.00     0.037 A 
ATOM     18  C   UNL d   1      -0.354  -8.549   7.446  0.00  0.00     0.005 A 
ATOM     19  C   UNL d   1      -0.717  -7.200   7.529  0.00  0.00     0.030 A 
BRANCH  16  20
ATOM     20  O   UNL d   1       0.370  -8.960   3.913  0.00  0.00    -0.356 OA
ATOM     21  C   UNL d   1       0.269  -8.206   2.707  0.00  0.00     0.210 C 
ENDBRANCH  16  20
ENDBRANCH  10  14
ENDBRANCH   4   8
BRANCH   3  22
ATOM     22  O   UNL d   1      -1.420   2.108   3.576  0.00  0.00    -0.294 OA
BRANCH  22  23
ATOM     23  C   UNL d   1      -1.992   3.161   4.252  0.00  0.00     0.078 C 
ATOM     24  C   UNL d   1      -2.191   3.186   5.634  0.00  0.00     0.053 C 
ATOM     25  C   UNL d   1      -2.897   4.234   6.238  0.00  0.00     0.050 C 
ATOM     26  C   UNL d   1      -3.268   5.337   5.455  0.00  0.00     0.016 C 
ATOM     27  C   UNL d   1      -2.977   5.364   4.090  0.00  0.00     0.004 C 
ATOM     28  C   UNL d   1      -2.353   4.271   3.487  0.00  0.00     0.037 C 
BRANCH  25  29
ATOM     29  C   UNL d   1      -3.318   4.130   7.683  0.00  0.00     0.417 C 
ATOM     30  F   UNL d   1      -2.921   2.974   8.286  0.00  0.00    -0.166 F 
ATOM     31  F   UNL d   1      -4.671   4.172   7.826  0.00  0.00    -0.166 F 
ATOM     32  F   UNL d   1      -2.827   5.138   8.451  0.00  0.00    -0.166 F 
ENDBRANCH  25  29
ENDBRANCH  22  23
ENDBRANCH   3  22
TORSDOF 6
