REMARK  7 active torsions:
REMARK  status: ('A' for Active; 'I' for Inactive)
REMARK    1  A    between atoms: C_9  and  C_1 
REMARK    2  A    between atoms: N_17  and  C_3 
REMARK    3  A    between atoms: C_12  and  C_6 
REMARK       I    between atoms: N_16  and  C_9 
REMARK    4  A    between atoms: C_21  and  C_10 
REMARK    5  A    between atoms: N_13  and  N_16 
REMARK    6  A    between atoms: C_25  and  C_23 
REMARK    7  A    between atoms: O_27  and  C_26 
ROOT
ATOM      1  C   UNL d   1       2.397   0.048   0.025  0.00  0.00     0.174 A 
ATOM      2  C   UNL d   1       0.275   0.848   0.030  0.00  0.00     0.058 A 
ATOM      3  C   UNL d   1       1.647   1.204   0.080  0.00  0.00     0.081 A 
ATOM      4  C   UNL d   1       0.273  -0.549  -0.022  0.00  0.00     0.162 A 
ATOM      5  O   UNL d   1       1.558  -1.034  -0.032  0.00  0.00    -0.285 OA
ATOM      6  C   UNL d   1      -0.979   1.491   0.049  0.00  0.00     0.017 A 
ATOM      7  N   UNL d   1      -0.803  -1.361  -0.061  0.00  0.00    -0.335 N 
ATOM      8  HN  UNL d   1      -0.727  -2.377  -0.094  1.00  0.00     0.168 HD
ATOM      9  C   UNL d   1      -1.996  -0.715  -0.052  0.00  0.00     0.045 A 
ATOM     10  C   UNL d   1      -2.116   0.675   0.018  0.00  0.00     0.045 A 
ENDROOT
BRANCH   1  11
ATOM     11  C   UNL d   1       3.838  -0.091   0.009  0.00  0.00     0.296 C 
ATOM     12  N   UNL d   1       4.338  -1.388  -0.021  0.00  0.00    -0.264 N 
ATOM     13  H   UNL d   1       3.711  -2.185  -0.049  0.00  0.00     0.190 HD
ATOM     14  O   UNL d   1       4.583   0.897   0.009  0.00  0.00    -0.264 OA
BRANCH  12  15
ATOM     15  N   UNL d   1       5.690  -1.540  -0.068  0.00  0.00    -0.308 N 
ATOM     16  C   UNL d   1       6.181  -2.731  -0.131  0.00  0.00     0.118 C 
ATOM     17  HN  UNL d   1       6.305  -0.725  -0.053  1.00  0.00     0.186 HD
BRANCH  16  18
ATOM     18  C   UNL d   1       7.650  -2.915  -0.219  0.00  0.00    -0.017 A 
ATOM     19  C   UNL d   1       8.502  -1.800  -0.171  0.00  0.00     0.049 A 
ATOM     20  C   UNL d   1       9.882  -1.966  -0.289  0.00  0.00     0.069 A 
ATOM     21  C   UNL d   1      10.399  -3.252  -0.469  0.00  0.00     0.037 A 
ATOM     22  C   UNL d   1       9.553  -4.364  -0.509  0.00  0.00     0.004 A 
ATOM     23  C   UNL d   1       8.174  -4.199  -0.377  0.00  0.00     0.013 A 
BRANCH  20  24
ATOM     24  O   UNL d   1      10.817  -0.969  -0.247  0.00  0.00    -0.356 OA
ATOM     25  C   UNL d   1      10.336   0.352  -0.017  0.00  0.00     0.210 C 
ENDBRANCH  20  24
ENDBRANCH  16  18
ENDBRANCH  12  15
ENDBRANCH   1  11
BRANCH   3  26
ATOM     26  N   UNL d   1       2.167   2.445   0.166  0.00  0.00    -0.396 N 
ATOM     27  H   UNL d   1       1.596   3.256  -0.067  0.00  0.00     0.156 HD
ATOM     28  H   UNL d   1       3.168   2.592   0.018  0.00  0.00     0.156 HD
ENDBRANCH   3  26
BRANCH   6  29
ATOM     29  C   UNL d   1      -1.111   2.939   0.131  0.00  0.00     0.086 A 
ATOM     30  O   UNL d   1      -0.143   3.695  -0.468  0.00  0.00    -0.322 OA
ATOM     31  C   UNL d   1      -0.452   5.000  -0.257  0.00  0.00     0.142 A 
ATOM     32  C   UNL d   1      -1.630   5.105   0.437  0.00  0.00     0.027 A 
ATOM     33  C   UNL d   1      -2.067   3.779   0.672  0.00  0.00     0.040 A 
ENDBRANCH   6  29
BRANCH   9  34
ATOM     34  C   UNL d   1      -3.203  -1.574  -0.135  0.00  0.00    -0.009 A 
ATOM     35  C   UNL d   1      -3.255  -2.823   0.507  0.00  0.00     0.013 A 
ATOM     36  C   UNL d   1      -4.390  -3.639   0.426  0.00  0.00     0.001 A 
ATOM     37  C   UNL d   1      -5.500  -3.223  -0.303  0.00  0.00     0.000 A 
ATOM     38  C   UNL d   1      -5.481  -1.989  -0.945  0.00  0.00     0.001 A 
ATOM     39  C   UNL d   1      -4.345  -1.177  -0.861  0.00  0.00     0.013 A 
ENDBRANCH   9  34
TORSDOF 7
