REMARK  6 active torsions:
REMARK  status: ('A' for Active; 'I' for Inactive)
REMARK    1  A    between atoms: C_4  and  C_1 
REMARK    2  A    between atoms: C_2  and  N_7 
REMARK    3  A    between atoms: N_6  and  C_2 
REMARK    4  A    between atoms: C_10  and  N_6 
REMARK    5  A    between atoms: N_7  and  N_12 
REMARK    6  A    between atoms: N_12  and  C_19 
ROOT
ATOM      1  C   UNL d   1       2.402  -6.300  -0.683  0.00  0.00     0.165 C 
ATOM      2  S   UNL d   1       3.613  -6.803   0.365  0.00  0.00    -0.046 SA
ENDROOT
BRANCH   1   3
ATOM      3  N   UNL d   1       1.944  -5.002  -0.802  0.00  0.00    -0.198 NA
ATOM      4  H   UNL d   1       1.539  -4.791  -1.711  0.00  0.00     0.149 HD
BRANCH   3   5
ATOM      5  N   UNL d   1       2.818  -3.979  -0.349  0.00  0.00    -0.220 NA
ATOM      6  H   UNL d   1       3.472  -4.334   0.358  0.00  0.00     0.147 HD
BRANCH   5   7
ATOM      7  C   UNL d   1       2.208  -2.774   0.068  0.00  0.00     0.023 A 
ATOM      8  C   UNL d   1       0.995  -2.310  -0.454  0.00  0.00     0.040 A 
ATOM      9  C   UNL d   1       0.489  -1.043  -0.110  0.00  0.00     0.049 A 
ATOM     10  C   UNL d   1       1.221  -0.227   0.763  0.00  0.00     0.016 A 
ATOM     11  C   UNL d   1       2.444  -0.661   1.265  0.00  0.00     0.003 A 
ATOM     12  C   UNL d   1       2.936  -1.918   0.908  0.00  0.00     0.025 A 
BRANCH   9  13
ATOM     13  C   UNL d   1      -0.812  -0.548  -0.689  0.00  0.00     0.417 C 
ATOM     14  F   UNL d   1      -1.398  -1.427  -1.551  0.00  0.00    -0.166 F 
ATOM     15  F   UNL d   1      -0.663   0.611  -1.389  0.00  0.00    -0.166 F 
ATOM     16  F   UNL d   1      -1.745  -0.287   0.268  0.00  0.00    -0.166 F 
ENDBRANCH   9  13
ENDBRANCH   5   7
ENDBRANCH   3   5
ENDBRANCH   1   3
BRANCH   1  17
ATOM     17  N   UNL d   1       1.894  -7.212  -1.563  0.00  0.00    -0.337 N 
ATOM     18  H   UNL d   1       2.493  -8.026  -1.683  0.00  0.00     0.168 HD
BRANCH  17  19
ATOM     19  C   UNL d   1       0.620  -7.313  -2.153  0.00  0.00     0.036 A 
ATOM     20  C   UNL d   1      -0.520  -6.701  -1.625  0.00  0.00     0.069 A 
ATOM     21  C   UNL d   1      -1.778  -7.022  -2.148  0.00  0.00     0.104 A 
ATOM     22  O   UNL d   1      -2.870  -6.489  -1.508  0.00  0.00    -0.346 OA
ATOM     23  C   UNL d   1      -1.895  -7.883  -3.245  0.00  0.00     0.102 A 
ATOM     24  C   UNL d   1      -4.048  -7.254  -1.795  0.00  0.00     0.202 C 
ATOM     25  C   UNL d   1      -4.184  -7.474  -3.292  0.00  0.00     0.202 C 
ATOM     26  O   UNL d   1      -3.092  -8.248  -3.801  0.00  0.00    -0.346 OA
ATOM     27  C   UNL d   1      -0.756  -8.457  -3.797  0.00  0.00     0.042 A 
ATOM     28  C   UNL d   1       0.495  -8.189  -3.238  0.00  0.00     0.032 A 
ENDBRANCH  17  19
ENDBRANCH   1  17
TORSDOF 6
