REMARK  8 active torsions:
REMARK  status: ('A' for Active; 'I' for Inactive)
REMARK    1  A    between atoms: C_10  and  N_1 
REMARK    2  A    between atoms: S_25  and  C_4 
REMARK    3  A    between atoms: C_23  and  C_7 
REMARK    4  A    between atoms: C_24  and  C_11 
REMARK    5  A    between atoms: C_14  and  C_16 
REMARK    6  A    between atoms: C_15  and  C_17 
REMARK    7  A    between atoms: C_18  and  C_34 
REMARK    8  A    between atoms: C_34  and  C_24 
ROOT
ATOM      1  N   UNL d   1      -0.358  -1.254   0.033  0.00  0.00    -0.279 N 
ATOM      2  C   UNL d   1       0.837  -0.537   0.058  0.00  0.00     0.164 A 
ATOM      3  N   UNL d   1       0.601   0.752   0.025  0.00  0.00    -0.278 N 
ATOM      4  HN  UNL d   1       1.304   1.490   0.054  1.00  0.00     0.189 HD
ATOM      5  N   UNL d   1      -0.742   0.935  -0.055  0.00  0.00    -0.286 N 
ATOM      6  HN  UNL d   1      -1.216   1.836  -0.110  1.00  0.00     0.188 HD
ATOM      7  C   UNL d   1      -1.332  -0.244  -0.050  0.00  0.00     0.105 A 
ENDROOT
BRANCH   7   8
ATOM      8  C   UNL d   1      -2.823  -0.408  -0.015  0.00  0.00     0.086 C 
BRANCH   8   9
ATOM      9  C   UNL d   1      -3.556   0.934   0.110  0.00  0.00     0.094 C 
BRANCH   9  10
ATOM     10  C   UNL d   1      -5.028   0.740   0.116  0.00  0.00     0.148 A 
ATOM     11  N   UNL d   1      -5.793   0.140   0.998  0.00  0.00    -0.323 N 
ATOM     12  C   UNL d   1      -7.056   0.305   0.459  0.00  0.00     0.137 A 
ATOM     13  HN  UNL d   1      -5.524  -0.329   1.863  1.00  0.00     0.169 HD
ATOM     14  N   UNL d   1      -7.061   0.955  -0.716  0.00  0.00    -0.242 N 
ATOM     15  O   UNL d   1      -5.720   1.248  -0.943  0.00  0.00    -0.223 OA
ATOM     16  HN  UNL d   1      -7.862   1.182  -1.305  1.00  0.00     0.196 HD
BRANCH  12  17
ATOM     17  C   UNL d   1      -8.261  -0.187   1.127  0.00  0.00     0.010 A 
ATOM     18  C   UNL d   1      -8.168  -0.815   2.377  0.00  0.00     0.017 A 
ATOM     19  C   UNL d   1      -9.315  -1.284   3.029  0.00  0.00     0.025 A 
ATOM     20  C   UNL d   1     -10.564  -1.133   2.430  0.00  0.00     0.034 A 
ATOM     21  C   UNL d   1     -10.676  -0.516   1.189  0.00  0.00     0.025 A 
ATOM     22 CL   UNL d   1     -11.972  -1.711   3.231  0.00  0.00    -0.084 Cl
ATOM     23  C   UNL d   1      -9.530  -0.048   0.538  0.00  0.00     0.017 A 
ENDBRANCH  12  17
ENDBRANCH   9  10
ENDBRANCH   8   9
ENDBRANCH   7   8
BRANCH   1  24
ATOM     24  C   UNL d   1      -0.564  -2.672   0.097  0.00  0.00     0.044 A 
ATOM     25  C   UNL d   1       0.313  -3.502   0.812  0.00  0.00     0.046 A 
ATOM     26  C   UNL d   1       0.137  -4.899   0.846  0.00  0.00     0.050 A 
ATOM     27  C   UNL d   1      -0.986  -5.459   0.220  0.00  0.00     0.032 A 
ATOM     28  C   UNL d   1      -1.907  -4.647  -0.454  0.00  0.00     0.050 A 
ATOM     29  C   UNL d   1      -1.660  -3.265  -0.545  0.00  0.00     0.046 A 
BRANCH  26  30
ATOM     30  C   UNL d   1       1.127  -5.801   1.554  0.00  0.00     0.417 C 
ATOM     31  F   UNL d   1       2.176  -5.126   2.097  0.00  0.00    -0.166 F 
ATOM     32  F   UNL d   1       0.555  -6.495   2.574  0.00  0.00    -0.166 F 
ATOM     33  F   UNL d   1       1.667  -6.728   0.718  0.00  0.00    -0.166 F 
ENDBRANCH  26  30
BRANCH  28  34
ATOM     34  C   UNL d   1      -3.160  -5.252  -1.051  0.00  0.00     0.417 C 
ATOM     35  F   UNL d   1      -3.977  -4.329  -1.629  0.00  0.00    -0.166 F 
ATOM     36  F   UNL d   1      -2.893  -6.177  -2.007  0.00  0.00    -0.166 F 
ATOM     37  F   UNL d   1      -3.917  -5.882  -0.110  0.00  0.00    -0.166 F 
ENDBRANCH  28  34
ENDBRANCH   1  24
BRANCH   2  38
ATOM     38  S   UNL d   1       2.458  -1.155  -0.040  0.00  0.00    -0.105 SA
ATOM     39  H   UNL d   1       2.223  -2.389  -0.500  0.00  0.00     0.110 HD
ENDBRANCH   2  38
TORSDOF 8
