REMARK  7 active torsions:
REMARK  status: ('A' for Active; 'I' for Inactive)
REMARK    1  A    between atoms: N_4  and  C_1 
REMARK    2  A    between atoms: C_9  and  C_2 
REMARK    3  A    between atoms: C_7  and  N_4 
REMARK    4  A    between atoms: N_8  and  C_7 
REMARK    5  A    between atoms: C_10  and  N_8 
REMARK    6  A    between atoms: O_16  and  C_9 
REMARK    7  A    between atoms: C_22  and  O_16 
ROOT
ATOM      1  N   UNL d   1       1.957  -2.168  -0.507  0.00  0.00    -0.326 N 
ATOM      2  H   UNL d   1       1.857  -3.183  -0.559  0.00  0.00     0.169 HD
ENDROOT
BRANCH   1   3
ATOM      3  C   UNL d   1       0.795  -1.417  -0.588  0.00  0.00     0.093 C 
ATOM      4  C   UNL d   1      -0.524  -1.778  -0.345  0.00  0.00     0.080 C 
ATOM      5  C   UNL d   1      -1.402  -0.617  -0.495  0.00  0.00    -0.030 C 
ATOM      6  C   UNL d   1      -2.861  -0.568  -0.151  0.00  0.00     0.050 C 
ATOM      7  C   UNL d   1      -0.702   0.497  -0.934  0.00  0.00    -0.012 C 
ATOM      8  S   UNL d   1       0.923   0.137  -1.267  0.00  0.00    -0.076 SA
ATOM      9  C   UNL d   1      -1.196   1.891  -1.128  0.00  0.00     0.057 C 
BRANCH   4  10
ATOM     10  C   UNL d   1      -0.951  -3.097   0.149  0.00  0.00     0.296 C 
ATOM     11  O   UNL d   1      -2.099  -3.346   0.498  0.00  0.00    -0.259 OA
BRANCH  10  12
ATOM     12  O   UNL d   1       0.070  -3.998   0.248  0.00  0.00    -0.318 OA
BRANCH  12  13
ATOM     13  C   UNL d   1      -0.202  -5.131   1.084  0.00  0.00     0.174 C 
ATOM     14  C   UNL d   1       0.058  -4.735   2.528  0.00  0.00     0.034 C 
ENDBRANCH  12  13
ENDBRANCH  10  12
ENDBRANCH   4  10
ENDBRANCH   1   3
BRANCH   1  15
ATOM     15  C   UNL d   1       3.174  -1.760  -0.010  0.00  0.00     0.178 C 
ATOM     16  S   UNL d   1       3.530  -0.390   0.899  0.00  0.00    -0.040 SA
BRANCH  15  17
ATOM     17  N   UNL d   1       4.247  -2.575  -0.261  0.00  0.00    -0.319 N 
ATOM     18  H   UNL d   1       5.121  -2.194   0.070  0.00  0.00     0.169 HD
BRANCH  17  19
ATOM     19  C   UNL d   1       4.310  -3.736  -1.037  0.00  0.00     0.107 A 
ATOM     20  N   UNL d   1       3.178  -4.333  -1.461  0.00  0.00    -0.352 N 
ATOM     21  C   UNL d   1       3.315  -5.384  -2.299  0.00  0.00     0.090 A 
ATOM     22  HN  UNL d   1       2.259  -4.006  -1.163  1.00  0.00     0.166 HD
ATOM     23  C   UNL d   1       4.535  -5.875  -2.732  0.00  0.00     0.024 A 
ATOM     24  C   UNL d   1       5.700  -5.277  -2.256  0.00  0.00    -0.057 A 
ATOM     25  C   UNL d   1       5.579  -4.197  -1.379  0.00  0.00     0.055 A 
ATOM     26  C   UNL d   1       7.043  -5.716  -2.755  0.00  0.00     0.048 C 
ENDBRANCH  17  19
ENDBRANCH  15  17
ENDBRANCH   1  15
TORSDOF 7
