REMARK  5 active torsions:
REMARK  status: ('A' for Active; 'I' for Inactive)
REMARK    1  A    between atoms: C_8  and  C_1 
REMARK    2  A    between atoms: S_3  and  C_10 
REMARK    3  A    between atoms: N_15  and  S_3 
REMARK    4  A    between atoms: C_13  and  C_6 
REMARK       I    between atoms: N_9  and  C_8 
REMARK    5  A    between atoms: C_18  and  N_9 
ROOT
ATOM      1  C   UNL d   1      -0.384  -2.505  -0.105  0.00  0.00     0.265 C 
ATOM      2  N   UNL d   1       0.761  -3.271   0.072  0.00  0.00    -0.322 N 
ATOM      3  O   UNL d   1      -1.497  -2.990  -0.274  0.00  0.00    -0.267 OA
ATOM      4  H   UNL d   1       1.612  -2.767   0.287  0.00  0.00     0.169 HD
ENDROOT
BRANCH   1   5
ATOM      5  C   UNL d   1      -0.203  -1.061  -0.087  0.00  0.00     0.097 A 
ATOM      6  S   UNL d   1       1.279  -0.274   0.274  0.00  0.00    -0.064 SA
ATOM      7  C   UNL d   1       0.517   1.259   0.087  0.00  0.00     0.085 A 
ATOM      8  N   UNL d   1      -0.757   1.204  -0.237  0.00  0.00    -0.352 N 
ATOM      9  C   UNL d   1      -1.173  -0.107  -0.363  0.00  0.00     0.029 A 
ATOM     10  HN  UNL d   1      -1.356   2.018  -0.377  1.00  0.00     0.166 HD
ATOM     11  C   UNL d   1      -2.584  -0.354  -0.770  0.00  0.00     0.070 C 
BRANCH   7  12
ATOM     12  C   UNL d   1       1.226   2.520   0.337  0.00  0.00    -0.002 A 
ATOM     13  C   UNL d   1       2.516   2.775  -0.150  0.00  0.00     0.014 A 
ATOM     14  C   UNL d   1       3.127   4.013   0.077  0.00  0.00     0.001 A 
ATOM     15  C   UNL d   1       2.459   5.005   0.794  0.00  0.00     0.000 A 
ATOM     16  C   UNL d   1       1.177   4.767   1.280  0.00  0.00     0.001 A 
ATOM     17  C   UNL d   1       0.563   3.536   1.046  0.00  0.00     0.014 A 
ENDBRANCH   7  12
ENDBRANCH   1   5
BRANCH   2  18
ATOM     18  C   UNL d   1       0.867  -4.676  -0.073  0.00  0.00     0.035 A 
ATOM     19  C   UNL d   1      -0.191  -5.492  -0.492  0.00  0.00     0.031 A 
ATOM     20  C   UNL d   1      -0.006  -6.859  -0.708  0.00  0.00     0.027 A 
ATOM     21  C   UNL d   1       1.252  -7.420  -0.509  0.00  0.00     0.074 A 
ATOM     22  C   UNL d   1       2.308  -6.639  -0.038  0.00  0.00     0.027 A 
ATOM     23  C   UNL d   1       2.114  -5.267   0.173  0.00  0.00     0.031 A 
BRANCH  21  24
ATOM     24  S   UNL d   1       1.502  -9.127  -0.886  0.00  0.00     0.239 S 
ATOM     25  O   UNL d   1       2.655  -9.608  -0.161  0.00  0.00    -0.206 OA
ATOM     26  O   UNL d   1       0.233  -9.815  -0.879  0.00  0.00    -0.206 OA
BRANCH  24  27
ATOM     27  N   UNL d   1       1.972  -9.034  -2.496  0.00  0.00    -0.225 NA
ATOM     28  H   UNL d   1       2.920  -9.393  -2.608  0.00  0.00     0.136 HD
ATOM     29  H   UNL d   1       1.279  -9.485  -3.093  0.00  0.00     0.136 HD
ENDBRANCH  24  27
ENDBRANCH  21  24
ENDBRANCH   2  18
TORSDOF 5
