REMARK  1 active torsions:
REMARK  status: ('A' for Active; 'I' for Inactive)
REMARK    1  A    between atoms: C_8  and  C_2 
ROOT
ATOM      1  C   UNL d   1      -0.308  -0.634   0.069  0.00  0.00     0.005 A 
ATOM      2  C   UNL d   1       0.928  -1.403  -0.059  0.00  0.00     0.049 C 
ATOM      3  C   UNL d   1      -0.255   0.738  -0.043  0.00  0.00    -0.004 A 
ATOM      4  N   UNL d   1       2.080  -0.814  -0.095  0.00  0.00    -0.388 N 
ATOM      5  HN  UNL d   1       2.918  -1.375  -0.247  1.00  0.00     0.159 HD
ATOM      6  S   UNL d   1      -1.766   1.498   0.092  0.00  0.00    -0.105 SA
ATOM      7  C   UNL d   1      -1.654  -1.057   0.320  0.00  0.00     0.022 A 
ATOM      8  C   UNL d   1      -2.547  -0.004   0.330  0.00  0.00     0.051 A 
ATOM      9  C   UNL d   1       1.000   1.491  -0.302  0.00  0.00     0.066 C 
ATOM     10  C   UNL d   1       2.216   0.641   0.077  0.00  0.00     0.125 C 
ENDROOT
BRANCH   2  11
ATOM     11  C   UNL d   1       0.898  -2.889  -0.115  0.00  0.00    -0.009 A 
ATOM     12  C   UNL d   1      -0.028  -3.591  -0.896  0.00  0.00     0.015 A 
ATOM     13  C   UNL d   1      -0.018  -4.992  -0.900  0.00  0.00     0.024 A 
ATOM     14  C   UNL d   1       0.926  -5.684  -0.143  0.00  0.00     0.034 A 
ATOM     15  C   UNL d   1       1.871  -4.992   0.615  0.00  0.00     0.024 A 
ATOM     16 CL   UNL d   1       0.935  -7.404  -0.149  0.00  0.00    -0.084 Cl
ATOM     17  C   UNL d   1       1.858  -3.596   0.625  0.00  0.00     0.015 A 
ENDBRANCH   2  11
TORSDOF 1
