REMARK  7 active torsions:
REMARK  status: ('A' for Active; 'I' for Inactive)
REMARK    1  A    between atoms: N_4  and  C_1 
REMARK    2  A    between atoms: N_5  and  C_1 
REMARK    3  A    between atoms: C_2  and  C_3 
REMARK    4  A    between atoms: C_6  and  N_5 
REMARK    5  A    between atoms: C_7  and  C_11 
REMARK    6  A    between atoms: O_18  and  C_7 
REMARK    7  A    between atoms: C_21  and  O_18 
ROOT
ATOM      1  C   UNL d   1       1.042   0.032   0.271  0.00  0.00     0.174 C 
ATOM      2  S   UNL d   1       1.852  -1.002   1.316  0.00  0.00    -0.041 SA
ENDROOT
BRANCH   1   3
ATOM      3  N   UNL d   1       0.211   1.074   0.701  0.00  0.00    -0.358 N 
ATOM      4  C   UNL d   1      -0.780   0.807   1.737  0.00  0.00     0.126 C 
ATOM      5  C   UNL d   1      -1.989   1.712   1.526  0.00  0.00     0.034 C 
ATOM      6  C   UNL d   1      -1.602   3.197   1.446  0.00  0.00     0.088 C 
ATOM      7  C   UNL d   1      -0.365   3.455   0.570  0.00  0.00     0.034 C 
ATOM      8  C   UNL d   1       0.751   2.429   0.759  0.00  0.00     0.126 C 
BRANCH   6   9
ATOM      9  C   UNL d   1      -1.431   3.716   2.855  0.00  0.00     0.263 C 
ATOM     10  O   UNL d   1      -0.365   3.765   3.461  0.00  0.00    -0.265 OA
BRANCH   9  11
ATOM     11  O   UNL d   1      -2.655   3.990   3.385  0.00  0.00    -0.322 OA
BRANCH  11  12
ATOM     12  C   UNL d   1      -2.716   4.050   4.816  0.00  0.00     0.174 C 
ATOM     13  C   UNL d   1      -2.931   2.640   5.337  0.00  0.00     0.034 C 
ENDBRANCH  11  12
ENDBRANCH   9  11
ENDBRANCH   6   9
ENDBRANCH   1   3
BRANCH   1  14
ATOM     14  N   UNL d   1       1.067  -0.044  -1.117  0.00  0.00    -0.333 N 
ATOM     15  H   UNL d   1       1.093   0.850  -1.595  0.00  0.00     0.168 HD
BRANCH  14  16
ATOM     16  C   UNL d   1       1.011  -1.210  -1.925  0.00  0.00     0.049 A 
ATOM     17  C   UNL d   1       1.443  -1.191  -3.264  0.00  0.00     0.074 A 
ATOM     18  C   UNL d   1       1.244  -2.338  -4.068  0.00  0.00     0.018 A 
ATOM     19  C   UNL d   1       0.643  -3.485  -3.558  0.00  0.00     0.001 A 
ATOM     20  C   UNL d   1       0.232  -3.507  -2.233  0.00  0.00     0.002 A 
ATOM     21  C   UNL d   1       0.405  -2.377  -1.431  0.00  0.00     0.030 A 
BRANCH  17  22
ATOM     22  C   UNL d   1       2.192  -0.044  -3.888  0.00  0.00     0.419 C 
ATOM     23  F   UNL d   1       2.312   1.061  -3.097  0.00  0.00    -0.166 F 
ATOM     24  F   UNL d   1       3.463  -0.388  -4.243  0.00  0.00    -0.166 F 
ATOM     25  F   UNL d   1       1.601   0.399  -5.035  0.00  0.00    -0.166 F 
ENDBRANCH  17  22
ENDBRANCH  14  16
ENDBRANCH   1  14
TORSDOF 7
