REMARK  4 active torsions:
REMARK  status: ('A' for Active; 'I' for Inactive)
REMARK    1  A    between atoms: N_5  and  C_3 
REMARK    2  A    between atoms: S_9  and  C_3 
REMARK    3  A    between atoms: C_7  and  N_5 
REMARK    4  A    between atoms: O_10  and  C_8 
ROOT
ATOM      1  N   UNL d   1       0.080   4.596  -1.154  0.00  0.00    -0.274 N 
ATOM      2  HN  UNL d   1      -0.556   5.303  -0.784  1.00  0.00     0.180 HD
ATOM      3  C   UNL d   1       0.144   3.432  -0.612  0.00  0.00     0.153 C 
ATOM      4  C   UNL d   1       0.852   4.868  -2.201  0.00  0.00     0.183 C 
ATOM      5  N   UNL d   1       1.517   5.151  -3.106  0.00  0.00    -0.172 NA
ENDROOT
BRANCH   3   6
ATOM      6  N   UNL d   1       0.944   2.335  -0.843  0.00  0.00    -0.334 N 
ATOM      7  H   UNL d   1       0.675   1.525  -0.281  0.00  0.00     0.168 HD
BRANCH   6   8
ATOM      8  C   UNL d   1       2.351   2.347  -0.995  0.00  0.00     0.067 A 
ATOM      9  C   UNL d   1       3.036   1.258  -1.575  0.00  0.00     0.094 A 
ATOM     10  C   UNL d   1       4.433   1.289  -1.696  0.00  0.00     0.039 A 
ATOM     11  C   UNL d   1       5.165   2.384  -1.253  0.00  0.00     0.003 A 
ATOM     12  C   UNL d   1       4.508   3.449  -0.647  0.00  0.00     0.002 A 
ATOM     13  C   UNL d   1       3.122   3.425  -0.513  0.00  0.00     0.032 A 
BRANCH   9  14
ATOM     14  O   UNL d   1       2.481   0.072  -1.980  0.00  0.00    -0.354 OA
ATOM     15  C   UNL d   1       1.251   0.141  -2.693  0.00  0.00     0.210 C 
ENDBRANCH   9  14
ENDBRANCH   6   8
ENDBRANCH   3   6
BRANCH   3  16
ATOM     16  S   UNL d   1      -1.052   3.076   0.650  0.00  0.00    -0.098 SA
ATOM     17  C   UNL d   1      -1.964   4.639   0.719  0.00  0.00     0.099 C 
ENDBRANCH   3  16
TORSDOF 4
