REMARK  3 active torsions:
REMARK  status: ('A' for Active; 'I' for Inactive)
REMARK    1  A    between atoms: C_5  and  C_3 
REMARK    2  A    between atoms: C_12  and  C_4 
REMARK       I    between atoms: N_9  and  C_5 
REMARK       I    between atoms: C_8  and  N_10 
REMARK       I    between atoms: N_14  and  C_8 
REMARK    3  A    between atoms: N_10  and  N_9 
ROOT
ATOM      1  N   UNL d   1      -1.470   0.540   0.047  0.00  0.00    -0.329 N 
ATOM      2  HN  UNL d   1      -2.369   1.018   0.089  1.00  0.00     0.168 HD
ATOM      3  C   UNL d   1      -1.241  -0.765   0.018  0.00  0.00     0.219 A 
ATOM      4  C   UNL d   1      -0.205   1.103   0.009  0.00  0.00     0.074 A 
ATOM      5  O   UNL d   1       0.086  -1.099  -0.003  0.00  0.00    -0.291 OA
ATOM      6  C   UNL d   1       0.747   0.100   0.006  0.00  0.00     0.079 A 
ATOM      7  C   UNL d   1       2.219   0.007   0.030  0.00  0.00     0.079 C 
ENDROOT
BRANCH   3   8
ATOM      8  C   UNL d   1      -2.239  -1.824   0.006  0.00  0.00     0.311 C 
ATOM      9  N   UNL d   1      -3.546  -1.374   0.065  0.00  0.00    -0.259 N 
ATOM     10  H   UNL d   1      -3.773  -0.379   0.128  0.00  0.00     0.190 HD
ATOM     11  O   UNL d   1      -1.988  -3.034  -0.058  0.00  0.00    -0.262 OA
BRANCH   9  12
ATOM     12  N   UNL d   1      -4.606  -2.292   0.119  0.00  0.00    -0.249 N 
ATOM     13  C   UNL d   1      -5.888  -1.789   0.096  0.00  0.00     0.334 C 
ATOM     14  O   UNL d   1      -6.127  -0.587   0.146  0.00  0.00    -0.246 OA
ATOM     15  N   UNL d   1      -6.846  -2.767   0.044  0.00  0.00    -0.346 N 
ATOM     16  C   UNL d   1      -8.256  -2.466   0.098  0.00  0.00     0.151 C 
ATOM     17  H   UNL d   1      -6.560  -3.734   0.072  0.00  0.00     0.163 HD
ATOM     18  H   UNL d   1      -4.394  -3.240  -0.177  0.00  0.00     0.192 HD
ENDBRANCH   9  12
ENDBRANCH   3   8
BRANCH   4  19
ATOM     19  C   UNL d   1       0.031   2.541   0.018  0.00  0.00    -0.007 A 
ATOM     20  C   UNL d   1      -0.863   3.390   0.684  0.00  0.00     0.014 A 
ATOM     21  C   UNL d   1      -0.635   4.770   0.734  0.00  0.00     0.001 A 
ATOM     22  C   UNL d   1       0.489   5.318   0.117  0.00  0.00     0.000 A 
ATOM     23  C   UNL d   1       1.371   4.490  -0.571  0.00  0.00     0.001 A 
ATOM     24  C   UNL d   1       1.133   3.114  -0.634  0.00  0.00     0.014 A 
ENDBRANCH   4  19
TORSDOF 3
