REMARK  3 active torsions:
REMARK  status: ('A' for Active; 'I' for Inactive)
REMARK       I    between atoms: C_2  and  N_1 
REMARK       I    between atoms: N_6  and  C_2 
REMARK    1  A    between atoms: C_18  and  C_4 
REMARK    2  A    between atoms: C_13  and  N_6 
REMARK    3  A    between atoms: C_21  and  C_18 
ROOT
ATOM      1  N   UNL d   1      -2.479   0.327  -0.269  0.00  0.00    -0.325 N 
ATOM      2  C   UNL d   1      -3.397   0.491  -1.302  0.00  0.00     0.323 C 
ATOM      3  C   UNL d   1      -0.145   0.789   0.178  0.00  0.00    -0.022 A 
ATOM      4  C   UNL d   1      -1.555   1.345   0.306  0.00  0.00     0.123 C 
ATOM      5  C   UNL d   1       0.116  -0.561   0.004  0.00  0.00    -0.008 A 
ATOM      6  N   UNL d   1      -3.584   1.773  -1.760  0.00  0.00    -0.309 N 
ATOM      7  C   UNL d   1      -2.296  -1.048   0.246  0.00  0.00     0.133 C 
ATOM      8  S   UNL d   1       1.776  -0.917  -0.078  0.00  0.00    -0.106 SA
ATOM      9  C   UNL d   1      -0.931  -1.617  -0.156  0.00  0.00     0.067 C 
ATOM     10  C   UNL d   1       1.074   1.540   0.176  0.00  0.00     0.017 A 
ATOM     11  C   UNL d   1       2.188   0.735   0.068  0.00  0.00     0.051 A 
ATOM     12  O   UNL d   1      -4.020  -0.477  -1.738  0.00  0.00    -0.247 OA
ATOM     13  H   UNL d   1      -2.830   2.422  -1.641  0.00  0.00     0.170 HD
ENDROOT
BRANCH   4  14
ATOM     14  C   UNL d   1      -1.949   1.676   1.767  0.00  0.00     0.030 C 
BRANCH  14  15
ATOM     15  C   UNL d   1      -1.113   2.793   2.403  0.00  0.00    -0.002 C 
ATOM     16  C   UNL d   1      -1.585   3.116   3.814  0.00  0.00     0.005 C 
ENDBRANCH  14  15
ENDBRANCH   4  14
BRANCH   6  17
ATOM     17  C   UNL d   1      -4.658   2.232  -2.562  0.00  0.00     0.036 A 
ATOM     18  C   UNL d   1      -5.794   1.468  -2.850  0.00  0.00     0.031 A 
ATOM     19  C   UNL d   1      -6.860   2.013  -3.575  0.00  0.00     0.026 A 
ATOM     20  C   UNL d   1      -6.797   3.330  -4.014  0.00  0.00     0.034 A 
ATOM     21  C   UNL d   1      -5.666   4.099  -3.757  0.00  0.00     0.026 A 
ATOM     22 CL   UNL d   1      -8.129   4.016  -4.858  0.00  0.00    -0.084 Cl
ATOM     23  C   UNL d   1      -4.598   3.550  -3.035  0.00  0.00     0.031 A 
ENDBRANCH   6  17
TORSDOF 3
