REMARK  4 active torsions:
REMARK  status: ('A' for Active; 'I' for Inactive)
REMARK    1  A    between atoms: C_13  and  C_1 
REMARK    2  A    between atoms: C_16  and  C_4 
REMARK    3  A    between atoms: C_5  and  N_12 
REMARK       I    between atoms: C_11  and  N_15 
REMARK       I    between atoms: N_12  and  C_11 
REMARK    4  A    between atoms: N_15  and  C_13 
ROOT
ATOM      1  C   UNL d   1       1.965  -3.874  -0.759  0.00  0.00     0.321 C 
ATOM      2  N   UNL d   1       3.231  -3.917  -1.301  0.00  0.00    -0.308 N 
ATOM      3  N   UNL d   1       1.780  -2.764   0.034  0.00  0.00    -0.338 N 
ATOM      4  O   UNL d   1       1.066  -4.682  -0.950  0.00  0.00    -0.247 OA
ATOM      5  H   UNL d   1       3.958  -3.459  -0.776  0.00  0.00     0.170 HD
ATOM      6  H   UNL d   1       2.578  -2.356   0.494  0.00  0.00     0.164 HD
ENDROOT
BRANCH   3   7
ATOM      7  C   UNL d   1       0.472  -2.478   0.584  0.00  0.00     0.168 C 
BRANCH   7   8
ATOM      8  C   UNL d   1       0.056  -1.072   0.330  0.00  0.00     0.020 A 
ATOM      9  C   UNL d   1      -1.174  -0.443   0.752  0.00  0.00     0.075 A 
ATOM     10  N   UNL d   1      -1.190   0.842   0.364  0.00  0.00    -0.260 N 
ATOM     11  O   UNL d   1      -0.033   1.062  -0.335  0.00  0.00    -0.242 OA
ATOM     12  HN  UNL d   1      -1.924   1.524   0.553  1.00  0.00     0.195 HD
ATOM     13  C   UNL d   1       0.708  -0.070  -0.367  0.00  0.00     0.082 A 
ATOM     14  C   UNL d   1       1.973   0.032  -1.125  0.00  0.00     0.079 C 
BRANCH   9  15
ATOM     15  C   UNL d   1      -2.317  -0.984   1.507  0.00  0.00    -0.007 A 
ATOM     16  C   UNL d   1      -2.708  -2.327   1.423  0.00  0.00     0.014 A 
ATOM     17  C   UNL d   1      -3.805  -2.805   2.149  0.00  0.00     0.001 A 
ATOM     18  C   UNL d   1      -4.546  -1.942   2.950  0.00  0.00     0.000 A 
ATOM     19  C   UNL d   1      -4.191  -0.599   3.026  0.00  0.00     0.001 A 
ATOM     20  C   UNL d   1      -3.084  -0.126   2.315  0.00  0.00     0.014 A 
ENDBRANCH   9  15
ENDBRANCH   7   8
ENDBRANCH   3   7
BRANCH   2  21
ATOM     21  C   UNL d   1       3.651  -4.859  -2.245  0.00  0.00     0.054 C 
ATOM     22  C   UNL d   1       2.871  -5.560  -3.249  0.00  0.00     0.008 A 
ATOM     23  C   UNL d   1       3.634  -6.549  -3.883  0.00  0.00     0.017 A 
ATOM     24  C   UNL d   1       1.524  -5.421  -3.682  0.00  0.00     0.015 A 
ATOM     25  C   UNL d   1       3.068  -7.447  -4.813  0.00  0.00     0.020 A 
ATOM     26  S   UNL d   1       5.281  -6.488  -3.393  0.00  0.00    -0.099 SA
ATOM     27  C   UNL d   1       1.720  -7.323  -5.150  0.00  0.00     0.001 A 
ATOM     28  C   UNL d   1       0.959  -6.302  -4.609  0.00  0.00     0.001 A 
ATOM     29  C   UNL d   1       4.986  -5.203  -2.316  0.00  0.00     0.081 C 
ENDBRANCH   2  21
TORSDOF 4
