REMARK  3 active torsions:
REMARK  status: ('A' for Active; 'I' for Inactive)
REMARK    1  A    between atoms: C_3  and  C_1 
REMARK    2  A    between atoms: S_8  and  C_3 
REMARK    3  A    between atoms: C_10  and  S_8 
ROOT
ATOM      1  C   UNL d   1       2.994  -1.357   1.446  0.00  0.00     0.241 C 
ATOM      2  O   UNL d   1       2.395  -0.465   2.037  0.00  0.00    -0.278 OA
ENDROOT
BRANCH   1   3
ATOM      3  C   UNL d   1       2.907  -2.756   1.855  0.00  0.00     0.110 A 
ATOM      4  N   UNL d   1       3.591  -3.789   1.213  0.00  0.00    -0.288 N 
ATOM      5  N   UNL d   1       3.354  -4.966   1.768  0.00  0.00    -0.061 NA
ATOM      6  HN  UNL d   1       4.204  -3.652   0.409  1.00  0.00     0.183 HD
ATOM      7  S   UNL d   1       2.310  -4.875   3.069  0.00  0.00    -0.010 SA
ATOM      8  C   UNL d   1       2.133  -3.178   2.928  0.00  0.00     0.100 A 
ENDBRANCH   1   3
BRANCH   1   9
ATOM      9  S   UNL d   1       4.013  -1.047   0.039  0.00  0.00    -0.046 SA
BRANCH   9  10
ATOM     10  C   UNL d   1       3.987   0.734  -0.030  0.00  0.00     0.008 A 
ATOM     11  C   UNL d   1       4.934   1.481   0.676  0.00  0.00     0.019 A 
ATOM     12  C   UNL d   1       4.898   2.878   0.644  0.00  0.00     0.008 A 
ATOM     13  C   UNL d   1       3.915   3.547  -0.094  0.00  0.00    -0.062 A 
ATOM     14  C   UNL d   1       2.997   2.797  -0.837  0.00  0.00     0.008 A 
ATOM     15  C   UNL d   1       3.869   5.047  -0.099  0.00  0.00     0.048 C 
ATOM     16  C   UNL d   1       3.032   1.399  -0.804  0.00  0.00     0.019 A 
ENDBRANCH   9  10
ENDBRANCH   1   9
TORSDOF 3
