REMARK  1 active torsions:
REMARK  status: ('A' for Active; 'I' for Inactive)
REMARK    1  A    between atoms: C_12  and  C_7 
ROOT
ATOM      1  C   UNL d   1      -1.255   0.646  -0.067  0.00  0.00     0.120 C 
ATOM      2  C   UNL d   1      -1.308  -0.701  -0.034  0.00  0.00     0.068 C 
ATOM      3  C   UNL d   1      -2.623  -1.374  -0.104  0.00  0.00     0.258 C 
ATOM      4  C   UNL d   1       1.214  -0.728  -0.067  0.00  0.00     0.024 C 
ATOM      5  N   UNL d   1      -2.417   1.365  -0.102  0.00  0.00    -0.319 N 
ATOM      6  N   UNL d   1      -3.716  -0.553  -0.037  0.00  0.00    -0.299 N 
ATOM      7  C   UNL d   1      -0.057  -1.559   0.106  0.00  0.00     0.107 C 
ATOM      8  C   UNL d   1       1.181   0.622  -0.087  0.00  0.00     0.022 C 
ATOM      9  N   UNL d   1      -0.034   1.282  -0.048  0.00  0.00    -0.345 N 
ATOM     10  C   UNL d   1      -3.660   0.806  -0.058  0.00  0.00     0.180 C 
ATOM     11  C   UNL d   1       2.513  -1.443  -0.206  0.00  0.00     0.159 C 
ATOM     12  C   UNL d   1       2.432   1.468  -0.105  0.00  0.00     0.067 C 
ATOM     13  C   UNL d   1       3.664   0.727   0.457  0.00  0.00    -0.036 C 
ATOM     14  C   UNL d   1       3.791  -0.627  -0.261  0.00  0.00     0.092 C 
ATOM     15  S   UNL d   1      -5.031   1.744  -0.035  0.00  0.00    -0.040 SA
ATOM     16  O   UNL d   1      -2.736  -2.588  -0.237  0.00  0.00    -0.267 OA
ATOM     17  O   UNL d   1       2.542  -2.663  -0.357  0.00  0.00    -0.293 OA
ATOM     18  C   UNL d   1       3.542   0.521   1.983  0.00  0.00     0.015 C 
ATOM     19  C   UNL d   1       4.927   1.566   0.199  0.00  0.00     0.015 C 
ATOM     20  H   UNL d   1      -2.373   2.376  -0.109  0.00  0.00     0.170 HD
ATOM     21  H   UNL d   1      -4.620  -1.003  -0.053  0.00  0.00     0.171 HD
ATOM     22  H   UNL d   1      -0.030   2.294  -0.094  0.00  0.00     0.167 HD
ENDROOT
BRANCH   7  23
ATOM     23  C   UNL d   1      -0.048  -2.344   1.422  0.00  0.00    -0.004 A 
ATOM     24  S   UNL d   1      -0.085  -1.532   2.938  0.00  0.00    -0.105 SA
ATOM     25  C   UNL d   1      -0.043  -3.005   3.801  0.00  0.00     0.050 A 
ATOM     26  C   UNL d   1      -0.013  -4.095   2.963  0.00  0.00     0.008 A 
ATOM     27  C   UNL d   1      -0.017  -3.715   1.591  0.00  0.00     0.016 A 
ENDBRANCH   7  23
TORSDOF 1
