REMARK  3 active torsions:
REMARK  status: ('A' for Active; 'I' for Inactive)
REMARK    1  A    between atoms: C_6  and  C_1 
REMARK    2  A    between atoms: C_5  and  C_2 
REMARK    3  A    between atoms: O_16  and  C_6 
ROOT
ATOM      1  C   UNL d   1       0.685  -2.651   0.020  0.00  0.00     0.114 C 
ATOM      2  C   UNL d   1       0.777  -3.419  -1.096  0.00  0.00     0.158 C 
ATOM      3  C   UNL d   1       0.337  -2.917  -2.354  0.00  0.00     0.113 C 
ATOM      4  C   UNL d   1       1.343  -4.723  -1.116  0.00  0.00     0.113 C 
ATOM      5  N   UNL d   1       0.016  -2.505  -3.388  0.00  0.00    -0.191 NA
ATOM      6  N   UNL d   1       1.798  -5.787  -1.132  0.00  0.00    -0.191 NA
ENDROOT
BRANCH   1   7
ATOM      7  C   UNL d   1       0.075  -1.351   0.038  0.00  0.00     0.060 A 
ATOM      8  C   UNL d   1      -1.296  -0.928   0.149  0.00  0.00     0.084 A 
ATOM      9  N   UNL d   1      -1.321   0.409   0.301  0.00  0.00    -0.259 N 
ATOM     10  O   UNL d   1      -0.032   0.864   0.172  0.00  0.00    -0.241 OA
ATOM     11  HN  UNL d   1      -2.147   0.980   0.478  1.00  0.00     0.195 HD
ATOM     12  C   UNL d   1       0.808  -0.183   0.014  0.00  0.00     0.088 A 
ATOM     13  C   UNL d   1       2.242   0.139  -0.120  0.00  0.00     0.080 C 
BRANCH   8  14
ATOM     14  C   UNL d   1      -2.573  -1.673   0.109  0.00  0.00     0.037 A 
ATOM     15  C   UNL d   1      -2.808  -2.849   0.850  0.00  0.00     0.048 A 
ATOM     16 CL   UNL d   1      -1.719  -3.490   2.026  0.00  0.00    -0.083 Cl
ATOM     17  C   UNL d   1      -4.020  -3.556   0.743  0.00  0.00     0.025 A 
ATOM     18  C   UNL d   1      -5.060  -3.071  -0.037  0.00  0.00     0.003 A 
ATOM     19  C   UNL d   1      -4.885  -1.881  -0.727  0.00  0.00     0.025 A 
ATOM     20  C   UNL d   1      -3.656  -1.200  -0.678  0.00  0.00     0.048 A 
ATOM     21 CL   UNL d   1      -3.585   0.225  -1.670  0.00  0.00    -0.083 Cl
ENDBRANCH   8  14
ENDBRANCH   1   7
BRANCH   1  22
ATOM     22  O   UNL d   1       1.168  -2.897   1.286  0.00  0.00    -0.353 OA
ATOM     23  C   UNL d   1       1.849  -4.074   1.680  0.00  0.00     0.210 C 
ENDBRANCH   1  22
TORSDOF 3
