REMARK  6 active torsions:
REMARK  status: ('A' for Active; 'I' for Inactive)
REMARK    1  A    between atoms: C_3  and  C_1 
REMARK    2  A    between atoms: C_4  and  CA_2 
REMARK       I    between atoms: N_7  and  C_3 
REMARK    3  A    between atoms: OXT_17  and  C_4 
REMARK    4  A    between atoms: C_14  and  N_7 
REMARK    5  A    between atoms: C_15  and  C_14 
REMARK    6  A    between atoms: C_16  and  C_15 
ROOT
ATOM      1  C   UNL d   1      -1.410  -2.417  -0.239  0.00  0.00     0.272 C 
ATOM      2  N   UNL d   1      -0.997  -3.731  -0.488  0.00  0.00    -0.351 N 
ATOM      3  O   UNL d   1      -2.483  -2.160   0.306  0.00  0.00    -0.266 OA
ATOM      4  C   UNL d   1       0.303  -4.115  -1.020  0.00  0.00     0.153 C 
ENDROOT
BRANCH   1   5
ATOM      5  C   UNL d   1      -0.514  -1.268  -0.548  0.00  0.00     0.134 A 
ATOM      6  CA  UNL d   1      -1.014  -0.053  -0.991  0.00  0.00     0.139 A 
ATOM      7  N   UNL d   1      -0.248   1.093  -1.042  0.00  0.00    -0.357 N 
ATOM      8  C   UNL d   1       1.046   0.937  -0.683  0.00  0.00     0.105 A 
ATOM      9  HN  UNL d   1      -0.631   1.994  -1.330  1.00  0.00     0.165 HD
ATOM     10  C   UNL d   1       1.560  -0.281  -0.273  0.00  0.00     0.105 A 
ATOM     11  N   UNL d   1       0.799  -1.396  -0.175  0.00  0.00    -0.358 N 
ATOM     12  HN  UNL d   1       1.181  -2.281   0.158  1.00  0.00     0.165 HD
BRANCH   6  13
ATOM     13  C   UNL d   1      -2.389   0.126  -1.528  0.00  0.00     0.196 C 
ATOM     14  O   UNL d   1      -3.076  -0.739  -2.037  0.00  0.00    -0.645 OA
BRANCH  13  15
ATOM     15  OXT UNL d   1      -2.739   1.438  -1.484  0.00  0.00    -0.772 OA
ATOM     16  HXT UNL d   1      -1.977   1.976  -1.168  0.00  0.00     0.167 HD
ENDBRANCH  13  15
ENDBRANCH   6  13
ENDBRANCH   1   5
BRANCH   2  17
ATOM     17  C   UNL d   1      -1.863  -4.822  -0.030  0.00  0.00     0.131 C 
BRANCH  17  18
ATOM     18  C   UNL d   1      -3.042  -5.071  -0.975  0.00  0.00     0.077 C 
BRANCH  18  19
ATOM     19  C   UNL d   1      -3.809  -6.301  -0.564  0.00  0.00     0.010 A 
ATOM     20  N   UNL d   1      -3.160  -7.489  -0.663  0.00  0.00    -0.369 N 
ATOM     21  C   UNL d   1      -3.834  -8.601  -0.297  0.00  0.00     0.088 A 
ATOM     22  HN  UNL d   1      -2.200  -7.540  -1.002  1.00  0.00     0.165 HD
ATOM     23  C   UNL d   1      -5.137  -8.593   0.169  0.00  0.00     0.017 A 
ATOM     24  C   UNL d   1      -5.790  -7.371   0.261  0.00  0.00     0.003 A 
ATOM     25  C   UNL d   1      -5.123  -6.207  -0.109  0.00  0.00     0.025 A 
ENDBRANCH  18  19
ENDBRANCH  17  18
ENDBRANCH   2  17
TORSDOF 6
