REMARK  3 active torsions:
REMARK  status: ('A' for Active; 'I' for Inactive)
REMARK    1  A    between atoms: C_6  and  C_1 
REMARK    2  A    between atoms: O_10  and  C_2 
REMARK    3  A    between atoms: O_11  and  C_6 
ROOT
ATOM      1  C   UNL d   1      -0.108  -1.335   0.039  0.00  0.00     0.116 A 
ATOM      2  C   UNL d   1       1.131  -0.693   0.024  0.00  0.00     0.110 A 
ATOM      3  C   UNL d   1       0.975   0.738  -0.018  0.00  0.00     0.070 A 
ATOM      4  S   UNL d   1      -1.396  -0.166  -0.022  0.00  0.00    -0.072 SA
ATOM      5  C   UNL d   1      -0.331   1.138  -0.040  0.00  0.00     0.072 A 
ATOM      6 BR   UNL d   1       2.484   1.897  -0.034  0.00  0.00    -0.046 Br
ATOM      7 BR   UNL d   1      -0.941   2.912  -0.082  0.00  0.00    -0.042 Br
ENDROOT
BRANCH   1   8
ATOM      8  C   UNL d   1      -0.509  -2.736   0.045  0.00  0.00     0.302 C 
ATOM      9  O   UNL d   1       0.084  -3.667  -0.485  0.00  0.00    -0.259 OA
BRANCH   8  10
ATOM     10  O   UNL d   1      -1.681  -2.899   0.734  0.00  0.00    -0.322 OA
ATOM     11  C   UNL d   1      -2.201  -4.229   0.725  0.00  0.00     0.213 C 
ENDBRANCH   8  10
ENDBRANCH   1   8
BRANCH   2  12
ATOM     12  O   UNL d   1       2.395  -1.198   0.091  0.00  0.00    -0.353 OA
ATOM     13  C   UNL d   1       2.591  -2.594   0.016  0.00  0.00     0.210 C 
ENDBRANCH   2  12
TORSDOF 3
