REMARK  1 active torsions:
REMARK  status: ('A' for Active; 'I' for Inactive)
REMARK    1  A    between atoms: C_7  and  C_1 
ROOT
ATOM      1  C   UNL d   1      -2.026  -0.881  -0.025  0.00  0.00     0.121 A 
ATOM      2  N   UNL d   1      -0.956  -1.649  -0.015  0.00  0.00    -0.346 N 
ATOM      3  HN  UNL d   1      -0.966  -2.669  -0.013  1.00  0.00     0.167 HD
ATOM      4  S   UNL d   1      -1.733   0.807  -0.021  0.00  0.00    -0.067 SA
ATOM      5  C   UNL d   1       0.186  -0.863  -0.008  0.00  0.00     0.050 A 
ATOM      6  C   UNL d   1      -0.037   0.515  -0.011  0.00  0.00     0.033 A 
ATOM      7  C   UNL d   1       1.514  -1.335   0.000  0.00  0.00     0.031 A 
ATOM      8  C   UNL d   1       1.022   1.438  -0.008  0.00  0.00     0.021 A 
ATOM      9  C   UNL d   1       2.330   0.945  -0.001  0.00  0.00     0.002 A 
ATOM     10  C   UNL d   1       2.576  -0.425   0.003  0.00  0.00     0.002 A 
ENDROOT
BRANCH   1  11
ATOM     11  C   UNL d   1      -3.389  -1.395  -0.041  0.00  0.00     0.179 C 
ATOM     12  O   UNL d   1      -4.398  -0.683  -0.050  0.00  0.00    -0.291 OA
ATOM     13  C   UNL d   1      -3.561  -2.897  -0.049  0.00  0.00     0.099 C 
ENDBRANCH   1  11
TORSDOF 1
