REMARK  5 active torsions:
REMARK  status: ('A' for Active; 'I' for Inactive)
REMARK    1  A    between atoms: C_7  and  C_1 
REMARK    2  A    between atoms: N_3  and  C_2 
REMARK       I    between atoms: C_6  and  N_3 
REMARK    3  A    between atoms: C_9  and  C_6 
REMARK    4  A    between atoms: C_10  and  C_11 
REMARK    5  A    between atoms: O_15  and  C_10 
ROOT
ATOM      1  N   UNL d   1       2.422   1.598   0.226  0.00  0.00    -0.322 N 
ATOM      2  C   UNL d   1       2.314   2.907   0.631  0.00  0.00     0.245 C 
ATOM      3  O   UNL d   1       1.277   3.520   0.841  0.00  0.00    -0.268 OA
ATOM      4  H   UNL d   1       3.320   1.145   0.346  0.00  0.00     0.169 HD
ENDROOT
BRANCH   1   5
ATOM      5  C   UNL d   1       1.365   0.746  -0.093  0.00  0.00     0.056 A 
ATOM      6  C   UNL d   1       0.085   1.034  -0.553  0.00  0.00     0.077 A 
ATOM      7  S   UNL d   1      -0.876  -0.406  -0.636  0.00  0.00    -0.096 SA
ATOM      8  C   UNL d   1       0.431  -1.403  -0.207  0.00  0.00     0.053 A 
ATOM      9  C   UNL d   1       1.567  -0.673   0.028  0.00  0.00     0.038 A 
BRANCH   6  10
ATOM     10  C   UNL d   1      -0.582   2.251  -1.020  0.00  0.00     0.164 C 
ATOM     11  O   UNL d   1      -1.798   2.442  -0.902  0.00  0.00    -0.292 OA
ATOM     12  C   UNL d   1       0.211   3.251  -1.830  0.00  0.00     0.097 C 
ENDBRANCH   6  10
ENDBRANCH   1   5
BRANCH   2  13
ATOM     13  C   UNL d   1       3.644   3.546   0.788  0.00  0.00     0.081 C 
ATOM     14  C   UNL d   1       3.704   4.858   1.048  0.00  0.00     0.086 C 
BRANCH  14  15
ATOM     15  C   UNL d   1       5.007   5.527   1.001  0.00  0.00     0.165 C 
ATOM     16  O   UNL d   1       6.097   5.001   0.902  0.00  0.00    -0.647 OA
BRANCH  15  17
ATOM     17  O   UNL d   1       4.834   6.857   0.996  0.00  0.00    -0.773 OA
ATOM     18  H   UNL d   1       5.733   7.226   0.877  0.00  0.00     0.167 HD
ENDBRANCH  15  17
ENDBRANCH  14  15
ENDBRANCH   2  13
TORSDOF 5
