REMARK  2 active torsions:
REMARK  status: ('A' for Active; 'I' for Inactive)
REMARK    1  A    between atoms: C_8  and  C_2 
REMARK    2  A    between atoms: N_9  and  C_5 
ROOT
ATOM      1  S   UNL d   1       0.235  -0.984  -0.722  0.00  0.00    -0.033 SA
ATOM      2  C   UNL d   1       1.554  -0.113  -0.035  0.00  0.00     0.102 A 
ATOM      3  N   UNL d   1       1.185   1.006   0.559  0.00  0.00    -0.291 N 
ATOM      4  HN  UNL d   1       1.833   1.637   1.029  1.00  0.00     0.187 HD
ATOM      5  C   UNL d   1      -0.802   0.260  -0.157  0.00  0.00     0.159 A 
ATOM      6  N   UNL d   1      -0.176   1.226   0.473  0.00  0.00    -0.279 N 
ATOM      7  HN  UNL d   1      -0.642   2.048   0.856  1.00  0.00     0.189 HD
ENDROOT
BRANCH   2   8
ATOM      8  C   UNL d   1       2.935  -0.618  -0.085  0.00  0.00    -0.001 A 
ATOM      9  C   UNL d   1       3.407  -1.439  -1.123  0.00  0.00     0.016 A 
ATOM     10  C   UNL d   1       4.733  -1.886  -1.138  0.00  0.00     0.024 A 
ATOM     11  C   UNL d   1       5.603  -1.516  -0.116  0.00  0.00     0.034 A 
ATOM     12  C   UNL d   1       5.159  -0.700   0.921  0.00  0.00     0.024 A 
ATOM     13 CL   UNL d   1       7.233  -2.064  -0.139  0.00  0.00    -0.084 Cl
ATOM     14  C   UNL d   1       3.834  -0.251   0.932  0.00  0.00     0.016 A 
ENDBRANCH   2   8
BRANCH   5  15
ATOM     15  N   UNL d   1      -2.131   0.217  -0.367  0.00  0.00    -0.379 N 
ATOM     16  H   UNL d   1      -2.494  -0.390  -1.090  0.00  0.00     0.158 HD
ATOM     17  H   UNL d   1      -2.638   1.087  -0.243  0.00  0.00     0.158 HD
ENDBRANCH   5  15
TORSDOF 2
