REMARK  3 active torsions:
REMARK  status: ('A' for Active; 'I' for Inactive)
REMARK    1  A    between atoms: N_6  and  C_2 
REMARK    2  A    between atoms: C_8  and  C_12 
REMARK    3  A    between atoms: O_18  and  C_11 
ROOT
ATOM      1  C   UNL d   1       1.317  -1.198   0.025  0.00  0.00     0.085 A 
ATOM      2  C   UNL d   1       2.272  -0.172   0.023  0.00  0.00     0.095 A 
ATOM      3  S   UNL d   1       1.474   1.393   0.000  0.00  0.00    -0.075 SA
ATOM      4  C   UNL d   1      -0.001  -0.681   0.065  0.00  0.00    -0.021 A 
ATOM      5  C   UNL d   1      -0.029   0.683   0.057  0.00  0.00    -0.007 A 
ATOM      6  C   UNL d   1       1.602  -2.599   0.005  0.00  0.00     0.103 C 
ATOM      7  N   UNL d   1       1.796  -3.748   0.012  0.00  0.00    -0.191 NA
ATOM      8  C   UNL d   1      -1.375  -1.240   0.133  0.00  0.00     0.042 C 
ATOM      9  C   UNL d   1      -1.390   1.263   0.114  0.00  0.00     0.047 C 
ATOM     10  C   UNL d   1      -2.255   0.005  -0.205  0.00  0.00     0.010 C 
ENDROOT
BRANCH   2  11
ATOM     11  N   UNL d   1       3.634  -0.117  -0.015  0.00  0.00    -0.358 N 
ATOM     12  C   UNL d   1       4.316  -1.032   0.589  0.00  0.00     0.103 C 
ATOM     13  HN  UNL d   1       4.107   0.636  -0.514  1.00  0.00     0.166 HD
BRANCH  12  14
ATOM     14  C   UNL d   1       5.791  -1.018   0.586  0.00  0.00     0.016 A 
ATOM     15  C   UNL d   1       6.476  -2.047   1.236  0.00  0.00     0.099 A 
ATOM     16  C   UNL d   1       7.872  -2.051   1.244  0.00  0.00     0.069 A 
ATOM     17 CL   UNL d   1       8.729  -3.323   2.033  0.00  0.00    -0.081 Cl
ATOM     18  C   UNL d   1       8.582  -1.031   0.614  0.00  0.00     0.050 A 
ATOM     19  C   UNL d   1       7.888  -0.007  -0.033  0.00  0.00     0.036 A 
ATOM     20  C   UNL d   1       6.495   0.006  -0.058  0.00  0.00     0.039 A 
ATOM     21 CL   UNL d   1       8.767   1.260  -0.795  0.00  0.00    -0.084 Cl
BRANCH  15  22
ATOM     22  O   UNL d   1       5.764  -3.043   1.851  0.00  0.00    -0.358 OA
ATOM     23  H   UNL d   1       6.393  -3.688   2.224  0.00  0.00     0.217 HD
ENDBRANCH  15  22
ENDBRANCH  12  14
ENDBRANCH   2  11
TORSDOF 3
