REMARK  8 active torsions:
REMARK  status: ('A' for Active; 'I' for Inactive)
REMARK    1  A    between atoms: N_3  and  C_1 
REMARK    2  A    between atoms: C_8  and  C_2 
REMARK       I    between atoms: C_4  and  N_3 
REMARK    3  A    between atoms: C_7  and  C_4 
REMARK    4  A    between atoms: O_16  and  C_8 
REMARK    5  A    between atoms: C_11  and  C_9 
REMARK    6  A    between atoms: C_19  and  C_10 
REMARK    7  A    between atoms: O_15  and  C_11 
REMARK    8  A    between atoms: C_20  and  O_16 
ROOT
ATOM      1  N   UNL d   1      -0.340   2.544   0.549  0.00  0.00    -0.316 N 
ATOM      2  C   UNL d   1      -0.102   3.539  -0.383  0.00  0.00     0.257 C 
ATOM      3  O   UNL d   1       0.704   3.441  -1.302  0.00  0.00    -0.267 OA
ATOM      4  H   UNL d   1      -1.255   2.454   0.971  0.00  0.00     0.169 HD
ENDROOT
BRANCH   1   5
ATOM      5  C   UNL d   1       0.309   1.331   0.456  0.00  0.00     0.093 C 
ATOM      6  C   UNL d   1       1.624   0.933   0.314  0.00  0.00     0.074 C 
ATOM      7  C   UNL d   1       1.661  -0.507   0.139  0.00  0.00     0.035 C 
ATOM      8  C   UNL d   1       0.416  -1.105   0.210  0.00  0.00    -0.015 C 
ATOM      9  S   UNL d   1      -0.790   0.043   0.578  0.00  0.00    -0.076 SA
BRANCH   6  10
ATOM     10  C   UNL d   1       2.820   1.780   0.407  0.00  0.00     0.296 C 
ATOM     11  O   UNL d   1       3.957   1.335   0.276  0.00  0.00    -0.259 OA
BRANCH  10  12
ATOM     12  O   UNL d   1       2.548   3.067   0.759  0.00  0.00    -0.318 OA
BRANCH  12  13
ATOM     13  C   UNL d   1       3.645   3.951   1.019  0.00  0.00     0.174 C 
ATOM     14  C   UNL d   1       4.049   4.723  -0.225  0.00  0.00     0.034 C 
ENDBRANCH  12  13
ENDBRANCH  10  12
ENDBRANCH   6  10
BRANCH   8  15
ATOM     15  C   UNL d   1       0.039  -2.549   0.054  0.00  0.00     0.042 C 
ATOM     16  C   UNL d   1      -0.267  -2.900  -1.395  0.00  0.00     0.010 C 
ENDBRANCH   8  15
ENDBRANCH   1   5
BRANCH   2  17
ATOM     17  C   UNL d   1      -0.936   4.795  -0.321  0.00  0.00     0.049 A 
ATOM     18  C   UNL d   1      -2.147   4.986   0.364  0.00  0.00     0.053 A 
ATOM     19  C   UNL d   1      -2.808   6.228   0.341  0.00  0.00     0.019 A 
ATOM     20  C   UNL d   1      -2.287   7.288  -0.394  0.00  0.00     0.001 A 
ATOM     21  C   UNL d   1      -1.099   7.118  -1.095  0.00  0.00     0.001 A 
ATOM     22  C   UNL d   1      -0.432   5.889  -1.055  0.00  0.00     0.018 A 
BRANCH  18  23
ATOM     23  C   UNL d   1      -2.839   3.950   1.139  0.00  0.00     0.177 C 
ATOM     24  O   UNL d   1      -3.111   4.059   2.320  0.00  0.00    -0.646 OA
BRANCH  23  25
ATOM     25  O   UNL d   1      -3.103   2.851   0.406  0.00  0.00    -0.773 OA
ATOM     26  H   UNL d   1      -2.986   2.938  -0.563  0.00  0.00     0.167 HD
ENDBRANCH  23  25
ENDBRANCH  18  23
ENDBRANCH   2  17
TORSDOF 8
