REMARK  6 active torsions:
REMARK  status: ('A' for Active; 'I' for Inactive)
REMARK    1  A    between atoms: C_4  and  N_1 
REMARK    2  A    between atoms: C_9  and  C_5 
REMARK    3  A    between atoms: S_8  and  C_6 
REMARK    4  A    between atoms: C_10  and  S_8 
REMARK    5  A    between atoms: O_16  and  C_9 
REMARK    6  A    between atoms: N_15  and  C_14 
ROOT
ATOM      1  N   UNL d   1       0.057   0.835  -0.027  0.00  0.00    -0.250 N 
ATOM      2  C   UNL d   1      -1.107   0.112   0.014  0.00  0.00     0.232 C 
ATOM      3  C   UNL d   1       1.168   0.039  -0.135  0.00  0.00     0.245 C 
ATOM      4  C   UNL d   1       0.719  -1.411  -0.191  0.00  0.00     0.154 C 
ATOM      5  C   UNL d   1      -0.764  -1.341   0.145  0.00  0.00     0.129 C 
ATOM      6  O   UNL d   1      -2.253   0.540  -0.057  0.00  0.00    -0.273 OA
ATOM      7  O   UNL d   1       2.338   0.399  -0.190  0.00  0.00    -0.271 OA
ENDROOT
BRANCH   1   8
ATOM      8  C   UNL d   1       0.096   2.252  -0.026  0.00  0.00     0.061 A 
ATOM      9  C   UNL d   1      -0.552   3.032   0.956  0.00  0.00     0.066 A 
ATOM     10  C   UNL d   1      -0.496   4.437   0.875  0.00  0.00     0.020 A 
ATOM     11  C   UNL d   1       0.167   5.065  -0.179  0.00  0.00     0.001 A 
ATOM     12  C   UNL d   1       0.803   4.298  -1.149  0.00  0.00     0.002 A 
ATOM     13  C   UNL d   1       0.785   2.904  -1.064  0.00  0.00     0.031 A 
BRANCH   9  14
ATOM     14  C   UNL d   1      -1.161   2.404   2.162  0.00  0.00     0.295 C 
ATOM     15  O   UNL d   1      -0.824   1.320   2.614  0.00  0.00    -0.259 OA
BRANCH  14  16
ATOM     16  O   UNL d   1      -2.115   3.222   2.673  0.00  0.00    -0.322 OA
ATOM     17  C   UNL d   1      -2.780   2.728   3.836  0.00  0.00     0.213 C 
ENDBRANCH  14  16
ENDBRANCH   9  14
ENDBRANCH   1   8
BRANCH   4  18
ATOM     18  S   UNL d   1       1.078  -2.024  -1.886  0.00  0.00    -0.113 SA
BRANCH  18  19
ATOM     19  C   UNL d   1       0.625  -3.760  -1.762  0.00  0.00     0.022 A 
ATOM     20  C   UNL d   1      -0.340  -4.289  -2.647  0.00  0.00     0.022 A 
ATOM     21  C   UNL d   1      -0.689  -5.641  -2.548  0.00  0.00     0.024 A 
ATOM     22  C   UNL d   1      -0.008  -6.489  -1.675  0.00  0.00     0.002 A 
ATOM     23  C   UNL d   1       0.994  -5.980  -0.853  0.00  0.00     0.001 A 
ATOM     24  C   UNL d   1       1.305  -4.617  -0.887  0.00  0.00     0.020 A 
BRANCH  20  25
ATOM     25  N   UNL d   1      -1.108  -3.448  -3.479  0.00  0.00    -0.302 NA
ATOM     26  H   UNL d   1      -0.581  -2.614  -3.736  0.00  0.00     0.124 HD
ATOM     27  H   UNL d   1      -1.493  -3.922  -4.289  0.00  0.00     0.124 HD
ENDBRANCH  20  25
ENDBRANCH  18  19
ENDBRANCH   4  18
TORSDOF 6
