REMARK  2 active torsions:
REMARK  status: ('A' for Active; 'I' for Inactive)
REMARK       I    between atoms: C_2  and  N_1 
REMARK       I    between atoms: C_5  and  N_1 
REMARK    1  A    between atoms: C_3  and  C_2 
REMARK    2  A    between atoms: S_13  and  C_5 
ROOT
ATOM      1  N   UNL d   1       1.308  -0.085   0.244  0.00  0.00    -0.282 N 
ATOM      2  C   UNL d   1       0.358   0.619   0.947  0.00  0.00     0.282 C 
ATOM      3  C   UNL d   1       1.044  -1.111  -0.616  0.00  0.00     0.286 C 
ATOM      4  O   UNL d   1      -0.844   0.392   0.968  0.00  0.00    -0.265 OA
ATOM      5  O   UNL d   1      -0.006  -1.697  -0.809  0.00  0.00    -0.260 OA
ATOM      6  H   UNL d   1       2.268   0.227   0.270  0.00  0.00     0.172 HD
ENDROOT
BRANCH   2   7
ATOM      7  C   UNL d   1       0.950   1.752   1.727  0.00  0.00     0.147 A 
ATOM      8  O   UNL d   1       2.355   1.923   1.706  0.00  0.00    -0.270 OA
ATOM      9  C   UNL d   1       2.936   2.939   2.415  0.00  0.00     0.288 A 
ATOM     10  O   UNL d   1       4.149   3.108   2.430  0.00  0.00    -0.260 OA
ATOM     11  C   UNL d   1       2.045   3.841   3.168  0.00  0.00     0.082 A 
ATOM     12  C   UNL d   1       0.721   3.658   3.162  0.00  0.00     0.009 A 
ATOM     13  C   UNL d   1       0.147   2.572   2.420  0.00  0.00     0.043 A 
ENDBRANCH   2   7
BRANCH   3  14
ATOM     14  S   UNL d   1       2.529  -1.538  -1.450  0.00  0.00    -0.073 SA
ATOM     15  C   UNL d   1       1.921  -2.919  -2.445  0.00  0.00     0.100 C 
ENDBRANCH   3  14
TORSDOF 2
