REMARK  3 active torsions:
REMARK  status: ('A' for Active; 'I' for Inactive)
REMARK    1  A    between atoms: N_5  and  C_2 
REMARK       I    between atoms: C_6  and  N_7 
REMARK    2  A    between atoms: C_14  and  C_6 
REMARK    3  A    between atoms: C_16  and  C_17 
ROOT
ATOM      1  N   UNL d   1       1.629  -2.783   0.195  0.00  0.00    -0.265 NA
ATOM      2  C   UNL d   1       3.149  -6.646  -0.260  0.00  0.00     0.253 C 
ATOM      3  N   UNL d   1       2.476  -5.508   0.181  0.00  0.00    -0.346 N 
ATOM      4  C   UNL d   1       1.212  -3.659  -0.924  0.00  0.00     0.117 C 
ATOM      5  C   UNL d   1       2.957  -3.155   0.729  0.00  0.00     0.117 C 
ATOM      6  C   UNL d   1       2.866  -4.595   1.270  0.00  0.00     0.141 C 
ATOM      7  C   UNL d   1       1.195  -5.135  -0.443  0.00  0.00     0.141 C 
ATOM      8  O   UNL d   1       2.645  -7.451  -1.038  0.00  0.00    -0.267 OA
ENDROOT
BRANCH   1   9
ATOM      9  C   UNL d   1       1.531  -1.411  -0.039  0.00  0.00     0.103 A 
ATOM     10  C   UNL d   1       1.329  -0.496   1.016  0.00  0.00     0.070 A 
ATOM     11  S   UNL d   1       1.117  -0.797   2.700  0.00  0.00    -0.096 SA
ATOM     12  C   UNL d   1       1.262   0.866   0.744  0.00  0.00     0.060 A 
ATOM     13  C   UNL d   1       0.981   0.860   3.054  0.00  0.00     0.059 A 
ATOM     14  C   UNL d   1       1.069   1.658   1.932  0.00  0.00    -0.027 A 
ATOM     15  C   UNL d   1       0.968   3.144   1.964  0.00  0.00     0.051 C 
ATOM     16  N   UNL d   1       1.373   1.359  -0.515  0.00  0.00    -0.351 N 
ATOM     17  C   UNL d   1       1.532   0.422  -1.455  0.00  0.00     0.182 A 
ATOM     18  HN  UNL d   1       1.339   2.356  -0.726  1.00  0.00     0.166 HD
ATOM     19  N   UNL d   1       1.609  -0.908  -1.290  0.00  0.00    -0.342 N 
ATOM     20  HN  UNL d   1       1.725  -1.526  -2.092  1.00  0.00     0.167 HD
ENDBRANCH   1   9
BRANCH   2  21
ATOM     21  C   UNL d   1       4.542  -6.920   0.202  0.00  0.00     0.032 C 
ATOM     22  C   UNL d   1       4.947  -8.235   0.446  0.00  0.00     0.017 C 
ATOM     23  C   UNL d   1       6.235  -8.500   0.935  0.00  0.00     0.009 C 
ATOM     24  C   UNL d   1       7.143  -7.457   1.214  0.00  0.00    -0.051 C 
ATOM     25  C   UNL d   1       6.738  -6.155   0.879  0.00  0.00     0.009 C 
ATOM     26  C   UNL d   1       5.478  -5.900   0.338  0.00  0.00     0.017 C 
BRANCH  24  27
ATOM     27  C   UNL d   1       8.516  -7.739   1.846  0.00  0.00    -0.024 C 
ATOM     28  C   UNL d   1       9.300  -6.454   2.204  0.00  0.00     0.019 C 
ATOM     29  C   UNL d   1       8.345  -8.536   3.158  0.00  0.00     0.019 C 
ATOM     30  C   UNL d   1       9.385  -8.553   0.867  0.00  0.00     0.019 C 
ENDBRANCH  24  27
ENDBRANCH   2  21
TORSDOF 3
