REMARK  2 active torsions:
REMARK  status: ('A' for Active; 'I' for Inactive)
REMARK    1  A    between atoms: N_7  and  C_2 
REMARK    2  A    between atoms: N_14  and  C_10 
ROOT
ATOM      1  C   UNL d   1      -1.043   0.389   0.015  0.00  0.00     0.058 A 
ATOM      2  C   UNL d   1      -3.114   1.172  -0.073  0.00  0.00     0.150 A 
ATOM      3  N   UNL d   1      -1.835   1.509  -0.135  0.00  0.00    -0.335 N 
ATOM      4  HN  UNL d   1      -1.487   2.458  -0.273  1.00  0.00     0.168 HD
ATOM      5  C   UNL d   1      -1.719  -0.793   0.210  0.00  0.00     0.014 A 
ATOM      6  S   UNL d   1      -3.391  -0.526   0.202  0.00  0.00    -0.056 SA
ATOM      7  C   UNL d   1       0.414   0.371  -0.011  0.00  0.00    -0.002 A 
ATOM      8  C   UNL d   1      -1.072  -2.118   0.424  0.00  0.00     0.053 C 
ATOM      9  C   UNL d   1       1.078  -0.877  -0.126  0.00  0.00    -0.045 A 
ATOM     10  C   UNL d   1       0.274  -2.151  -0.321  0.00  0.00     0.044 C 
ATOM     11  C   UNL d   1       1.160   1.545   0.107  0.00  0.00     0.014 A 
ATOM     12  C   UNL d   1       2.477  -0.918  -0.131  0.00  0.00     0.008 A 
ATOM     13  C   UNL d   1       2.557   1.487   0.120  0.00  0.00     0.001 A 
ATOM     14  C   UNL d   1       3.212   0.259   0.003  0.00  0.00     0.001 A 
ENDROOT
BRANCH   2  15
ATOM     15  N   UNL d   1      -4.217   1.955  -0.194  0.00  0.00    -0.333 N 
ATOM     16  C   UNL d   1      -4.002   3.206  -0.424  0.00  0.00     0.179 C 
ATOM     17  HN  UNL d   1      -5.160   1.576  -0.108  1.00  0.00     0.168 HD
BRANCH  16  18
ATOM     18  N   UNL d   1      -4.970   4.176  -0.590  0.00  0.00    -0.386 N 
ATOM     19  C   UNL d   1      -4.631   5.566  -0.833  0.00  0.00     0.149 C 
ATOM     20  C   UNL d   1      -6.390   3.867  -0.528  0.00  0.00     0.149 C 
ENDBRANCH  16  18
ENDBRANCH   2  15
TORSDOF 2
