REMARK  8 active torsions:
REMARK  status: ('A' for Active; 'I' for Inactive)
REMARK    1  A    between atoms: N_8  and  C_3 
REMARK    2  A    between atoms: N_10  and  C_4 
REMARK       I    between atoms: C_5  and  N_7 
REMARK    3  A    between atoms: C_9  and  C_5 
REMARK    4  A    between atoms: N_7  and  C_6 
REMARK    5  A    between atoms: C_19  and  N_8 
REMARK    6  A    between atoms: C_20  and  N_8 
REMARK    7  A    between atoms: C_21  and  N_10 
REMARK    8  A    between atoms: C_22  and  N_10 
ROOT
ATOM      1  N   UNL d   1      -1.348  -0.009  -0.031  0.00  0.00    -0.327 N 
ATOM      2  HN  UNL d   1      -2.364  -0.028  -0.117  1.00  0.00     0.169 HD
ATOM      3  C   UNL d   1      -0.707   1.198  -0.014  0.00  0.00     0.132 A 
ATOM      4  C   UNL d   1      -0.671  -1.188   0.064  0.00  0.00     0.104 A 
ATOM      5  C   UNL d   1       0.703   1.222   0.074  0.00  0.00     0.079 A 
ATOM      6  C   UNL d   1       0.715  -1.179   0.169  0.00  0.00     0.051 A 
ATOM      7  C   UNL d   1       1.405   0.022   0.162  0.00  0.00     0.037 A 
ENDROOT
BRANCH   5   8
ATOM      8  N   UNL d   1       1.443   2.409   0.186  0.00  0.00    -0.320 N 
ATOM      9  C   UNL d   1       2.558   2.818  -0.518  0.00  0.00     0.256 C 
ATOM     10  O   UNL d   1       3.177   3.804  -0.119  0.00  0.00    -0.267 OA
ATOM     11  H   UNL d   1       1.102   3.091   0.848  0.00  0.00     0.169 HD
BRANCH   9  12
ATOM     12  C   UNL d   1       2.969   2.169  -1.799  0.00  0.00     0.032 A 
ATOM     13  C   UNL d   1       2.075   1.516  -2.658  0.00  0.00     0.017 A 
ATOM     14  C   UNL d   1       2.527   0.929  -3.843  0.00  0.00     0.007 A 
ATOM     15  C   UNL d   1       3.868   1.035  -4.221  0.00  0.00    -0.062 A 
ATOM     16  C   UNL d   1       4.751   1.743  -3.400  0.00  0.00     0.007 A 
ATOM     17  C   UNL d   1       4.340   0.375  -5.483  0.00  0.00     0.048 C 
ATOM     18  C   UNL d   1       4.303   2.307  -2.199  0.00  0.00     0.017 A 
ENDBRANCH   9  12
ENDBRANCH   5   8
BRANCH   3  19
ATOM     19  N   UNL d   1      -1.502   2.345  -0.187  0.00  0.00    -0.366 N 
BRANCH  19  20
ATOM     20  C   UNL d   1      -0.948   3.646  -0.582  0.00  0.00     0.120 C 
ATOM     21  C   UNL d   1      -1.933   4.606  -1.234  0.00  0.00     0.026 C 
ENDBRANCH  19  20
BRANCH  19  22
ATOM     22  C   UNL d   1      -2.824   2.293   0.449  0.00  0.00     0.120 C 
ATOM     23  C   UNL d   1      -3.923   2.013  -0.567  0.00  0.00     0.026 C 
ENDBRANCH  19  22
ENDBRANCH   3  19
BRANCH   4  24
ATOM     24  N   UNL d   1      -1.385  -2.383   0.071  0.00  0.00    -0.368 N 
BRANCH  24  25
ATOM     25  C   UNL d   1      -0.814  -3.653   0.528  0.00  0.00     0.120 C 
ATOM     26  C   UNL d   1      -0.670  -3.682   2.043  0.00  0.00     0.026 C 
ENDBRANCH  24  25
BRANCH  24  27
ATOM     27  C   UNL d   1      -2.579  -2.455  -0.773  0.00  0.00     0.120 C 
ATOM     28  C   UNL d   1      -2.224  -2.950  -2.174  0.00  0.00     0.026 C 
ENDBRANCH  24  27
ENDBRANCH   4  24
TORSDOF 8
