REMARK  1 active torsions:
REMARK  status: ('A' for Active; 'I' for Inactive)
REMARK    1  A    between atoms: C_7  and  C_1 
ROOT
ATOM      1  C   UNL d   1      -2.905   0.043   0.057  0.00  0.00     0.117 A 
ATOM      2  N   UNL d   1      -2.134   1.113   0.103  0.00  0.00    -0.340 N 
ATOM      3  HN  UNL d   1      -2.441   2.084   0.156  1.00  0.00     0.167 HD
ATOM      4  N   UNL d   1      -2.119  -1.092   0.035  0.00  0.00    -0.340 N 
ATOM      5  C   UNL d   1      -0.841   0.665   0.066  0.00  0.00     0.061 A 
ATOM      6  C   UNL d   1      -0.799  -0.718   0.036  0.00  0.00     0.061 A 
ATOM      7  C   UNL d   1       0.354   1.393   0.051  0.00  0.00     0.039 A 
ATOM      8  C   UNL d   1       0.393  -1.444   0.005  0.00  0.00     0.039 A 
ATOM      9  C   UNL d   1       1.581   0.703   0.018  0.00  0.00    -0.054 A 
ATOM     10  C   UNL d   1       1.597  -0.710  -0.001  0.00  0.00    -0.054 A 
ATOM     11  C   UNL d   1       2.854   1.506   0.017  0.00  0.00     0.049 C 
ATOM     12  C   UNL d   1       2.902  -1.464  -0.031  0.00  0.00     0.049 C 
ATOM     13  H   UNL d   1      -2.462  -2.038  -0.014  0.00  0.00     0.167 HD
ENDROOT
BRANCH   1  14
ATOM     14  C   UNL d   1      -4.378   0.022   0.017  0.00  0.00     0.019 A 
ATOM     15  C   UNL d   1      -5.131   1.038  -0.651  0.00  0.00    -0.012 A 
ATOM     16  C   UNL d   1      -6.548   0.961  -0.632  0.00  0.00    -0.025 A 
ATOM     17  C   UNL d   1      -4.563   2.138  -1.345  0.00  0.00     0.013 A 
ATOM     18  C   UNL d   1      -7.322   1.949  -1.267  0.00  0.00     0.012 A 
ATOM     19  C   UNL d   1      -7.184  -0.105   0.020  0.00  0.00     0.012 A 
ATOM     20  C   UNL d   1      -6.725   3.023  -1.923  0.00  0.00     0.001 A 
ATOM     21  C   UNL d   1      -5.343   3.116  -1.966  0.00  0.00     0.001 A 
ATOM     22  C   UNL d   1      -6.447  -1.090   0.667  0.00  0.00     0.002 A 
ATOM     23  C   UNL d   1      -5.056  -1.026   0.670  0.00  0.00     0.016 A 
ENDBRANCH   1  14
TORSDOF 1
