REMARK  3 active torsions:
REMARK  status: ('A' for Active; 'I' for Inactive)
REMARK    1  A    between atoms: C_5  and  C_3 
REMARK    2  A    between atoms: N_4  and  C_9 
REMARK    3  A    between atoms: C_13  and  C_6 
ROOT
ATOM      1  N   UNL d   1       1.392  -0.577   0.096  0.00  0.00    -0.349 N 
ATOM      2  HN  UNL d   1       2.264  -1.090   0.231  1.00  0.00     0.166 HD
ATOM      3  C   UNL d   1       0.200  -1.130  -0.018  0.00  0.00     0.085 A 
ATOM      4  C   UNL d   1       1.290   0.804   0.006  0.00  0.00     0.050 A 
ATOM      5  S   UNL d   1      -1.109  -0.022  -0.149  0.00  0.00    -0.081 SA
ATOM      6  C   UNL d   1      -0.003   1.281  -0.083  0.00  0.00     0.082 A 
ENDROOT
BRANCH   4   7
ATOM      7  C   UNL d   1       2.474   1.658  -0.011  0.00  0.00    -0.009 A 
ATOM      8  C   UNL d   1       2.469   2.892  -0.684  0.00  0.00     0.016 A 
ATOM      9  C   UNL d   1       3.620   3.683  -0.745  0.00  0.00     0.037 A 
ATOM     10  C   UNL d   1       4.794   3.239  -0.127  0.00  0.00     0.102 A 
ATOM     11  C   UNL d   1       4.819   2.018   0.555  0.00  0.00     0.037 A 
ATOM     12  C   UNL d   1       3.660   1.231   0.607  0.00  0.00     0.016 A 
BRANCH  10  13
ATOM     13  N   UNL d   1       6.009   4.059  -0.215  0.00  0.00    -0.116 N 
ATOM     14  O   UNL d   1       5.944   5.127  -0.841  0.00  0.00    -0.532 OA
ATOM     15  O   UNL d   1       7.031   3.636   0.345  0.00  0.00    -0.532 OA
ENDBRANCH  10  13
ENDBRANCH   4   7
BRANCH   3  16
ATOM     16  C   UNL d   1       0.009  -2.623  -0.046  0.00  0.00     0.005 A 
ATOM     17  C   UNL d   1       1.058  -3.500   0.138  0.00  0.00     0.063 A 
ATOM     18  S   UNL d   1       0.559  -5.136   0.045  0.00  0.00    -0.113 SA
ATOM     19  C   UNL d   1      -1.062  -4.683  -0.255  0.00  0.00     0.050 A 
ATOM     20  C   UNL d   1      -1.222  -3.314  -0.272  0.00  0.00     0.022 A 
ENDBRANCH   3  16
TORSDOF 3
