REMARK  4 active torsions:
REMARK  status: ('A' for Active; 'I' for Inactive)
REMARK    1  A    between atoms: S_2  and  N_1 
REMARK    2  A    between atoms: C_12  and  S_2 
REMARK    3  A    between atoms: C_5  and  C_3 
REMARK       I    between atoms: N_8  and  C_5 
REMARK    4  A    between atoms: C_13  and  N_8 
ROOT
ATOM      1  N   UNL d   1       1.520  -1.161   0.329  0.00  0.00    -0.245 N 
ATOM      2  C   UNL d   1       1.568   1.073   0.382  0.00  0.00     0.061 A 
ATOM      3  C   UNL d   1       2.332  -0.072   0.552  0.00  0.00     0.128 A 
ATOM      4  C   UNL d   1       0.206  -0.783   0.169  0.00  0.00     0.061 A 
ATOM      5  C   UNL d   1       0.210   0.619   0.184  0.00  0.00     0.009 A 
ATOM      6  C   UNL d   1      -0.980  -1.521  -0.011  0.00  0.00     0.031 A 
ATOM      7  C   UNL d   1      -1.019   1.292  -0.003  0.00  0.00     0.015 A 
ATOM      8  C   UNL d   1      -2.181  -0.823  -0.169  0.00  0.00     0.002 A 
ATOM      9  C   UNL d   1      -2.202   0.566  -0.168  0.00  0.00     0.001 A 
ENDROOT
BRANCH   2  10
ATOM     10  C   UNL d   1       2.018   2.470   0.371  0.00  0.00     0.254 C 
ATOM     11  N   UNL d   1       3.342   2.702   0.674  0.00  0.00    -0.344 N 
ATOM     12  H   UNL d   1       3.986   1.940   0.848  0.00  0.00     0.163 HD
ATOM     13  O   UNL d   1       1.260   3.393   0.084  0.00  0.00    -0.268 OA
BRANCH  11  14
ATOM     14  C   UNL d   1       3.916   4.042   0.532  0.00  0.00     0.177 C 
ATOM     15  C   UNL d   1       5.422   3.910   0.258  0.00  0.00     0.240 C 
ATOM     16  N   UNL d   1       6.121   5.048  -0.035  0.00  0.00    -0.359 N 
ATOM     17  O   UNL d   1       6.011   2.829   0.320  0.00  0.00    -0.271 OA
ATOM     18  C   UNL d   1       5.577   6.378  -0.207  0.00  0.00     0.122 C 
ATOM     19  H   UNL d   1       7.108   4.896  -0.215  0.00  0.00     0.162 HD
ATOM     20  C   UNL d   1       5.038   6.961   1.094  0.00  0.00     0.020 C 
ATOM     21  C   UNL d   1       3.680   6.392   1.507  0.00  0.00     0.004 C 
ATOM     22  C   UNL d   1       3.676   4.887   1.788  0.00  0.00     0.035 C 
ENDBRANCH  11  14
ENDBRANCH   2  10
BRANCH   1  23
ATOM     23  S   UNL d   1       2.097  -2.761   0.207  0.00  0.00     0.269 S 
ATOM     24  O   UNL d   1       1.406  -3.342  -0.925  0.00  0.00    -0.200 OA
ATOM     25  O   UNL d   1       3.545  -2.653   0.248  0.00  0.00    -0.200 OA
BRANCH  23  26
ATOM     26  C   UNL d   1       1.610  -3.659   1.655  0.00  0.00     0.080 A 
ATOM     27  C   UNL d   1       0.942  -3.071   2.730  0.00  0.00     0.025 A 
ATOM     28  C   UNL d   1       0.618  -3.855   3.842  0.00  0.00     0.002 A 
ATOM     29  C   UNL d   1       0.965  -5.207   3.882  0.00  0.00     0.000 A 
ATOM     30  C   UNL d   1       1.627  -5.791   2.805  0.00  0.00     0.002 A 
ATOM     31  C   UNL d   1       1.949  -5.019   1.690  0.00  0.00     0.025 A 
ENDBRANCH  23  26
ENDBRANCH   1  23
TORSDOF 4
