REMARK  4 active torsions:
REMARK  status: ('A' for Active; 'I' for Inactive)
REMARK    1  A    between atoms: C_12  and  N_1 
REMARK    2  A    between atoms: C_7  and  C_2 
REMARK    3  A    between atoms: C_11  and  N_8 
REMARK    4  A    between atoms: N_10  and  C_9 
ROOT
ATOM      1  C   UNL d   1       1.419  -3.195  -0.597  0.00  0.00     0.068 C 
ATOM      2  C   UNL d   1       2.579  -2.676  -0.158  0.00  0.00     0.089 C 
ENDROOT
BRANCH   1   3
ATOM      3  C   UNL d   1       0.282  -2.389  -0.820  0.00  0.00     0.139 C 
ATOM      4  N   UNL d   1      -0.020  -1.836  -2.066  0.00  0.00    -0.225 N 
ATOM      5  N   UNL d   1      -1.060  -0.980  -1.891  0.00  0.00     0.001 NA
ATOM      6  N   UNL d   1      -1.459  -1.132  -0.639  0.00  0.00    -0.007 NA
ATOM      7  N   UNL d   1      -0.636  -1.983   0.039  0.00  0.00    -0.270 N 
ATOM      8  HN  UNL d   1      -0.714  -2.254   1.020  1.00  0.00     0.185 HD
BRANCH   4   9
ATOM      9  C   UNL d   1       0.498  -2.068  -3.372  0.00  0.00     0.056 A 
ATOM     10  C   UNL d   1       1.154  -3.262  -3.704  0.00  0.00     0.033 A 
ATOM     11  C   UNL d   1       1.558  -3.502  -5.022  0.00  0.00     0.026 A 
ATOM     12  C   UNL d   1       1.324  -2.548  -6.009  0.00  0.00     0.034 A 
ATOM     13  C   UNL d   1       0.697  -1.347  -5.689  0.00  0.00     0.026 A 
ATOM     14 CL   UNL d   1       1.785  -2.872  -7.634  0.00  0.00    -0.084 Cl
ATOM     15  C   UNL d   1       0.273  -1.111  -4.377  0.00  0.00     0.033 A 
ENDBRANCH   4   9
ENDBRANCH   1   3
BRANCH   2  16
ATOM     16  N   UNL d   1       3.768  -3.353   0.037  0.00  0.00    -0.387 N 
ATOM     17  C   UNL d   1       4.196  -4.531  -0.752  0.00  0.00     0.142 C 
ATOM     18  C   UNL d   1       5.498  -4.233  -1.541  0.00  0.00     0.143 C 
ATOM     19  N   UNL d   1       6.546  -3.723  -0.638  0.00  0.00    -0.378 N 
ATOM     20  C   UNL d   1       6.139  -2.570   0.187  0.00  0.00     0.143 C 
ATOM     21  C   UNL d   1       4.832  -2.869   0.951  0.00  0.00     0.142 C 
BRANCH  19  22
ATOM     22  C   UNL d   1       7.779  -4.331  -0.532  0.00  0.00     0.031 A 
ATOM     23  C   UNL d   1       8.461  -4.416   0.690  0.00  0.00     0.053 A 
ATOM     24  C   UNL d   1       9.707  -5.042   0.788  0.00  0.00     0.036 A 
ATOM     25 CL   UNL d   1      10.493  -5.138   2.317  0.00  0.00    -0.084 Cl
ATOM     26  C   UNL d   1      10.314  -5.595  -0.332  0.00  0.00     0.024 A 
ATOM     27  C   UNL d   1       9.663  -5.522  -1.559  0.00  0.00     0.004 A 
ATOM     28  C   UNL d   1       8.413  -4.899  -1.650  0.00  0.00     0.029 A 
ENDBRANCH  19  22
ENDBRANCH   2  16
TORSDOF 4
