REMARK  3 active torsions:
REMARK  status: ('A' for Active; 'I' for Inactive)
REMARK    1  A    between atoms: C_9  and  C_4 
REMARK    2  A    between atoms: S_19  and  C_13 
REMARK    3  A    between atoms: C_21  and  S_19 
ROOT
ATOM      1  N   UNL d   1       0.734   0.237  -0.951  0.00  0.00    -0.318 N 
ATOM      2  HN  UNL d   1       1.334   0.435  -1.752  1.00  0.00     0.169 HD
ATOM      3  C   UNL d   1       0.215  -0.919  -0.583  0.00  0.00     0.189 A 
ATOM      4  C   UNL d   1       0.271   1.111   0.007  0.00  0.00     0.139 A 
ATOM      5  N   UNL d   1      -0.503   0.534   0.938  0.00  0.00    -0.242 N 
ATOM      6  HN  UNL d   1      -0.955   0.972   1.741  1.00  0.00     0.196 HD
ATOM      7  O   UNL d   1      -0.544  -0.801   0.553  0.00  0.00    -0.217 OA
ATOM      8  C   UNL d   1       0.425  -2.152  -1.286  0.00  0.00     0.058 A 
ATOM      9  S   UNL d   1      -0.321  -3.612  -0.785  0.00  0.00    -0.098 SA
ATOM     10  C   UNL d   1       1.210  -2.350  -2.406  0.00  0.00     0.024 A 
ATOM     11  C   UNL d   1       0.405  -4.499  -2.054  0.00  0.00     0.050 A 
ATOM     12  C   UNL d   1       1.200  -3.706  -2.848  0.00  0.00     0.009 A 
ENDROOT
BRANCH   4  13
ATOM     13  C   UNL d   1       0.599   2.526  -0.003  0.00  0.00     0.025 A 
ATOM     14  C   UNL d   1       0.168   3.376   1.009  0.00  0.00     0.104 A 
ATOM     15  N   UNL d   1       0.441   4.704   1.066  0.00  0.00    -0.360 N 
ATOM     16  C   UNL d   1       1.175   5.231   0.063  0.00  0.00     0.069 A 
ATOM     17  HN  UNL d   1       0.105   5.282   1.837  1.00  0.00     0.166 HD
ATOM     18  C   UNL d   1       1.643   4.466  -0.999  0.00  0.00     0.038 A 
ATOM     19  C   UNL d   1       1.358   3.098  -1.026  0.00  0.00     0.019 A 
BRANCH  16  20
ATOM     20  S   UNL d   1       1.510   6.981   0.096  0.00  0.00    -0.113 SA
BRANCH  20  21
ATOM     21  C   UNL d   1       1.421   7.284   1.892  0.00  0.00     0.076 C 
ATOM     22  C   UNL d   1       1.643   8.758   2.183  0.00  0.00     0.016 C 
ENDBRANCH  20  21
ENDBRANCH  16  20
ENDBRANCH   4  13
TORSDOF 3
