REMARK  1 active torsions:
REMARK  status: ('A' for Active; 'I' for Inactive)
REMARK    1  A    between atoms: C_8  and  C_3 
ROOT
ATOM      1  N   UNL d   1       0.024   0.937  -0.010  0.00  0.00    -0.275 N 
ATOM      2  C   UNL d   1      -1.191   0.315   0.007  0.00  0.00     0.327 A 
ATOM      3  C   UNL d   1       0.002  -1.780  -0.019  0.00  0.00     0.051 A 
ATOM      4  C   UNL d   1       1.194  -1.173  -0.034  0.00  0.00     0.105 A 
ATOM      5  N   UNL d   1      -1.156  -1.050   0.001  0.00  0.00    -0.308 N 
ATOM      6  C   UNL d   1       1.233   0.302  -0.023  0.00  0.00     0.251 A 
ATOM      7  O   UNL d   1      -2.247   0.939   0.028  0.00  0.00    -0.247 OA
ATOM      8  O   UNL d   1       2.301   0.903  -0.022  0.00  0.00    -0.268 OA
ATOM      9  H   UNL d   1       0.027   1.945  -0.000  0.00  0.00     0.173 HD
ATOM     10  H   UNL d   1      -2.052  -1.522   0.016  0.00  0.00     0.170 HD
ENDROOT
BRANCH   3  11
ATOM     11  C   UNL d   1      -0.109  -3.242  -0.016  0.00  0.00    -0.009 A 
ATOM     12  C   UNL d   1      -0.146  -3.944   1.196  0.00  0.00     0.013 A 
ATOM     13  C   UNL d   1      -0.263  -5.335   1.201  0.00  0.00     0.001 A 
ATOM     14  C   UNL d   1      -0.345  -6.033  -0.004  0.00  0.00     0.000 A 
ATOM     15  C   UNL d   1      -0.307  -5.341  -1.214  0.00  0.00     0.001 A 
ATOM     16  C   UNL d   1      -0.187  -3.950  -1.222  0.00  0.00     0.013 A 
ENDBRANCH   3  11
TORSDOF 1
