REMARK  2 active torsions:
REMARK  status: ('A' for Active; 'I' for Inactive)
REMARK    1  A    between atoms: O_12  and  C_3 
REMARK    2  A    between atoms: S_11  and  C_4 
ROOT
ATOM      1  N   UNL d   1      -0.704   1.202  -0.002  0.00  0.00    -0.316 N 
ATOM      2  HN  UNL d   1      -1.200   2.094  -0.003  1.00  0.00     0.170 HD
ATOM      3  C   UNL d   1      -1.349   0.020  -0.002  0.00  0.00     0.164 A 
ATOM      4  C   UNL d   1       0.637   1.126  -0.000  0.00  0.00     0.145 A 
ATOM      5  C   UNL d   1      -0.750  -1.217   0.001  0.00  0.00     0.110 A 
ATOM      6  N   UNL d   1       1.330  -0.029   0.002  0.00  0.00    -0.345 N 
ATOM      7  HN  UNL d   1       2.350  -0.037   0.002  1.00  0.00     0.167 HD
ATOM      8  C   UNL d   1      -1.464  -2.448   0.002  0.00  0.00     0.105 C 
ATOM      9  N   UNL d   1      -2.000  -3.478   0.002  0.00  0.00    -0.191 NA
ATOM     10  C   UNL d   1       0.619  -1.177   0.002  0.00  0.00     0.117 A 
ENDROOT
BRANCH   3  11
ATOM     11  O   UNL d   1      -2.703   0.144  -0.004  0.00  0.00    -0.345 OA
ATOM     12  H   UNL d   1      -2.819   1.111  -0.006  0.00  0.00     0.219 HD
ENDBRANCH   3  11
BRANCH   4  13
ATOM     13  S   UNL d   1       1.626   2.601   0.001  0.00  0.00    -0.098 SA
ATOM     14  C   UNL d   1       0.362   3.892  -0.000  0.00  0.00     0.099 C 
ENDBRANCH   4  13
TORSDOF 2
