REMARK  2 active torsions:
REMARK  status: ('A' for Active; 'I' for Inactive)
REMARK       I    between atoms: C_3  and  N_4 
REMARK    1  A    between atoms: C_12  and  C_3 
REMARK    2  A    between atoms: N_4  and  C_5 
ROOT
ATOM      1  C   UNL d   1      -1.522  -1.098  -0.404  0.00  0.00     0.074 A 
ATOM      2  C   UNL d   1      -2.464  -0.067  -0.370  0.00  0.00     0.056 A 
ATOM      3  C   UNL d   1      -2.085   1.224   0.012  0.00  0.00     0.036 A 
ATOM      4  C   UNL d   1      -0.199  -0.843  -0.056  0.00  0.00     0.138 A 
ATOM      5  C   UNL d   1       0.196   0.438   0.313  0.00  0.00     0.046 A 
ATOM      6 CL   UNL d   1      -2.010  -2.679  -0.884  0.00  0.00    -0.081 Cl
ATOM      7  C   UNL d   1      -0.744   1.472   0.339  0.00  0.00     0.032 A 
ATOM      8  F   UNL d   1       0.718  -1.821  -0.072  0.00  0.00    -0.204 F 
ENDROOT
BRANCH   3   9
ATOM      9  N   UNL d   1      -2.981   2.314   0.083  0.00  0.00    -0.327 N 
ATOM     10  C   UNL d   1      -4.363   2.258  -0.011  0.00  0.00     0.221 C 
ATOM     11  O   UNL d   1      -5.037   1.240  -0.126  0.00  0.00    -0.273 OA
ATOM     12  H   UNL d   1      -2.576   3.218   0.294  0.00  0.00     0.169 HD
BRANCH  10  13
ATOM     13  C   UNL d   1      -4.994   3.639   0.047  0.00  0.00     0.098 C 
ATOM     14  C   UNL d   1      -6.512   3.572   0.062  0.00  0.00     0.014 C 
ENDBRANCH  10  13
ENDBRANCH   3   9
TORSDOF 2
