REMARK  7 active torsions:
REMARK  status: ('A' for Active; 'I' for Inactive)
REMARK    1  A    between atoms: C_6  and  N_1 
REMARK    2  A    between atoms: C_5  and  N_2 
REMARK    3  A    between atoms: C_4  and  C_3 
REMARK    4  A    between atoms: C_13  and  C_5 
REMARK    5  A    between atoms: C_14  and  C_6 
REMARK    6  A    between atoms: O_27  and  C_16 
REMARK    7  A    between atoms: O_26  and  C_17 
ROOT
ATOM      1  N   UNL d   1       1.222   0.733  -0.295  0.00  0.00     0.131 N 
ATOM      2  N   UNL d   1      -1.240   0.688  -0.258  0.00  0.00     0.131 N 
ATOM      3  C   UNL d   1      -0.017   1.412   0.157  0.00  0.00     0.490 C 
ATOM      4  C   UNL d   1      -1.213  -0.688   0.290  0.00  0.00     0.278 C 
ATOM      5  C   UNL d   1       1.280  -0.594   0.331  0.00  0.00     0.278 C 
ATOM      6  C   UNL d   1       0.072  -1.443  -0.028  0.00  0.00     0.061 C 
ENDROOT
BRANCH   1   7
ATOM      7  C   UNL d   1       1.357   0.675  -1.763  0.00  0.00     0.314 C 
BRANCH   7   8
ATOM      8  C   UNL d   1       2.584  -0.040  -2.297  0.00  0.00    -0.030 A 
ATOM      9  C   UNL d   1       2.444  -1.185  -3.093  0.00  0.00     0.011 A 
ATOM     10  C   UNL d   1       3.562  -1.798  -3.665  0.00  0.00     0.037 A 
ATOM     11  C   UNL d   1       4.837  -1.276  -3.448  0.00  0.00     0.068 A 
ATOM     12  C   UNL d   1       4.980  -0.133  -2.657  0.00  0.00     0.037 A 
ATOM     13  C   UNL d   1       3.865   0.480  -2.081  0.00  0.00     0.011 A 
BRANCH  11  14
ATOM     14  O   UNL d   1       6.005  -1.779  -3.950  0.00  0.00    -0.356 OA
ATOM     15  C   UNL d   1       5.908  -2.974  -4.716  0.00  0.00     0.210 C 
ENDBRANCH  11  14
ENDBRANCH   7   8
ENDBRANCH   1   7
BRANCH   3  16
ATOM     16  C   UNL d   1      -0.021   2.878  -0.275  0.00  0.00     0.012 A 
ATOM     17  C   UNL d   1       0.126   3.937   0.610  0.00  0.00     0.060 A 
ATOM     18  S   UNL d   1       0.126   5.468  -0.150  0.00  0.00    -0.113 SA
ATOM     19  C   UNL d   1      -0.096   4.764  -1.686  0.00  0.00     0.050 A 
ATOM     20  C   UNL d   1      -0.227   3.396  -1.607  0.00  0.00     0.019 A 
ENDBRANCH   3  16
BRANCH   2  21
ATOM     21  C   UNL d   1      -2.454   1.384   0.247  0.00  0.00     0.314 C 
BRANCH  21  22
ATOM     22  C   UNL d   1      -3.753   0.683  -0.101  0.00  0.00    -0.030 A 
ATOM     23  C   UNL d   1      -4.583   0.173   0.898  0.00  0.00     0.011 A 
ATOM     24  C   UNL d   1      -5.749  -0.526   0.571  0.00  0.00     0.037 A 
ATOM     25  C   UNL d   1      -6.106  -0.706  -0.764  0.00  0.00     0.068 A 
ATOM     26  C   UNL d   1      -5.311  -0.157  -1.768  0.00  0.00     0.037 A 
ATOM     27  C   UNL d   1      -4.138   0.531  -1.444  0.00  0.00     0.011 A 
BRANCH  25  28
ATOM     28  O   UNL d   1      -7.222  -1.373  -1.191  0.00  0.00    -0.356 OA
ATOM     29  C   UNL d   1      -7.619  -2.466  -0.370  0.00  0.00     0.210 C 
ENDBRANCH  25  28
ENDBRANCH  21  22
ENDBRANCH   2  21
TORSDOF 7
