REMARK  2 active torsions:
REMARK  status: ('A' for Active; 'I' for Inactive)
REMARK    1  A    between atoms: O_8  and  C_1 
REMARK    2  A    between atoms: C_7  and  O_8 
REMARK       I    between atoms: N_9  and  C_7 
ROOT
ATOM      1  C   UNL d   1      -0.344  -1.871   0.370  0.00  0.00     0.098 A 
ATOM      2  C   UNL d   1      -1.567  -1.385   0.618  0.00  0.00     0.113 A 
ATOM      3  C   UNL d   1      -1.863   0.060   0.612  0.00  0.00     0.250 A 
ATOM      4  N   UNL d   1      -0.820   0.932   0.321  0.00  0.00    -0.318 N 
ATOM      5  C   UNL d   1       0.767  -0.927   0.128  0.00  0.00     0.025 A 
ATOM      6  C   UNL d   1       0.508   0.461   0.080  0.00  0.00     0.050 A 
ATOM      7  O   UNL d   1      -3.021   0.418   0.823  0.00  0.00    -0.268 OA
ATOM      8  C   UNL d   1      -1.190   2.326   0.153  0.00  0.00     0.159 C 
ATOM      9  C   UNL d   1       2.080  -1.390  -0.061  0.00  0.00     0.016 A 
ATOM     10  C   UNL d   1       1.574   1.336  -0.180  0.00  0.00     0.031 A 
ATOM     11  C   UNL d   1       3.129  -0.503  -0.301  0.00  0.00     0.001 A 
ATOM     12  C   UNL d   1       2.875   0.861  -0.363  0.00  0.00     0.002 A 
ENDROOT
BRANCH   1  13
ATOM     13  O   UNL d   1      -0.017  -3.250   0.241  0.00  0.00    -0.260 OA
BRANCH  13  14
ATOM     14  C   UNL d   1      -0.870  -4.288   0.521  0.00  0.00     0.367 C 
ATOM     15  N   UNL d   1      -0.387  -5.522   0.094  0.00  0.00    -0.336 N 
ATOM     16  C   UNL d   1      -1.269  -6.674   0.157  0.00  0.00     0.154 C 
ATOM     17  C   UNL d   1       0.838  -5.682  -0.667  0.00  0.00     0.154 C 
ATOM     18  O   UNL d   1      -1.954  -4.167   1.079  0.00  0.00    -0.238 OA
ENDBRANCH  13  14
ENDBRANCH   1  13
TORSDOF 2
