REMARK  4 active torsions:
REMARK  status: ('A' for Active; 'I' for Inactive)
REMARK    1  A    between atoms: C_12  and  C_3 
REMARK    2  A    between atoms: N_11  and  C_5 
REMARK    3  A    between atoms: C_15  and  N_8 
REMARK       I    between atoms: C_13  and  N_11 
REMARK    4  A    between atoms: O_18  and  C_12 
ROOT
ATOM      1  C   UNL d   1      -0.129  -0.749  -0.156  0.00  0.00     0.081 C 
ATOM      2  C   UNL d   1      -0.389   0.655  -0.034  0.00  0.00     0.030 C 
ATOM      3  C   UNL d   1       0.760   1.554  -0.014  0.00  0.00     0.136 C 
ATOM      4  C   UNL d   1       1.210  -1.258  -0.412  0.00  0.00     0.281 C 
ATOM      5  C   UNL d   1      -1.274  -1.502  -0.057  0.00  0.00     0.093 C 
ATOM      6  N   UNL d   1       1.974   1.069  -0.050  0.00  0.00    -0.284 N 
ATOM      7  HN  UNL d   1       2.763   1.711   0.036  1.00  0.00     0.188 HD
ATOM      8  N   UNL d   1       2.234  -0.304  -0.203  0.00  0.00    -0.219 N 
ATOM      9  C   UNL d   1      -1.757   0.907   0.019  0.00  0.00    -0.005 C 
ATOM     10  S   UNL d   1      -2.668  -0.558  -0.117  0.00  0.00    -0.075 SA
ATOM     11  O   UNL d   1       1.356  -2.397  -0.855  0.00  0.00    -0.265 OA
ATOM     12  C   UNL d   1      -2.571   2.154   0.140  0.00  0.00     0.057 C 
ENDROOT
BRANCH   8  13
ATOM     13  C   UNL d   1       3.642  -0.617  -0.326  0.00  0.00     0.060 A 
ATOM     14  C   UNL d   1       4.114  -1.898  -0.658  0.00  0.00     0.031 A 
ATOM     15  C   UNL d   1       5.479  -2.163  -0.833  0.00  0.00     0.002 A 
ATOM     16  C   UNL d   1       6.414  -1.156  -0.649  0.00  0.00     0.000 A 
ATOM     17  C   UNL d   1       5.985   0.112  -0.273  0.00  0.00     0.002 A 
ATOM     18  C   UNL d   1       4.617   0.377  -0.114  0.00  0.00     0.031 A 
ENDBRANCH   8  13
BRANCH   3  19
ATOM     19  C   UNL d   1       0.664   3.079  -0.026  0.00  0.00     0.312 C 
ATOM     20  O   UNL d   1      -0.017   3.677  -0.843  0.00  0.00    -0.258 OA
BRANCH  19  21
ATOM     21  O   UNL d   1       1.479   3.620   0.904  0.00  0.00    -0.321 OA
ATOM     22  C   UNL d   1       1.604   5.042   0.812  0.00  0.00     0.213 C 
ENDBRANCH  19  21
ENDBRANCH   3  19
BRANCH   5  23
ATOM     23  N   UNL d   1      -1.503  -2.855   0.059  0.00  0.00    -0.321 N 
ATOM     24  C   UNL d   1      -0.684  -3.630   0.862  0.00  0.00     0.218 C 
ATOM     25  O   UNL d   1       0.186  -3.206   1.619  0.00  0.00    -0.274 OA
ATOM     26  C   UNL d   1      -0.985  -5.102   0.773  0.00  0.00     0.117 C 
ATOM     27  H   UNL d   1      -2.440  -3.179  -0.128  0.00  0.00     0.169 HD
ENDBRANCH   5  23
TORSDOF 4
