REMARK  4 active torsions:
REMARK  status: ('A' for Active; 'I' for Inactive)
REMARK    1  A    between atoms: C_4  and  N_1 
REMARK    2  A    between atoms: C_11  and  C_2 
REMARK    3  A    between atoms: N_5  and  C_3 
REMARK    4  A    between atoms: O_14  and  C_11 
ROOT
ATOM      1  C   UNL d   1       0.047  -3.650  -0.401  0.00  0.00    -0.006 A 
ATOM      2  C   UNL d   1      -1.117  -3.544  -1.208  0.00  0.00     0.038 A 
ATOM      3  C   UNL d   1       0.291  -1.218  -0.381  0.00  0.00     0.103 A 
ATOM      4  C   UNL d   1       0.715  -2.482   0.035  0.00  0.00     0.047 A 
ATOM      5  C   UNL d   1      -1.504  -2.247  -1.612  0.00  0.00     0.032 A 
ATOM      6  C   UNL d   1      -0.813  -1.095  -1.218  0.00  0.00     0.038 A 
ENDROOT
BRANCH   2   7
ATOM      7  N   UNL d   1      -1.856  -4.646  -1.619  0.00  0.00    -0.380 N 
ATOM      8  C   UNL d   1      -2.488  -4.699  -2.943  0.00  0.00     0.123 C 
ATOM      9  C   UNL d   1      -4.011  -4.688  -2.817  0.00  0.00     0.020 C 
ATOM     10  C   UNL d   1      -4.484  -5.817  -1.907  0.00  0.00     0.003 C 
ATOM     11  C   UNL d   1      -3.812  -5.715  -0.544  0.00  0.00     0.020 C 
ATOM     12  C   UNL d   1      -2.289  -5.671  -0.660  0.00  0.00     0.123 C 
ENDBRANCH   2   7
BRANCH   1  13
ATOM     13  C   UNL d   1       0.621  -4.986   0.023  0.00  0.00     0.205 C 
BRANCH  13  14
ATOM     14  O   UNL d   1       2.041  -4.945   0.143  0.00  0.00    -0.396 OA
ATOM     15  H   UNL d   1       2.382  -4.725  -0.743  0.00  0.00     0.209 HD
ENDBRANCH  13  14
ENDBRANCH   1  13
BRANCH   3  16
ATOM     16  N   UNL d   1       1.015  -0.018   0.057  0.00  0.00    -0.116 N 
ATOM     17  O   UNL d   1       1.990  -0.171   0.807  0.00  0.00    -0.532 OA
ATOM     18  O   UNL d   1       0.614   1.079  -0.359  0.00  0.00    -0.532 OA
ENDBRANCH   3  16
TORSDOF 4
