REMARK  4 active torsions:
REMARK  status: ('A' for Active; 'I' for Inactive)
REMARK    1  A    between atoms: C_2  and  S_1 
REMARK    2  A    between atoms: N_3  and  S_1 
REMARK    3  A    between atoms: C_7  and  N_4 
REMARK    4  A    between atoms: O_20  and  C_17 
ROOT
ATOM      1  N   UNL d   1       0.836   0.428   1.077  0.00  0.00    -0.304 N 
ATOM      2  N   UNL d   1       2.299   2.387   2.594  0.00  0.00    -0.376 N 
ATOM      3  C   UNL d   1       0.463   1.879   1.050  0.00  0.00     0.155 C 
ATOM      4  C   UNL d   1       1.574   0.055   2.317  0.00  0.00     0.155 C 
ATOM      5  C   UNL d   1       1.691   2.792   1.314  0.00  0.00     0.143 C 
ATOM      6  C   UNL d   1       2.769   0.984   2.574  0.00  0.00     0.143 C 
ENDROOT
BRANCH   1   7
ATOM      7  S   UNL d   1       1.350  -0.246  -0.381  0.00  0.00     0.261 S 
ATOM      8  O   UNL d   1       1.986   0.778  -1.173  0.00  0.00    -0.200 OA
ATOM      9  O   UNL d   1       1.986  -1.522  -0.119  0.00  0.00    -0.200 OA
BRANCH   7  10
ATOM     10  C   UNL d   1      -0.227  -0.627  -1.108  0.00  0.00     0.083 A 
ATOM     11  C   UNL d   1      -0.619  -0.029  -2.303  0.00  0.00     0.049 A 
ATOM     12  C   UNL d   1      -1.883  -0.322  -2.818  0.00  0.00     0.037 A 
ATOM     13 CL   UNL d   1      -2.388   0.411  -4.290  0.00  0.00    -0.084 Cl
ATOM     14  C   UNL d   1      -2.745  -1.193  -2.150  0.00  0.00     0.047 A 
ATOM     15  C   UNL d   1      -2.336  -1.782  -0.954  0.00  0.00     0.037 A 
ATOM     16  C   UNL d   1      -1.079  -1.509  -0.425  0.00  0.00     0.049 A 
ATOM     17 CL   UNL d   1      -3.400  -2.843  -0.119  0.00  0.00    -0.084 Cl
ENDBRANCH   7  10
ENDBRANCH   1   7
BRANCH   2  18
ATOM     18  C   UNL d   1       2.889   3.308   3.452  0.00  0.00     0.064 A 
ATOM     19  C   UNL d   1       2.256   4.475   3.942  0.00  0.00     0.094 A 
ATOM     20  C   UNL d   1       2.863   5.259   4.942  0.00  0.00     0.039 A 
ATOM     21  C   UNL d   1       4.113   4.933   5.458  0.00  0.00     0.003 A 
ATOM     22  C   UNL d   1       4.793   3.846   4.938  0.00  0.00     0.002 A 
ATOM     23  C   UNL d   1       4.189   3.058   3.953  0.00  0.00     0.032 A 
BRANCH  19  24
ATOM     24  O   UNL d   1       1.095   5.033   3.467  0.00  0.00    -0.354 OA
ATOM     25  C   UNL d   1      -0.075   4.233   3.547  0.00  0.00     0.210 C 
ENDBRANCH  19  24
ENDBRANCH   2  18
TORSDOF 4
