REMARK  4 active torsions:
REMARK  status: ('A' for Active; 'I' for Inactive)
REMARK    1  A    between atoms: N_10  and  C_3 
REMARK    2  A    between atoms: C_17  and  C_4 
REMARK    3  A    between atoms: C_16  and  C_5 
REMARK    4  A    between atoms: C_18  and  N_11 
ROOT
ATOM      1  N   UNL d   1       1.364   0.324   0.094  0.00  0.00    -0.187 N 
ATOM      2  HN  UNL d   1       2.330   0.624  -0.033  1.00  0.00     0.184 HD
ATOM      3  C   UNL d   1       0.392   1.217   0.333  0.00  0.00     0.695 A 
ATOM      4  C   UNL d   1       1.027  -0.995   0.026  0.00  0.00     0.088 A 
ATOM      5  C   UNL d   1      -0.289  -1.419   0.201  0.00  0.00     0.087 A 
ATOM      6  N   UNL d   1      -1.250  -0.485   0.355  0.00  0.00    -0.283 N 
ATOM      7  HN  UNL d   1      -2.230  -0.761   0.416  1.00  0.00     0.187 HD
ATOM      8  N   UNL d   1      -0.898   0.835   0.428  0.00  0.00    -0.132 N 
ATOM      9  HN  UNL d   1      -1.623   1.542   0.556  1.00  0.00     0.205 HD
ENDROOT
BRANCH   3  10
ATOM     10  N   UNL d   1       0.751   2.537   0.597  0.00  0.00    -0.213 N 
ATOM     11  C   UNL d   1       1.988   2.993  -0.062  0.00  0.00     0.161 C 
ATOM     12  C   UNL d   1       2.414   4.391   0.453  0.00  0.00     0.143 C 
ATOM     13  N   UNL d   1       1.285   5.338   0.351  0.00  0.00    -0.378 N 
ATOM     14  C   UNL d   1       0.094   4.875   1.100  0.00  0.00     0.143 C 
ATOM     15  C   UNL d   1      -0.362   3.502   0.558  0.00  0.00     0.161 C 
BRANCH  13  16
ATOM     16  C   UNL d   1       1.503   6.708   0.272  0.00  0.00     0.030 A 
ATOM     17  C   UNL d   1       2.739   7.311   0.549  0.00  0.00     0.029 A 
ATOM     18  C   UNL d   1       2.939   8.687   0.379  0.00  0.00     0.002 A 
ATOM     19  C   UNL d   1       1.904   9.496  -0.076  0.00  0.00     0.000 A 
ATOM     20  C   UNL d   1       0.668   8.929  -0.355  0.00  0.00     0.002 A 
ATOM     21  C   UNL d   1       0.476   7.555  -0.183  0.00  0.00     0.029 A 
ENDBRANCH  13  16
ENDBRANCH   3  10
BRANCH   4  22
ATOM     22  C   UNL d   1       2.189  -1.885  -0.197  0.00  0.00    -0.006 A 
ATOM     23  C   UNL d   1       3.399  -1.647   0.483  0.00  0.00     0.014 A 
ATOM     24  C   UNL d   1       4.499  -2.496   0.336  0.00  0.00     0.001 A 
ATOM     25  C   UNL d   1       4.414  -3.604  -0.501  0.00  0.00     0.000 A 
ATOM     26  C   UNL d   1       3.241  -3.847  -1.209  0.00  0.00     0.001 A 
ATOM     27  C   UNL d   1       2.146  -2.987  -1.070  0.00  0.00     0.014 A 
ENDBRANCH   4  22
BRANCH   5  28
ATOM     28  C   UNL d   1      -0.762  -2.806   0.333  0.00  0.00    -0.006 A 
ATOM     29  C   UNL d   1      -0.141  -3.720   1.202  0.00  0.00     0.014 A 
ATOM     30  C   UNL d   1      -0.601  -5.031   1.326  0.00  0.00     0.001 A 
ATOM     31  C   UNL d   1      -1.708  -5.454   0.598  0.00  0.00     0.000 A 
ATOM     32  C   UNL d   1      -2.359  -4.561  -0.250  0.00  0.00     0.001 A 
ATOM     33  C   UNL d   1      -1.892  -3.251  -0.380  0.00  0.00     0.014 A 
ENDBRANCH   5  28
TORSDOF 4
