REMARK  3 active torsions:
REMARK  status: ('A' for Active; 'I' for Inactive)
REMARK       I    between atoms: C_7  and  N_1 
REMARK    1  A    between atoms: C_2  and  S_9 
REMARK    2  A    between atoms: C_13  and  C_7 
REMARK    3  A    between atoms: S_9  and  C_13 
ROOT
ATOM      1  N   UNL d   1       1.554   1.141  -0.074  0.00  0.00    -0.317 N 
ATOM      2  C   UNL d   1       0.220   0.695  -0.190  0.00  0.00     0.043 A 
ATOM      3  C   UNL d   1       1.973   2.467  -0.129  0.00  0.00     0.234 C 
ATOM      4  C   UNL d   1       2.407  -0.037   0.169  0.00  0.00     0.137 C 
ATOM      5  C   UNL d   1       0.172  -0.699  -0.136  0.00  0.00    -0.030 A 
ATOM      6  O   UNL d   1       1.207   3.407  -0.354  0.00  0.00    -0.272 OA
ATOM      7  C   UNL d   1       1.541  -1.287  -0.027  0.00  0.00     0.061 C 
ATOM      8  C   UNL d   1      -0.943   1.431  -0.337  0.00  0.00     0.030 A 
ATOM      9  C   UNL d   1      -1.031  -1.386  -0.230  0.00  0.00     0.009 A 
ATOM     10  C   UNL d   1      -2.162   0.751  -0.427  0.00  0.00     0.002 A 
ATOM     11  C   UNL d   1      -2.206  -0.649  -0.373  0.00  0.00     0.001 A 
ENDROOT
BRANCH   3  12
ATOM     12  C   UNL d   1       3.476   2.697   0.039  0.00  0.00     0.185 C 
BRANCH  12  13
ATOM     13  S   UNL d   1       3.808   4.328   0.778  0.00  0.00    -0.084 SA
BRANCH  13  14
ATOM     14  C   UNL d   1       5.536   4.312   0.842  0.00  0.00     0.146 A 
ATOM     15  N   UNL d   1       6.284   5.400   1.209  0.00  0.00    -0.341 N 
ATOM     16  C   UNL d   1       7.600   5.009   1.195  0.00  0.00     0.109 A 
ATOM     17  C   UNL d   1       5.845   6.729   1.558  0.00  0.00     0.158 C 
ATOM     18  C   UNL d   1       7.580   3.695   0.794  0.00  0.00     0.107 A 
ATOM     19  N   UNL d   1       6.294   3.271   0.576  0.00  0.00    -0.345 N 
ATOM     20  HN  UNL d   1       5.990   2.346   0.273  1.00  0.00     0.167 HD
ENDBRANCH  13  14
ENDBRANCH  12  13
ENDBRANCH   3  12
TORSDOF 3
