REMARK  9 active torsions:
REMARK  status: ('A' for Active; 'I' for Inactive)
REMARK    1  A    between atoms: N_16  and  C_8 
REMARK    2  A    between atoms: N_15  and  C_9 
REMARK    3  A    between atoms: S_17  and  C_10 
REMARK    4  A    between atoms: C_18  and  N_15 
REMARK    5  A    between atoms: C_22  and  N_16 
REMARK    6  A    between atoms: C_23  and  N_16 
REMARK    7  A    between atoms: C_19  and  S_17 
REMARK    8  A    between atoms: C_20  and  C_18 
REMARK    9  A    between atoms: C_21  and  C_19 
ROOT
ATOM      1  N   UNL d   1      -1.198   1.320   0.148  0.00  0.00    -0.175 N 
ATOM      2  HN  UNL d   1      -1.189   2.335   0.249  1.00  0.00     0.186 HD
ATOM      3  C   UNL d   1      -0.049   0.641   0.111  0.00  0.00     0.138 A 
ATOM      4  N   UNL d   1       1.086   1.332   0.132  0.00  0.00    -0.322 N 
ATOM      5  HN  UNL d   1       1.080   2.350   0.191  1.00  0.00     0.169 HD
ATOM      6  N   UNL d   1       2.339  -0.692   0.012  0.00  0.00    -0.327 N 
ATOM      7  HN  UNL d   1       3.248  -1.155  -0.027  1.00  0.00     0.169 HD
ATOM      8  C   UNL d   1      -2.365   0.663   0.053  0.00  0.00     0.681 A 
ATOM      9  C   UNL d   1       1.200  -1.393   0.004  0.00  0.00     0.097 A 
ATOM     10  C   UNL d   1       2.239   0.650   0.074  0.00  0.00     0.147 A 
ATOM     11  C   UNL d   1      -0.038  -0.737   0.055  0.00  0.00     0.063 A 
ATOM     12  N   UNL d   1      -2.435  -0.669  -0.017  0.00  0.00    -0.201 N 
ATOM     13  HN  UNL d   1      -3.330  -1.151  -0.103  1.00  0.00     0.183 HD
ATOM     14  C   UNL d   1      -1.280  -1.343   0.029  0.00  0.00     0.124 A 
ENDROOT
BRANCH   9  15
ATOM     15  N   UNL d   1       1.224  -2.797   0.045  0.00  0.00    -0.274 NA
ATOM     16  H   UNL d   1       0.475  -3.211  -0.497  0.00  0.00     0.129 HD
BRANCH  15  17
ATOM     17  C   UNL d   1       2.471  -3.478  -0.283  0.00  0.00     0.132 C 
BRANCH  17  18
ATOM     18  C   UNL d   1       2.260  -4.959  -0.020  0.00  0.00    -0.045 A 
ATOM     19  C   UNL d   1       2.152  -5.887  -1.066  0.00  0.00     0.008 A 
ATOM     20  C   UNL d   1       1.922  -7.240  -0.800  0.00  0.00     0.001 A 
ATOM     21  C   UNL d   1       1.795  -7.682   0.517  0.00  0.00     0.000 A 
ATOM     22  C   UNL d   1       1.892  -6.772   1.566  0.00  0.00     0.001 A 
ATOM     23  C   UNL d   1       2.123  -5.420   1.300  0.00  0.00     0.008 A 
ENDBRANCH  17  18
ENDBRANCH  15  17
ENDBRANCH   9  15
BRANCH  10  24
ATOM     24  S   UNL d   1       3.771   1.564   0.013  0.00  0.00    -0.089 SA
BRANCH  24  25
ATOM     25  C   UNL d   1       3.267   3.128   0.803  0.00  0.00     0.121 C 
BRANCH  25  26
ATOM     26  C   UNL d   1       4.397   4.137   0.871  0.00  0.00    -0.049 A 
ATOM     27  C   UNL d   1       4.570   5.092  -0.143  0.00  0.00     0.008 A 
ATOM     28  C   UNL d   1       5.592   6.044  -0.068  0.00  0.00     0.001 A 
ATOM     29  C   UNL d   1       6.461   6.052   1.021  0.00  0.00     0.000 A 
ATOM     30  C   UNL d   1       6.311   5.104   2.033  0.00  0.00     0.001 A 
ATOM     31  C   UNL d   1       5.290   4.152   1.958  0.00  0.00     0.008 A 
ENDBRANCH  25  26
ENDBRANCH  24  25
ENDBRANCH  10  24
BRANCH   8  32
ATOM     32  N   UNL d   1      -3.549   1.362   0.024  0.00  0.00    -0.218 N 
BRANCH  32  33
ATOM     33  C   UNL d   1      -4.705   0.785  -0.650  0.00  0.00     0.136 C 
ATOM     34  C   UNL d   1      -5.563  -0.049   0.289  0.00  0.00     0.027 C 
ENDBRANCH  32  33
BRANCH  32  35
ATOM     35  C   UNL d   1      -3.633   2.669   0.648  0.00  0.00     0.136 C 
ATOM     36  C   UNL d   1      -3.371   3.784  -0.348  0.00  0.00     0.027 C 
ENDBRANCH  32  35
ENDBRANCH   8  32
TORSDOF 9
