REMARK  6 active torsions:
REMARK  status: ('A' for Active; 'I' for Inactive)
REMARK    1  A    between atoms: N_5  and  C_1 
REMARK    2  A    between atoms: C_13  and  C_2 
REMARK       I    between atoms: C_6  and  N_5 
REMARK    3  A    between atoms: C_8  and  C_6 
REMARK    4  A    between atoms: S_15  and  C_10 
REMARK    5  A    between atoms: C_21  and  S_15 
REMARK    6  A    between atoms: C_23  and  C_21 
ROOT
ATOM      1  N   UNL d   1       0.484  -2.532  -0.108  0.00  0.00    -0.319 N 
ATOM      2  C   UNL d   1       1.639  -2.992   0.509  0.00  0.00     0.259 C 
ATOM      3  O   UNL d   1       1.706  -3.981   1.226  0.00  0.00    -0.267 OA
ATOM      4  H   UNL d   1       0.590  -1.999  -0.962  0.00  0.00     0.169 HD
ENDROOT
BRANCH   1   5
ATOM      5  C   UNL d   1      -0.808  -2.958   0.203  0.00  0.00     0.096 A 
ATOM      6  C   UNL d   1      -1.450  -3.361   1.432  0.00  0.00     0.094 A 
ATOM      7  N   UNL d   1      -2.748  -3.635   1.193  0.00  0.00    -0.258 N 
ATOM      8  O   UNL d   1      -2.964  -3.441  -0.142  0.00  0.00    -0.240 OA
ATOM      9  HN  UNL d   1      -3.441  -3.931   1.881  1.00  0.00     0.195 HD
ATOM     10  C   UNL d   1      -1.817  -3.045  -0.739  0.00  0.00     0.101 A 
ATOM     11  C   UNL d   1      -1.907  -2.893  -2.204  0.00  0.00     0.081 C 
BRANCH   6  12
ATOM     12  C   UNL d   1      -0.980  -3.433   2.822  0.00  0.00    -0.005 A 
ATOM     13  C   UNL d   1       0.016  -2.588   3.324  0.00  0.00     0.014 A 
ATOM     14  C   UNL d   1       0.444  -2.695   4.652  0.00  0.00     0.001 A 
ATOM     15  C   UNL d   1      -0.151  -3.619   5.509  0.00  0.00     0.000 A 
ATOM     16  C   UNL d   1      -1.175  -4.435   5.042  0.00  0.00     0.001 A 
ATOM     17  C   UNL d   1      -1.583  -4.345   3.709  0.00  0.00     0.014 A 
ENDBRANCH   6  12
ENDBRANCH   1   5
BRANCH   2  18
ATOM     18  C   UNL d   1       2.846  -2.152   0.272  0.00  0.00     0.065 A 
ATOM     19  C   UNL d   1       4.131  -2.652   0.024  0.00  0.00     0.085 A 
ATOM     20  N   UNL d   1       5.190  -1.816  -0.158  0.00  0.00    -0.360 N 
ATOM     21  C   UNL d   1       5.008  -0.483  -0.039  0.00  0.00     0.089 A 
ATOM     22  HN  UNL d   1       6.111  -2.192  -0.383  1.00  0.00     0.166 HD
ATOM     23  C   UNL d   1       3.787   0.085   0.256  0.00  0.00     0.018 A 
ATOM     24  C   UNL d   1       2.694  -0.760   0.410  0.00  0.00     0.021 A 
BRANCH  19  25
ATOM     25  S   UNL d   1       4.545  -4.382  -0.175  0.00  0.00    -0.111 SA
BRANCH  25  26
ATOM     26  C   UNL d   1       6.314  -4.343   0.323  0.00  0.00     0.080 C 
BRANCH  26  27
ATOM     27  C   UNL d   1       6.973  -5.717   0.202  0.00  0.00     0.006 C 
ATOM     28  C   UNL d   1       8.427  -5.670   0.661  0.00  0.00     0.006 C 
ENDBRANCH  26  27
ENDBRANCH  25  26
ENDBRANCH  19  25
ENDBRANCH   2  18
TORSDOF 6
