REMARK  6 active torsions:
REMARK  status: ('A' for Active; 'I' for Inactive)
REMARK    1  A    between atoms: C_8  and  C_3 
REMARK    2  A    between atoms: S_4  and  N_9 
REMARK    3  A    between atoms: C_11  and  S_4 
REMARK    4  A    between atoms: C_12  and  N_5 
REMARK       I    between atoms: N_10  and  C_8 
REMARK    5  A    between atoms: N_9  and  N_10 
REMARK    6  A    between atoms: C_15  and  C_16 
ROOT
ATOM      1  N   UNL d   1       1.523  -3.463  -0.040  0.00  0.00    -0.220 N 
ATOM      2  H   UNL d   1       1.900  -2.512   0.017  0.00  0.00     0.200 HD
ENDROOT
BRANCH   1   3
ATOM      3  S   UNL d   1       2.552  -4.790  -0.117  0.00  0.00     0.276 S 
ATOM      4  O   UNL d   1       2.375  -5.555   1.099  0.00  0.00    -0.199 OA
ATOM      5  O   UNL d   1       2.375  -5.408  -1.415  0.00  0.00    -0.199 OA
BRANCH   3   6
ATOM      6  C   UNL d   1       4.173  -4.051  -0.074  0.00  0.00     0.081 A 
ATOM      7  C   UNL d   1       4.830  -3.879   1.145  0.00  0.00     0.026 A 
ATOM      8  C   UNL d   1       6.149  -3.402   1.165  0.00  0.00     0.009 A 
ATOM      9  C   UNL d   1       6.847  -3.098  -0.023  0.00  0.00    -0.051 A 
ATOM     10  C   UNL d   1       6.156  -3.280  -1.235  0.00  0.00     0.009 A 
ATOM     11  C   UNL d   1       4.836  -3.756  -1.265  0.00  0.00     0.026 A 
BRANCH   9  12
ATOM     12  C   UNL d   1       8.309  -2.607   0.039  0.00  0.00    -0.024 C 
ATOM     13  C   UNL d   1       8.938  -2.330  -1.347  0.00  0.00     0.019 C 
ATOM     14  C   UNL d   1       8.386  -1.291   0.843  0.00  0.00     0.019 C 
ATOM     15  C   UNL d   1       9.197  -3.667   0.728  0.00  0.00     0.019 C 
ENDBRANCH   9  12
ENDBRANCH   3   6
ENDBRANCH   1   3
BRANCH   1  16
ATOM     16  N   UNL d   1       0.072  -3.637  -0.038  0.00  0.00    -0.255 N 
ATOM     17  C   UNL d   1      -0.730  -2.514   0.043  0.00  0.00     0.288 C 
ATOM     18  O   UNL d   1      -0.250  -1.379   0.118  0.00  0.00    -0.264 OA
ATOM     19  H   UNL d   1      -0.339  -4.569  -0.095  0.00  0.00     0.191 HD
BRANCH  17  20
ATOM     20  C   UNL d   1      -2.181  -2.763   0.032  0.00  0.00     0.119 A 
ATOM     21  N   UNL d   1      -2.742  -3.982  -0.062  0.00  0.00    -0.292 N 
ATOM     22  N   UNL d   1      -4.091  -3.760  -0.048  0.00  0.00    -0.287 N 
ATOM     23  HN  UNL d   1      -2.263  -4.880  -0.129  1.00  0.00     0.187 HD
ATOM     24  C   UNL d   1      -4.391  -2.413   0.053  0.00  0.00     0.028 A 
ATOM     25  C   UNL d   1      -5.733  -1.775   0.089  0.00  0.00     0.070 C 
ATOM     26  C   UNL d   1      -3.176  -1.765   0.110  0.00  0.00     0.063 A 
BRANCH  22  27
ATOM     27  C   UNL d   1      -5.016  -4.915  -0.154  0.00  0.00     0.043 C 
ATOM     28  C   UNL d   1      -4.248  -6.263  -0.215  0.00  0.00     0.039 C 
ATOM     29  C   UNL d   1      -5.939  -5.001   1.080  0.00  0.00     0.039 C 
ATOM     30  C   UNL d   1      -5.846  -4.828  -1.452  0.00  0.00     0.039 C 
ENDBRANCH  22  27
ENDBRANCH  17  20
ENDBRANCH   1  16
TORSDOF 6
