REMARK  4 active torsions:
REMARK  status: ('A' for Active; 'I' for Inactive)
REMARK    1  A    between atoms: C_2  and  C_1 
REMARK    2  A    between atoms: C_13  and  N_3 
REMARK    3  A    between atoms: C_15  and  C_4 
REMARK    4  A    between atoms: C_14  and  N_5 
ROOT
ATOM      1  C   UNL d   1      -0.248   1.267   0.016  0.00  0.00     0.057 A 
ATOM      2  C   UNL d   1       1.075   0.856  -0.139  0.00  0.00     0.082 A 
ATOM      3  N   UNL d   1       1.020  -0.553  -0.114  0.00  0.00    -0.255 N 
ATOM      4  N   UNL d   1      -0.246  -1.001   0.114  0.00  0.00    -0.303 N 
ATOM      5  HN  UNL d   1      -0.546  -1.964   0.261  1.00  0.00     0.186 HD
ATOM      6  C   UNL d   1      -1.001   0.086   0.102  0.00  0.00     0.125 A 
ENDROOT
BRANCH   1   7
ATOM      7  C   UNL d   1      -0.812   2.651   0.088  0.00  0.00     0.152 C 
ATOM      8  N   UNL d   1      -2.020   3.041   0.653  0.00  0.00    -0.224 N 
ATOM      9  N   UNL d   1      -2.351   4.250   0.141  0.00  0.00     0.001 NA
ATOM     10  N   UNL d   1      -1.273   4.672  -0.495  0.00  0.00    -0.007 NA
ATOM     11  N   UNL d   1      -0.302   3.705  -0.515  0.00  0.00    -0.269 N 
ATOM     12  HN  UNL d   1       0.631   3.786  -0.917  1.00  0.00     0.185 HD
BRANCH   8  13
ATOM     13  C   UNL d   1      -2.799   2.435   1.668  0.00  0.00     0.056 A 
ATOM     14  C   UNL d   1      -2.203   1.591   2.617  0.00  0.00     0.032 A 
ATOM     15  C   UNL d   1      -2.981   0.993   3.607  0.00  0.00     0.009 A 
ATOM     16  C   UNL d   1      -4.358   1.232   3.671  0.00  0.00    -0.062 A 
ATOM     17  C   UNL d   1      -4.943   2.104   2.745  0.00  0.00     0.009 A 
ATOM     18  C   UNL d   1      -5.170   0.586   4.753  0.00  0.00     0.048 C 
ATOM     19  C   UNL d   1      -4.169   2.716   1.754  0.00  0.00     0.032 A 
ENDBRANCH   8  13
ENDBRANCH   1   7
BRANCH   2  20
ATOM     20  C   UNL d   1       2.315   1.654  -0.129  0.00  0.00    -0.006 A 
ATOM     21  C   UNL d   1       3.353   1.365   0.773  0.00  0.00     0.014 A 
ATOM     22  C   UNL d   1       4.550   2.087   0.748  0.00  0.00     0.001 A 
ATOM     23  C   UNL d   1       4.703   3.150  -0.136  0.00  0.00     0.000 A 
ATOM     24  C   UNL d   1       3.667   3.479  -1.006  0.00  0.00     0.001 A 
ATOM     25  C   UNL d   1       2.492   2.721  -1.017  0.00  0.00     0.014 A 
ENDBRANCH   2  20
BRANCH   3  26
ATOM     26  C   UNL d   1       2.052  -1.532  -0.248  0.00  0.00     0.057 A 
ATOM     27  C   UNL d   1       1.862  -2.795   0.343  0.00  0.00     0.031 A 
ATOM     28  C   UNL d   1       2.876  -3.753   0.307  0.00  0.00     0.002 A 
ATOM     29  C   UNL d   1       4.075  -3.470  -0.340  0.00  0.00     0.000 A 
ATOM     30  C   UNL d   1       4.252  -2.240  -0.973  0.00  0.00     0.002 A 
ATOM     31  C   UNL d   1       3.241  -1.275  -0.937  0.00  0.00     0.031 A 
ENDBRANCH   3  26
TORSDOF 4
