REMARK  4 active torsions:
REMARK  status: ('A' for Active; 'I' for Inactive)
REMARK    1  A    between atoms: C_5  and  C_1 
REMARK    2  A    between atoms: C_2  and  O_4 
REMARK    3  A    between atoms: C_6  and  C_2 
REMARK    4  A    between atoms: O_4  and  C_3 
ROOT
ATOM      1  C   UNL d   1       1.083  -0.161   0.188  0.00  0.00     0.044 A 
ATOM      2  C   UNL d   1       0.510   1.107   0.010  0.00  0.00     0.093 A 
ATOM      3  C   UNL d   1       0.246  -1.287   0.141  0.00  0.00     0.024 A 
ATOM      4  C   UNL d   1      -0.861   1.248  -0.222  0.00  0.00     0.039 A 
ATOM      5  C   UNL d   1      -1.134  -1.156  -0.084  0.00  0.00    -0.061 A 
ATOM      6  C   UNL d   1      -1.679   0.119  -0.270  0.00  0.00     0.009 A 
ATOM      7  C   UNL d   1      -2.032  -2.357  -0.042  0.00  0.00     0.048 C 
ENDROOT
BRANCH   2   8
ATOM      8  O   UNL d   1       1.181   2.312   0.289  0.00  0.00    -0.274 OA
BRANCH   8   9
ATOM      9  C   UNL d   1       2.365   2.648  -0.347  0.00  0.00     0.298 C 
ATOM     10  O   UNL d   1       2.729   2.273  -1.447  0.00  0.00    -0.259 OA
BRANCH   9  11
ATOM     11  C   UNL d   1       3.133   3.534   0.583  0.00  0.00     0.040 A 
ATOM     12  C   UNL d   1       4.296   4.173   0.132  0.00  0.00     0.019 A 
ATOM     13  C   UNL d   1       5.093   4.891   1.032  0.00  0.00     0.025 A 
ATOM     14  C   UNL d   1       4.732   4.972   2.380  0.00  0.00     0.034 A 
ATOM     15  C   UNL d   1       3.564   4.366   2.832  0.00  0.00     0.025 A 
ATOM     16 CL   UNL d   1       5.745   5.795   3.498  0.00  0.00    -0.084 Cl
ATOM     17  C   UNL d   1       2.767   3.655   1.936  0.00  0.00     0.019 A 
ENDBRANCH   9  11
ENDBRANCH   8   9
ENDBRANCH   2   8
BRANCH   1  18
ATOM     18  C   UNL d   1       2.511  -0.352   0.566  0.00  0.00     0.158 C 
ATOM     19  O   UNL d   1       3.072   0.464   1.294  0.00  0.00    -0.293 OA
ATOM     20  C   UNL d   1       3.236  -1.590   0.098  0.00  0.00     0.097 C 
ENDBRANCH   1  18
TORSDOF 4
