REMARK  2 active torsions:
REMARK  status: ('A' for Active; 'I' for Inactive)
REMARK    1  A    between atoms: C_7  and  C_1 
REMARK       I    between atoms: N_2  and  C_7 
REMARK    2  A    between atoms: C_3  and  C_6 
ROOT
ATOM      1  N   UNL d   1      -1.331   3.349  -0.182  0.00  0.00    -0.231 N 
ATOM      2  N   UNL d   1      -1.757   4.143  -1.203  0.00  0.00    -0.289 N 
ATOM      3  HN  UNL d   1      -1.329   4.260  -2.122  1.00  0.00     0.188 HD
ATOM      4  C   UNL d   1      -2.862   4.736  -0.734  0.00  0.00     0.086 C 
ATOM      5  C   UNL d   1      -0.100   2.655  -0.260  0.00  0.00     0.280 C 
ATOM      6  C   UNL d   1      -3.184   4.294   0.565  0.00  0.00     0.053 C 
ATOM      7  C   UNL d   1      -2.241   3.338   0.857  0.00  0.00     0.122 C 
ATOM      8  O   UNL d   1       0.038   1.703   0.510  0.00  0.00    -0.265 OA
ENDROOT
BRANCH   5   9
ATOM      9  C   UNL d   1       0.974   3.060  -1.152  0.00  0.00     0.089 A 
ATOM     10  C   UNL d   1       1.858   2.221  -1.798  0.00  0.00     0.090 A 
ATOM     11  O   UNL d   1       2.758   2.961  -2.496  0.00  0.00    -0.242 OA
ATOM     12  C   UNL d   1       2.034   0.759  -1.892  0.00  0.00     0.080 C 
ATOM     13  N   UNL d   1       2.502   4.303  -2.305  0.00  0.00    -0.265 N 
ATOM     14  C   UNL d   1       1.446   4.363  -1.485  0.00  0.00     0.047 A 
ATOM     15  HN  UNL d   1       3.014   5.089  -2.707  1.00  0.00     0.194 HD
ATOM     16  C   UNL d   1       0.983   5.689  -1.007  0.00  0.00     0.071 C 
ENDBRANCH   5   9
BRANCH   4  17
ATOM     17  C   UNL d   1      -3.619   5.761  -1.506  0.00  0.00     0.127 A 
ATOM     18  C   UNL d   1      -3.633   5.959  -2.875  0.00  0.00     0.043 A 
ATOM     19  N   UNL d   1      -4.413   7.053  -3.182  0.00  0.00    -0.342 N 
ATOM     20  C   UNL d   1      -3.016   5.152  -3.951  0.00  0.00     0.071 C 
ATOM     21  C   UNL d   1      -4.849   7.469  -2.012  0.00  0.00     0.120 A 
ATOM     22  HN  UNL d   1      -4.608   7.448  -4.102  1.00  0.00     0.167 HD
ATOM     23  O   UNL d   1      -4.451   6.703  -0.952  0.00  0.00    -0.294 OA
ATOM     24  C   UNL d   1      -5.683   8.650  -1.709  0.00  0.00     0.098 C 
ENDBRANCH   4  17
TORSDOF 2
