REMARK  5 active torsions:
REMARK  status: ('A' for Active; 'I' for Inactive)
REMARK    1  A    between atoms: C_15  and  N_1 
REMARK    2  A    between atoms: S_2  and  N_10 
REMARK    3  A    between atoms: C_8  and  S_2 
REMARK    4  A    between atoms: C_11  and  C_7 
REMARK    5  A    between atoms: N_10  and  C_11 
ROOT
ATOM      1  N   UNL d   1      -0.102  -1.138   0.042  0.00  0.00    -0.197 N 
ATOM      2  N   UNL d   1       1.171  -0.690   0.211  0.00  0.00    -0.280 N 
ATOM      3  HN  UNL d   1       2.019  -1.233   0.372  1.00  0.00     0.189 HD
ATOM      4  N   UNL d   1      -1.044  -0.174  -0.142  0.00  0.00    -0.282 N 
ATOM      5  HN  UNL d   1      -2.046  -0.285  -0.297  1.00  0.00     0.189 HD
ATOM      6  C   UNL d   1       1.038   0.640   0.113  0.00  0.00     0.065 A 
ATOM      7  C   UNL d   1      -0.330   0.955  -0.071  0.00  0.00     0.049 A 
ATOM      8  C   UNL d   1      -0.986   2.275  -0.199  0.00  0.00     0.072 C 
ENDROOT
BRANCH   6   9
ATOM      9  C   UNL d   1       2.236   1.537   0.128  0.00  0.00     0.165 C 
BRANCH   9  10
ATOM     10  N   UNL d   1       2.119   2.553   1.180  0.00  0.00    -0.209 NA
ATOM     11  H   UNL d   1       1.221   3.017   1.278  0.00  0.00     0.140 HD
BRANCH  10  12
ATOM     12  S   UNL d   1       3.370   3.681   1.240  0.00  0.00     0.248 S 
ATOM     13  O   UNL d   1       3.069   4.590   2.321  0.00  0.00    -0.205 OA
ATOM     14  O   UNL d   1       4.626   2.978   1.136  0.00  0.00    -0.205 OA
BRANCH  12  15
ATOM     15  C   UNL d   1       3.278   4.669  -0.241  0.00  0.00     0.115 A 
ATOM     16  S   UNL d   1       1.799   5.486  -0.521  0.00  0.00    -0.089 SA
ATOM     17  C   UNL d   1       2.389   6.188  -1.967  0.00  0.00     0.051 A 
ATOM     18  C   UNL d   1       3.677   5.790  -2.247  0.00  0.00     0.009 A 
ATOM     19  C   UNL d   1       4.190   4.909  -1.251  0.00  0.00     0.033 A 
ENDBRANCH  12  15
ENDBRANCH  10  12
ENDBRANCH   9  10
ENDBRANCH   6   9
BRANCH   1  20
ATOM     20  C   UNL d   1      -0.415  -2.522   0.018  0.00  0.00     0.074 A 
ATOM     21  C   UNL d   1       0.569  -3.467   0.345  0.00  0.00     0.033 A 
ATOM     22  C   UNL d   1       0.265  -4.829   0.319  0.00  0.00     0.002 A 
ATOM     23  C   UNL d   1      -1.011  -5.254  -0.048  0.00  0.00     0.000 A 
ATOM     24  C   UNL d   1      -1.991  -4.319  -0.381  0.00  0.00     0.002 A 
ATOM     25  C   UNL d   1      -1.701  -2.952  -0.340  0.00  0.00     0.033 A 
ENDBRANCH   1  20
TORSDOF 5
