REMARK  2 active torsions:
REMARK  status: ('A' for Active; 'I' for Inactive)
REMARK    1  A    between atoms: C_17  and  C_1 
REMARK    2  A    between atoms: C_9  and  C_2 
ROOT
ATOM      1  C   UNL d   1      -0.178   1.065   0.015  0.00  0.00     0.175 A 
ATOM      2  C   UNL d   1      -0.159  -1.008   0.509  0.00  0.00     0.174 A 
ATOM      3  O   UNL d   1      -0.956   0.104   0.617  0.00  0.00    -0.273 OA
ATOM      4  N   UNL d   1       0.976   0.583  -0.399  0.00  0.00    -0.277 N 
ATOM      5  HN  UNL d   1       1.720   1.104  -0.863  1.00  0.00     0.189 HD
ATOM      6  N   UNL d   1       0.987  -0.755  -0.087  0.00  0.00    -0.277 N 
ATOM      7  HN  UNL d   1       1.735  -1.421  -0.279  1.00  0.00     0.189 HD
ENDROOT
BRANCH   2   8
ATOM      8  C   UNL d   1      -0.655  -2.264   1.067  0.00  0.00     0.019 A 
ATOM      9  C   UNL d   1      -1.933  -2.331   1.664  0.00  0.00     0.048 A 
ATOM     10  C   UNL d   1      -2.316  -3.581   2.208  0.00  0.00     0.067 A 
ATOM     11  N   UNL d   1      -3.477  -3.845   2.826  0.00  0.00    -0.310 N 
ATOM     12  C   UNL d   1      -1.399  -4.773   2.137  0.00  0.00     0.067 A 
ATOM     13  S   UNL d   1      -3.414  -5.443   3.280  0.00  0.00     0.068 SA
ATOM     14  HN  UNL d   1      -4.246  -3.194   2.985  1.00  0.00     0.176 HD
ATOM     15  N   UNL d   1      -1.915  -5.872   2.707  0.00  0.00    -0.310 N 
ATOM     16  HN  UNL d   1      -1.474  -6.789   2.776  1.00  0.00     0.176 HD
ATOM     17  C   UNL d   1      -0.133  -4.676   1.520  0.00  0.00     0.033 A 
ATOM     18  C   UNL d   1       0.197  -3.408   1.000  0.00  0.00     0.018 A 
ENDBRANCH   2   8
BRANCH   1  19
ATOM     19  C   UNL d   1      -0.724   2.420  -0.062  0.00  0.00     0.028 A 
ATOM     20  C   UNL d   1      -0.378   3.313  -1.122  0.00  0.00    -0.011 A 
ATOM     21  C   UNL d   1      -0.888   4.638  -1.089  0.00  0.00    -0.025 A 
ATOM     22  C   UNL d   1       0.442   2.970  -2.228  0.00  0.00     0.013 A 
ATOM     23  C   UNL d   1      -0.555   5.550  -2.105  0.00  0.00     0.012 A 
ATOM     24  C   UNL d   1      -1.730   5.042  -0.044  0.00  0.00     0.012 A 
ATOM     25  C   UNL d   1       0.267   5.179  -3.167  0.00  0.00     0.001 A 
ATOM     26  C   UNL d   1       0.762   3.886  -3.231  0.00  0.00     0.001 A 
ATOM     27  C   UNL d   1      -2.082   4.160   0.973  0.00  0.00     0.002 A 
ATOM     28  C   UNL d   1      -1.584   2.861   0.964  0.00  0.00     0.017 A 
ENDBRANCH   1  19
TORSDOF 2
