REMARK  0 active torsions:
REMARK  status: ('A' for Active; 'I' for Inactive)
ROOT
ATOM      1  C   UNL d   1      -0.067  -1.334  -0.001  0.00  0.00     0.068 A 
ATOM      2  C   UNL d   1       0.298   0.001  -0.000  0.00  0.00     0.062 A 
ATOM      3  C   UNL d   1       0.951  -2.401   0.000  0.00  0.00     0.301 A 
ATOM      4  N   UNL d   1      -0.618   1.009  -0.000  0.00  0.00    -0.354 N 
ATOM      5  HN  UNL d   1      -0.317   1.984   0.000  1.00  0.00     0.166 HD
ATOM      6  O   UNL d   1       2.280  -1.999   0.000  0.00  0.00    -0.274 OA
ATOM      7  C   UNL d   1       1.706   0.373   0.000  0.00  0.00     0.026 A 
ATOM      8  C   UNL d   1      -1.423  -1.661  -0.002  0.00  0.00     0.033 A 
ATOM      9  C   UNL d   1       2.663  -0.641  -0.000  0.00  0.00     0.092 A 
ATOM     10  C   UNL d   1      -2.377  -0.641  -0.002  0.00  0.00    -0.008 A 
ATOM     11  C   UNL d   1      -1.927   0.694  -0.001  0.00  0.00     0.043 A 
ATOM     12  O   UNL d   1       0.632  -3.584   0.001  0.00  0.00    -0.259 OA
ATOM     13  C   UNL d   1      -3.751  -0.932  -0.002  0.00  0.00     0.020 A 
ATOM     14  C   UNL d   1      -2.881   1.703  -0.000  0.00  0.00     0.031 A 
ATOM     15  C   UNL d   1      -4.697   0.096  -0.000  0.00  0.00    -0.061 A 
ATOM     16  C   UNL d   1      -4.252   1.419   0.001  0.00  0.00     0.009 A 
ATOM     17  C   UNL d   1       2.165   1.698   0.001  0.00  0.00     0.016 A 
ATOM     18  C   UNL d   1       4.032  -0.379  -0.001  0.00  0.00     0.038 A 
ATOM     19  C   UNL d   1      -6.165  -0.213   0.002  0.00  0.00     0.048 C 
ATOM     20  C   UNL d   1       3.536   1.981   0.000  0.00  0.00     0.001 A 
ATOM     21  C   UNL d   1       4.468   0.943  -0.001  0.00  0.00     0.003 A 
ENDROOT
TORSDOF 0
