REMARK  4 active torsions:
REMARK  status: ('A' for Active; 'I' for Inactive)
REMARK    1  A    between atoms: N_5  and  C_1 
REMARK    2  A    between atoms: C_6  and  C_4 
REMARK       I    between atoms: C_7  and  N_5 
REMARK    3  A    between atoms: C_15  and  C_7 
REMARK    4  A    between atoms: C_8  and  C_13 
ROOT
ATOM      1  C   UNL d   1       0.284  -1.168  -0.085  0.00  0.00     0.151 A 
ATOM      2  N   UNL d   1       1.351  -0.475   0.211  0.00  0.00    -0.335 N 
ATOM      3  HN  UNL d   1       2.255  -0.875   0.464  1.00  0.00     0.168 HD
ATOM      4  C   UNL d   1       1.080   0.885   0.130  0.00  0.00     0.052 A 
ATOM      5  S   UNL d   1      -1.108  -0.270  -0.489  0.00  0.00    -0.063 SA
ATOM      6  C   UNL d   1      -0.192   1.177  -0.325  0.00  0.00     0.083 A 
ENDROOT
BRANCH   1   7
ATOM      7  N   UNL d   1       0.107  -2.526  -0.101  0.00  0.00    -0.303 N 
ATOM      8  C   UNL d   1       1.181  -3.385  -0.053  0.00  0.00     0.257 C 
ATOM      9  O   UNL d   1       2.366  -3.072  -0.125  0.00  0.00    -0.267 OA
ATOM     10  H   UNL d   1      -0.830  -2.865  -0.259  0.00  0.00     0.171 HD
BRANCH   8  11
ATOM     11  C   UNL d   1       0.860  -4.835   0.046  0.00  0.00     0.032 A 
ATOM     12  C   UNL d   1       1.747  -5.745  -0.548  0.00  0.00     0.018 A 
ATOM     13  C   UNL d   1       1.579  -7.120  -0.372  0.00  0.00     0.017 A 
ATOM     14  C   UNL d   1       0.526  -7.611   0.411  0.00  0.00     0.048 A 
ATOM     15  C   UNL d   1      -0.383  -6.698   0.975  0.00  0.00     0.017 A 
ATOM     16  C   UNL d   1      -0.219  -5.317   0.796  0.00  0.00     0.018 A 
BRANCH  14  17
ATOM     17  C   UNL d   1       0.393  -9.091   0.690  0.00  0.00     0.417 C 
ATOM     18  F   UNL d   1       1.350  -9.849   0.085  0.00  0.00    -0.166 F 
ATOM     19  F   UNL d   1       0.479  -9.375   2.019  0.00  0.00    -0.166 F 
ATOM     20  F   UNL d   1      -0.802  -9.595   0.276  0.00  0.00    -0.166 F 
ENDBRANCH  14  17
ENDBRANCH   8  11
ENDBRANCH   1   7
BRANCH   4  21
ATOM     21  C   UNL d   1       2.121   1.866   0.450  0.00  0.00     0.013 A 
ATOM     22  C   UNL d   1       1.893   3.101   1.087  0.00  0.00     0.048 A 
ATOM     23  C   UNL d   1       2.958   3.970   1.368  0.00  0.00     0.048 A 
ATOM     24 CL   UNL d   1       0.335   3.624   1.639  0.00  0.00    -0.083 Cl
ATOM     25  C   UNL d   1       4.260   3.608   1.040  0.00  0.00     0.035 A 
ATOM     26  C   UNL d   1       4.515   2.385   0.431  0.00  0.00     0.025 A 
ATOM     27 CL   UNL d   1       5.560   4.672   1.408  0.00  0.00    -0.084 Cl
ATOM     28  C   UNL d   1       3.453   1.522   0.140  0.00  0.00     0.017 A 
ENDBRANCH   4  21
TORSDOF 4
