REMARK  5 active torsions:
REMARK  status: ('A' for Active; 'I' for Inactive)
REMARK    1  A    between atoms: C_3  and  C_1 
REMARK    2  A    between atoms: C_12  and  C_2 
REMARK    3  A    between atoms: C_15  and  C_8 
REMARK    4  A    between atoms: C_18  and  C_9 
REMARK    5  A    between atoms: C_14  and  C_16 
ROOT
ATOM      1  C   UNL d   1       2.393   1.492  -0.047  0.00  0.00     0.185 A 
ATOM      2  N   UNL d   1       2.405   2.787   0.155  0.00  0.00    -0.318 N 
ATOM      3  HN  UNL d   1       1.611   3.416   0.267  1.00  0.00     0.169 HD
ATOM      4  C   UNL d   1       3.745   3.094   0.179  0.00  0.00     0.138 A 
ATOM      5  N   UNL d   1       4.545   2.039  -0.041  0.00  0.00    -0.242 N 
ATOM      6  HN  UNL d   1       5.564   2.020  -0.095  1.00  0.00     0.196 HD
ATOM      7  O   UNL d   1       3.655   0.977  -0.180  0.00  0.00    -0.217 OA
ENDROOT
BRANCH   1   8
ATOM      8  C   UNL d   1       1.165   0.664  -0.073  0.00  0.00     0.059 A 
ATOM      9  C   UNL d   1      -0.144   1.103  -0.026  0.00  0.00     0.174 A 
ATOM     10  O   UNL d   1      -0.975   0.007  -0.024  0.00  0.00    -0.304 OA
ATOM     11  C   UNL d   1      -0.202  -1.117  -0.076  0.00  0.00     0.087 A 
ATOM     12  C   UNL d   1       1.127  -0.752  -0.127  0.00  0.00     0.056 A 
BRANCH   9  13
ATOM     13  C   UNL d   1      -0.826   2.423   0.019  0.00  0.00     0.440 C 
ATOM     14  F   UNL d   1      -0.008   3.490  -0.145  0.00  0.00    -0.164 F 
ATOM     15  F   UNL d   1      -1.772   2.523  -0.956  0.00  0.00    -0.164 F 
ATOM     16  F   UNL d   1      -1.473   2.609   1.200  0.00  0.00    -0.164 F 
ENDBRANCH   9  13
BRANCH  11  17
ATOM     17  C   UNL d   1      -0.902  -2.399  -0.058  0.00  0.00    -0.002 A 
ATOM     18  C   UNL d   1      -0.178  -3.602  -0.050  0.00  0.00     0.016 A 
ATOM     19  C   UNL d   1      -0.832  -4.837  -0.041  0.00  0.00     0.024 A 
ATOM     20  C   UNL d   1      -2.224  -4.883  -0.041  0.00  0.00     0.034 A 
ATOM     21  C   UNL d   1      -2.963  -3.704  -0.041  0.00  0.00     0.024 A 
ATOM     22 CL   UNL d   1      -3.030  -6.401  -0.039  0.00  0.00    -0.084 Cl
ATOM     23  C   UNL d   1      -2.305  -2.469  -0.050  0.00  0.00     0.016 A 
ENDBRANCH  11  17
ENDBRANCH   1   8
BRANCH   4  24
ATOM     24  C   UNL d   1       4.216   4.434   0.506  0.00  0.00     0.011 A 
ATOM     25  C   UNL d   1       3.287   5.446   0.806  0.00  0.00     0.031 A 
ATOM     26  C   UNL d   1       3.710   6.720   1.215  0.00  0.00     0.048 A 
ATOM     27  C   UNL d   1       5.085   6.983   1.299  0.00  0.00     0.016 A 
ATOM     28  C   UNL d   1       6.015   5.994   0.977  0.00  0.00     0.002 A 
ATOM     29  C   UNL d   1       5.584   4.727   0.582  0.00  0.00     0.015 A 
BRANCH  26  30
ATOM     30  C   UNL d   1       2.711   7.788   1.593  0.00  0.00     0.417 C 
ATOM     31  F   UNL d   1       1.414   7.411   1.422  0.00  0.00    -0.166 F 
ATOM     32  F   UNL d   1       2.824   8.161   2.897  0.00  0.00    -0.166 F 
ATOM     33  F   UNL d   1       2.867   8.929   0.864  0.00  0.00    -0.166 F 
ENDBRANCH  26  30
ENDBRANCH   4  24
TORSDOF 5
