REMARK  2 active torsions:
REMARK  status: ('A' for Active; 'I' for Inactive)
REMARK    1  A    between atoms: C_7  and  C_3 
REMARK    2  A    between atoms: N_15  and  C_4 
ROOT
ATOM      1  C   UNL d   1      -1.967  -2.493   0.007  0.00  0.00    -0.006 A 
ATOM      2  C   UNL d   1      -2.725  -4.570   1.011  0.00  0.00     0.103 A 
ATOM      3  C   UNL d   1      -1.902  -3.443   1.037  0.00  0.00     0.053 A 
ATOM      4  C   UNL d   1      -3.638  -4.752  -0.031  0.00  0.00     0.102 A 
ATOM      5  O   UNL d   1      -2.588  -5.451   2.054  0.00  0.00    -0.346 OA
ATOM      6  O   UNL d   1      -4.502  -5.815  -0.096  0.00  0.00    -0.346 OA
ATOM      7  C   UNL d   1      -2.858  -2.708  -1.055  0.00  0.00     0.017 A 
ATOM      8  C   UNL d   1      -3.692  -3.832  -1.075  0.00  0.00     0.040 A 
ATOM      9  C   UNL d   1      -3.219  -6.703   1.766  0.00  0.00     0.202 C 
ATOM     10  C   UNL d   1      -4.598  -6.485   1.166  0.00  0.00     0.202 C 
ENDROOT
BRANCH   1  11
ATOM     11  C   UNL d   1      -1.135  -1.293   0.021  0.00  0.00     0.051 A 
ATOM     12  N   UNL d   1      -0.788  -0.639  -1.152  0.00  0.00    -0.336 N 
ATOM     13  C   UNL d   1      -0.069   0.422  -0.885  0.00  0.00     0.142 A 
ATOM     14  HN  UNL d   1      -1.056  -0.941  -2.089  1.00  0.00     0.168 HD
ATOM     15  S   UNL d   1       0.253   0.698   0.778  0.00  0.00    -0.064 SA
ATOM     16  C   UNL d   1      -0.662  -0.696   1.173  0.00  0.00     0.083 A 
BRANCH  13  17
ATOM     17  N   UNL d   1       0.407   1.250  -1.828  0.00  0.00    -0.380 N 
ATOM     18  H   UNL d   1       0.421   0.882  -2.772  0.00  0.00     0.158 HD
ATOM     19  H   UNL d   1       1.192   1.843  -1.593  0.00  0.00     0.158 HD
ENDBRANCH  13  17
ENDBRANCH   1  11
TORSDOF 2
