REMARK  2 active torsions:
REMARK  status: ('A' for Active; 'I' for Inactive)
REMARK    1  A    between atoms: C_2  and  C_1 
REMARK    2  A    between atoms: C_3  and  C_1 
ROOT
ATOM      1  C   UNL d   1       0.975   0.100  -0.032  0.00  0.00     0.192 C 
ATOM      2  O   UNL d   1       2.192   0.245   0.053  0.00  0.00    -0.287 OA
ENDROOT
BRANCH   1   3
ATOM      3  C   UNL d   1       0.277  -0.787   0.938  0.00  0.00     0.017 A 
ATOM      4  C   UNL d   1      -0.884  -1.492   0.593  0.00  0.00     0.042 A 
ATOM      5  C   UNL d   1      -1.518  -2.291   1.546  0.00  0.00     0.073 A 
ATOM      6 CL   UNL d   1      -2.971  -3.111   1.121  0.00  0.00    -0.081 Cl
ATOM      7  C   UNL d   1      -0.980  -2.413   2.826  0.00  0.00     0.138 A 
ATOM      8  C   UNL d   1       0.195  -1.748   3.164  0.00  0.00     0.045 A 
ATOM      9  F   UNL d   1      -1.581  -3.174   3.751  0.00  0.00    -0.204 F 
ATOM     10  C   UNL d   1       0.826  -0.937   2.220  0.00  0.00     0.018 A 
ENDBRANCH   1   3
BRANCH   1  11
ATOM     11  C   UNL d   1       0.240   0.811  -1.111  0.00  0.00     0.017 A 
ATOM     12  C   UNL d   1      -1.056   1.306  -0.915  0.00  0.00     0.042 A 
ATOM     13  C   UNL d   1      -1.725   1.928  -1.971  0.00  0.00     0.073 A 
ATOM     14 CL   UNL d   1      -3.337   2.482  -1.733  0.00  0.00    -0.081 Cl
ATOM     15  C   UNL d   1      -1.092   2.085  -3.203  0.00  0.00     0.138 A 
ATOM     16  C   UNL d   1       0.211   1.636  -3.391  0.00  0.00     0.045 A 
ATOM     17  F   UNL d   1      -1.726   2.671  -4.228  0.00  0.00    -0.204 F 
ATOM     18  C   UNL d   1       0.882   1.002  -2.343  0.00  0.00     0.018 A 
ENDBRANCH   1  11
TORSDOF 2
