REMARK  3 active torsions:
REMARK  status: ('A' for Active; 'I' for Inactive)
REMARK    1  A    between atoms: C_6  and  C_1 
REMARK    2  A    between atoms: C_9  and  C_5 
REMARK       I    between atoms: C_12  and  N_13 
REMARK    3  A    between atoms: N_13  and  C_15 
ROOT
ATOM      1  C   UNL d   1       0.309  -1.033   0.058  0.00  0.00     0.069 A 
ATOM      2  N   UNL d   1       0.295  -0.721  -1.247  0.00  0.00    -0.260 N 
ATOM      3  HN  UNL d   1       0.649  -1.291  -2.015  1.00  0.00     0.195 HD
ATOM      4  C   UNL d   1      -0.301   0.003   0.809  0.00  0.00     0.072 A 
ATOM      5  C   UNL d   1      -0.668   0.953  -0.112  0.00  0.00     0.111 A 
ATOM      6  O   UNL d   1      -0.294   0.528  -1.347  0.00  0.00    -0.237 OA
ENDROOT
BRANCH   5   7
ATOM      7  C   UNL d   1      -1.375   2.219  -0.016  0.00  0.00     0.002 A 
ATOM      8  C   UNL d   1      -2.220   2.431   1.087  0.00  0.00     0.043 A 
ATOM      9  C   UNL d   1      -2.913   3.628   1.264  0.00  0.00     0.035 A 
ATOM     10  C   UNL d   1      -2.755   4.638   0.311  0.00  0.00     0.029 A 
ATOM     11  C   UNL d   1      -1.924   4.443  -0.798  0.00  0.00     0.003 A 
ATOM     12  C   UNL d   1      -1.238   3.237  -0.962  0.00  0.00     0.014 A 
BRANCH   9  13
ATOM     13  N   UNL d   1      -3.767   3.868   2.363  0.00  0.00    -0.327 N 
ATOM     14  C   UNL d   1      -4.033   3.007   3.416  0.00  0.00     0.218 C 
ATOM     15  O   UNL d   1      -3.564   1.887   3.589  0.00  0.00    -0.274 OA
ATOM     16  C   UNL d   1      -5.002   3.571   4.422  0.00  0.00     0.117 C 
ATOM     17  H   UNL d   1      -4.221   4.772   2.377  0.00  0.00     0.169 HD
ENDBRANCH   9  13
ENDBRANCH   5   7
BRANCH   1  18
ATOM     18  C   UNL d   1       0.832  -2.301   0.575  0.00  0.00     0.014 A 
ATOM     19  C   UNL d   1       1.976  -2.942   0.064  0.00  0.00     0.048 A 
ATOM     20  C   UNL d   1       2.412  -4.157   0.610  0.00  0.00     0.048 A 
ATOM     21 CL   UNL d   1       2.958  -2.280  -1.198  0.00  0.00    -0.083 Cl
ATOM     22  C   UNL d   1       1.726  -4.734   1.674  0.00  0.00     0.035 A 
ATOM     23  C   UNL d   1       0.604  -4.110   2.207  0.00  0.00     0.025 A 
ATOM     24 CL   UNL d   1       2.274  -6.221   2.342  0.00  0.00    -0.084 Cl
ATOM     25  C   UNL d   1       0.159  -2.905   1.658  0.00  0.00     0.017 A 
ENDBRANCH   1  18
TORSDOF 3
