REMARK  3 active torsions:
REMARK  status: ('A' for Active; 'I' for Inactive)
REMARK    1  A    between atoms: C_9  and  C_1 
REMARK    2  A    between atoms: C_11  and  C_7 
REMARK    3  A    between atoms: N_8  and  C_10 
ROOT
ATOM      1  C   UNL d   1       0.047  -0.887   0.680  0.00  0.00     0.249 A 
ATOM      2  O   UNL d   1      -0.588   0.286   1.033  0.00  0.00    -0.269 OA
ATOM      3  N   UNL d   1       0.693  -0.779  -0.467  0.00  0.00    -0.274 N 
ATOM      4  HN  UNL d   1       1.238  -1.506  -0.930  1.00  0.00     0.189 HD
ATOM      5  N   UNL d   1       0.489   0.507  -0.914  0.00  0.00    -0.277 N 
ATOM      6  HN  UNL d   1       0.853   0.917  -1.774  1.00  0.00     0.189 HD
ATOM      7  C   UNL d   1      -0.268   1.107  -0.018  0.00  0.00     0.174 A 
ENDROOT
BRANCH   7   8
ATOM      8  C   UNL d   1      -0.773   2.476  -0.001  0.00  0.00     0.017 A 
ATOM      9  C   UNL d   1      -1.595   2.966   1.027  0.00  0.00     0.025 A 
ATOM     10  C   UNL d   1      -2.050   4.306   1.051  0.00  0.00    -0.028 A 
ATOM     11  C   UNL d   1      -2.901   4.729   2.220  0.00  0.00     0.050 C 
ATOM     12  C   UNL d   1      -1.669   5.161  -0.008  0.00  0.00     0.108 A 
ATOM     13  C   UNL d   1      -0.861   4.669  -1.049  0.00  0.00     0.037 A 
ATOM     14  C   UNL d   1      -0.420   3.344  -1.041  0.00  0.00     0.018 A 
BRANCH  12  15
ATOM     15  N   UNL d   1      -2.070   6.585  -0.084  0.00  0.00    -0.115 N 
ATOM     16  O   UNL d   1      -2.773   7.057   0.819  0.00  0.00    -0.532 OA
ATOM     17  O   UNL d   1      -1.673   7.239  -1.058  0.00  0.00    -0.532 OA
ENDBRANCH  12  15
ENDBRANCH   7   8
BRANCH   1  18
ATOM     18  C   UNL d   1      -0.090  -2.061   1.580  0.00  0.00     0.457 C 
ATOM     19  F   UNL d   1      -0.835  -1.789   2.687  0.00  0.00    -0.163 F 
ATOM     20  F   UNL d   1      -0.695  -3.111   0.963  0.00  0.00    -0.163 F 
ATOM     21  F   UNL d   1       1.112  -2.513   2.030  0.00  0.00    -0.163 F 
ENDBRANCH   1  18
TORSDOF 3
