REMARK  2 active torsions:
REMARK  status: ('A' for Active; 'I' for Inactive)
REMARK    1  A    between atoms: N_5  and  S_1 
REMARK    2  A    between atoms: C_2  and  N_8 
ROOT
ATOM      1  C   UNL d   1      -2.124   3.092  -1.817  0.00  0.00     0.290 C 
ATOM      2  C   UNL d   1      -1.798   4.587  -1.932  0.00  0.00    -0.009 A 
ATOM      3  C   UNL d   1      -1.627   2.587  -3.168  0.00  0.00    -0.009 C 
ATOM      4  C   UNL d   1      -1.025   4.829  -3.090  0.00  0.00    -0.017 A 
ATOM      5  C   UNL d   1      -0.878   3.589  -3.821  0.00  0.00    -0.017 C 
ATOM      6  C   UNL d   1      -1.837   1.359  -3.775  0.00  0.00     0.010 C 
ATOM      7  C   UNL d   1      -2.108   5.608  -1.044  0.00  0.00     0.010 A 
ATOM      8  C   UNL d   1      -0.169   3.298  -4.974  0.00  0.00     0.013 C 
ATOM      9  C   UNL d   1      -0.569   6.104  -3.377  0.00  0.00     0.013 A 
ATOM     10  C   UNL d   1      -1.636   6.891  -1.329  0.00  0.00     0.001 A 
ATOM     11  C   UNL d   1      -1.109   1.054  -4.925  0.00  0.00     0.001 C 
ATOM     12  C   UNL d   1      -0.876   7.137  -2.486  0.00  0.00     0.001 A 
ATOM     13  C   UNL d   1      -0.254   2.005  -5.500  0.00  0.00     0.001 C 
ENDROOT
BRANCH   1  14
ATOM     14  N   UNL d   1      -1.507   2.497  -0.613  0.00  0.00     0.105 N 
ATOM     15  C   UNL d   1      -1.771   1.070  -0.374  0.00  0.00     0.294 C 
ATOM     16  C   UNL d   1      -0.774   0.052  -0.976  0.00  0.00     0.165 C 
ATOM     17  N   UNL d   1       0.657   0.415  -0.755  0.00  0.00    -0.308 N 
ATOM     18  C   UNL d   1       0.917   1.852  -1.058  0.00  0.00     0.165 C 
ATOM     19  C   UNL d   1      -0.084   2.786  -0.359  0.00  0.00     0.294 C 
BRANCH  17  20
ATOM     20  S   UNL d   1       1.385  -0.271   0.596  0.00  0.00     0.224 S 
ATOM     21  O   UNL d   1       0.989  -1.663   0.667  0.00  0.00    -0.206 OA
ATOM     22  O   UNL d   1       1.175   0.614   1.721  0.00  0.00    -0.206 OA
ATOM     23  C   UNL d   1       3.110  -0.232   0.158  0.00  0.00     0.186 C 
ENDBRANCH  17  20
ENDBRANCH   1  14
TORSDOF 2
