REMARK  3 active torsions:
REMARK  status: ('A' for Active; 'I' for Inactive)
REMARK    1  A    between atoms: C_4  and  S_1 
REMARK    2  A    between atoms: C_7  and  S_1 
REMARK    3  A    between atoms: C_2  and  C_4 
ROOT
ATOM      1  C   UNL d   1       0.974  -2.159   1.649  0.00  0.00    -0.016 A 
ATOM      2  C   UNL d   1       2.159  -2.595   2.229  0.00  0.00     0.092 A 
ATOM      3  N   UNL d   1       3.901  -1.054   3.366  0.00  0.00    -0.191 NA
ATOM      4  C   UNL d   1       3.148  -1.764   2.843  0.00  0.00     0.107 C 
ATOM      5  S   UNL d   1       2.330  -4.297   2.155  0.00  0.00    -0.090 SA
ATOM      6  C   UNL d   1       0.828  -4.482   1.368  0.00  0.00     0.052 A 
ATOM      7  C   UNL d   1       0.203  -3.273   1.166  0.00  0.00     0.017 A 
ENDROOT
BRANCH   1   8
ATOM      8  C   UNL d   1       0.533  -0.725   1.514  0.00  0.00     0.186 C 
BRANCH   8   9
ATOM      9  S   UNL d   1       1.082   0.004  -0.033  0.00  0.00     0.179 S 
ATOM     10  O   UNL d   1       0.384  -0.642  -1.131  0.00  0.00    -0.222 OA
ATOM     11  O   UNL d   1       2.529   0.093  -0.023  0.00  0.00    -0.222 OA
BRANCH   9  12
ATOM     12  C   UNL d   1       0.452   1.668   0.068  0.00  0.00     0.059 A 
ATOM     13  C   UNL d   1       1.262   2.687   0.578  0.00  0.00     0.025 A 
ATOM     14  C   UNL d   1       0.763   3.990   0.645  0.00  0.00     0.025 A 
ATOM     15  C   UNL d   1      -0.530   4.264   0.194  0.00  0.00     0.034 A 
ATOM     16  C   UNL d   1      -1.328   3.248  -0.333  0.00  0.00     0.025 A 
ATOM     17 CL   UNL d   1      -1.144   5.868   0.287  0.00  0.00    -0.084 Cl
ATOM     18  C   UNL d   1      -0.836   1.943  -0.405  0.00  0.00     0.025 A 
ENDBRANCH   9  12
ENDBRANCH   8   9
ENDBRANCH   1   8
TORSDOF 3
