REMARK  4 active torsions:
REMARK  status: ('A' for Active; 'I' for Inactive)
REMARK    1  A    between atoms: C_11  and  N_1 
REMARK    2  A    between atoms: S_12  and  C_5 
REMARK       I    between atoms: N_9  and  C_13 
REMARK       I    between atoms: C_10  and  N_9 
REMARK       I    between atoms: N_20  and  C_10 
REMARK    3  A    between atoms: C_21  and  S_12 
REMARK    4  A    between atoms: C_13  and  C_21 
ROOT
ATOM      1  N   UNL d   1      -0.213  -1.438   0.004  0.00  0.00    -0.274 N 
ATOM      2  C   UNL d   1       1.016  -0.784  -0.168  0.00  0.00     0.146 C 
ATOM      3  N   UNL d   1       0.806   0.508  -0.335  0.00  0.00    -0.282 N 
ATOM      4  HN  UNL d   1       1.512   1.199  -0.587  1.00  0.00     0.188 HD
ATOM      5  C   UNL d   1      -1.086  -0.374   0.191  0.00  0.00     0.168 C 
ATOM      6  N   UNL d   1      -0.507   0.760  -0.113  0.00  0.00    -0.278 N 
ATOM      7  HN  UNL d   1      -0.962   1.671  -0.172  1.00  0.00     0.189 HD
ATOM      8  C   UNL d   1       2.346  -1.324  -0.048  0.00  0.00     0.050 A 
ATOM      9  S   UNL d   1       3.659  -0.587  -0.879  0.00  0.00    -0.098 SA
ATOM     10  C   UNL d   1       2.789  -2.387   0.720  0.00  0.00     0.023 A 
ATOM     11  C   UNL d   1       4.773  -1.741  -0.295  0.00  0.00     0.050 A 
ATOM     12  C   UNL d   1       4.176  -2.659   0.537  0.00  0.00     0.009 A 
ENDROOT
BRANCH   5  13
ATOM     13  S   UNL d   1      -2.707  -0.372   0.789  0.00  0.00    -0.083 SA
BRANCH  13  14
ATOM     14  C   UNL d   1      -2.360  -0.006   2.533  0.00  0.00     0.185 C 
BRANCH  14  15
ATOM     15  C   UNL d   1      -2.024   1.437   2.887  0.00  0.00     0.235 C 
ATOM     16  N   UNL d   1      -1.730   2.311   1.862  0.00  0.00    -0.279 N 
ATOM     17  C   UNL d   1      -1.314   3.619   1.931  0.00  0.00     0.322 C 
ATOM     18  H   UNL d   1      -1.685   1.962   0.911  0.00  0.00     0.173 HD
ATOM     19  O   UNL d   1      -1.079   4.249   0.908  0.00  0.00    -0.247 OA
ATOM     20  N   UNL d   1      -1.180   4.132   3.185  0.00  0.00    -0.347 N 
ATOM     21  C   UNL d   1      -0.742   5.477   3.439  0.00  0.00     0.151 C 
ATOM     22  H   UNL d   1      -1.495   3.552   3.959  0.00  0.00     0.163 HD
ATOM     23  O   UNL d   1      -2.010   1.770   4.074  0.00  0.00    -0.272 OA
ENDBRANCH  14  15
ENDBRANCH  13  14
ENDBRANCH   5  13
BRANCH   1  24
ATOM     24  C   UNL d   1      -0.459  -2.850  -0.029  0.00  0.00     0.043 A 
ATOM     25  C   UNL d   1      -1.517  -3.446   0.669  0.00  0.00     0.032 A 
ATOM     26  C   UNL d   1      -1.693  -4.836   0.647  0.00  0.00     0.026 A 
ATOM     27  C   UNL d   1      -0.812  -5.643  -0.063  0.00  0.00     0.034 A 
ATOM     28  C   UNL d   1       0.225  -5.069  -0.787  0.00  0.00     0.026 A 
ATOM     29 CL   UNL d   1      -1.002  -7.351  -0.040  0.00  0.00    -0.084 Cl
ATOM     30  C   UNL d   1       0.382  -3.679  -0.792  0.00  0.00     0.032 A 
ENDBRANCH   1  24
TORSDOF 4
