REMARK  5 active torsions:
REMARK  status: ('A' for Active; 'I' for Inactive)
REMARK       I    between atoms: C_3  and  N_1 
REMARK    1  A    between atoms: C_2  and  O_4 
REMARK       I    between atoms: N_7  and  C_2 
REMARK    2  A    between atoms: C_12  and  C_3 
REMARK    3  A    between atoms: O_4  and  C_6 
REMARK    4  A    between atoms: O_11  and  C_12 
REMARK    5  A    between atoms: C_13  and  O_11 
ROOT
ATOM      1  C   UNL d   1      -1.307   5.512  -2.725  0.00  0.00     0.114 A 
ATOM      2  C   UNL d   1      -0.944   4.528  -1.789  0.00  0.00     0.103 A 
ATOM      3  C   UNL d   1      -2.651   5.716  -3.060  0.00  0.00     0.040 A 
ATOM      4  C   UNL d   1      -1.952   3.805  -1.149  0.00  0.00     0.040 A 
ATOM      5  C   UNL d   1      -3.645   4.981  -2.427  0.00  0.00     0.003 A 
ATOM      6  C   UNL d   1      -3.297   4.036  -1.460  0.00  0.00     0.003 A 
ENDROOT
BRANCH   2   7
ATOM      7  O   UNL d   1       0.379   4.184  -1.673  0.00  0.00    -0.339 OA
BRANCH   7   8
ATOM      8  C   UNL d   1       0.927   4.135  -0.357  0.00  0.00     0.278 C 
BRANCH   8   9
ATOM      9  C   UNL d   1       1.163   2.724   0.261  0.00  0.00     0.244 C 
ATOM     10  N   UNL d   1       2.295   2.504   1.062  0.00  0.00    -0.345 N 
ATOM     11  C   UNL d   1       2.489   1.140   1.597  0.00  0.00     0.157 C 
ATOM     12  C   UNL d   1       3.543   3.271   0.948  0.00  0.00     0.157 C 
ATOM     13  C   UNL d   1       3.432   1.104   2.820  0.00  0.00     0.136 C 
ATOM     14  C   UNL d   1       3.811  -0.319   3.211  0.00  0.00     0.041 C 
ATOM     15  O   UNL d   1       4.658   1.802   2.545  0.00  0.00    -0.378 OA
ATOM     16  C   UNL d   1       4.393   3.174   2.227  0.00  0.00     0.136 C 
ATOM     17  C   UNL d   1       5.733   3.876   2.062  0.00  0.00     0.041 C 
ATOM     18  O   UNL d   1       0.325   1.830   0.108  0.00  0.00    -0.271 OA
ENDBRANCH   8   9
ENDBRANCH   7   8
ENDBRANCH   2   7
BRANCH   1  19
ATOM     19  O   UNL d   1      -0.272   6.225  -3.376  0.00  0.00    -0.259 OA
BRANCH  19  20
ATOM     20  C   UNL d   1      -0.436   7.546  -3.813  0.00  0.00     0.367 C 
ATOM     21  N   UNL d   1       0.640   7.995  -4.564  0.00  0.00    -0.336 N 
ATOM     22  C   UNL d   1       0.543   9.256  -5.270  0.00  0.00     0.154 C 
ATOM     23  C   UNL d   1       1.869   7.237  -4.695  0.00  0.00     0.154 C 
ATOM     24  O   UNL d   1      -1.423   8.240  -3.585  0.00  0.00    -0.238 OA
ENDBRANCH  19  20
ENDBRANCH   1  19
TORSDOF 5
