REMARK  3 active torsions:
REMARK  status: ('A' for Active; 'I' for Inactive)
REMARK    1  A    between atoms: N_6  and  C_1 
REMARK    2  A    between atoms: N_2  and  N_6 
REMARK    3  A    between atoms: C_12  and  C_11 
ROOT
ATOM      1  N   UNL d   1      -1.163   2.633   1.831  0.00  0.00    -0.309 N 
ATOM      2  HN  UNL d   1      -1.645   3.528   1.914  1.00  0.00     0.186 HD
ATOM      3  C   UNL d   1      -1.804   1.511   1.754  0.00  0.00     0.118 C 
ENDROOT
BRANCH   1   4
ATOM      4  N   UNL d   1       0.197   2.543   1.795  0.00  0.00    -0.277 N 
ATOM      5  H   UNL d   1       0.662   1.643   1.723  0.00  0.00     0.189 HD
BRANCH   4   6
ATOM      6  C   UNL d   1       0.969   3.673   1.851  0.00  0.00     0.184 C 
ATOM      7  S   UNL d   1       2.625   3.625   1.808  0.00  0.00    -0.040 SA
ATOM      8  N   UNL d   1       0.283   4.838   1.942  0.00  0.00    -0.375 N 
ATOM      9  H   UNL d   1       0.749   5.731   2.004  0.00  0.00     0.158 HD
ATOM     10  H   UNL d   1      -0.726   4.772   1.990  0.00  0.00     0.158 HD
ENDBRANCH   4   6
ENDBRANCH   1   4
BRANCH   3  11
ATOM     11  C   UNL d   1      -3.281   1.491   1.779  0.00  0.00    -0.018 A 
ATOM     12  C   UNL d   1      -3.997   2.689   1.905  0.00  0.00     0.040 A 
ATOM     13  C   UNL d   1      -5.389   2.662   1.921  0.00  0.00     0.073 A 
ATOM     14 CL   UNL d   1      -6.260   4.139   2.074  0.00  0.00    -0.081 Cl
ATOM     15  C   UNL d   1      -6.060   1.446   1.812  0.00  0.00     0.138 A 
ATOM     16  C   UNL d   1      -5.351   0.251   1.688  0.00  0.00     0.045 A 
ATOM     17  F   UNL d   1      -7.400   1.400   1.824  0.00  0.00    -0.204 F 
ATOM     18  C   UNL d   1      -3.954   0.270   1.673  0.00  0.00     0.016 A 
ENDBRANCH   3  11
TORSDOF 3
