REMARK  5 active torsions:
REMARK  status: ('A' for Active; 'I' for Inactive)
REMARK    1  A    between atoms: C_2  and  S_1 
REMARK    2  A    between atoms: N_10  and  S_1 
REMARK       I    between atoms: C_9  and  N_7 
REMARK    3  A    between atoms: O_19  and  C_9 
REMARK    4  A    between atoms: C_16  and  N_10 
REMARK    5  A    between atoms: C_22  and  O_19 
ROOT
ATOM      1  N   UNL d   1       0.074  -0.352   1.512  0.00  0.00    -0.310 N 
ATOM      2  H   UNL d   1       0.554   0.287   0.875  0.00  0.00     0.172 HD
ENDROOT
BRANCH   1   3
ATOM      3  S   UNL d   1      -1.466  -0.608   0.914  0.00  0.00     0.263 S 
ATOM      4  O   UNL d   1      -1.576   0.329  -0.180  0.00  0.00    -0.200 OA
ATOM      5  O   UNL d   1      -1.714  -2.013   0.719  0.00  0.00    -0.200 OA
BRANCH   3   6
ATOM      6  C   UNL d   1      -2.711  -0.107   1.955  0.00  0.00     0.134 A 
ATOM      7  C   UNL d   1      -2.688   0.571   3.147  0.00  0.00     0.098 A 
ATOM      8  O   UNL d   1      -3.975   0.769   3.557  0.00  0.00    -0.241 OA
ATOM      9  C   UNL d   1      -1.661   1.141   4.033  0.00  0.00     0.081 C 
ATOM     10  N   UNL d   1      -4.852   0.239   2.630  0.00  0.00    -0.264 N 
ATOM     11  C   UNL d   1      -4.087  -0.272   1.658  0.00  0.00     0.054 A 
ATOM     12  HN  UNL d   1      -5.871   0.238   2.677  1.00  0.00     0.194 HD
ATOM     13  C   UNL d   1      -4.709  -0.888   0.461  0.00  0.00     0.072 C 
ENDBRANCH   3   6
ENDBRANCH   1   3
BRANCH   1  14
ATOM     14  C   UNL d   1       0.943  -1.350   2.190  0.00  0.00     0.096 C 
ATOM     15  C   UNL d   1       2.412  -0.935   1.990  0.00  0.00     0.045 C 
ATOM     16  C   UNL d   1       2.886  -1.145   0.550  0.00  0.00     0.130 C 
ATOM     17  N   UNL d   1       2.555  -2.450  -0.009  0.00  0.00    -0.328 N 
ATOM     18  C   UNL d   1       1.244  -3.015   0.301  0.00  0.00     0.130 C 
ATOM     19  C   UNL d   1       3.134  -2.741  -1.248  0.00  0.00     0.362 C 
ATOM     20  C   UNL d   1       0.830  -2.804   1.750  0.00  0.00     0.045 C 
ATOM     21  O   UNL d   1       4.037  -2.082  -1.748  0.00  0.00    -0.238 OA
BRANCH  19  22
ATOM     22  O   UNL d   1       2.543  -3.804  -1.861  0.00  0.00    -0.304 OA
BRANCH  22  23
ATOM     23  C   UNL d   1       2.905  -4.049  -3.227  0.00  0.00     0.176 C 
ATOM     24  C   UNL d   1       1.889  -3.376  -4.131  0.00  0.00     0.034 C 
ENDBRANCH  22  23
ENDBRANCH  19  22
ENDBRANCH   1  14
TORSDOF 5
