REMARK  4 active torsions:
REMARK  status: ('A' for Active; 'I' for Inactive)
REMARK    1  A    between atoms: C_7  and  C_3 
REMARK    2  A    between atoms: C_12  and  N_4 
REMARK       I    between atoms: N_11  and  C_7 
REMARK       I    between atoms: C_8  and  N_13 
REMARK       I    between atoms: N_10  and  C_8 
REMARK    3  A    between atoms: C_9  and  N_10 
REMARK    4  A    between atoms: N_13  and  N_11 
ROOT
ATOM      1  C   UNL d   1      -0.656  -2.499   0.312  0.00  0.00     0.288 C 
ATOM      2  N   UNL d   1       0.399  -3.305   0.719  0.00  0.00    -0.261 N 
ATOM      3  O   UNL d   1      -1.787  -2.942   0.108  0.00  0.00    -0.264 OA
ATOM      4  H   UNL d   1       1.236  -2.841   1.060  0.00  0.00     0.190 HD
ENDROOT
BRANCH   2   5
ATOM      5  N   UNL d   1       0.074  -4.616   1.106  0.00  0.00    -0.248 N 
ATOM      6  C   UNL d   1       0.960  -5.642   1.327  0.00  0.00     0.339 C 
ATOM      7  N   UNL d   1       2.278  -5.265   1.459  0.00  0.00    -0.305 N 
ATOM      8  O   UNL d   1       0.528  -6.785   1.439  0.00  0.00    -0.245 OA
ATOM      9  H   UNL d   1       2.364  -4.355   1.888  0.00  0.00     0.171 HD
ATOM     10  H   UNL d   1      -0.890  -4.902   0.930  0.00  0.00     0.192 HD
BRANCH   7  11
ATOM     11  C   UNL d   1       3.273  -6.196   1.877  0.00  0.00     0.064 A 
ATOM     12  C   UNL d   1       4.069  -5.852   2.988  0.00  0.00     0.061 A 
ATOM     13 CL   UNL d   1       3.919  -4.300   3.745  0.00  0.00    -0.082 Cl
ATOM     14  C   UNL d   1       4.969  -6.766   3.541  0.00  0.00     0.026 A 
ATOM     15  C   UNL d   1       5.105  -8.030   2.975  0.00  0.00     0.002 A 
ATOM     16  C   UNL d   1       4.379  -8.355   1.829  0.00  0.00     0.009 A 
ATOM     17  C   UNL d   1       3.481  -7.439   1.248  0.00  0.00    -0.034 A 
ATOM     18  C   UNL d   1       2.833  -7.843  -0.049  0.00  0.00     0.050 C 
ENDBRANCH   7  11
ENDBRANCH   2   5
BRANCH   1  19
ATOM     19  C   UNL d   1      -0.326  -1.071   0.196  0.00  0.00     0.119 A 
ATOM     20  N   UNL d   1       0.910  -0.583   0.400  0.00  0.00    -0.292 N 
ATOM     21  N   UNL d   1       0.804   0.761   0.189  0.00  0.00    -0.287 N 
ATOM     22  HN  UNL d   1       1.748  -1.105   0.657  1.00  0.00     0.187 HD
ATOM     23  C   UNL d   1      -0.499   1.139  -0.079  0.00  0.00     0.028 A 
ATOM     24  C   UNL d   1      -1.025   2.513  -0.285  0.00  0.00     0.070 C 
ATOM     25  C   UNL d   1      -1.228  -0.031  -0.107  0.00  0.00     0.063 A 
BRANCH  21  26
ATOM     26  C   UNL d   1       2.023   1.596   0.298  0.00  0.00     0.043 C 
ATOM     27  C   UNL d   1       3.281   0.729   0.572  0.00  0.00     0.039 C 
ATOM     28  C   UNL d   1       2.297   2.355  -1.018  0.00  0.00     0.039 C 
ATOM     29  C   UNL d   1       1.902   2.580   1.477  0.00  0.00     0.039 C 
ENDBRANCH  21  26
ENDBRANCH   1  19
TORSDOF 4
