REMARK  2 active torsions:
REMARK  status: ('A' for Active; 'I' for Inactive)
REMARK    1  A    between atoms: N_8  and  C_1 
REMARK       I    between atoms: C_6  and  N_8 
REMARK       I    between atoms: N_9  and  C_6 
REMARK    2  A    between atoms: C_10  and  N_9 
ROOT
ATOM      1  C   UNL d   1       1.138   3.156   0.247  0.00  0.00     0.321 C 
ATOM      2  N   UNL d   1       0.939   4.487   0.063  0.00  0.00    -0.305 N 
ATOM      3  N   UNL d   1       2.305   2.625  -0.198  0.00  0.00    -0.338 N 
ATOM      4  O   UNL d   1       0.241   2.490   0.750  0.00  0.00    -0.247 OA
ATOM      5  H   UNL d   1      -0.031   4.727   0.226  0.00  0.00     0.171 HD
ATOM      6  H   UNL d   1       2.673   3.095  -1.012  0.00  0.00     0.164 HD
ENDROOT
BRANCH   2   7
ATOM      7  C   UNL d   1       1.780   5.548  -0.244  0.00  0.00     0.092 A 
ATOM      8  C   UNL d   1       3.153   5.707  -0.215  0.00  0.00     0.101 A 
ATOM      9  O   UNL d   1       3.458   6.977  -0.614  0.00  0.00    -0.240 OA
ATOM     10  C   UNL d   1       4.341   4.951   0.232  0.00  0.00     0.081 C 
ATOM     11  N   UNL d   1       2.310   7.691  -0.854  0.00  0.00    -0.263 N 
ATOM     12  C   UNL d   1       1.305   6.852  -0.594  0.00  0.00     0.058 A 
ATOM     13  HN  UNL d   1       2.239   8.660  -1.166  1.00  0.00     0.194 HD
ATOM     14  C   UNL d   1      -0.093   7.335  -0.690  0.00  0.00     0.072 C 
ENDBRANCH   2   7
BRANCH   3  15
ATOM     15  C   UNL d   1       2.655   1.217  -0.061  0.00  0.00     0.094 C 
ATOM     16  C   UNL d   1       1.786   0.226  -0.871  0.00  0.00     0.064 C 
ATOM     17  C   UNL d   1       2.062  -1.055  -0.140  0.00  0.00    -0.050 A 
ATOM     18  C   UNL d   1       1.840  -2.351  -0.571  0.00  0.00     0.007 A 
ATOM     19  C   UNL d   1       2.570  -0.800   1.141  0.00  0.00    -0.050 A 
ATOM     20  C   UNL d   1       2.145  -3.402   0.297  0.00  0.00     0.001 A 
ATOM     21  C   UNL d   1       2.651  -3.145   1.583  0.00  0.00     0.001 A 
ATOM     22  C   UNL d   1       2.859  -1.834   2.015  0.00  0.00     0.007 A 
ATOM     23  C   UNL d   1       2.682   0.675   1.389  0.00  0.00     0.064 C 
ENDBRANCH   3  15
TORSDOF 2
