REMARK  3 active torsions:
REMARK  status: ('A' for Active; 'I' for Inactive)
REMARK    1  A    between atoms: S_13  and  C_1 
REMARK    2  A    between atoms: C_24  and  N_2 
REMARK    3  A    between atoms: C_14  and  S_13 
ROOT
ATOM      1  S   UNL d   1       2.916  -4.079   1.443  0.00  0.00    -0.033 SA
ENDROOT
BRANCH   1   2
ATOM      2  C   UNL d   1       1.615  -3.155   0.772  0.00  0.00     0.174 C 
ATOM      3  N   UNL d   1       0.491  -2.716   1.462  0.00  0.00    -0.274 N 
ATOM      4  C   UNL d   1       0.351  -1.402   1.014  0.00  0.00     0.146 C 
ATOM      5  C   UNL d   1      -0.262  -0.308   1.728  0.00  0.00     0.050 A 
ATOM      6  N   UNL d   1       0.986  -1.274  -0.134  0.00  0.00    -0.282 N 
ATOM      7  S   UNL d   1      -0.198  -0.195   3.446  0.00  0.00    -0.098 SA
ATOM      8  C   UNL d   1      -0.883   0.804   1.191  0.00  0.00     0.023 A 
ATOM      9  C   UNL d   1      -1.113   1.245   3.464  0.00  0.00     0.050 A 
ATOM     10  C   UNL d   1      -1.396   1.686   2.191  0.00  0.00     0.009 A 
ATOM     11  N   UNL d   1       1.796  -2.377  -0.280  0.00  0.00    -0.277 N 
ATOM     12  HN  UNL d   1       0.895  -0.500  -0.792  1.00  0.00     0.188 HD
ATOM     13  HN  UNL d   1       2.424  -2.561  -1.062  1.00  0.00     0.189 HD
BRANCH   3  14
ATOM     14  C   UNL d   1      -0.416  -3.413   2.316  0.00  0.00     0.043 A 
ATOM     15  C   UNL d   1      -0.016  -4.447   3.159  0.00  0.00     0.030 A 
ATOM     16  C   UNL d   1      -0.954  -5.101   3.966  0.00  0.00     0.002 A 
ATOM     17  C   UNL d   1      -2.296  -4.731   3.933  0.00  0.00     0.000 A 
ATOM     18  C   UNL d   1      -2.712  -3.711   3.089  0.00  0.00     0.002 A 
ATOM     19  C   UNL d   1      -1.781  -3.057   2.279  0.00  0.00     0.030 A 
ENDBRANCH   3  14
ENDBRANCH   1   2
BRANCH   1  20
ATOM     20  C   UNL d   1       2.631  -5.737   0.884  0.00  0.00     0.098 A 
ATOM     21  C   UNL d   1       3.723  -6.577   0.627  0.00  0.00     0.068 A 
ATOM     22  S   UNL d   1       5.375  -6.191   0.365  0.00  0.00    -0.066 SA
ATOM     23  C   UNL d   1       3.527  -7.959   0.593  0.00  0.00     0.067 A 
ATOM     24  C   UNL d   1       5.823  -7.822   0.271  0.00  0.00     0.088 A 
ATOM     25  N   UNL d   1       7.115  -8.128   0.050  0.00  0.00    -0.354 N 
ATOM     26  C   UNL d   1       4.769  -8.703   0.476  0.00  0.00     0.032 A 
ATOM     27  C   UNL d   1       7.398  -9.441   0.050  0.00  0.00     0.006 A 
ATOM     28  HN  UNL d   1       7.828  -7.415  -0.106  1.00  0.00     0.166 HD
ATOM     29  C   UNL d   1       8.826  -9.820  -0.217  0.00  0.00     0.068 C 
ATOM     30  C   UNL d   1       6.454 -10.428   0.302  0.00  0.00     0.032 A 
ATOM     31  C   UNL d   1       5.107 -10.086   0.533  0.00  0.00    -0.045 A 
ATOM     32  C   UNL d   1       4.155 -11.206   0.856  0.00  0.00     0.049 C 
ATOM     33  N   UNL d   1       2.286  -8.502   0.714  0.00  0.00    -0.350 N 
ATOM     34  C   UNL d   1       1.297  -7.617   0.870  0.00  0.00     0.181 A 
ATOM     35  HN  UNL d   1       2.122  -9.508   0.688  1.00  0.00     0.166 HD
ATOM     36  N   UNL d   1       1.403  -6.286   0.987  0.00  0.00    -0.345 N 
ATOM     37  HN  UNL d   1       0.580  -5.705   1.149  1.00  0.00     0.167 HD
ENDBRANCH   1  20
TORSDOF 3
