REMARK  6 active torsions:
REMARK  status: ('A' for Active; 'I' for Inactive)
REMARK    1  A    between atoms: C_4  and  C_1 
REMARK       I    between atoms: N_6  and  C_4 
REMARK    2  A    between atoms: C_12  and  C_5 
REMARK    3  A    between atoms: C_9  and  N_6 
REMARK    4  A    between atoms: C_10  and  N_6 
REMARK    5  A    between atoms: C_18  and  C_9 
REMARK    6  A    between atoms: C_17  and  C_10 
ROOT
ATOM      1  C   UNL d   1       2.229   1.721   0.358  0.00  0.00     0.271 C 
ATOM      2  N   UNL d   1       2.325   3.060  -0.047  0.00  0.00    -0.336 N 
ATOM      3  O   UNL d   1       3.211   1.108   0.785  0.00  0.00    -0.266 OA
ENDROOT
BRANCH   2   4
ATOM      4  C   UNL d   1       3.641   3.684   0.076  0.00  0.00     0.183 C 
BRANCH   4   5
ATOM      5  C   UNL d   1       3.985   4.780  -0.924  0.00  0.00     0.027 A 
ATOM      6  N   UNL d   1       3.473   4.716  -2.183  0.00  0.00    -0.368 N 
ATOM      7  C   UNL d   1       3.854   5.671  -3.061  0.00  0.00     0.088 A 
ATOM      8  HN  UNL d   1       2.827   3.975  -2.454  1.00  0.00     0.165 HD
ATOM      9  C   UNL d   1       4.731   6.698  -2.757  0.00  0.00     0.017 A 
ATOM     10  C   UNL d   1       5.254   6.750  -1.471  0.00  0.00     0.003 A 
ATOM     11  C   UNL d   1       4.881   5.780  -0.544  0.00  0.00     0.027 A 
ENDBRANCH   4   5
ENDBRANCH   2   4
BRANCH   2  12
ATOM     12  C   UNL d   1       1.156   3.940  -0.181  0.00  0.00     0.183 C 
BRANCH  12  13
ATOM     13  C   UNL d   1       0.297   4.092   1.068  0.00  0.00     0.027 A 
ATOM     14  N   UNL d   1       0.899   4.063   2.286  0.00  0.00    -0.368 N 
ATOM     15  C   UNL d   1       0.112   4.248   3.371  0.00  0.00     0.088 A 
ATOM     16  HN  UNL d   1       1.903   3.909   2.379  1.00  0.00     0.165 HD
ATOM     17  C   UNL d   1      -1.252   4.483   3.308  0.00  0.00     0.017 A 
ATOM     18  C   UNL d   1      -1.853   4.524   2.058  0.00  0.00     0.003 A 
ATOM     19  C   UNL d   1      -1.071   4.328   0.922  0.00  0.00     0.027 A 
ENDBRANCH  12  13
ENDBRANCH   2  12
BRANCH   1  20
ATOM     20  C   UNL d   1       0.927   1.032   0.277  0.00  0.00     0.108 A 
ATOM     21  N   UNL d   1      -0.095   1.414  -0.588  0.00  0.00    -0.345 N 
ATOM     22  C   UNL d   1      -1.154   0.644  -0.445  0.00  0.00     0.085 A 
ATOM     23  HN  UNL d   1      -0.031   2.190  -1.247  1.00  0.00     0.167 HD
ATOM     24  S   UNL d   1      -0.968  -0.625   0.700  0.00  0.00    -0.081 SA
ATOM     25  C   UNL d   1       0.627  -0.095   1.024  0.00  0.00     0.087 A 
BRANCH  22  26
ATOM     26  C   UNL d   1      -2.384   0.815  -1.233  0.00  0.00    -0.002 A 
ATOM     27  C   UNL d   1      -2.286   1.380  -2.516  0.00  0.00     0.014 A 
ATOM     28  C   UNL d   1      -3.421   1.578  -3.305  0.00  0.00     0.001 A 
ATOM     29  C   UNL d   1      -4.674   1.222  -2.816  0.00  0.00     0.000 A 
ATOM     30  C   UNL d   1      -4.793   0.673  -1.541  0.00  0.00     0.001 A 
ATOM     31  C   UNL d   1      -3.656   0.472  -0.752  0.00  0.00     0.014 A 
ENDBRANCH  22  26
ENDBRANCH   1  20
TORSDOF 6
