REMARK  6 active torsions:
REMARK  status: ('A' for Active; 'I' for Inactive)
REMARK    1  A    between atoms: C_2  and  N_1 
REMARK    2  A    between atoms: N_3  and  C_20 
REMARK    3  A    between atoms: C_4  and  C_8 
REMARK    4  A    between atoms: N_19  and  C_11 
REMARK    5  A    between atoms: C_21  and  N_19 
REMARK    6  A    between atoms: C_20  and  C_21 
ROOT
ATOM      1  C   UNL d   1      -1.124   3.136  -0.807  0.00  0.00     0.124 A 
ATOM      2  C   UNL d   1      -0.626   3.593  -2.045  0.00  0.00     0.054 A 
ATOM      3  C   UNL d   1       0.568   3.075  -2.554  0.00  0.00     0.050 A 
ATOM      4  C   UNL d   1      -0.447   2.174  -0.027  0.00  0.00     0.041 A 
ATOM      5  C   UNL d   1       1.219   2.069  -1.829  0.00  0.00     0.018 A 
ATOM      6  C   UNL d   1       0.706   1.616  -0.604  0.00  0.00     0.027 A 
ENDROOT
BRANCH   4   7
ATOM      7  N   UNL d   1      -0.960   1.694   1.195  0.00  0.00    -0.289 NA
ATOM      8  H   UNL d   1      -1.554   2.399   1.647  0.00  0.00     0.127 HD
BRANCH   7   9
ATOM      9  C   UNL d   1      -0.029   1.051   2.129  0.00  0.00     0.112 C 
BRANCH   9  10
ATOM     10  C   UNL d   1      -0.552   1.074   3.564  0.00  0.00     0.143 C 
BRANCH  10  11
ATOM     11  N   UNL d   1       0.425   0.478   4.468  0.00  0.00    -0.353 N 
ATOM     12  C   UNL d   1       1.473   1.155   5.068  0.00  0.00     0.008 A 
ATOM     13  C   UNL d   1       2.185   0.235   5.812  0.00  0.00     0.026 A 
ATOM     14  C   UNL d   1       1.760   2.610   4.911  0.00  0.00     0.068 C 
ATOM     15  C   UNL d   1       1.581  -1.025   5.636  0.00  0.00     0.026 A 
ATOM     16  C   UNL d   1       0.505  -0.866   4.785  0.00  0.00     0.008 A 
ATOM     17  C   UNL d   1      -0.407  -1.927   4.272  0.00  0.00     0.068 C 
ENDBRANCH  10  11
ENDBRANCH   9  10
ENDBRANCH   7   9
ENDBRANCH   4   7
BRANCH   1  18
ATOM     18  N   UNL d   1      -2.376   3.723  -0.337  0.00  0.00    -0.114 N 
ATOM     19  O   UNL d   1      -3.261   3.928  -1.176  0.00  0.00    -0.532 OA
ATOM     20  O   UNL d   1      -2.462   4.000   0.872  0.00  0.00    -0.532 OA
ENDBRANCH   1  18
BRANCH   3  21
ATOM     21  C   UNL d   1       1.157   3.565  -3.855  0.00  0.00     0.417 C 
ATOM     22  F   UNL d   1       0.404   4.522  -4.462  0.00  0.00    -0.166 F 
ATOM     23  F   UNL d   1       2.392   4.112  -3.685  0.00  0.00    -0.166 F 
ATOM     24  F   UNL d   1       1.310   2.568  -4.768  0.00  0.00    -0.166 F 
ENDBRANCH   3  21
TORSDOF 6
