REMARK  3 active torsions:
REMARK  status: ('A' for Active; 'I' for Inactive)
REMARK    1  A    between atoms: O_19  and  C_3 
REMARK    2  A    between atoms: C_15  and  C_10 
REMARK    3  A    between atoms: N_11  and  C_14 
ROOT
ATOM      1  C   UNL d   1       2.149  -1.291   0.056  0.00  0.00     0.092 A 
ATOM      2  C   UNL d   1       3.101  -2.367   0.039  0.00  0.00     0.184 A 
ATOM      3  C   UNL d   1       0.894  -1.244  -0.540  0.00  0.00     0.107 A 
ATOM      4  O   UNL d   1       3.986  -2.625   1.066  0.00  0.00    -0.272 OA
ATOM      5  N   UNL d   1       3.276  -3.203  -0.969  0.00  0.00    -0.277 N 
ATOM      6  HN  UNL d   1       2.736  -3.229  -1.834  1.00  0.00     0.189 HD
ATOM      7  S   UNL d   1       2.539   0.163   0.876  0.00  0.00    -0.093 SA
ATOM      8  N   UNL d   1       4.326  -4.033  -0.635  0.00  0.00    -0.277 N 
ATOM      9  HN  UNL d   1       4.726  -4.775  -1.209  1.00  0.00     0.189 HD
ATOM     10  C   UNL d   1       4.706  -3.676   0.572  0.00  0.00     0.174 A 
ATOM     11  C   UNL d   1       0.282   0.037  -0.327  0.00  0.00     0.052 A 
ATOM     12  C   UNL d   1       1.075   0.891   0.407  0.00  0.00     0.072 A 
ATOM     13 BR   UNL d   1      -1.414   0.642  -0.919  0.00  0.00    -0.048 Br
ENDROOT
BRANCH  10  14
ATOM     14  C   UNL d   1       5.779  -4.198   1.407  0.00  0.00     0.019 A 
ATOM     15  C   UNL d   1       5.722  -4.117   2.805  0.00  0.00     0.052 A 
ATOM     16  C   UNL d   1       6.762  -4.654   3.579  0.00  0.00     0.103 A 
ATOM     17  C   UNL d   1       7.869  -5.259   2.970  0.00  0.00     0.036 A 
ATOM     18  C   UNL d   1       7.930  -5.333   1.579  0.00  0.00     0.003 A 
ATOM     19  C   UNL d   1       6.889  -4.812   0.805  0.00  0.00     0.016 A 
BRANCH  16  20
ATOM     20  N   UNL d   1       6.684  -4.591   5.043  0.00  0.00    -0.116 N 
ATOM     21  O   UNL d   1       5.685  -4.055   5.544  0.00  0.00    -0.532 OA
ATOM     22  O   UNL d   1       7.620  -5.079   5.693  0.00  0.00    -0.532 OA
ENDBRANCH  16  20
ENDBRANCH  10  14
BRANCH   3  23
ATOM     23  O   UNL d   1       0.478  -2.373  -1.177  0.00  0.00    -0.353 OA
ATOM     24  C   UNL d   1      -0.784  -2.367  -1.810  0.00  0.00     0.210 C 
ENDBRANCH   3  23
TORSDOF 3
