REMARK  6 active torsions:
REMARK  status: ('A' for Active; 'I' for Inactive)
REMARK    1  A    between atoms: C_2  and  S_1 
REMARK    2  A    between atoms: N_7  and  S_1 
REMARK    3  A    between atoms: N_6  and  C_3 
REMARK    4  A    between atoms: C_22  and  N_7 
REMARK    5  A    between atoms: C_8  and  C_13 
REMARK    6  A    between atoms: C_23  and  C_22 
ROOT
ATOM      1  S   UNL d   1       0.827   0.052  -0.046  0.00  0.00     0.260 S 
ATOM      2  O   UNL d   1       0.012   0.247   1.133  0.00  0.00    -0.200 OA
ATOM      3  O   UNL d   1       2.268   0.060   0.014  0.00  0.00    -0.200 OA
ENDROOT
BRANCH   1   4
ATOM      4  C   UNL d   1       0.319   1.253  -1.227  0.00  0.00     0.095 A 
ATOM      5  C   UNL d   1       1.193   1.700  -2.194  0.00  0.00     0.115 A 
ATOM      6  N   UNL d   1       0.885   2.681  -3.085  0.00  0.00    -0.351 N 
ATOM      7  C   UNL d   1      -0.328   3.277  -3.013  0.00  0.00     0.103 A 
ATOM      8  HN  UNL d   1       1.559   2.964  -3.796  1.00  0.00     0.166 HD
ATOM      9  C   UNL d   1      -1.241   2.885  -2.031  0.00  0.00     0.050 A 
ATOM     10  C   UNL d   1      -0.919   1.873  -1.126  0.00  0.00     0.030 A 
BRANCH   7  11
ATOM     11  N   UNL d   1      -0.623   4.306  -3.878  0.00  0.00    -0.363 N 
ATOM     12  C   UNL d   1       0.454   5.047  -4.546  0.00  0.00     0.150 C 
ATOM     13  C   UNL d   1       0.362   4.895  -6.070  0.00  0.00     0.187 C 
ATOM     14  O   UNL d   1      -0.947   5.242  -6.558  0.00  0.00    -0.388 OA
ATOM     15  C   UNL d   1      -1.935   4.385  -5.966  0.00  0.00     0.187 C 
ATOM     16  C   UNL d   1      -1.963   4.519  -4.434  0.00  0.00     0.150 C 
ENDBRANCH   7  11
ENDBRANCH   1   4
BRANCH   1  17
ATOM     17  N   UNL d   1       0.337  -1.398  -0.720  0.00  0.00    -0.311 N 
ATOM     18  H   UNL d   1      -0.669  -1.551  -0.764  0.00  0.00     0.172 HD
BRANCH  17  19
ATOM     19  C   UNL d   1       1.175  -2.041  -1.726  0.00  0.00     0.170 C 
BRANCH  19  20
ATOM     20  C   UNL d   1       0.507  -3.293  -2.245  0.00  0.00    -0.040 A 
ATOM     21  C   UNL d   1      -0.263  -3.255  -3.412  0.00  0.00     0.010 A 
ATOM     22  C   UNL d   1      -0.953  -4.393  -3.844  0.00  0.00     0.013 A 
ATOM     23  C   UNL d   1      -0.908  -5.593  -3.119  0.00  0.00    -0.019 A 
ATOM     24  C   UNL d   1      -0.110  -5.630  -1.965  0.00  0.00     0.013 A 
ATOM     25  C   UNL d   1       0.586  -4.494  -1.530  0.00  0.00     0.010 A 
BRANCH  23  26
ATOM     26  C   UNL d   1      -1.672  -6.787  -3.534  0.00  0.00     0.015 A 
ATOM     27  S   UNL d   1      -3.182  -6.624  -4.349  0.00  0.00    -0.101 SA
ATOM     28  C   UNL d   1      -3.395  -8.313  -4.465  0.00  0.00     0.050 A 
ATOM     29  C   UNL d   1      -2.364  -9.003  -3.875  0.00  0.00     0.008 A 
ATOM     30  C   UNL d   1      -1.377  -8.126  -3.334  0.00  0.00     0.020 A 
ENDBRANCH  23  26
ENDBRANCH  19  20
ENDBRANCH  17  19
ENDBRANCH   1  17
TORSDOF 6
