REMARK  2 active torsions:
REMARK  status: ('A' for Active; 'I' for Inactive)
REMARK    1  A    between atoms: O_22  and  C_10 
REMARK    2  A    between atoms: C_20  and  C_11 
ROOT
ATOM      1  C   UNL d   1      21.318  15.781 -13.347  0.00  0.00    -0.032 C 
ATOM      2  C   UNL d   1      17.631  13.805 -11.638  0.00  0.00    -0.009 C 
ATOM      3  C   UNL d   1      19.774  15.355 -13.295  0.00  0.00    -0.001 C 
ATOM      4  C   UNL d   1      23.155  16.661 -14.947  0.00  0.00    -0.029 C 
ATOM      5  C   UNL d   1      18.297  15.121 -11.125  0.00  0.00     0.001 C 
ATOM      6  C   UNL d   1      18.842  16.055 -12.240  0.00  0.00    -0.005 C 
ATOM      7  C   UNL d   1      21.756  16.076 -14.832  0.00  0.00     0.048 C 
ATOM      8  C   UNL d   1      21.582  17.131 -12.621  0.00  0.00     0.002 C 
ATOM      9  C   UNL d   1      23.724  17.492 -13.820  0.00  0.00     0.152 C 
ATOM     10  C   UNL d   1      16.094  14.066 -11.469  0.00  0.00     0.062 C 
ATOM     11  C   UNL d   1      23.959  16.575 -16.025  0.00  0.00     0.076 C 
ATOM     12  C   UNL d   1      18.071  13.448 -13.076  0.00  0.00     0.013 C 
ATOM     13  C   UNL d   1      19.538  13.821 -13.309  0.00  0.00     0.007 C 
ATOM     14  C   UNL d   1      23.063  17.440 -12.470  0.00  0.00     0.088 C 
ATOM     15  C   UNL d   1      17.202  15.828 -10.280  0.00  0.00     0.009 C 
ATOM     16  C   UNL d   1      19.381  17.358 -11.641  0.00  0.00     0.006 C 
ATOM     17  C   UNL d   1      20.851  17.259 -11.302  0.00  0.00     0.006 C 
ATOM     18  C   UNL d   1      16.047  14.854 -10.155  0.00  0.00     0.038 C 
ATOM     19  O   UNL d   1      24.710  18.212 -13.988  0.00  0.00    -0.293 OA
ATOM     20  C   UNL d   1      22.221  14.643 -12.793  0.00  0.00     0.016 C 
ATOM     21  C   UNL d   1      18.074  12.634 -10.705  0.00  0.00     0.018 C 
ATOM     22  C   UNL d   1      15.424  14.860 -12.603  0.00  0.00     0.046 C 
ENDROOT
BRANCH  11  23
ATOM     23  C   UNL d   1      23.643  17.447 -17.190  0.00  0.00    -0.054 A 
ATOM     24  C   UNL d   1      24.368  18.657 -17.287  0.00  0.00     0.007 A 
ATOM     25  C   UNL d   1      24.184  19.524 -18.351  0.00  0.00     0.001 A 
ATOM     26  C   UNL d   1      23.273  19.199 -19.350  0.00  0.00     0.000 A 
ATOM     27  C   UNL d   1      22.545  18.013 -19.263  0.00  0.00     0.001 A 
ATOM     28  C   UNL d   1      22.726  17.131 -18.183  0.00  0.00     0.007 A 
ENDBRANCH  11  23
BRANCH  10  29
ATOM     29  O   UNL d   1      15.368  12.851 -11.315  0.00  0.00    -0.389 OA
ATOM     30  H   UNL d   1      14.463  13.081 -11.040  0.00  0.00     0.210 HD
ENDBRANCH  10  29
TORSDOF 2
