REMARK  3 active torsions:
REMARK  status: ('A' for Active; 'I' for Inactive)
REMARK    1  A    between atoms: C_3  and  C_1 
REMARK       I    between atoms: N_10  and  C_3 
REMARK    2  A    between atoms: C_12  and  N_10 
REMARK    3  A    between atoms: O_19  and  C_11 
ROOT
ATOM      1  C   UNL d   1      -1.344  -2.644   0.157  0.00  0.00     0.258 C 
ATOM      2  N   UNL d   1      -0.255  -3.479   0.003  0.00  0.00    -0.319 N 
ATOM      3  O   UNL d   1      -1.291  -1.462   0.500  0.00  0.00    -0.267 OA
ATOM      4  H   UNL d   1      -0.390  -4.388  -0.435  0.00  0.00     0.169 HD
ENDROOT
BRANCH   1   5
ATOM      5  C   UNL d   1      -2.675  -3.167  -0.188  0.00  0.00     0.061 A 
ATOM      6  C   UNL d   1      -3.058  -4.527  -0.087  0.00  0.00     0.082 A 
ATOM      7  N   UNL d   1      -2.291  -5.576   0.257  0.00  0.00    -0.310 N 
ATOM      8  C   UNL d   1      -4.492  -4.929  -0.377  0.00  0.00     0.068 A 
ATOM      9  S   UNL d   1      -3.277  -6.913   0.262  0.00  0.00     0.068 SA
ATOM     10  HN  UNL d   1      -1.294  -5.556   0.472  1.00  0.00     0.176 HD
ATOM     11  N   UNL d   1      -4.718  -6.240  -0.213  0.00  0.00    -0.310 N 
ATOM     12  HN  UNL d   1      -5.603  -6.729  -0.353  1.00  0.00     0.176 HD
ATOM     13  C   UNL d   1      -5.462  -3.972  -0.766  0.00  0.00     0.032 A 
ATOM     14  C   UNL d   1      -5.022  -2.646  -0.868  0.00  0.00     0.003 A 
ATOM     15  C   UNL d   1      -3.693  -2.260  -0.585  0.00  0.00     0.019 A 
ENDBRANCH   1   5
BRANCH   2  16
ATOM     16  C   UNL d   1       1.096  -3.108   0.236  0.00  0.00     0.086 A 
ATOM     17  C   UNL d   1       2.139  -3.835  -0.351  0.00  0.00     0.169 A 
ATOM     18  N   UNL d   1       3.453  -3.518  -0.225  0.00  0.00    -0.345 N 
ATOM     19  C   UNL d   1       3.748  -2.437   0.526  0.00  0.00     0.090 A 
ATOM     20  HN  UNL d   1       4.182  -4.072  -0.675  1.00  0.00     0.167 HD
ATOM     21  C   UNL d   1       2.797  -1.671   1.174  0.00  0.00     0.019 A 
ATOM     22  C   UNL d   1       1.456  -2.018   1.029  0.00  0.00     0.035 A 
BRANCH  17  23
ATOM     23  O   UNL d   1       1.789  -4.918  -1.144  0.00  0.00    -0.339 OA
ATOM     24  C   UNL d   1       2.902  -5.455  -1.855  0.00  0.00     0.211 C 
ENDBRANCH  17  23
ENDBRANCH   2  16
TORSDOF 3
