REMARK  6 active torsions:
REMARK  status: ('A' for Active; 'I' for Inactive)
REMARK    1  A    between atoms: S_9  and  C_4 
REMARK    2  A    between atoms: S_11  and  C_4 
REMARK    3  A    between atoms: C_7  and  C_6 
REMARK    4  A    between atoms: C_10  and  C_7 
REMARK    5  A    between atoms: C_8  and  S_11 
REMARK    6  A    between atoms: C_19  and  S_9 
ROOT
ATOM      1  N   UNL d   1       3.097  -1.060  -0.109  0.00  0.00    -0.282 N 
ATOM      2  HN  UNL d   1       4.085  -0.971  -0.345  1.00  0.00     0.179 HD
ATOM      3  C   UNL d   1       2.492  -2.245  -0.215  0.00  0.00     0.183 C 
ATOM      4  C   UNL d   1       2.435  -0.028   0.292  0.00  0.00     0.121 C 
ATOM      5  N   UNL d   1       1.983  -3.280  -0.298  0.00  0.00    -0.172 NA
ENDROOT
BRANCH   4   6
ATOM      6  S   UNL d   1       0.746   0.066   0.761  0.00  0.00    -0.100 SA
BRANCH   6   7
ATOM      7  C   UNL d   1       0.687  -0.942   2.286  0.00  0.00     0.046 C 
ATOM      8  C   UNL d   1       1.678  -0.468   3.345  0.00  0.00     0.021 C 
ATOM      9  C   UNL d   1      -0.737  -0.872   2.844  0.00  0.00     0.021 C 
ENDBRANCH   6   7
ENDBRANCH   4   6
BRANCH   4  10
ATOM     10  S   UNL d   1       3.216   1.561   0.300  0.00  0.00    -0.076 SA
BRANCH  10  11
ATOM     11  C   UNL d   1       4.917   1.231   0.297  0.00  0.00     0.056 C 
ATOM     12  C   UNL d   1       5.804   2.229   0.165  0.00  0.00     0.063 C 
BRANCH  12  13
ATOM     13  C   UNL d   1       7.260   1.938   0.231  0.00  0.00     0.182 C 
ATOM     14  O   UNL d   1       7.686   0.902   0.730  0.00  0.00    -0.288 OA
BRANCH  13  15
ATOM     15  C   UNL d   1       8.207   2.962  -0.289  0.00  0.00     0.014 A 
ATOM     16  C   UNL d   1       9.486   3.041   0.281  0.00  0.00     0.017 A 
ATOM     17  C   UNL d   1      10.429   3.947  -0.217  0.00  0.00     0.025 A 
ATOM     18  C   UNL d   1      10.097   4.767  -1.292  0.00  0.00     0.034 A 
ATOM     19  C   UNL d   1       8.828   4.699  -1.867  0.00  0.00     0.025 A 
ATOM     20 CL   UNL d   1      11.265   5.856  -1.931  0.00  0.00    -0.084 Cl
ATOM     21  C   UNL d   1       7.881   3.797  -1.367  0.00  0.00     0.017 A 
ENDBRANCH  13  15
ENDBRANCH  12  13
ENDBRANCH  10  11
ENDBRANCH   4  10
TORSDOF 6
