REMARK  4 active torsions:
REMARK  status: ('A' for Active; 'I' for Inactive)
REMARK    1  A    between atoms: C_8  and  C_1 
REMARK    2  A    between atoms: N_9  and  C_2 
REMARK    3  A    between atoms: C_6  and  C_3 
REMARK    4  A    between atoms: N_15  and  C_8 
ROOT
ATOM      1  C   UNL d   1      -0.776   1.280   0.009  0.00  0.00     0.097 A 
ATOM      2  C   UNL d   1       0.628   1.454  -0.071  0.00  0.00     0.061 A 
ATOM      3  C   UNL d   1       0.767  -0.995   0.049  0.00  0.00     0.065 A 
ATOM      4  N   UNL d   1      -1.389   0.063   0.111  0.00  0.00    -0.361 N 
ATOM      5  HN  UNL d   1      -2.404  -0.011   0.176  1.00  0.00     0.165 HD
ATOM      6  C   UNL d   1       1.378   0.266  -0.038  0.00  0.00     0.049 A 
ATOM      7  C   UNL d   1      -0.611  -1.035   0.124  0.00  0.00     0.104 A 
ENDROOT
BRANCH   1   8
ATOM      8  C   UNL d   1      -1.743   2.428  -0.119  0.00  0.00     0.123 C 
ATOM      9  S   UNL d   1      -3.230   2.523   0.649  0.00  0.00    -0.058 SA
BRANCH   8  10
ATOM     10  N   UNL d   1      -1.380   3.470  -0.941  0.00  0.00    -0.388 N 
ATOM     11  H   UNL d   1      -0.429   3.524  -1.298  0.00  0.00     0.157 HD
ATOM     12  H   UNL d   1      -1.976   4.285  -1.006  0.00  0.00     0.157 HD
ENDBRANCH   8  10
ENDBRANCH   1   8
BRANCH   2  13
ATOM     13  N   UNL d   1       1.246   2.705  -0.149  0.00  0.00    -0.379 N 
ATOM     14  C   UNL d   1       2.555   2.913  -0.793  0.00  0.00     0.123 C 
ATOM     15  C   UNL d   1       3.314   3.847   0.147  0.00  0.00     0.021 C 
ATOM     16  C   UNL d   1       2.205   4.610   0.848  0.00  0.00     0.021 C 
ATOM     17  C   UNL d   1       1.166   3.520   1.081  0.00  0.00     0.123 C 
ENDBRANCH   2  13
BRANCH   3  18
ATOM     18  C   UNL d   1       1.545  -2.273   0.059  0.00  0.00     0.418 C 
ATOM     19  F   UNL d   1       2.894  -2.087   0.022  0.00  0.00    -0.166 F 
ATOM     20  F   UNL d   1       1.303  -3.025   1.167  0.00  0.00    -0.166 F 
ATOM     21  F   UNL d   1       1.252  -3.068  -1.006  0.00  0.00    -0.166 F 
ENDBRANCH   3  18
TORSDOF 4
