REMARK  2 active torsions:
REMARK  status: ('A' for Active; 'I' for Inactive)
REMARK    1  A    between atoms: C_2  and  C_1 
REMARK       I    between atoms: N_3  and  C_2 
REMARK    2  A    between atoms: C_11  and  C_6 
ROOT
ATOM      1  C   UNL d   1      -0.331  -1.221  -0.063  0.00  0.00     0.093 A 
ATOM      2  N   UNL d   1      -0.423   1.008  -0.566  0.00  0.00    -0.259 N 
ATOM      3  HN  UNL d   1      -0.189   1.941  -0.906  1.00  0.00     0.195 HD
ATOM      4  C   UNL d   1       0.383  -0.067  -0.559  0.00  0.00     0.083 A 
ATOM      5  O   UNL d   1      -1.614   0.615  -0.029  0.00  0.00    -0.241 OA
ATOM      6  C   UNL d   1      -1.558  -0.695   0.312  0.00  0.00     0.090 A 
ATOM      7  C   UNL d   1      -2.774  -1.182   0.994  0.00  0.00     0.080 C 
ENDROOT
BRANCH   1   8
ATOM      8  C   UNL d   1       0.197  -2.568   0.156  0.00  0.00     0.263 C 
ATOM      9  N   UNL d   1      -0.575  -3.708  -0.222  0.00  0.00    -0.313 N 
ATOM     10  C   UNL d   1      -0.177  -5.076   0.092  0.00  0.00     0.043 A 
ATOM     11  C   UNL d   1      -1.851  -3.560  -0.936  0.00  0.00     0.133 C 
ATOM     12  C   UNL d   1      -0.951  -6.170  -0.368  0.00  0.00    -0.031 A 
ATOM     13  C   UNL d   1       0.961  -5.391   0.854  0.00  0.00     0.030 A 
ATOM     14  C   UNL d   1      -0.592  -7.498  -0.055  0.00  0.00     0.009 A 
ATOM     15  C   UNL d   1      -2.205  -5.982  -1.178  0.00  0.00     0.042 C 
ATOM     16  C   UNL d   1       0.546  -7.770   0.689  0.00  0.00     0.001 A 
ATOM     17  C   UNL d   1       1.323  -6.716   1.141  0.00  0.00     0.002 A 
ATOM     18  C   UNL d   1      -2.153  -4.670  -1.923  0.00  0.00     0.025 C 
ATOM     19  O   UNL d   1       1.329  -2.642   0.630  0.00  0.00    -0.267 OA
ENDBRANCH   1   8
BRANCH   4  20
ATOM     20  C   UNL d   1       1.767   0.090  -1.030  0.00  0.00    -0.006 A 
ATOM     21  C   UNL d   1       2.443   1.302  -0.791  0.00  0.00     0.014 A 
ATOM     22  C   UNL d   1       3.736   1.517  -1.274  0.00  0.00     0.001 A 
ATOM     23  C   UNL d   1       4.373   0.522  -2.008  0.00  0.00     0.000 A 
ATOM     24  C   UNL d   1       3.722  -0.689  -2.247  0.00  0.00     0.001 A 
ATOM     25  C   UNL d   1       2.426  -0.903  -1.762  0.00  0.00     0.014 A 
ENDBRANCH   4  20
TORSDOF 2
