REMARK  4 active torsions:
REMARK  status: ('A' for Active; 'I' for Inactive)
REMARK    1  A    between atoms: CA_2  and  C_7 
REMARK    2  A    between atoms: C_9  and  C_4 
REMARK    3  A    between atoms: N_5  and  C_8 
REMARK    4  A    between atoms: OXT_17  and  C_7 
ROOT
ATOM      1  N   UNL d   1      -1.333   1.184   0.204  0.00  0.00     0.118 N 
ATOM      2  CA  UNL d   1      -0.023   1.336  -0.500  0.00  0.00     0.336 C 
ATOM      3  S   UNL d   1      -0.215  -1.216   0.098  0.00  0.00    -0.117 SA
ATOM      4  C   UNL d   1      -1.742  -0.223  -0.005  0.00  0.00     0.317 C 
ATOM      5  C   UNL d   1       0.913   0.225   0.006  0.00  0.00     0.044 C 
ATOM      6  C   UNL d   1       1.468   0.441   1.421  0.00  0.00     0.029 C 
ATOM      7  C   UNL d   1       2.048  -0.051  -0.980  0.00  0.00     0.029 C 
ATOM      8  H   UNL d   1      -2.016   1.792  -0.251  0.00  0.00     0.319 HD
ENDROOT
BRANCH   4   9
ATOM      9  C   UNL d   1      -2.565  -0.408  -1.287  0.00  0.00    -0.015 A 
ATOM     10  C   UNL d   1      -2.201  -1.281  -2.330  0.00  0.00     0.012 A 
ATOM     11  C   UNL d   1      -2.992  -1.420  -3.477  0.00  0.00     0.037 A 
ATOM     12  C   UNL d   1      -4.170  -0.680  -3.600  0.00  0.00     0.102 A 
ATOM     13  C   UNL d   1      -4.568   0.185  -2.575  0.00  0.00     0.037 A 
ATOM     14  C   UNL d   1      -3.775   0.307  -1.427  0.00  0.00     0.012 A 
BRANCH  12  15
ATOM     15  N   UNL d   1      -4.995  -0.819  -4.804  0.00  0.00    -0.116 N 
ATOM     16  O   UNL d   1      -4.616  -1.614  -5.678  0.00  0.00    -0.532 OA
ATOM     17  O   UNL d   1      -6.024  -0.131  -4.880  0.00  0.00    -0.532 OA
ENDBRANCH  12  15
ENDBRANCH   4   9
BRANCH   2  18
ATOM     18  C   UNL d   1       0.544   2.728  -0.219  0.00  0.00     0.175 C 
ATOM     19  O   UNL d   1       1.386   3.285  -0.905  0.00  0.00    -0.648 OA
BRANCH  18  20
ATOM     20  OXT UNL d   1       0.022   3.277   0.907  0.00  0.00    -0.775 OA
ATOM     21  HXT UNL d   1      -0.621   2.632   1.287  0.00  0.00     0.167 HD
ENDBRANCH  18  20
ENDBRANCH   2  18
TORSDOF 4
