REMARK  6 active torsions:
REMARK  status: ('A' for Active; 'I' for Inactive)
REMARK    1  A    between atoms: C_6  and  C_2 
REMARK    2  A    between atoms: O_13  and  C_3 
REMARK    3  A    between atoms: C_9  and  C_7 
REMARK    4  A    between atoms: C_18  and  O_13 
REMARK    5  A    between atoms: C_14  and  C_18 
REMARK    6  A    between atoms: C_15  and  C_14 
ROOT
ATOM      1  C   UNL d   1       0.574   0.071   0.069  0.00  0.00     0.110 A 
ATOM      2  C   UNL d   1      -0.077   1.314   0.023  0.00  0.00     0.075 A 
ATOM      3  C   UNL d   1      -0.222  -1.072   0.080  0.00  0.00     0.165 A 
ATOM      4  N   UNL d   1      -1.577  -1.046   0.019  0.00  0.00    -0.335 N 
ATOM      5  HN  UNL d   1      -2.115  -1.912   0.020  1.00  0.00     0.168 HD
ATOM      6  C   UNL d   1      -2.197   0.150  -0.043  0.00  0.00     0.052 A 
ATOM      7  C   UNL d   1      -1.484   1.339  -0.032  0.00  0.00     0.048 A 
ATOM      8  C   UNL d   1       2.000  -0.052   0.091  0.00  0.00     0.104 C 
ATOM      9  N   UNL d   1       3.158  -0.115   0.093  0.00  0.00    -0.191 NA
ENDROOT
BRANCH   2  10
ATOM     10  C   UNL d   1       0.625   2.647   0.019  0.00  0.00     0.419 C 
ATOM     11  F   UNL d   1       1.976   2.601   0.075  0.00  0.00    -0.166 F 
ATOM     12  F   UNL d   1       0.319   3.366  -1.097  0.00  0.00    -0.166 F 
ATOM     13  F   UNL d   1       0.232   3.419   1.070  0.00  0.00    -0.166 F 
ENDBRANCH   2  10
BRANCH   3  14
ATOM     14  O   UNL d   1       0.394  -2.310   0.154  0.00  0.00    -0.327 OA
BRANCH  14  15
ATOM     15  C   UNL d   1      -0.550  -3.378   0.188  0.00  0.00     0.261 C 
BRANCH  15  16
ATOM     16  C   UNL d   1       0.077  -4.767   0.303  0.00  0.00     0.183 C 
ATOM     17  O   UNL d   1       1.286  -4.952   0.401  0.00  0.00    -0.290 OA
BRANCH  16  18
ATOM     18  C   UNL d   1      -0.856  -5.943   0.290  0.00  0.00     0.012 A 
ATOM     19  C   UNL d   1      -2.249  -5.790   0.220  0.00  0.00     0.017 A 
ATOM     20  C   UNL d   1      -3.084  -6.913   0.197  0.00  0.00     0.025 A 
ATOM     21  C   UNL d   1      -2.533  -8.191   0.246  0.00  0.00     0.034 A 
ATOM     22  C   UNL d   1      -1.152  -8.358   0.324  0.00  0.00     0.025 A 
ATOM     23 CL   UNL d   1      -3.566  -9.565   0.208  0.00  0.00    -0.084 Cl
ATOM     24  C   UNL d   1      -0.315  -7.237   0.347  0.00  0.00     0.017 A 
ENDBRANCH  16  18
ENDBRANCH  15  16
ENDBRANCH  14  15
ENDBRANCH   3  14
BRANCH   6  25
ATOM     25  C   UNL d   1      -3.661   0.127  -0.159  0.00  0.00     0.031 A 
ATOM     26  S   UNL d   1      -4.572  -1.197   0.455  0.00  0.00    -0.100 SA
ATOM     27  C   UNL d   1      -6.058  -0.491  -0.008  0.00  0.00     0.050 A 
ATOM     28  C   UNL d   1      -5.879   0.723  -0.630  0.00  0.00     0.008 A 
ATOM     29  C   UNL d   1      -4.503   1.076  -0.720  0.00  0.00     0.021 A 
ENDBRANCH   6  25
TORSDOF 6
