REMARK  1 active torsions:
REMARK  status: ('A' for Active; 'I' for Inactive)
REMARK    1  A    between atoms: C_12  and  C_2 
ROOT
ATOM      1  N   UNL d   1      -0.085   0.686   0.013  0.00  0.00    -0.214 N 
ATOM      2  C   UNL d   1      -1.253   1.441  -0.020  0.00  0.00     0.154 A 
ATOM      3  C   UNL d   1      -0.517  -0.611   0.086  0.00  0.00     0.182 A 
ATOM      4  N   UNL d   1      -2.291   0.621   0.062  0.00  0.00    -0.281 N 
ATOM      5  HN  UNL d   1      -3.271   0.901   0.082  1.00  0.00     0.188 HD
ATOM      6  N   UNL d   1       1.185   1.183   0.016  0.00  0.00    -0.298 N 
ATOM      7  HN  UNL d   1       1.350   2.189   0.011  1.00  0.00     0.187 HD
ATOM      8  N   UNL d   1      -1.825  -0.670   0.115  0.00  0.00    -0.277 N 
ATOM      9  HN  UNL d   1      -2.392  -1.516   0.167  1.00  0.00     0.189 HD
ATOM     10  S   UNL d   1       0.554  -1.946   0.173  0.00  0.00    -0.085 SA
ATOM     11  C   UNL d   1       2.177   0.349   0.026  0.00  0.00     0.010 C 
ATOM     12  C   UNL d   1       2.151  -1.162  -0.005  0.00  0.00     0.136 C 
ATOM     13  C   UNL d   1       3.559   0.974   0.026  0.00  0.00     0.066 C 
ENDROOT
BRANCH   2  14
ATOM     14  C   UNL d   1      -1.336   2.905  -0.093  0.00  0.00     0.011 A 
ATOM     15  C   UNL d   1      -0.373   3.683  -0.756  0.00  0.00     0.017 A 
ATOM     16  C   UNL d   1      -0.480   5.077  -0.800  0.00  0.00     0.025 A 
ATOM     17  C   UNL d   1      -1.559   5.708  -0.188  0.00  0.00     0.034 A 
ATOM     18  C   UNL d   1      -2.535   4.957   0.460  0.00  0.00     0.025 A 
ATOM     19 CL   UNL d   1      -1.686   7.422  -0.240  0.00  0.00    -0.084 Cl
ATOM     20  C   UNL d   1      -2.425   3.562   0.502  0.00  0.00     0.017 A 
ENDBRANCH   2  14
TORSDOF 1
