REMARK  6 active torsions:
REMARK  status: ('A' for Active; 'I' for Inactive)
REMARK    1  A    between atoms: C_6  and  C_2 
REMARK    2  A    between atoms: C_8  and  C_3 
REMARK    3  A    between atoms: C_7  and  C_4 
REMARK    4  A    between atoms: O_14  and  C_6 
REMARK    5  A    between atoms: S_12  and  C_8 
REMARK    6  A    between atoms: C_9  and  S_12 
ROOT
ATOM      1  S   UNL d   1      -1.028   0.027  -0.066  0.00  0.00    -0.087 SA
ATOM      2  C   UNL d   1       0.096   1.338  -0.060  0.00  0.00     0.087 A 
ATOM      3  C   UNL d   1       1.416   0.876  -0.032  0.00  0.00    -0.024 A 
ATOM      4  C   UNL d   1       0.183  -1.178  -0.028  0.00  0.00    -0.008 A 
ATOM      5  C   UNL d   1       1.428  -0.577  -0.000  0.00  0.00     0.024 A 
ENDROOT
BRANCH   3   6
ATOM      6  C   UNL d   1       2.725   1.670   0.008  0.00  0.00     0.121 C 
BRANCH   6   7
ATOM      7  S   UNL d   1       3.873   1.110  -1.324  0.00  0.00    -0.108 SA
BRANCH   7   8
ATOM      8  C   UNL d   1       5.247   2.247  -1.173  0.00  0.00     0.069 A 
ATOM      9  N   UNL d   1       5.367   3.001  -0.059  0.00  0.00    -0.361 N 
ATOM     10  C   UNL d   1       6.342   3.946  -0.062  0.00  0.00     0.089 A 
ATOM     11  HN  UNL d   1       4.755   2.867   0.746  1.00  0.00     0.165 HD
ATOM     12  C   UNL d   1       7.195   4.188  -1.128  0.00  0.00     0.017 A 
ATOM     13  C   UNL d   1       7.094   3.365  -2.239  0.00  0.00     0.004 A 
ATOM     14  C   UNL d   1       6.122   2.366  -2.255  0.00  0.00     0.037 A 
ENDBRANCH   7   8
ENDBRANCH   6   7
ENDBRANCH   3   6
BRANCH   2  15
ATOM     15  C   UNL d   1      -0.524   2.671  -0.075  0.00  0.00     0.300 C 
ATOM     16  O   UNL d   1      -1.722   2.919  -0.092  0.00  0.00    -0.259 OA
BRANCH  15  17
ATOM     17  O   UNL d   1       0.432   3.652  -0.093  0.00  0.00    -0.322 OA
ATOM     18  C   UNL d   1      -0.069   4.992  -0.119  0.00  0.00     0.213 C 
ENDBRANCH  15  17
ENDBRANCH   2  15
BRANCH   4  19
ATOM     19  C   UNL d   1      -0.183  -2.673  -0.015  0.00  0.00    -0.018 C 
ATOM     20  C   UNL d   1      -0.980  -3.058  -1.280  0.00  0.00     0.020 C 
ATOM     21  C   UNL d   1       1.088  -3.551   0.027  0.00  0.00     0.020 C 
ATOM     22  C   UNL d   1      -1.029  -3.021   1.226  0.00  0.00     0.020 C 
ENDBRANCH   4  19
TORSDOF 6
