REMARK  3 active torsions:
REMARK  status: ('A' for Active; 'I' for Inactive)
REMARK    1  A    between atoms: C_6  and  C_1 
REMARK    2  A    between atoms: C_9  and  N_3 
REMARK    3  A    between atoms: C_8  and  C_4 
REMARK       I    between atoms: N_7  and  C_6 
ROOT
ATOM      1  C   UNL d   1      -0.254   1.064  -0.007  0.00  0.00     0.056 C 
ATOM      2  C   UNL d   1       1.050   0.591   0.151  0.00  0.00     0.029 C 
ATOM      3  N   UNL d   1       1.077  -0.833   0.042  0.00  0.00    -0.318 N 
ATOM      4  C   UNL d   1      -0.296  -1.238   0.044  0.00  0.00     0.025 C 
ATOM      5  C   UNL d   1      -1.060  -0.080   0.004  0.00  0.00     0.045 C 
ATOM      6  C   UNL d   1       2.232   1.463   0.460  0.00  0.00     0.070 C 
ENDROOT
BRANCH   1   7
ATOM      7  C   UNL d   1      -0.695   2.473   0.019  0.00  0.00     0.256 C 
ATOM      8  N   UNL d   1      -1.762   2.887  -0.790  0.00  0.00    -0.344 N 
ATOM      9  C   UNL d   1      -2.599   2.027  -1.633  0.00  0.00     0.152 C 
ATOM     10  C   UNL d   1      -2.338   4.207  -0.514  0.00  0.00     0.152 C 
ATOM     11  C   UNL d   1      -3.219   2.780  -2.818  0.00  0.00     0.187 C 
ATOM     12  O   UNL d   1      -3.862   3.991  -2.402  0.00  0.00    -0.388 OA
ATOM     13  C   UNL d   1      -2.911   4.859  -1.772  0.00  0.00     0.187 C 
ATOM     14  O   UNL d   1      -0.134   3.287   0.757  0.00  0.00    -0.267 OA
ENDBRANCH   1   7
BRANCH   3  15
ATOM     15  C   UNL d   1       2.306  -1.651  -0.003  0.00  0.00     0.039 A 
ATOM     16  C   UNL d   1       3.561  -1.084  -0.289  0.00  0.00     0.030 A 
ATOM     17  C   UNL d   1       4.763  -1.812  -0.212  0.00  0.00     0.002 A 
ATOM     18  C   UNL d   1       4.747  -3.163   0.085  0.00  0.00     0.000 A 
ATOM     19  C   UNL d   1       3.524  -3.780   0.278  0.00  0.00     0.002 A 
ATOM     20  C   UNL d   1       2.334  -3.031   0.233  0.00  0.00     0.030 A 
ENDBRANCH   3  15
BRANCH   4  21
ATOM     21  C   UNL d   1      -0.926  -2.647   0.087  0.00  0.00    -0.008 C 
ATOM     22  C   UNL d   1      -2.489  -2.582   0.002  0.00  0.00     0.021 C 
ATOM     23  C   UNL d   1      -0.539  -3.474  -1.160  0.00  0.00     0.021 C 
ATOM     24  C   UNL d   1      -0.675  -3.313   1.459  0.00  0.00     0.021 C 
ENDBRANCH   4  21
TORSDOF 3
