REMARK  9 active torsions:
REMARK  status: ('A' for Active; 'I' for Inactive)
REMARK    1  A    between atoms: C_2  and  S_1 
REMARK    2  A    between atoms: N_3  and  S_1 
REMARK    3  A    between atoms: C_25  and  N_3 
REMARK    4  A    between atoms: C_26  and  N_3 
REMARK    5  A    between atoms: C_4  and  C_10 
REMARK       I    between atoms: N_12  and  C_4 
REMARK    6  A    between atoms: N_7  and  N_12 
REMARK    7  A    between atoms: C_21  and  C_20 
REMARK    8  A    between atoms: C_28  and  C_25 
REMARK    9  A    between atoms: C_27  and  C_26 
ROOT
ATOM      1  C   UNL d   1       0.601  -0.526  -1.562  0.00  0.00     0.074 A 
ATOM      2  C   UNL d   1      -0.427  -1.492  -4.002  0.00  0.00     0.033 A 
ATOM      3  C   UNL d   1       0.947  -1.802  -2.003  0.00  0.00     0.026 A 
ATOM      4  C   UNL d   1      -0.283   0.255  -2.316  0.00  0.00     0.026 A 
ATOM      5  C   UNL d   1      -0.778  -0.218  -3.541  0.00  0.00     0.018 A 
ATOM      6  C   UNL d   1       0.431  -2.281  -3.213  0.00  0.00     0.018 A 
ENDROOT
BRANCH   2   7
ATOM      7  C   UNL d   1      -0.919  -2.080  -5.291  0.00  0.00     0.270 C 
ATOM      8  N   UNL d   1      -1.729  -1.290  -6.102  0.00  0.00    -0.266 N 
ATOM      9  H   UNL d   1      -2.003  -0.351  -5.862  0.00  0.00     0.190 HD
ATOM     10  O   UNL d   1      -0.574  -3.223  -5.580  0.00  0.00    -0.266 OA
BRANCH   8  11
ATOM     11  N   UNL d   1      -2.109  -1.801  -7.302  0.00  0.00    -0.308 N 
ATOM     12  C   UNL d   1      -2.850  -1.072  -8.070  0.00  0.00     0.118 C 
ATOM     13  HN  UNL d   1      -1.818  -2.735  -7.589  1.00  0.00     0.186 HD
BRANCH  12  14
ATOM     14  C   UNL d   1      -3.260  -1.588  -9.396  0.00  0.00    -0.018 A 
ATOM     15  C   UNL d   1      -4.049  -0.804 -10.239  0.00  0.00     0.038 A 
ATOM     16  C   UNL d   1      -4.427  -1.304 -11.494  0.00  0.00     0.056 A 
ATOM     17 CL   UNL d   1      -5.404  -0.289 -12.497  0.00  0.00    -0.083 Cl
ATOM     18  C   UNL d   1      -4.015  -2.581 -11.901  0.00  0.00     0.055 A 
ATOM     19  C   UNL d   1      -3.223  -3.357 -11.053  0.00  0.00     0.026 A 
ATOM     20 CL   UNL d   1      -4.449  -3.254 -13.430  0.00  0.00    -0.083 Cl
ATOM     21  C   UNL d   1      -2.846  -2.862  -9.804  0.00  0.00     0.014 A 
ENDBRANCH  12  14
ENDBRANCH   8  11
ENDBRANCH   2   7
BRANCH   1  22
ATOM     22  S   UNL d   1       1.169   0.040   0.037  0.00  0.00     0.243 S 
ATOM     23  O   UNL d   1       1.929  -1.036   0.626  0.00  0.00    -0.206 OA
ATOM     24  O   UNL d   1       0.005   0.580   0.714  0.00  0.00    -0.206 OA
BRANCH  22  25
ATOM     25  N   UNL d   1       2.227   1.374  -0.365  0.00  0.00    -0.206 NA
BRANCH  25  26
ATOM     26  C   UNL d   1       1.491   2.692  -0.347  0.00  0.00     0.107 C 
BRANCH  26  27
ATOM     27  C   UNL d   1       2.284   3.900  -0.847  0.00  0.00     0.011 C 
ATOM     28  C   UNL d   1       2.808   3.749  -2.264  0.00  0.00     0.006 C 
ENDBRANCH  26  27
ENDBRANCH  25  26
BRANCH  25  29
ATOM     29  C   UNL d   1       3.509   1.411   0.412  0.00  0.00     0.107 C 
BRANCH  29  30
ATOM     30  C   UNL d   1       4.509   0.313   0.040  0.00  0.00     0.011 C 
ATOM     31  C   UNL d   1       4.825   0.244  -1.445  0.00  0.00     0.006 C 
ENDBRANCH  29  30
ENDBRANCH  25  29
ENDBRANCH  22  25
ENDBRANCH   1  22
TORSDOF 9
