REMARK  2 active torsions:
REMARK  status: ('A' for Active; 'I' for Inactive)
REMARK    1  A    between atoms: C_3  and  C_1 
REMARK       I    between atoms: N_4  and  C_1 
REMARK    2  A    between atoms: C_2  and  C_3 
REMARK       I    between atoms: N_5  and  C_2 
ROOT
ATOM      1  C   UNL d   1       0.438  -0.250   1.138  0.00  0.00     0.205 C 
ENDROOT
BRANCH   1   2
ATOM      2  C   UNL d   1       1.403  -0.814   2.146  0.00  0.00     0.228 C 
ATOM      3  N   UNL d   1       2.496  -0.061   2.503  0.00  0.00    -0.352 N 
ATOM      4  C   UNL d   1       2.840   1.287   2.086  0.00  0.00     0.126 C 
ATOM      5  C   UNL d   1       3.571  -0.648   3.283  0.00  0.00     0.126 C 
ATOM      6  C   UNL d   1       4.355   1.247   2.010  0.00  0.00     0.021 C 
ATOM      7  C   UNL d   1       4.738   0.328   3.166  0.00  0.00     0.021 C 
ATOM      8  O   UNL d   1       1.221  -1.944   2.607  0.00  0.00    -0.273 OA
ENDBRANCH   1   2
BRANCH   1   9
ATOM      9  C   UNL d   1       0.878  -0.537  -0.281  0.00  0.00     0.228 C 
ATOM     10  N   UNL d   1       0.412  -1.682  -0.887  0.00  0.00    -0.352 N 
ATOM     11  C   UNL d   1       0.774  -2.017  -2.251  0.00  0.00     0.126 C 
ATOM     12  C   UNL d   1      -0.410  -2.728  -0.291  0.00  0.00     0.126 C 
ATOM     13  C   UNL d   1      -0.272  -3.038  -2.664  0.00  0.00     0.021 C 
ATOM     14  C   UNL d   1      -0.524  -3.801  -1.369  0.00  0.00     0.021 C 
ATOM     15  O   UNL d   1       1.626   0.246  -0.870  0.00  0.00    -0.273 OA
ENDBRANCH   1   9
TORSDOF 2
