REMARK  4 active torsions:
REMARK  status: ('A' for Active; 'I' for Inactive)
REMARK    1  A    between atoms: C_6  and  N_1 
REMARK       I    between atoms: C_2  and  N_5 
REMARK    2  A    between atoms: C_3  and  C_2 
REMARK    3  A    between atoms: N_5  and  C_18 
REMARK    4  A    between atoms: C_18  and  C_19 
ROOT
ATOM      1  C   UNL d   1      -3.067  -0.005   0.768  0.00  0.00     0.030 A 
ATOM      2  C   UNL d   1      -3.227  -0.648   2.006  0.00  0.00     0.030 A 
ATOM      3  C   UNL d   1      -4.192   0.669   0.269  0.00  0.00     0.030 A 
ATOM      4  C   UNL d   1      -5.550   0.048   2.184  0.00  0.00    -0.040 A 
ATOM      5  C   UNL d   1      -4.444  -0.628   2.703  0.00  0.00     0.011 A 
ATOM      6  C   UNL d   1      -5.413   0.693   0.955  0.00  0.00     0.011 A 
ENDROOT
BRANCH   4   7
ATOM      7  C   UNL d   1      -6.865   0.062   2.913  0.00  0.00     0.161 C 
BRANCH   7   8
ATOM      8  N   UNL d   1      -7.715  -1.030   2.509  0.00  0.00    -0.351 N 
ATOM      9  C   UNL d   1      -9.011  -1.123   2.965  0.00  0.00     0.275 C 
ATOM     10  O   UNL d   1      -9.498  -0.285   3.720  0.00  0.00    -0.265 OA
ATOM     11  H   UNL d   1      -7.350  -1.780   1.934  0.00  0.00     0.163 HD
BRANCH   9  12
ATOM     12  C   UNL d   1      -9.742  -2.277   2.483  0.00  0.00     0.142 A 
ATOM     13  O   UNL d   1      -9.149  -3.147   1.605  0.00  0.00    -0.317 OA
ATOM     14  C   UNL d   1     -10.065  -4.108   1.313  0.00  0.00     0.143 A 
ATOM     15  C   UNL d   1     -11.237  -3.881   1.995  0.00  0.00     0.027 A 
ATOM     16  C   UNL d   1     -11.031  -2.703   2.748  0.00  0.00     0.045 A 
ENDBRANCH   9  12
ENDBRANCH   7   8
ENDBRANCH   4   7
BRANCH   1  17
ATOM     17  N   UNL d   1      -1.898  -0.075   0.039  0.00  0.00    -0.378 N 
ATOM     18  C   UNL d   1      -0.905  -1.142   0.231  0.00  0.00     0.153 C 
ATOM     19  C   UNL d   1      -0.353  -1.587  -1.146  0.00  0.00     0.291 C 
ATOM     20  N   UNL d   1       0.200  -0.467  -1.943  0.00  0.00     0.087 N 
ATOM     21  C   UNL d   1      -0.837   0.582  -2.091  0.00  0.00     0.291 C 
ATOM     22  C   UNL d   1       0.642  -0.940  -3.253  0.00  0.00     0.310 C 
ATOM     23  C   UNL d   1      -1.384   1.071  -0.729  0.00  0.00     0.153 C 
ENDBRANCH   1  17
TORSDOF 4
