REMARK  3 active torsions:
REMARK  status: ('A' for Active; 'I' for Inactive)
REMARK    1  A    between atoms: C_3  and  C_1 
REMARK    2  A    between atoms: C_5  and  C_1 
REMARK       I    between atoms: N_13  and  C_3 
REMARK    3  A    between atoms: N_6  and  C_5 
ROOT
ATOM      1  C   UNL d   1       0.984  -0.070   0.070  0.00  0.00     0.101 C 
ATOM      2  C   UNL d   1       0.298   1.027   0.512  0.00  0.00    -0.022 A 
ATOM      3  C   UNL d   1       0.772   2.351   1.025  0.00  0.00    -0.022 A 
ATOM      4  C   UNL d   1      -1.230   1.114   0.573  0.00  0.00     0.045 A 
ATOM      5  C   UNL d   1      -0.331   3.160   1.342  0.00  0.00    -0.047 A 
ATOM      6  C   UNL d   1      -1.638   2.496   1.087  0.00  0.00     0.044 A 
ATOM      7  C   UNL d   1       2.038   2.892   1.222  0.00  0.00     0.012 A 
ATOM      8  C   UNL d   1      -0.208   4.462   1.837  0.00  0.00     0.008 A 
ATOM      9  C   UNL d   1       2.179   4.206   1.720  0.00  0.00     0.001 A 
ATOM     10  C   UNL d   1       1.062   4.990   2.026  0.00  0.00     0.001 A 
ENDROOT
BRANCH   1  11
ATOM     11  C   UNL d   1       0.301  -1.307  -0.427  0.00  0.00     0.259 C 
ATOM     12  O   UNL d   1      -0.920  -1.442  -0.474  0.00  0.00    -0.267 OA
ATOM     13  N   UNL d   1       1.085  -2.337  -0.856  0.00  0.00    -0.365 N 
ATOM     14  H   UNL d   1       2.098  -2.351  -0.872  0.00  0.00     0.159 HD
ATOM     15  H   UNL d   1       0.608  -3.160  -1.196  0.00  0.00     0.159 HD
ENDBRANCH   1  11
BRANCH   1  16
ATOM     16  C   UNL d   1       2.504  -0.070   0.070  0.00  0.00    -0.031 C 
BRANCH  16  17
ATOM     17  N   UNL d   1       3.765  -0.070   0.070  0.00  0.00    -0.365 N 
ATOM     18  HN2 UNL d   1       2.745  -0.070   0.070  1.00  0.00     0.165 HD
ATOM     19  HN1 UNL d   1       4.785  -0.070   0.070  1.00  0.00     0.165 HD
ENDBRANCH  16  17
ENDBRANCH   1  16
TORSDOF 3
