REMARK  2 active torsions:
REMARK  status: ('A' for Active; 'I' for Inactive)
REMARK    1  A    between atoms: C_7  and  N_1 
REMARK    2  A    between atoms: C_11  and  C_7 
ROOT
ATOM      1  N   UNL d   1       0.089  -1.584  -0.072  0.00  0.00    -0.344 N 
ATOM      2  C   UNL d   1      -1.055  -0.821  -0.038  0.00  0.00     0.027 A 
ATOM      3  C   UNL d   1      -0.682   0.512  -0.009  0.00  0.00     0.045 A 
ATOM      4  C   UNL d   1       0.736   0.565   0.014  0.00  0.00     0.007 A 
ATOM      5  C   UNL d   1       1.201  -0.753  -0.085  0.00  0.00     0.046 A 
ATOM      6  C   UNL d   1      -1.675   1.579  -0.032  0.00  0.00     0.162 C 
ATOM      7  O   UNL d   1      -1.381   2.770   0.068  0.00  0.00    -0.292 OA
ATOM      8  C   UNL d   1      -2.459  -1.327  -0.074  0.00  0.00     0.059 C 
ATOM      9  C   UNL d   1       1.674   1.616   0.071  0.00  0.00     0.015 A 
ATOM     10  C   UNL d   1       2.573  -1.042  -0.191  0.00  0.00     0.030 A 
ATOM     11  C   UNL d   1      -3.108   1.134  -0.300  0.00  0.00     0.084 C 
ATOM     12  C   UNL d   1      -3.419  -0.210   0.372  0.00  0.00     0.014 C 
ATOM     13  C   UNL d   1       3.040   1.333  -0.007  0.00  0.00     0.001 A 
ATOM     14  C   UNL d   1       3.480   0.022  -0.155  0.00  0.00     0.002 A 
ENDROOT
BRANCH   1  15
ATOM     15  C   UNL d   1       0.143  -3.047  -0.061  0.00  0.00     0.167 C 
BRANCH  15  16
ATOM     16  C   UNL d   1      -0.144  -3.669  -1.408  0.00  0.00    -0.040 A 
ATOM     17  C   UNL d   1       0.362  -3.132  -2.602  0.00  0.00     0.009 A 
ATOM     18  C   UNL d   1       0.079  -3.732  -3.830  0.00  0.00     0.001 A 
ATOM     19  C   UNL d   1      -0.692  -4.889  -3.882  0.00  0.00     0.000 A 
ATOM     20  C   UNL d   1      -1.168  -5.459  -2.703  0.00  0.00     0.001 A 
ATOM     21  C   UNL d   1      -0.890  -4.857  -1.473  0.00  0.00     0.009 A 
ENDBRANCH  15  16
ENDBRANCH   1  15
TORSDOF 2
