REMARK  2 active torsions:
REMARK  status: ('A' for Active; 'I' for Inactive)
REMARK    1  A    between atoms: C_12  and  C_5 
REMARK    2  A    between atoms: C_7  and  C_13 
ROOT
ATOM      1  N   UNL d   1      -0.293   0.698   0.028  0.00  0.00    -0.316 N 
ATOM      2  N   UNL d   1      -1.599  -1.119   0.024  0.00  0.00    -0.340 N 
ATOM      3  HN  UNL d   1      -1.921  -2.087   0.016  1.00  0.00     0.167 HD
ATOM      4  C   UNL d   1      -0.353  -0.691   0.032  0.00  0.00     0.111 A 
ATOM      5  C   UNL d   1      -2.376   0.021   0.030  0.00  0.00     0.060 A 
ATOM      6  C   UNL d   1      -1.585   1.152   0.026  0.00  0.00     0.128 A 
ATOM      7  C   UNL d   1       0.894   1.423   0.018  0.00  0.00     0.104 A 
ATOM      8  C   UNL d   1       0.887  -1.387   0.030  0.00  0.00     0.050 A 
ATOM      9  C   UNL d   1       2.071   0.767   0.016  0.00  0.00    -0.046 A 
ATOM     10  C   UNL d   1       2.045  -0.697   0.020  0.00  0.00     0.012 A 
ATOM     11  C   UNL d   1       3.401   1.453   0.011  0.00  0.00     0.049 C 
ENDROOT
BRANCH   5  12
ATOM     12  C   UNL d   1      -3.828   0.014  -0.024  0.00  0.00    -0.008 A 
ATOM     13  C   UNL d   1      -4.498  -1.079  -0.586  0.00  0.00     0.014 A 
ATOM     14  C   UNL d   1      -5.889  -1.066  -0.729  0.00  0.00     0.017 A 
ATOM     15  C   UNL d   1      -6.638   0.042  -0.306  0.00  0.00     0.048 A 
ATOM     16  C   UNL d   1      -5.971   1.115   0.302  0.00  0.00     0.017 A 
ATOM     17  C   UNL d   1      -4.580   1.100   0.443  0.00  0.00     0.014 A 
BRANCH  15  18
ATOM     18  C   UNL d   1      -8.131   0.108  -0.511  0.00  0.00     0.417 C 
ATOM     19  F   UNL d   1      -8.645  -0.976  -1.155  0.00  0.00    -0.166 F 
ATOM     20  F   UNL d   1      -8.818   0.208   0.661  0.00  0.00    -0.166 F 
ATOM     21  F   UNL d   1      -8.502   1.190  -1.252  0.00  0.00    -0.166 F 
ENDBRANCH  15  18
ENDBRANCH   5  12
TORSDOF 2
