REMARK  4 active torsions:
REMARK  status: ('A' for Active; 'I' for Inactive)
REMARK    1  A    between atoms: N_12  and  C_9 
REMARK       I    between atoms: C_13  and  N_12 
REMARK    2  A    between atoms: C_15  and  C_13 
REMARK    3  A    between atoms: C_16  and  C_15 
REMARK    4  A    between atoms: C_17  and  C_16 
ROOT
ATOM      1  N   UNL d   1      -4.926   0.301   0.944  0.00  0.00    -0.327 N 
ATOM      2  C   UNL d   1      -5.083  -0.483  -0.188  0.00  0.00     0.222 C 
ATOM      3  O   UNL d   1      -4.298  -0.571  -1.125  0.00  0.00    -0.273 OA
ATOM      4  H   UNL d   1      -5.564   0.125   1.710  0.00  0.00     0.169 HD
ENDROOT
BRANCH   1   5
ATOM      5  C   UNL d   1      -3.908   1.255   1.178  0.00  0.00     0.037 A 
ATOM      6  C   UNL d   1      -3.036   1.687   0.161  0.00  0.00     0.061 A 
ATOM      7  C   UNL d   1      -2.058   2.647   0.523  0.00  0.00     0.069 A 
ATOM      8  C   UNL d   1      -1.972   3.170   1.930  0.00  0.00     0.067 A 
ATOM      9  N   UNL d   1      -1.140   3.186  -0.295  0.00  0.00    -0.310 N 
ATOM     10  N   UNL d   1      -0.986   4.062   2.106  0.00  0.00    -0.310 N 
ATOM     11  C   UNL d   1      -2.873   2.723   2.921  0.00  0.00     0.035 A 
ATOM     12  S   UNL d   1      -0.241   4.232   0.630  0.00  0.00     0.068 SA
ATOM     13  HN  UNL d   1      -0.742   4.542   2.972  1.00  0.00     0.176 HD
ATOM     14  C   UNL d   1      -3.829   1.774   2.502  0.00  0.00     0.032 A 
ATOM     15  HN  UNL d   1      -1.019   2.991  -1.289  1.00  0.00     0.176 HD
ENDBRANCH   1   5
BRANCH   2  16
ATOM     16  C   UNL d   1      -6.372  -1.286  -0.188  0.00  0.00     0.108 C 
BRANCH  16  17
ATOM     17  C   UNL d   1      -7.573  -0.354  -0.297  0.00  0.00     0.047 C 
BRANCH  17  18
ATOM     18  C   UNL d   1      -8.881  -1.092  -0.418  0.00  0.00    -0.058 A 
ATOM     19  C   UNL d   1      -9.596  -1.470   0.726  0.00  0.00     0.007 A 
ATOM     20  C   UNL d   1     -10.833  -2.106   0.607  0.00  0.00     0.001 A 
ATOM     21  C   UNL d   1     -11.361  -2.379  -0.654  0.00  0.00     0.000 A 
ATOM     22  C   UNL d   1     -10.644  -2.030  -1.797  0.00  0.00     0.001 A 
ATOM     23  C   UNL d   1      -9.407  -1.395  -1.681  0.00  0.00     0.007 A 
ENDBRANCH  17  18
ENDBRANCH  16  17
ENDBRANCH   2  16
TORSDOF 4
