REMARK  7 active torsions:
REMARK  status: ('A' for Active; 'I' for Inactive)
REMARK    1  A    between atoms: C_4  and  S_1 
REMARK    2  A    between atoms: C_6  and  S_1 
REMARK    3  A    between atoms: S_2  and  C_3 
REMARK    4  A    between atoms: C_7  and  S_2 
REMARK    5  A    between atoms: C_3  and  C_5 
REMARK    6  A    between atoms: C_5  and  C_4 
REMARK    7  A    between atoms: O_16  and  C_5 
ROOT
ATOM      1  C   UNL d   1       0.863  -2.335  -0.936  0.00  0.00     0.081 C 
ATOM      2  C   UNL d   1       0.571  -3.813  -0.611  0.00  0.00     0.047 C 
ENDROOT
BRANCH   1   3
ATOM      3  C   UNL d   1       0.255  -2.019  -2.317  0.00  0.00     0.184 C 
BRANCH   3   4
ATOM      4  S   UNL d   1       0.635  -0.393  -2.941  0.00  0.00     0.178 S 
ATOM      5  O   UNL d   1       0.023   0.608  -2.091  0.00  0.00    -0.223 OA
ATOM      6  O   UNL d   1       2.069  -0.351  -3.174  0.00  0.00    -0.223 OA
BRANCH   4   7
ATOM      7  C   UNL d   1      -0.191  -0.329  -4.516  0.00  0.00     0.059 A 
ATOM      8  C   UNL d   1      -1.587  -0.380  -4.553  0.00  0.00     0.024 A 
ATOM      9  C   UNL d   1      -2.243  -0.409  -5.787  0.00  0.00     0.008 A 
ATOM     10  C   UNL d   1      -1.513  -0.382  -6.984  0.00  0.00    -0.062 A 
ATOM     11  C   UNL d   1      -0.117  -0.271  -6.929  0.00  0.00     0.008 A 
ATOM     12  C   UNL d   1      -2.230  -0.446  -8.303  0.00  0.00     0.048 C 
ATOM     13  C   UNL d   1       0.547  -0.244  -5.699  0.00  0.00     0.024 A 
ENDBRANCH   4   7
ENDBRANCH   3   4
ENDBRANCH   1   3
BRANCH   1  14
ATOM     14  C   UNL d   1       0.442  -1.426   0.233  0.00  0.00     0.184 C 
BRANCH  14  15
ATOM     15  S   UNL d   1      -1.310  -1.431   0.581  0.00  0.00     0.178 S 
ATOM     16  O   UNL d   1      -1.675  -2.731   1.101  0.00  0.00    -0.223 OA
ATOM     17  O   UNL d   1      -2.023  -0.885  -0.556  0.00  0.00    -0.223 OA
BRANCH  15  18
ATOM     18  C   UNL d   1      -1.483  -0.285   1.930  0.00  0.00     0.059 A 
ATOM     19  C   UNL d   1      -1.672   1.071   1.667  0.00  0.00     0.024 A 
ATOM     20  C   UNL d   1      -1.881   1.949   2.733  0.00  0.00     0.008 A 
ATOM     21  C   UNL d   1      -1.907   1.477   4.054  0.00  0.00    -0.062 A 
ATOM     22  C   UNL d   1      -1.727   0.111   4.300  0.00  0.00     0.008 A 
ATOM     23  C   UNL d   1      -2.145   2.437   5.183  0.00  0.00     0.048 C 
ATOM     24  C   UNL d   1      -1.518  -0.773   3.240  0.00  0.00     0.024 A 
ENDBRANCH  15  18
ENDBRANCH  14  15
ENDBRANCH   1  14
BRANCH   1  25
ATOM     25  O   UNL d   1       2.305  -2.303  -1.014  0.00  0.00    -0.388 OA
ATOM     26  H   UNL d   1       2.614  -1.417  -1.292  0.00  0.00     0.210 HD
ENDBRANCH   1  25
TORSDOF 7
