REMARK  16 active torsions:
REMARK  status: ('A' for Active; 'I' for Inactive)
REMARK    1  A    between atoms: C_1  and  O_9 
REMARK    2  A    between atoms: C_1  and  C_3 
REMARK    3  A    between atoms: C_1  and  C_2 
REMARK    4  A    between atoms: C_2  and  O_8 
REMARK    5  A    between atoms: C_2  and  C_4 
REMARK    6  A    between atoms: C_3  and  O_10 
REMARK    7  A    between atoms: C_3  and  C_7 
REMARK    8  A    between atoms: S_5  and  C_4 
REMARK    9  A    between atoms: S_6  and  C_4 
REMARK   10  A    between atoms: C_11  and  S_5 
REMARK   11  A    between atoms: C_12  and  S_6 
REMARK   12  A    between atoms: C_7  and  C_17 
REMARK   13  A    between atoms: C_7  and  O_13 
REMARK   14  A    between atoms: C_15  and  C_11 
REMARK   15  A    between atoms: C_14  and  C_12 
REMARK   16  A    between atoms: O_16  and  C_17 
ROOT
ATOM      1  C   UNL d   1       0.348   2.205   1.741  0.00  0.00     0.140 C 
ENDROOT
BRANCH   1   2
ATOM      2  S   UNL d   1       0.512   1.218   3.286  0.00  0.00    -0.146 SA
BRANCH   2   3
ATOM      3  C   UNL d   1       2.147   0.442   3.064  0.00  0.00     0.113 C 
BRANCH   3   4
ATOM      4  C   UNL d   1       2.542  -0.312   4.315  0.00  0.00    -0.049 A 
ATOM      5  C   UNL d   1       2.076  -1.617   4.531  0.00  0.00     0.008 A 
ATOM      6  C   UNL d   1       2.403  -2.306   5.699  0.00  0.00     0.001 A 
ATOM      7  C   UNL d   1       3.197  -1.696   6.667  0.00  0.00     0.000 A 
ATOM      8  C   UNL d   1       3.666  -0.401   6.467  0.00  0.00     0.001 A 
ATOM      9  C   UNL d   1       3.340   0.293   5.297  0.00  0.00     0.008 A 
ENDBRANCH   3   4
ENDBRANCH   2   3
ENDBRANCH   1   2
BRANCH   1  10
ATOM     10  S   UNL d   1      -1.211   3.200   1.865  0.00  0.00    -0.146 SA
BRANCH  10  11
ATOM     11  C   UNL d   1      -0.748   4.351   3.196  0.00  0.00     0.113 C 
BRANCH  11  12
ATOM     12  C   UNL d   1      -1.920   5.201   3.622  0.00  0.00    -0.049 A 
ATOM     13  C   UNL d   1      -2.758   4.778   4.665  0.00  0.00     0.008 A 
ATOM     14  C   UNL d   1      -3.828   5.573   5.083  0.00  0.00     0.001 A 
ATOM     15  C   UNL d   1      -4.076   6.792   4.455  0.00  0.00     0.000 A 
ATOM     16  C   UNL d   1      -3.264   7.213   3.404  0.00  0.00     0.001 A 
ATOM     17  C   UNL d   1      -2.193   6.419   2.985  0.00  0.00     0.008 A 
ENDBRANCH  11  12
ENDBRANCH  10  11
ENDBRANCH   1  10
BRANCH   1  18
ATOM     18  C   UNL d   1       0.366   1.448   0.375  0.00  0.00     0.173 C 
BRANCH  18  19
ATOM     19  C   UNL d   1      -0.819   0.485   0.057  0.00  0.00     0.180 C 
BRANCH  19  20
ATOM     20  O   UNL d   1      -0.717   0.116  -1.345  0.00  0.00    -0.390 OA
ATOM     21  H   UNL d   1      -1.612   0.158  -1.728  0.00  0.00     0.210 HD
ENDBRANCH  19  20
BRANCH  19  22
ATOM     22  C   UNL d   1      -0.818  -0.841   0.833  0.00  0.00     0.180 C 
BRANCH  22  23
ATOM     23  O   UNL d   1       0.274  -1.658   0.347  0.00  0.00    -0.390 OA
ATOM     24  H   UNL d   1       0.161  -1.681  -0.627  0.00  0.00     0.210 HD
ENDBRANCH  22  23
BRANCH  22  25
ATOM     25  C   UNL d   1      -2.128  -1.642   0.671  0.00  0.00     0.173 C 
BRANCH  25  26
ATOM     26  C   UNL d   1      -3.364  -0.902   1.206  0.00  0.00     0.198 C 
BRANCH  26  27
ATOM     27  O   UNL d   1      -3.057  -0.236   2.427  0.00  0.00    -0.398 OA
ATOM     28  H   UNL d   1      -3.879   0.155   2.769  0.00  0.00     0.209 HD
ENDBRANCH  26  27
ENDBRANCH  25  26
BRANCH  25  29
ATOM     29  O   UNL d   1      -1.994  -2.889   1.379  0.00  0.00    -0.391 OA
ATOM     30  H   UNL d   1      -1.035  -3.046   1.475  0.00  0.00     0.210 HD
ENDBRANCH  25  29
ENDBRANCH  22  25
ENDBRANCH  19  22
ENDBRANCH  18  19
BRANCH  18  31
ATOM     31  O   UNL d   1       1.649   0.833   0.165  0.00  0.00    -0.391 OA
ATOM     32  H   UNL d   1       1.492  -0.121   0.015  0.00  0.00     0.210 HD
ENDBRANCH  18  31
ENDBRANCH   1  18
TORSDOF 16
