REMARK  4 active torsions:
REMARK  status: ('A' for Active; 'I' for Inactive)
REMARK    1  A    between atoms: C_3  and  C_2 
REMARK    2  A    between atoms: C_7  and  C_3 
REMARK    3  A    between atoms: C_5  and  N_8 
REMARK    4  A    between atoms: N_8  and  C_6 
ROOT
ATOM      1  C   UNL d   1      -5.624  -1.046  -0.068  0.00  0.00     0.072 C 
ATOM      2  C   UNL d   1      -4.374  -0.626   0.164  0.00  0.00     0.092 C 
ENDROOT
BRANCH   2   3
ATOM      3  N   UNL d   1      -3.210  -1.347   0.059  0.00  0.00    -0.363 N 
ATOM      4  H   UNL d   1      -3.263  -2.277  -0.348  0.00  0.00     0.165 HD
BRANCH   3   5
ATOM      5  C   UNL d   1      -1.903  -0.889   0.323  0.00  0.00     0.071 A 
ATOM      6  C   UNL d   1      -0.808  -1.517  -0.294  0.00  0.00     0.144 A 
ATOM      7  C   UNL d   1       0.497  -1.055  -0.139  0.00  0.00     0.068 A 
ATOM      8  F   UNL d   1      -1.022  -2.584  -1.082  0.00  0.00    -0.204 F 
ATOM      9  C   UNL d   1       0.728   0.058   0.661  0.00  0.00     0.037 A 
ATOM     10 CL   UNL d   1       2.328   0.656   0.859  0.00  0.00    -0.084 Cl
ATOM     11  C   UNL d   1      -0.331   0.696   1.302  0.00  0.00     0.026 A 
ATOM     12  C   UNL d   1      -1.638   0.227   1.129  0.00  0.00     0.034 A 
ENDBRANCH   3   5
ENDBRANCH   2   3
BRANCH   1  13
ATOM     13  C   UNL d   1      -6.731  -0.061   0.082  0.00  0.00     0.183 C 
ATOM     14  O   UNL d   1      -6.594   0.974   0.726  0.00  0.00    -0.288 OA
BRANCH  13  15
ATOM     15  C   UNL d   1      -8.038  -0.364  -0.557  0.00  0.00     0.014 A 
ATOM     16  C   UNL d   1      -9.190   0.223  -0.011  0.00  0.00     0.017 A 
ATOM     17  C   UNL d   1     -10.438   0.020  -0.606  0.00  0.00     0.025 A 
ATOM     18  C   UNL d   1     -10.534  -0.761  -1.756  0.00  0.00     0.034 A 
ATOM     19  C   UNL d   1      -9.395  -1.343  -2.312  0.00  0.00     0.025 A 
ATOM     20 CL   UNL d   1     -12.064  -0.991  -2.507  0.00  0.00    -0.084 Cl
ATOM     21  C   UNL d   1      -8.145  -1.145  -1.715  0.00  0.00     0.017 A 
ENDBRANCH  13  15
ENDBRANCH   1  13
TORSDOF 4
