REMARK  6 active torsions:
REMARK  status: ('A' for Active; 'I' for Inactive)
REMARK    1  A    between atoms: N_3  and  C_1 
REMARK    2  A    between atoms: N_7  and  C_1 
REMARK    3  A    between atoms: C_2  and  N_3 
REMARK    4  A    between atoms: C_14  and  N_7 
REMARK    5  A    between atoms: O_8  and  C_15 
REMARK    6  A    between atoms: C_15  and  C_14 
ROOT
ATOM      1  N   UNL d   1       0.497  -0.460   1.149  0.00  0.00    -0.332 N 
ATOM      2  H   UNL d   1      -0.467  -0.619   0.859  0.00  0.00     0.168 HD
ENDROOT
BRANCH   1   3
ATOM      3  C   UNL d   1       1.012  -1.297   2.167  0.00  0.00     0.046 A 
ATOM      4  C   UNL d   1       1.989  -0.801   3.064  0.00  0.00    -0.035 A 
ATOM      5  C   UNL d   1       2.516  -1.651   4.050  0.00  0.00     0.009 A 
ATOM      6  C   UNL d   1       2.465   0.629   3.074  0.00  0.00     0.050 C 
ATOM      7  C   UNL d   1       2.043  -2.948   4.198  0.00  0.00     0.001 A 
ATOM      8  C   UNL d   1       1.027  -3.408   3.368  0.00  0.00     0.009 A 
ATOM      9  C   UNL d   1       0.491  -2.594   2.350  0.00  0.00    -0.035 A 
ATOM     10  C   UNL d   1      -0.583  -3.210   1.497  0.00  0.00     0.050 C 
ENDBRANCH   1   3
BRANCH   1  11
ATOM     11  C   UNL d   1       1.235   0.134   0.150  0.00  0.00     0.172 C 
ATOM     12  S   UNL d   1       2.761  -0.291  -0.386  0.00  0.00    -0.041 SA
BRANCH  11  13
ATOM     13  N   UNL d   1       0.619   1.183  -0.478  0.00  0.00    -0.365 N 
ATOM     14  H   UNL d   1       1.176   1.618  -1.203  0.00  0.00     0.161 HD
BRANCH  13  15
ATOM     15  C   UNL d   1      -0.595   1.864  -0.041  0.00  0.00     0.148 C 
BRANCH  15  16
ATOM     16  C   UNL d   1      -1.861   1.218  -0.603  0.00  0.00     0.183 C 
BRANCH  16  17
ATOM     17  O   UNL d   1      -2.066  -0.076  -0.032  0.00  0.00    -0.399 OA
ATOM     18  H   UNL d   1      -2.863  -0.440  -0.458  0.00  0.00     0.209 HD
ENDBRANCH  16  17
ENDBRANCH  15  16
ENDBRANCH  13  15
ENDBRANCH  11  13
ENDBRANCH   1  11
TORSDOF 6
