REMARK  0 active torsions:
REMARK  status: ('A' for Active; 'I' for Inactive)
ROOT
ATOM      1  N   UNL d   1      -0.860   0.488   0.056  0.00  0.00    -0.281 N 
ATOM      2  C   UNL d   1      -1.702   1.584  -0.115  0.00  0.00     0.145 A 
ATOM      3  N   UNL d   1      -2.955   1.183   0.001  0.00  0.00    -0.282 N 
ATOM      4  HN  UNL d   1      -3.776   1.788  -0.036  1.00  0.00     0.188 HD
ATOM      5  C   UNL d   1      -1.729  -0.585   0.186  0.00  0.00     0.114 A 
ATOM      6  N   UNL d   1      -2.975  -0.170   0.178  0.00  0.00    -0.286 N 
ATOM      7  HN  UNL d   1      -3.805  -0.752   0.284  1.00  0.00     0.188 HD
ATOM      8  C   UNL d   1       0.555   0.366   0.108  0.00  0.00     0.059 A 
ATOM      9  C   UNL d   1      -1.377   2.943  -0.455  0.00  0.00     0.050 A 
ATOM     10  S   UNL d   1       0.216  -2.365  -0.506  0.00  0.00    -0.120 SA
ATOM     11  S   UNL d   1      -2.335   4.238   0.158  0.00  0.00    -0.098 SA
ATOM     12  C   UNL d   1       1.150  -0.886  -0.141  0.00  0.00     0.028 A 
ATOM     13  C   UNL d   1      -1.280  -1.972   0.431  0.00  0.00     0.158 C 
ATOM     14  C   UNL d   1      -0.388   3.431  -1.294  0.00  0.00     0.023 A 
ATOM     15  C   UNL d   1      -1.376   5.420  -0.616  0.00  0.00     0.050 A 
ATOM     16  C   UNL d   1      -0.351   4.857  -1.341  0.00  0.00     0.009 A 
ATOM     17  C   UNL d   1       1.375   1.465   0.404  0.00  0.00     0.031 A 
ATOM     18  C   UNL d   1       2.546  -0.996  -0.170  0.00  0.00     0.021 A 
ATOM     19  C   UNL d   1       2.764   1.345   0.357  0.00  0.00     0.002 A 
ATOM     20  C   UNL d   1       3.353   0.118   0.065  0.00  0.00     0.002 A 
ENDROOT
TORSDOF 0
