REMARK  2 active torsions:
REMARK  status: ('A' for Active; 'I' for Inactive)
REMARK    1  A    between atoms: O_11  and  C_9 
REMARK    2  A    between atoms: C_12  and  O_11 
ROOT
ATOM      1  C   UNL d   1      -0.430   1.018  -0.035  0.00  0.00     0.147 A 
ATOM      2  C   UNL d   1      -0.889  -0.266  -0.049  0.00  0.00     0.151 A 
ATOM      3  N   UNL d   1      -1.440   1.925  -0.033  0.00  0.00    -0.305 N 
ATOM      4  HN  UNL d   1      -1.364   2.942  -0.025  1.00  0.00     0.171 HD
ATOM      5  N   UNL d   1       0.909   1.312  -0.000  0.00  0.00    -0.287 N 
ATOM      6  N   UNL d   1       1.338  -1.039  -0.001  0.00  0.00    -0.269 N 
ATOM      7  C   UNL d   1       1.842   0.274   0.008  0.00  0.00     0.332 A 
ATOM      8  C   UNL d   1      -0.018  -1.390  -0.011  0.00  0.00     0.282 A 
ATOM      9  C   UNL d   1      -2.543   1.200  -0.042  0.00  0.00     0.233 A 
ATOM     10  N   UNL d   1      -2.255  -0.148  -0.092  0.00  0.00    -0.309 N 
ATOM     11  O   UNL d   1       3.054   0.507   0.027  0.00  0.00    -0.246 OA
ATOM     12  O   UNL d   1      -0.414  -2.555   0.021  0.00  0.00    -0.265 OA
ATOM     13  C   UNL d   1       1.387   2.680   0.010  0.00  0.00     0.163 C 
ATOM     14  C   UNL d   1       2.285  -2.138   0.019  0.00  0.00     0.164 C 
ATOM     15  C   UNL d   1      -3.222  -1.217  -0.121  0.00  0.00     0.160 C 
ENDROOT
BRANCH   9  16
ATOM     16  O   UNL d   1      -3.787   1.681   0.006  0.00  0.00    -0.277 OA
BRANCH  16  17
ATOM     17  C   UNL d   1      -4.046   2.903   0.619  0.00  0.00     0.106 A 
ATOM     18  C   UNL d   1      -5.056   3.716   0.075  0.00  0.00     0.076 A 
ATOM     19  N   UNL d   1      -5.701   3.400  -1.075  0.00  0.00    -0.363 N 
ATOM     20  C   UNL d   1      -5.382   4.902   0.781  0.00  0.00    -0.007 A 
ATOM     21  C   UNL d   1      -6.643   4.251  -1.548  0.00  0.00     0.088 A 
ATOM     22  HN  UNL d   1      -5.481   2.538  -1.575  1.00  0.00     0.165 HD
ATOM     23  C   UNL d   1      -7.019   5.417  -0.915  0.00  0.00     0.018 A 
ATOM     24  C   UNL d   1      -6.383   5.741   0.273  0.00  0.00     0.015 A 
ATOM     25  C   UNL d   1      -4.720   5.245   1.970  0.00  0.00     0.014 A 
ATOM     26  C   UNL d   1      -3.711   4.434   2.473  0.00  0.00     0.004 A 
ATOM     27  C   UNL d   1      -3.380   3.262   1.805  0.00  0.00     0.040 A 
ENDBRANCH  16  17
ENDBRANCH   9  16
TORSDOF 2
