REMARK  2 active torsions:
REMARK  status: ('A' for Active; 'I' for Inactive)
REMARK    1  A    between atoms: C_15  and  N_4 
REMARK    2  A    between atoms: C_12  and  C_15 
ROOT
ATOM      1  C   UNL d   1      -4.938  -2.310   3.425  0.00  0.00     0.102 A 
ATOM      2  C   UNL d   1      -4.425  -3.591   3.185  0.00  0.00     0.102 A 
ATOM      3  C   UNL d   1      -4.266  -1.188   2.935  0.00  0.00     0.048 A 
ATOM      4  O   UNL d   1      -6.082  -2.034   4.134  0.00  0.00    -0.348 OA
ATOM      5  O   UNL d   1      -5.041  -4.772   3.515  0.00  0.00    -0.348 OA
ATOM      6  C   UNL d   1      -3.033  -1.318   2.276  0.00  0.00    -0.027 A 
ATOM      7  C   UNL d   1      -3.176  -3.724   2.574  0.00  0.00     0.040 A 
ATOM      8  C   UNL d   1      -2.479  -2.596   2.130  0.00  0.00     0.012 A 
ATOM      9  C   UNL d   1      -6.996  -4.173   4.827  0.00  0.00     0.053 C 
ATOM     10  C   UNL d   1      -6.260  -2.913   5.248  0.00  0.00     0.178 C 
ATOM     11  C   UNL d   1      -6.470  -4.707   3.505  0.00  0.00     0.178 C 
ENDROOT
BRANCH   6  12
ATOM     12  C   UNL d   1      -2.313  -0.089   1.766  0.00  0.00     0.311 C 
BRANCH  12  13
ATOM     13  N   UNL d   1      -2.100  -0.074   0.306  0.00  0.00     0.094 N 
ATOM     14  C   UNL d   1      -3.336  -0.116  -0.494  0.00  0.00     0.287 C 
ATOM     15  C   UNL d   1      -4.245   1.091  -0.344  0.00  0.00     0.170 C 
ATOM     16  S   UNL d   1      -3.384   2.594  -0.733  0.00  0.00     0.147 S 
ATOM     17  C   UNL d   1      -1.834   2.423   0.119  0.00  0.00     0.170 C 
ATOM     18  O   UNL d   1      -4.104   3.687  -0.114  0.00  0.00    -0.228 OA
ATOM     19  O   UNL d   1      -3.112   2.606  -2.160  0.00  0.00    -0.228 OA
ATOM     20  C   UNL d   1      -1.244   1.045  -0.124  0.00  0.00     0.287 C 
ENDBRANCH  12  13
ENDBRANCH   6  12
TORSDOF 2
