REMARK  8 active torsions:
REMARK  status: ('A' for Active; 'I' for Inactive)
REMARK    1  A    between atoms: C_15  and  N_1 
REMARK    2  A    between atoms: N_3  and  C_2 
REMARK    3  A    between atoms: S_20  and  C_4 
REMARK    4  A    between atoms: C_18  and  C_5 
REMARK    5  A    between atoms: O_23  and  C_11 
REMARK    6  A    between atoms: C_13  and  S_16 
REMARK    7  A    between atoms: O_25  and  C_14 
REMARK    8  A    between atoms: S_16  and  C_18 
ROOT
ATOM      1  N   UNL d   1      -0.439   0.775  -0.048  0.00  0.00    -0.279 N 
ATOM      2  C   UNL d   1       0.825   0.259   0.237  0.00  0.00     0.164 A 
ATOM      3  C   UNL d   1      -1.297  -0.307   0.214  0.00  0.00     0.114 A 
ATOM      4  N   UNL d   1       0.738  -0.999   0.590  0.00  0.00    -0.278 N 
ATOM      5  HN  UNL d   1       1.519  -1.610   0.828  1.00  0.00     0.189 HD
ATOM      6  N   UNL d   1      -0.575  -1.349   0.584  0.00  0.00    -0.286 N 
ATOM      7  HN  UNL d   1      -0.944  -2.268   0.827  1.00  0.00     0.188 HD
ENDROOT
BRANCH   3   8
ATOM      8  C   UNL d   1      -2.792  -0.323   0.032  0.00  0.00     0.158 C 
BRANCH   8   9
ATOM      9  S   UNL d   1      -3.528  -1.974   0.324  0.00  0.00    -0.119 SA
BRANCH   9  10
ATOM     10  C   UNL d   1      -5.298  -1.800   0.026  0.00  0.00     0.037 A 
ATOM     11  C   UNL d   1      -5.930  -3.025  -0.296  0.00  0.00     0.060 A 
ATOM     12  C   UNL d   1      -7.313  -3.144  -0.485  0.00  0.00     0.102 A 
ATOM     13  C   UNL d   1      -8.079  -1.998  -0.306  0.00  0.00     0.138 A 
ATOM     14  C   UNL d   1      -7.484  -0.757  -0.002  0.00  0.00     0.077 A 
ATOM     15  C   UNL d   1      -6.094  -0.647   0.169  0.00  0.00     0.087 A 
BRANCH  12  16
ATOM     16  O   UNL d   1      -7.710  -4.422  -0.757  0.00  0.00    -0.353 OA
ATOM     17  C   UNL d   1      -8.809  -4.630  -1.639  0.00  0.00     0.210 C 
ENDBRANCH  12  16
BRANCH  13  18
ATOM     18  N   UNL d   1      -9.528  -2.023  -0.324  0.00  0.00    -0.113 N 
ATOM     19  O   UNL d   1     -10.089  -1.251  -1.110  0.00  0.00    -0.532 OA
ATOM     20  O   UNL d   1     -10.098  -2.777   0.477  0.00  0.00    -0.532 OA
ENDBRANCH  13  18
BRANCH  15  21
ATOM     21  O   UNL d   1      -5.477   0.525   0.506  0.00  0.00    -0.355 OA
ATOM     22  C   UNL d   1      -6.285   1.682   0.708  0.00  0.00     0.210 C 
ENDBRANCH  15  21
ENDBRANCH   9  10
ENDBRANCH   8   9
ENDBRANCH   3   8
BRANCH   1  23
ATOM     23  C   UNL d   1      -0.783   2.087  -0.514  0.00  0.00     0.043 A 
ATOM     24  C   UNL d   1       0.082   2.793  -1.368  0.00  0.00     0.033 A 
ATOM     25  C   UNL d   1      -0.232   4.088  -1.794  0.00  0.00     0.044 A 
ATOM     26  C   UNL d   1      -1.433   4.666  -1.410  0.00  0.00     0.116 A 
ATOM     27  C   UNL d   1      -2.316   3.979  -0.591  0.00  0.00     0.044 A 
ATOM     28  F   UNL d   1      -1.742   5.898  -1.831  0.00  0.00    -0.206 F 
ATOM     29  C   UNL d   1      -1.986   2.700  -0.130  0.00  0.00     0.033 A 
ENDBRANCH   1  23
BRANCH   2  30
ATOM     30  S   UNL d   1       2.338   1.111   0.330  0.00  0.00    -0.105 SA
ATOM     31  H   UNL d   1       1.913   2.379   0.335  0.00  0.00     0.110 HD
ENDBRANCH   2  30
TORSDOF 8
