REMARK  9 active torsions:
REMARK  status: ('A' for Active; 'I' for Inactive)
REMARK    1  A    between atoms: C_5  and  N_1 
REMARK    2  A    between atoms: C_2  and  C_3 
REMARK    3  A    between atoms: N_4  and  C_2 
REMARK    4  A    between atoms: C_13  and  C_2 
REMARK    5  A    between atoms: C_3  and  C_11 
REMARK    6  A    between atoms: O_6  and  C_3 
REMARK       I    between atoms: C_7  and  N_4 
REMARK    7  A    between atoms: C_9  and  O_6 
REMARK    8  A    between atoms: C_12  and  O_14 
REMARK    9  A    between atoms: O_14  and  C_13 
ROOT
ATOM      1  C   UNL d   1      -1.731  -1.360  -4.855  0.00  0.00     0.189 C 
ENDROOT
BRANCH   1   2
ATOM      2  C   UNL d   1      -1.808  -0.098  -5.788  0.00  0.00     0.142 C 
BRANCH   2   3
ATOM      3  N   UNL d   1      -0.427   0.278  -6.175  0.00  0.00    -0.352 N 
ATOM      4  C   UNL d   1      -0.026   1.571  -6.386  0.00  0.00     0.214 C 
ATOM      5  O   UNL d   1      -0.778   2.539  -6.332  0.00  0.00    -0.274 OA
ATOM      6  C   UNL d   1       1.451   1.714  -6.632  0.00  0.00     0.117 C 
ATOM      7  H   UNL d   1       0.275  -0.450  -6.124  0.00  0.00     0.163 HD
ENDBRANCH   2   3
BRANCH   2   8
ATOM      8  C   UNL d   1      -2.699  -0.327  -7.032  0.00  0.00     0.206 C 
BRANCH   8   9
ATOM      9  O   UNL d   1      -2.692   0.798  -7.928  0.00  0.00    -0.320 OA
BRANCH   9  10
ATOM     10  C   UNL d   1      -3.534   1.817  -7.614  0.00  0.00     0.254 C 
ATOM     11  O   UNL d   1      -4.305   1.827  -6.668  0.00  0.00    -0.266 OA
ATOM     12  C   UNL d   1      -3.424   2.907  -8.636  0.00  0.00     0.126 C 
ENDBRANCH   9  10
ENDBRANCH   8   9
ENDBRANCH   2   8
ENDBRANCH   1   2
BRANCH   1  13
ATOM     13  C   UNL d   1      -1.050  -1.097  -3.500  0.00  0.00    -0.027 A 
ATOM     14  C   UNL d   1      -0.980   0.185  -2.925  0.00  0.00     0.012 A 
ATOM     15  C   UNL d   1      -0.263   0.419  -1.746  0.00  0.00     0.037 A 
ATOM     16  C   UNL d   1       0.374  -0.644  -1.103  0.00  0.00     0.102 A 
ATOM     17  C   UNL d   1       0.259  -1.943  -1.609  0.00  0.00     0.037 A 
ATOM     18  C   UNL d   1      -0.459  -2.163  -2.792  0.00  0.00     0.012 A 
BRANCH  16  19
ATOM     19  N   UNL d   1       1.187  -0.388   0.092  0.00  0.00    -0.116 N 
ATOM     20  O   UNL d   1       1.734  -1.358   0.635  0.00  0.00    -0.532 OA
ATOM     21  O   UNL d   1       1.292   0.785   0.479  0.00  0.00    -0.532 OA
ENDBRANCH  16  19
ENDBRANCH   1  13
BRANCH   1  22
ATOM     22  O   UNL d   1      -0.876  -2.312  -5.556  0.00  0.00    -0.309 OA
BRANCH  22  23
ATOM     23  C   UNL d   1      -1.474  -3.105  -6.481  0.00  0.00     0.255 C 
ATOM     24  O   UNL d   1      -2.655  -3.413  -6.485  0.00  0.00    -0.266 OA
ATOM     25  C   UNL d   1      -0.523  -3.312  -7.627  0.00  0.00     0.126 C 
ENDBRANCH  22  23
ENDBRANCH   1  22
TORSDOF 9
