REMARK  2 active torsions:
REMARK  status: ('A' for Active; 'I' for Inactive)
REMARK    1  A    between atoms: C_7  and  C_1 
REMARK    2  A    between atoms: O_11  and  N_9 
ROOT
ATOM      1  C   UNL d   1      -4.347  -1.738  -0.299  0.00  0.00     0.064 C 
ATOM      2  C   UNL d   1      -4.632  -0.285  -0.234  0.00  0.00     0.300 C 
ATOM      3  C   UNL d   1      -5.347  -2.632  -0.353  0.00  0.00     0.034 C 
ATOM      4  O   UNL d   1      -5.963   0.092  -0.072  0.00  0.00    -0.274 OA
ATOM      5  C   UNL d   1      -6.734  -2.195  -0.334  0.00  0.00    -0.001 A 
ATOM      6  C   UNL d   1      -7.007  -0.845  -0.157  0.00  0.00     0.089 A 
ATOM      7  O   UNL d   1      -3.747   0.562  -0.311  0.00  0.00    -0.259 OA
ATOM      8  C   UNL d   1      -7.797  -3.090  -0.465  0.00  0.00     0.014 A 
ATOM      9  C   UNL d   1      -8.312  -0.366  -0.079  0.00  0.00     0.038 A 
ATOM     10  C   UNL d   1      -9.371  -1.264  -0.204  0.00  0.00     0.003 A 
ATOM     11  C   UNL d   1      -9.114  -2.623  -0.404  0.00  0.00     0.001 A 
ENDROOT
BRANCH   1  12
ATOM     12  C   UNL d   1      -2.954  -2.290  -0.274  0.00  0.00     0.044 C 
ATOM     13  N   UNL d   1      -2.688  -3.396  -0.920  0.00  0.00    -0.273 N 
ATOM     14  HN  UNL d   1      -3.373  -3.917  -1.467  1.00  0.00     0.194 HD
ATOM     15  C   UNL d   1      -1.897  -1.556   0.532  0.00  0.00     0.071 C 
BRANCH  13  16
ATOM     16  O   UNL d   1      -1.349  -3.776  -0.770  0.00  0.00    -0.290 OA
ATOM     17  H   UNL d   1      -1.304  -4.599  -1.291  0.00  0.00     0.244 HD
ENDBRANCH  13  16
ENDBRANCH   1  12
TORSDOF 2
