REMARK  3 active torsions:
REMARK  status: ('A' for Active; 'I' for Inactive)
REMARK    1  A    between atoms: C_13  and  N_3 
REMARK    2  A    between atoms: N_14  and  C_7 
REMARK    3  A    between atoms: C_17  and  N_14 
ROOT
ATOM      1  C   UNL d   1      -0.227  -0.697   0.077  0.00  0.00     0.145 A 
ATOM      2  C   UNL d   1      -0.217   0.668   0.022  0.00  0.00     0.070 A 
ATOM      3  N   UNL d   1      -1.540  -1.119  -0.011  0.00  0.00    -0.239 N 
ATOM      4  N   UNL d   1       2.151   0.727   0.090  0.00  0.00    -0.319 N 
ATOM      5  HN  UNL d   1       3.027   1.248   0.113  1.00  0.00     0.170 HD
ATOM      6  N   UNL d   1       0.964  -1.386   0.101  0.00  0.00    -0.317 N 
ATOM      7  C   UNL d   1       1.032   1.373   0.049  0.00  0.00     0.118 A 
ATOM      8  C   UNL d   1       2.187  -0.643   0.104  0.00  0.00     0.179 A 
ATOM      9  N   UNL d   1      -2.368  -0.054  -0.207  0.00  0.00    -0.302 N 
ATOM     10  HN  UNL d   1      -3.373  -0.069  -0.380  1.00  0.00     0.186 HD
ATOM     11  C   UNL d   1      -1.569   1.016  -0.123  0.00  0.00     0.127 A 
ATOM     12  S   UNL d   1       3.607  -1.535   0.101  0.00  0.00    -0.040 SA
ATOM     13  H   UNL d   1       1.013  -2.397   0.041  0.00  0.00     0.170 HD
ENDROOT
BRANCH   3  14
ATOM     14  C   UNL d   1      -2.036  -2.445   0.008  0.00  0.00     0.058 A 
ATOM     15  C   UNL d   1      -1.346  -3.464   0.680  0.00  0.00     0.031 A 
ATOM     16  C   UNL d   1      -1.819  -4.776   0.625  0.00  0.00     0.002 A 
ATOM     17  C   UNL d   1      -2.973  -5.075  -0.097  0.00  0.00     0.000 A 
ATOM     18  C   UNL d   1      -3.680  -4.058  -0.737  0.00  0.00     0.002 A 
ATOM     19  C   UNL d   1      -3.226  -2.740  -0.671  0.00  0.00     0.031 A 
ENDBRANCH   3  14
BRANCH   7  20
ATOM     20  N   UNL d   1       0.925   2.737  -0.005  0.00  0.00    -0.376 N 
ATOM     21  H   UNL d   1       0.015   3.150  -0.172  0.00  0.00     0.161 HD
BRANCH  20  22
ATOM     22  C   UNL d   1       2.036   3.549  -0.484  0.00  0.00     0.116 C 
ATOM     23  C   UNL d   1       1.701   5.025  -0.361  0.00  0.00     0.026 C 
ENDBRANCH  20  22
ENDBRANCH   7  20
TORSDOF 3
