REMARK  3 active torsions:
REMARK  status: ('A' for Active; 'I' for Inactive)
REMARK    1  A    between atoms: C_13  and  C_2 
REMARK    2  A    between atoms: N_6  and  C_13 
REMARK    3  A    between atoms: C_18  and  C_10 
ROOT
ATOM      1  N   UNL d   1      -0.520  -0.754  -0.002  0.00  0.00    -0.217 N 
ATOM      2  C   UNL d   1      -1.876  -1.006  -0.067  0.00  0.00     0.140 A 
ATOM      3  N   UNL d   1       0.460  -1.671   0.223  0.00  0.00    -0.293 N 
ATOM      4  HN  UNL d   1       0.245  -2.605   0.573  1.00  0.00     0.187 HD
ATOM      5  C   UNL d   1      -0.430   0.607  -0.152  0.00  0.00     0.182 A 
ATOM      6  N   UNL d   1      -2.530   0.124  -0.267  0.00  0.00    -0.284 N 
ATOM      7  HN  UNL d   1      -3.540   0.222  -0.370  1.00  0.00     0.188 HD
ATOM      8  C   UNL d   1       1.690  -1.305  -0.031  0.00  0.00     0.053 C 
ATOM      9  N   UNL d   1      -1.612   1.146  -0.311  0.00  0.00    -0.277 N 
ATOM     10  HN  UNL d   1      -1.813   2.137  -0.443  1.00  0.00     0.189 HD
ATOM     11  S   UNL d   1       1.088   1.404  -0.063  0.00  0.00    -0.085 SA
ATOM     12  C   UNL d   1       2.105   0.031  -0.648  0.00  0.00     0.142 C 
ENDROOT
BRANCH   2  13
ATOM     13  C   UNL d   1      -2.476  -2.352   0.076  0.00  0.00     0.227 C 
BRANCH  13  14
ATOM     14  N   UNL d   1      -2.100  -3.235  -1.011  0.00  0.00    -0.266 N 
ATOM     15  N   UNL d   1      -1.418  -4.369  -0.743  0.00  0.00    -0.019 NA
ATOM     16  N   UNL d   1      -1.235  -5.008  -1.890  0.00  0.00    -0.282 N 
ATOM     17  C   UNL d   1      -1.830  -4.279  -2.884  0.00  0.00     0.074 A 
ATOM     18  HN  UNL d   1      -0.737  -5.890  -2.011  1.00  0.00     0.184 HD
ATOM     19  C   UNL d   1      -2.408  -3.134  -2.345  0.00  0.00     0.077 A 
ATOM     20  C   UNL d   1      -1.925  -4.522  -4.261  0.00  0.00     0.033 A 
ATOM     21  C   UNL d   1      -3.103  -2.198  -3.119  0.00  0.00     0.033 A 
ATOM     22  C   UNL d   1      -3.188  -2.457  -4.493  0.00  0.00     0.002 A 
ATOM     23  C   UNL d   1      -2.609  -3.596  -5.057  0.00  0.00     0.002 A 
ENDBRANCH  13  14
ENDBRANCH   2  13
BRANCH   8  24
ATOM     24  C   UNL d   1       2.731  -2.301   0.225  0.00  0.00     0.029 A 
ATOM     25  S   UNL d   1       4.222  -2.281  -0.626  0.00  0.00    -0.100 SA
ATOM     26  C   UNL d   1       4.800  -3.662   0.194  0.00  0.00     0.050 A 
ATOM     27  C   UNL d   1       3.877  -4.150   1.090  0.00  0.00     0.008 A 
ATOM     28  C   UNL d   1       2.678  -3.377   1.094  0.00  0.00     0.021 A 
ENDBRANCH   8  24
TORSDOF 3
