REMARK  10 active torsions:
REMARK  status: ('A' for Active; 'I' for Inactive)
REMARK    1  A    between atoms: N_2  and  C_1 
REMARK    2  A    between atoms: N_8  and  C_4 
REMARK    3  A    between atoms: O_12  and  C_6 
REMARK    4  A    between atoms: O_13  and  C_7 
REMARK    5  A    between atoms: C_19  and  O_12 
REMARK    6  A    between atoms: C_18  and  O_13 
REMARK    7  A    between atoms: C_20  and  C_18 
REMARK    8  A    between atoms: C_21  and  C_19 
REMARK    9  A    between atoms: C_22  and  C_20 
REMARK   10  A    between atoms: C_23  and  C_21 
ROOT
ATOM      1  C   UNL d   1       1.407  -0.288   0.031  0.00  0.00     0.139 A 
ATOM      2  C   UNL d   1       0.494  -1.349   0.116  0.00  0.00     0.078 A 
ATOM      3  C   UNL d   1      -1.368   0.209  -0.077  0.00  0.00     0.067 A 
ATOM      4  C   UNL d   1      -0.402   1.244  -0.172  0.00  0.00     0.071 A 
ATOM      5  C   UNL d   1       0.985   1.024  -0.153  0.00  0.00     0.104 A 
ATOM      6  C   UNL d   1      -0.886  -1.116   0.048  0.00  0.00     0.097 A 
ENDROOT
BRANCH   3   7
ATOM      7  N   UNL d   1      -2.708   0.568  -0.087  0.00  0.00    -0.374 N 
ATOM      8  C   UNL d   1      -3.757  -0.170   0.636  0.00  0.00     0.149 C 
ATOM      9  C   UNL d   1      -4.723  -0.851  -0.345  0.00  0.00     0.187 C 
ATOM     10  O   UNL d   1      -5.271   0.095  -1.282  0.00  0.00    -0.388 OA
ATOM     11  C   UNL d   1      -4.213   0.704  -2.041  0.00  0.00     0.187 C 
ATOM     12  C   UNL d   1      -3.226   1.462  -1.138  0.00  0.00     0.149 C 
ENDBRANCH   3   7
BRANCH   6  13
ATOM     13  O   UNL d   1      -1.808  -2.142   0.062  0.00  0.00    -0.349 OA
BRANCH  13  14
ATOM     14  C   UNL d   1      -1.295  -3.473   0.144  0.00  0.00     0.175 C 
BRANCH  14  15
ATOM     15  C   UNL d   1      -2.446  -4.473   0.138  0.00  0.00     0.026 C 
BRANCH  15  16
ATOM     16  C   UNL d   1      -1.903  -5.899   0.224  0.00  0.00    -0.002 C 
ATOM     17  C   UNL d   1      -3.010  -6.937   0.222  0.00  0.00     0.005 C 
ENDBRANCH  15  16
ENDBRANCH  14  15
ENDBRANCH  13  14
ENDBRANCH   6  13
BRANCH   5  18
ATOM     18  O   UNL d   1       1.715   2.171  -0.299  0.00  0.00    -0.348 OA
BRANCH  18  19
ATOM     19  C   UNL d   1       2.998   2.068  -0.917  0.00  0.00     0.175 C 
BRANCH  19  20
ATOM     20  C   UNL d   1       3.332   3.364  -1.655  0.00  0.00     0.026 C 
BRANCH  20  21
ATOM     21  C   UNL d   1       4.706   3.237  -2.315  0.00  0.00    -0.002 C 
ATOM     22  C   UNL d   1       5.109   4.480  -3.087  0.00  0.00     0.005 C 
ENDBRANCH  20  21
ENDBRANCH  19  20
ENDBRANCH  18  19
ENDBRANCH   5  18
BRANCH   1  23
ATOM     23  N   UNL d   1       2.793  -0.657   0.200  0.00  0.00    -0.113 N 
ATOM     24  O   UNL d   1       3.271  -1.451  -0.621  0.00  0.00    -0.532 OA
ATOM     25  O   UNL d   1       3.395  -0.187   1.177  0.00  0.00    -0.532 OA
ENDBRANCH   1  23
TORSDOF 10
