REMARK  5 active torsions:
REMARK  status: ('A' for Active; 'I' for Inactive)
REMARK    1  A    between atoms: C_2  and  C_1 
REMARK    2  A    between atoms: N_3  and  C_1 
REMARK       I    between atoms: N_9  and  C_2 
REMARK       I    between atoms: C_4  and  N_3 
REMARK    3  A    between atoms: C_8  and  C_4 
REMARK    4  A    between atoms: C_10  and  C_5 
REMARK    5  A    between atoms: N_11  and  N_9 
ROOT
ATOM      1  C   UNL d   1       0.952  -0.067   0.140  0.00  0.00     0.105 C 
ATOM      2  C   UNL d   1       2.296   0.023   0.204  0.00  0.00     0.046 C 
ENDROOT
BRANCH   1   3
ATOM      3  C   UNL d   1       0.136  -0.334   1.400  0.00  0.00     0.282 C 
ATOM      4  O   UNL d   1       0.594  -0.734   2.466  0.00  0.00    -0.265 OA
ATOM      5  N   UNL d   1      -1.226  -0.065   1.263  0.00  0.00    -0.288 N 
ATOM      6  H   UNL d   1      -1.542   0.537   0.509  0.00  0.00     0.183 HD
BRANCH   5   7
ATOM      7  N   UNL d   1      -2.050  -0.158   2.418  0.00  0.00    -0.247 NA
ATOM      8  H   UNL d   1      -1.427  -0.011   3.229  0.00  0.00     0.143 HD
ATOM      9  H   UNL d   1      -2.321  -1.141   2.528  0.00  0.00     0.143 HD
ENDBRANCH   5   7
ENDBRANCH   1   3
BRANCH   1  10
ATOM     10  N   UNL d   1       0.250   0.014  -1.068  0.00  0.00    -0.318 N 
ATOM     11  C   UNL d   1       0.729   0.504  -2.275  0.00  0.00     0.256 C 
ATOM     12  O   UNL d   1       1.804   1.074  -2.431  0.00  0.00    -0.267 OA
ATOM     13  H   UNL d   1      -0.672  -0.399  -1.057  0.00  0.00     0.169 HD
BRANCH  11  14
ATOM     14  C   UNL d   1      -0.140   0.329  -3.477  0.00  0.00     0.032 A 
ATOM     15  C   UNL d   1      -1.536   0.254  -3.417  0.00  0.00     0.017 A 
ATOM     16  C   UNL d   1      -2.279   0.121  -4.596  0.00  0.00     0.001 A 
ATOM     17  C   UNL d   1      -1.633   0.062  -5.832  0.00  0.00     0.000 A 
ATOM     18  C   UNL d   1      -0.246   0.145  -5.900  0.00  0.00     0.001 A 
ATOM     19  C   UNL d   1       0.500   0.280  -4.726  0.00  0.00     0.017 A 
ENDBRANCH  11  14
ENDBRANCH   1  10
BRANCH   2  20
ATOM     20  C   UNL d   1       3.159  -0.100   1.382  0.00  0.00    -0.034 A 
ATOM     21  C   UNL d   1       3.539  -1.365   1.850  0.00  0.00     0.011 A 
ATOM     22  C   UNL d   1       4.372  -1.482   2.963  0.00  0.00     0.001 A 
ATOM     23  C   UNL d   1       4.829  -0.329   3.610  0.00  0.00     0.000 A 
ATOM     24  C   UNL d   1       4.462   0.931   3.140  0.00  0.00     0.001 A 
ATOM     25  C   UNL d   1       3.631   1.046   2.027  0.00  0.00     0.011 A 
ENDBRANCH   2  20
TORSDOF 5
