REMARK  4 active torsions:
REMARK  status: ('A' for Active; 'I' for Inactive)
REMARK    1  A    between atoms: N_16  and  C_4 
REMARK    2  A    between atoms: C_5  and  C_15 
REMARK    3  A    between atoms: C_18  and  C_7 
REMARK    4  A    between atoms: N_13  and  N_16 
ROOT
ATOM      1  N   UNL d   1       3.470   1.094   0.024  0.00  0.00    -0.305 N 
ATOM      2  HN  UNL d   1       4.464   1.177   0.236  1.00  0.00     0.171 HD
ATOM      3  C   UNL d   1       2.655   2.174  -0.217  0.00  0.00     0.242 C 
ATOM      4  C   UNL d   1       2.849  -0.036  -0.047  0.00  0.00     0.162 C 
ATOM      5  S   UNL d   1       1.125   0.024  -0.353  0.00  0.00    -0.073 SA
ATOM      6  C   UNL d   1       1.172   1.839  -0.309  0.00  0.00     0.180 C 
ATOM      7  O   UNL d   1       3.080   3.318  -0.358  0.00  0.00    -0.271 OA
ENDROOT
BRANCH   4   8
ATOM      8  N   UNL d   1       3.386  -1.288   0.093  0.00  0.00    -0.280 N 
ATOM      9  H   UNL d   1       2.946  -2.013  -0.484  0.00  0.00     0.189 HD
BRANCH   8  10
ATOM     10  N   UNL d   1       4.637  -1.534   0.582  0.00  0.00    -0.308 N 
ATOM     11  C   UNL d   1       5.324  -2.521   0.082  0.00  0.00     0.139 C 
ATOM     12  HN  UNL d   1       5.027  -0.955   1.326  1.00  0.00     0.186 HD
BRANCH  11  13
ATOM     13  C   UNL d   1       4.959  -3.375  -1.047  0.00  0.00     0.083 A 
ATOM     14  C   UNL d   1       5.723  -4.429  -1.603  0.00  0.00     0.057 A 
ATOM     15  C   UNL d   1       5.031  -4.879  -2.695  0.00  0.00     0.128 A 
ATOM     16 BR   UNL d   1       7.374  -5.070  -0.997  0.00  0.00    -0.047 Br
ATOM     17  N   UNL d   1       3.904  -4.115  -2.745  0.00  0.00    -0.310 N 
ATOM     18  N   UNL d   1       3.805  -3.227  -1.737  0.00  0.00    -0.298 N 
ATOM     19  H   UNL d   1       3.162  -4.145  -3.438  0.00  0.00     0.186 HD
ATOM     20  HN  UNL d   1       3.035  -2.588  -1.539  1.00  0.00     0.187 HD
ENDBRANCH  11  13
ENDBRANCH   8  10
ENDBRANCH   4   8
BRANCH   6  21
ATOM     21  C   UNL d   1       0.360   2.464   0.808  0.00  0.00    -0.035 A 
ATOM     22  C   UNL d   1      -0.687   3.348   0.497  0.00  0.00     0.009 A 
ATOM     23  C   UNL d   1      -1.402   3.995   1.508  0.00  0.00     0.001 A 
ATOM     24  C   UNL d   1      -1.085   3.767   2.844  0.00  0.00     0.000 A 
ATOM     25  C   UNL d   1      -0.052   2.892   3.172  0.00  0.00     0.001 A 
ATOM     26  C   UNL d   1       0.666   2.244   2.163  0.00  0.00     0.009 A 
ENDBRANCH   6  21
TORSDOF 4
