REMARK  6 active torsions:
REMARK  status: ('A' for Active; 'I' for Inactive)
REMARK    1  A    between atoms: C_17  and  N_1 
REMARK    2  A    between atoms: C_15  and  C_2 
REMARK    3  A    between atoms: C_6  and  C_8 
REMARK       I    between atoms: C_8  and  N_16 
REMARK    4  A    between atoms: O_24  and  C_15 
REMARK    5  A    between atoms: N_16  and  C_22 
REMARK    6  A    between atoms: C_29  and  O_24 
ROOT
ATOM      1  C   UNL d   1      -0.446  -2.493  -0.135  0.00  0.00     0.056 A 
ATOM      2  C   UNL d   1       0.372  -3.321   0.657  0.00  0.00     0.034 A 
ATOM      3  C   UNL d   1      -1.386  -3.109  -0.961  0.00  0.00     0.034 A 
ATOM      4  C   UNL d   1      -0.766  -5.316  -0.129  0.00  0.00     0.035 A 
ATOM      5  C   UNL d   1      -1.544  -4.504  -0.953  0.00  0.00     0.032 A 
ATOM      6  C   UNL d   1       0.213  -4.713   0.661  0.00  0.00     0.032 A 
ENDROOT
BRANCH   1   7
ATOM      7  N   UNL d   1      -0.263  -1.072  -0.059  0.00  0.00    -0.260 N 
ATOM      8  N   UNL d   1       0.776  -0.616   0.689  0.00  0.00    -0.297 N 
ATOM      9  C   UNL d   1       0.799   0.704   0.526  0.00  0.00     0.041 A 
ATOM     10  HN  UNL d   1       1.410  -1.174   1.261  1.00  0.00     0.187 HD
ATOM     11  C   UNL d   1       1.884   1.485   1.178  0.00  0.00     0.071 C 
ATOM     12  C   UNL d   1      -0.265   1.155  -0.291  0.00  0.00     0.087 A 
ATOM     13  C   UNL d   1      -0.972  -0.005  -0.617  0.00  0.00     0.049 A 
ATOM     14  C   UNL d   1      -2.237  -0.129  -1.391  0.00  0.00     0.071 C 
BRANCH  12  15
ATOM     15  C   UNL d   1      -0.549   2.518  -0.727  0.00  0.00     0.297 C 
ATOM     16  O   UNL d   1      -1.421   2.814  -1.535  0.00  0.00    -0.259 OA
BRANCH  15  17
ATOM     17  O   UNL d   1       0.327   3.418  -0.196  0.00  0.00    -0.318 OA
BRANCH  17  18
ATOM     18  C   UNL d   1       0.401   4.691  -0.850  0.00  0.00     0.174 C 
ATOM     19  C   UNL d   1       1.380   4.577  -2.006  0.00  0.00     0.034 C 
ENDBRANCH  17  18
ENDBRANCH  15  17
ENDBRANCH  12  15
ENDBRANCH   1   7
BRANCH   4  20
ATOM     20  N   UNL d   1      -0.921  -6.715  -0.017  0.00  0.00    -0.322 N 
ATOM     21  C   UNL d   1      -1.866  -7.515  -0.645  0.00  0.00     0.266 C 
ATOM     22  O   UNL d   1      -2.663  -7.094  -1.480  0.00  0.00    -0.267 OA
ATOM     23  H   UNL d   1      -0.302  -7.173   0.636  0.00  0.00     0.169 HD
BRANCH  21  24
ATOM     24  C   UNL d   1      -1.876  -8.910  -0.245  0.00  0.00     0.114 A 
ATOM     25  C   UNL d   1      -2.662  -9.963  -0.703  0.00  0.00     0.046 A 
ATOM     26  N   UNL d   1      -2.429 -11.180  -0.065  0.00  0.00    -0.298 N 
ATOM     27  C   UNL d   1      -3.710  -9.950  -1.758  0.00  0.00     0.071 C 
ATOM     28  N   UNL d   1      -1.490 -11.085   0.857  0.00  0.00    -0.269 N 
ATOM     29  HN  UNL d   1      -2.926 -12.042  -0.285  1.00  0.00     0.187 HD
ATOM     30  S   UNL d   1      -0.864  -9.547   0.985  0.00  0.00     0.009 SA
ATOM     31  HN  UNL d   1      -1.180 -11.870   1.431  1.00  0.00     0.195 HD
ENDBRANCH  21  24
ENDBRANCH   4  20
TORSDOF 6
