REMARK  6 active torsions:
REMARK  status: ('A' for Active; 'I' for Inactive)
REMARK    1  A    between atoms: C_8  and  C_1 
REMARK    2  A    between atoms: N_7  and  C_2 
REMARK    3  A    between atoms: C_3  and  C_4 
REMARK       I    between atoms: C_4  and  N_7 
REMARK    4  A    between atoms: O_15  and  C_5 
REMARK    5  A    between atoms: O_23  and  C_8 
REMARK    6  A    between atoms: C_13  and  O_15 
ROOT
ATOM      1  C   UNL d   1       1.251   3.139   0.072  0.00  0.00     0.146 A 
ATOM      2  C   UNL d   1      -0.480   4.370  -0.560  0.00  0.00     0.191 A 
ATOM      3  O   UNL d   1       0.646   3.749  -1.006  0.00  0.00    -0.282 OA
ATOM      4  C   UNL d   1       0.517   3.413   1.209  0.00  0.00     0.048 A 
ATOM      5  C   UNL d   1      -0.589   4.210   0.806  0.00  0.00     0.067 A 
ENDROOT
BRANCH   1   6
ATOM      6  C   UNL d   1       2.487   2.388  -0.161  0.00  0.00     0.280 C 
ATOM      7  N   UNL d   1       2.818   2.384  -1.499  0.00  0.00    -0.320 N 
ATOM      8  H   UNL d   1       2.235   2.998  -2.061  0.00  0.00     0.169 HD
ATOM      9  O   UNL d   1       3.157   1.899   0.739  0.00  0.00    -0.265 OA
BRANCH   7  10
ATOM     10  C   UNL d   1       3.901   1.822  -2.164  0.00  0.00     0.058 A 
ATOM     11  C   UNL d   1       4.795   0.820  -1.803  0.00  0.00     0.106 A 
ATOM     12  S   UNL d   1       5.972   0.562  -3.061  0.00  0.00    -0.094 SA
ATOM     13  C   UNL d   1       5.269   1.715  -4.079  0.00  0.00     0.053 A 
ATOM     14  C   UNL d   1       4.183   2.309  -3.491  0.00  0.00     0.038 A 
BRANCH  11  15
ATOM     15  C   UNL d   1       4.838  -0.133  -0.704  0.00  0.00     0.302 C 
ATOM     16  O   UNL d   1       3.875  -0.705  -0.209  0.00  0.00    -0.259 OA
BRANCH  15  17
ATOM     17  O   UNL d   1       6.142  -0.442  -0.412  0.00  0.00    -0.322 OA
ATOM     18  C   UNL d   1       6.361  -1.710   0.211  0.00  0.00     0.213 C 
ENDBRANCH  15  17
ENDBRANCH  11  15
ENDBRANCH   7  10
ENDBRANCH   1   6
BRANCH   2  19
ATOM     19  O   UNL d   1      -1.153   4.990  -1.526  0.00  0.00    -0.288 OA
BRANCH  19  20
ATOM     20  C   UNL d   1      -2.524   5.089  -1.550  0.00  0.00     0.081 A 
ATOM     21  C   UNL d   1      -3.393   4.206  -0.906  0.00  0.00     0.061 A 
ATOM     22  C   UNL d   1      -4.772   4.340  -1.080  0.00  0.00     0.038 A 
ATOM     23 CL   UNL d   1      -5.837   3.246  -0.283  0.00  0.00    -0.084 Cl
ATOM     24  C   UNL d   1      -5.299   5.333  -1.901  0.00  0.00     0.048 A 
ATOM     25  C   UNL d   1      -4.429   6.205  -2.550  0.00  0.00     0.038 A 
ATOM     26  C   UNL d   1      -3.048   6.089  -2.378  0.00  0.00     0.061 A 
ATOM     27 CL   UNL d   1      -5.062   7.417  -3.594  0.00  0.00    -0.084 Cl
ENDBRANCH  19  20
ENDBRANCH   2  19
TORSDOF 6
