REMARK  4 active torsions:
REMARK  status: ('A' for Active; 'I' for Inactive)
REMARK    1  A    between atoms: C_7  and  N_1 
REMARK    2  A    between atoms: S_6  and  C_4 
REMARK    3  A    between atoms: C_8  and  S_6 
REMARK    4  A    between atoms: N_14  and  C_11 
ROOT
ATOM      1  N   UNL d   1       0.061   0.880   0.001  0.00  0.00    -0.251 N 
ATOM      2  C   UNL d   1      -1.078   0.140   0.216  0.00  0.00     0.232 C 
ATOM      3  C   UNL d   1       1.163   0.062  -0.128  0.00  0.00     0.245 C 
ATOM      4  C   UNL d   1       0.718  -1.382  -0.179  0.00  0.00     0.154 C 
ATOM      5  C   UNL d   1      -0.748  -1.323   0.188  0.00  0.00     0.129 C 
ATOM      6  O   UNL d   1      -2.221   0.529   0.420  0.00  0.00    -0.273 OA
ATOM      7  O   UNL d   1       2.348   0.386  -0.151  0.00  0.00    -0.271 OA
ENDROOT
BRANCH   4   8
ATOM      8  S   UNL d   1       1.045  -2.018  -1.868  0.00  0.00    -0.113 SA
BRANCH   8   9
ATOM      9  C   UNL d   1       0.558  -3.740  -1.698  0.00  0.00     0.022 A 
ATOM     10  C   UNL d   1      -0.438  -4.271  -2.546  0.00  0.00     0.022 A 
ATOM     11  C   UNL d   1      -0.833  -5.604  -2.380  0.00  0.00     0.024 A 
ATOM     12  C   UNL d   1      -0.171  -6.435  -1.476  0.00  0.00     0.002 A 
ATOM     13  C   UNL d   1       0.865  -5.929  -0.695  0.00  0.00     0.001 A 
ATOM     14  C   UNL d   1       1.224  -4.583  -0.799  0.00  0.00     0.020 A 
BRANCH  10  15
ATOM     15  N   UNL d   1      -1.191  -3.438  -3.399  0.00  0.00    -0.302 NA
ATOM     16  H   UNL d   1      -0.648  -2.625  -3.687  0.00  0.00     0.124 HD
ATOM     17  H   UNL d   1      -1.585  -3.930  -4.195  0.00  0.00     0.124 HD
ENDBRANCH  10  15
ENDBRANCH   8   9
ENDBRANCH   4   8
BRANCH   1  18
ATOM     18  C   UNL d   1       0.111   2.309  -0.043  0.00  0.00     0.045 A 
ATOM     19  C   UNL d   1      -0.905   3.104   0.517  0.00  0.00     0.031 A 
ATOM     20  C   UNL d   1      -0.861   4.504   0.451  0.00  0.00     0.021 A 
ATOM     21  C   UNL d   1       0.197   5.135  -0.191  0.00  0.00     0.011 A 
ATOM     22  C   UNL d   1       1.215   4.378  -0.757  0.00  0.00     0.021 A 
ATOM     23 BR   UNL d   1       0.250   7.020  -0.298  0.00  0.00    -0.051 Br
ATOM     24  C   UNL d   1       1.172   2.979  -0.677  0.00  0.00     0.031 A 
ENDBRANCH   1  18
TORSDOF 4
