REMARK  6 active torsions:
REMARK  status: ('A' for Active; 'I' for Inactive)
REMARK    1  A    between atoms: CA_2  and  C_8 
REMARK    2  A    between atoms: C_6  and  C_3 
REMARK    3  A    between atoms: O_14  and  C_7 
REMARK    4  A    between atoms: OXT_15  and  C_8 
REMARK    5  A    between atoms: O_17  and  C_9 
REMARK    6  A    between atoms: O_16  and  C_10 
ROOT
ATOM      1  N   UNL d   1      -1.451  -1.192   0.947  0.00  0.00     0.118 N 
ATOM      2  CA  UNL d   1      -2.604  -1.263   1.898  0.00  0.00     0.336 C 
ATOM      3  C   UNL d   1      -1.789  -0.120  -0.014  0.00  0.00     0.317 C 
ATOM      4  S   UNL d   1      -2.599   1.189   0.979  0.00  0.00    -0.117 SA
ATOM      5  C   UNL d   1      -2.795   0.148   2.475  0.00  0.00     0.044 C 
ATOM      6  C   UNL d   1      -1.716   0.567   3.485  0.00  0.00     0.029 C 
ATOM      7  C   UNL d   1      -4.189   0.355   3.063  0.00  0.00     0.029 C 
ATOM      8  H   UNL d   1      -1.328  -2.065   0.438  0.00  0.00     0.319 HD
ENDROOT
BRANCH   3   9
ATOM      9  C   UNL d   1      -2.650  -0.540  -1.207  0.00  0.00    -0.010 A 
ATOM     10  C   UNL d   1      -3.108  -1.852  -1.421  0.00  0.00     0.050 A 
ATOM     11  C   UNL d   1      -3.878  -2.215  -2.543  0.00  0.00     0.104 A 
ATOM     12  C   UNL d   1      -4.215  -1.238  -3.503  0.00  0.00     0.135 A 
ATOM     13  C   UNL d   1      -3.784   0.088  -3.290  0.00  0.00     0.104 A 
ATOM     14  C   UNL d   1      -2.992   0.412  -2.177  0.00  0.00     0.050 A 
BRANCH  11  15
ATOM     15  O   UNL d   1      -4.319  -3.499  -2.733  0.00  0.00    -0.353 OA
ATOM     16  C   UNL d   1      -3.957  -4.505  -1.796  0.00  0.00     0.210 C 
ENDBRANCH  11  15
BRANCH  12  17
ATOM     17  O   UNL d   1      -4.904  -1.447  -4.669  0.00  0.00    -0.351 OA
ATOM     18  C   UNL d   1      -5.367  -2.742  -5.016  0.00  0.00     0.210 C 
ENDBRANCH  12  17
BRANCH  13  19
ATOM     19  O   UNL d   1      -4.006   1.165  -4.116  0.00  0.00    -0.353 OA
ATOM     20  C   UNL d   1      -5.271   1.215  -4.769  0.00  0.00     0.210 C 
ENDBRANCH  13  19
ENDBRANCH   3   9
BRANCH   2  21
ATOM     21  C   UNL d   1      -2.316  -2.303   2.981  0.00  0.00     0.175 C 
ATOM     22  O   UNL d   1      -3.164  -2.818   3.690  0.00  0.00    -0.648 OA
BRANCH  21  23
ATOM     23  OXT UNL d   1      -0.993  -2.594   3.075  0.00  0.00    -0.775 OA
ATOM     24  HXT UNL d   1      -0.511  -2.032   2.424  0.00  0.00     0.167 HD
ENDBRANCH  21  23
ENDBRANCH   2  21
TORSDOF 6
