REMARK  5 active torsions:
REMARK  status: ('A' for Active; 'I' for Inactive)
REMARK    1  A    between atoms: C_4  and  C_3 
REMARK    2  A    between atoms: C_19  and  C_5 
REMARK    3  A    between atoms: C_8  and  C_10 
REMARK    4  A    between atoms: O_20  and  C_19 
REMARK    5  A    between atoms: C_21  and  O_20 
ROOT
ATOM      1  N   UNL d   1      -0.104   0.424  -1.105  0.00  0.00    -0.321 N 
ATOM      2  HN  UNL d   1      -0.074   0.783  -2.059  1.00  0.00     0.169 HD
ATOM      3  C   UNL d   1      -0.518  -0.752  -0.680  0.00  0.00     0.182 A 
ATOM      4  C   UNL d   1       0.278   1.047   0.059  0.00  0.00     0.128 A 
ATOM      5  N   UNL d   1       0.134   0.305   1.165  0.00  0.00    -0.245 N 
ATOM      6  HN  UNL d   1       0.353   0.556   2.129  1.00  0.00     0.196 HD
ATOM      7  O   UNL d   1      -0.389  -0.893   0.678  0.00  0.00    -0.217 OA
ENDROOT
BRANCH   4   8
ATOM      8  C   UNL d   1       0.651   2.488   0.104  0.00  0.00     0.254 C 
BRANCH   8   9
ATOM      9  O   UNL d   1       2.066   2.703   0.029  0.00  0.00    -0.344 OA
BRANCH   9  10
ATOM     10  C   UNL d   1       2.474   4.010   0.093  0.00  0.00     0.070 A 
ATOM     11  C   UNL d   1       1.633   5.122   0.185  0.00  0.00     0.052 A 
ATOM     12  C   UNL d   1       2.158   6.424   0.253  0.00  0.00     0.050 A 
ATOM     13  C   UNL d   1       3.549   6.598   0.223  0.00  0.00     0.016 A 
ATOM     14  C   UNL d   1       4.393   5.492   0.127  0.00  0.00     0.004 A 
ATOM     15  C   UNL d   1       3.856   4.205   0.063  0.00  0.00     0.037 A 
BRANCH  12  16
ATOM     16  C   UNL d   1       1.240   7.617   0.358  0.00  0.00     0.417 C 
ATOM     17  F   UNL d   1      -0.081   7.282   0.371  0.00  0.00    -0.166 F 
ATOM     18  F   UNL d   1       1.450   8.340   1.492  0.00  0.00    -0.166 F 
ATOM     19  F   UNL d   1       1.391   8.486  -0.679  0.00  0.00    -0.166 F 
ENDBRANCH  12  16
ENDBRANCH   9  10
ENDBRANCH   8   9
ENDBRANCH   4   8
BRANCH   3  20
ATOM     20  C   UNL d   1      -1.107  -1.790  -1.573  0.00  0.00     0.024 A 
ATOM     21  C   UNL d   1      -1.635  -2.971  -1.099  0.00  0.00     0.065 A 
ATOM     22  S   UNL d   1      -2.264  -3.941  -2.363  0.00  0.00    -0.113 SA
ATOM     23  C   UNL d   1      -1.823  -2.785  -3.546  0.00  0.00     0.050 A 
ATOM     24  C   UNL d   1      -1.217  -1.681  -2.991  0.00  0.00     0.023 A 
ENDBRANCH   3  20
TORSDOF 5
