REMARK  5 active torsions:
REMARK  status: ('A' for Active; 'I' for Inactive)
REMARK    1  A    between atoms: C_3  and  C_1 
REMARK    2  A    between atoms: C_16  and  N_2 
REMARK    3  A    between atoms: C_15  and  C_8 
REMARK    4  A    between atoms: O_21  and  C_11 
REMARK    5  A    between atoms: C_29  and  O_21 
ROOT
ATOM      1  C   UNL d   1      -0.360  -2.796  -0.106  0.00  0.00     0.054 A 
ATOM      2  C   UNL d   1       0.039  -3.550   0.996  0.00  0.00     0.061 A 
ATOM      3  N   UNL d   1      -0.164  -4.894   1.045  0.00  0.00    -0.320 N 
ATOM      4  HN  UNL d   1       0.145  -5.442   1.848  1.00  0.00     0.169 HD
ATOM      5  C   UNL d   1      -0.779  -5.479   0.013  0.00  0.00     0.223 A 
ATOM      6  C   UNL d   1      -0.961  -3.528  -1.125  0.00  0.00     0.109 A 
ATOM      7  N   UNL d   1      -1.203  -4.850  -1.086  0.00  0.00    -0.331 N 
ATOM      8  HN  UNL d   1      -1.679  -5.340  -1.844  1.00  0.00     0.168 HD
ENDROOT
BRANCH   1   9
ATOM      9  C   UNL d   1      -0.117  -1.368  -0.283  0.00  0.00     0.152 C 
ATOM     10  N   UNL d   1      -0.982  -0.424  -0.836  0.00  0.00    -0.224 N 
ATOM     11  N   UNL d   1      -0.272   0.704  -1.077  0.00  0.00     0.001 NA
ATOM     12  N   UNL d   1       0.918   0.510  -0.536  0.00  0.00    -0.007 NA
ATOM     13  N   UNL d   1       1.034  -0.761  -0.053  0.00  0.00    -0.269 N 
ATOM     14  HN  UNL d   1       1.854  -1.165   0.400  1.00  0.00     0.185 HD
BRANCH  10  15
ATOM     15  C   UNL d   1      -2.368  -0.480  -1.123  0.00  0.00     0.056 A 
ATOM     16  C   UNL d   1      -3.230  -1.312  -0.399  0.00  0.00     0.032 A 
ATOM     17  C   UNL d   1      -4.597  -1.323  -0.693  0.00  0.00     0.009 A 
ATOM     18  C   UNL d   1      -5.116  -0.515  -1.711  0.00  0.00    -0.062 A 
ATOM     19  C   UNL d   1      -4.250   0.314  -2.432  0.00  0.00     0.009 A 
ATOM     20  C   UNL d   1      -6.594  -0.493  -1.969  0.00  0.00     0.048 C 
ATOM     21  C   UNL d   1      -2.886   0.343  -2.134  0.00  0.00     0.032 A 
ENDBRANCH  10  15
ENDBRANCH   1   9
BRANCH   2  22
ATOM     22  C   UNL d   1       0.684  -3.031   2.231  0.00  0.00    -0.007 A 
ATOM     23  C   UNL d   1       1.652  -3.809   2.903  0.00  0.00     0.037 A 
ATOM     24  C   UNL d   1       2.237  -3.377   4.093  0.00  0.00     0.035 A 
ATOM     25 CL   UNL d   1       3.389  -4.370   4.895  0.00  0.00    -0.084 Cl
ATOM     26  C   UNL d   1       1.885  -2.150   4.642  0.00  0.00     0.024 A 
ATOM     27  C   UNL d   1       0.933  -1.361   4.007  0.00  0.00     0.003 A 
ATOM     28  C   UNL d   1       0.331  -1.806   2.826  0.00  0.00     0.014 A 
ENDBRANCH   2  22
BRANCH   5  29
ATOM     29  O   UNL d   1      -0.898  -6.846   0.101  0.00  0.00    -0.322 OA
BRANCH  29  30
ATOM     30  C   UNL d   1      -2.033  -7.338  -0.608  0.00  0.00     0.174 C 
ATOM     31  C   UNL d   1      -2.057  -8.849  -0.456  0.00  0.00     0.034 C 
ENDBRANCH  29  30
ENDBRANCH   5  29
TORSDOF 5
