REMARK  5 active torsions:
REMARK  status: ('A' for Active; 'I' for Inactive)
REMARK    1  A    between atoms: N_4  and  C_1 
REMARK    2  A    between atoms: N_6  and  C_1 
REMARK    3  A    between atoms: C_8  and  N_4 
REMARK    4  A    between atoms: C_9  and  N_6 
REMARK    5  A    between atoms: C_11  and  C_9 
ROOT
ATOM      1  N   UNL d   1       5.972  -6.638   1.566  0.00  0.00    -0.191 NA
ATOM      2  C   UNL d   1       5.503  -5.654   1.177  0.00  0.00     0.099 C 
ATOM      3  C   UNL d   1       4.928  -4.437   0.681  0.00  0.00     0.044 A 
ATOM      4  C   UNL d   1       3.781  -2.052  -0.312  0.00  0.00    -0.040 A 
ATOM      5  C   UNL d   1       5.347  -3.914  -0.543  0.00  0.00     0.023 A 
ATOM      6  C   UNL d   1       3.941  -3.766   1.411  0.00  0.00     0.023 A 
ATOM      7  C   UNL d   1       3.371  -2.582   0.919  0.00  0.00     0.010 A 
ATOM      8  C   UNL d   1       4.778  -2.735  -1.033  0.00  0.00     0.010 A 
ENDROOT
BRANCH   4   9
ATOM      9  C   UNL d   1       3.204  -0.803  -0.933  0.00  0.00     0.160 C 
BRANCH   9  10
ATOM     10  N   UNL d   1       2.330  -0.001  -0.101  0.00  0.00    -0.363 N 
ATOM     11  H   UNL d   1       2.735   0.853   0.267  0.00  0.00     0.162 HD
BRANCH  10  12
ATOM     12  C   UNL d   1       0.972  -0.033   0.027  0.00  0.00     0.172 C 
ATOM     13  S   UNL d   1       0.271   1.348   0.662  0.00  0.00    -0.041 SA
BRANCH  12  14
ATOM     14  N   UNL d   1       0.345  -1.178  -0.393  0.00  0.00    -0.333 N 
ATOM     15  H   UNL d   1       0.802  -1.687  -1.136  0.00  0.00     0.168 HD
BRANCH  14  16
ATOM     16  C   UNL d   1      -0.902  -1.711   0.012  0.00  0.00     0.034 A 
ATOM     17  C   UNL d   1      -1.528  -2.637  -0.835  0.00  0.00     0.032 A 
ATOM     18  C   UNL d   1      -2.722  -3.255  -0.450  0.00  0.00     0.044 A 
ATOM     19  C   UNL d   1      -3.277  -2.966   0.790  0.00  0.00     0.116 A 
ATOM     20  C   UNL d   1      -2.667  -2.061   1.646  0.00  0.00     0.044 A 
ATOM     21  F   UNL d   1      -4.403  -3.581   1.173  0.00  0.00    -0.206 F 
ATOM     22  C   UNL d   1      -1.480  -1.436   1.256  0.00  0.00     0.032 A 
ENDBRANCH  14  16
ENDBRANCH  12  14
ENDBRANCH  10  12
ENDBRANCH   9  10
ENDBRANCH   4   9
TORSDOF 5
