REMARK  2 active torsions:
REMARK  status: ('A' for Active; 'I' for Inactive)
REMARK    1  A    between atoms: C_7  and  C_3 
REMARK    2  A    between atoms: C_9  and  C_4 
ROOT
ATOM      1  N   UNL d   1       1.293   0.203  -0.059  0.00  0.00    -0.318 N 
ATOM      2  HN  UNL d   1       2.298   0.375  -0.104  1.00  0.00     0.169 HD
ATOM      3  C   UNL d   1       0.267   1.123  -0.045  0.00  0.00     0.141 A 
ATOM      4  C   UNL d   1       0.665  -0.948   0.000  0.00  0.00     0.183 A 
ATOM      5  N   UNL d   1      -0.953   0.563  -0.008  0.00  0.00    -0.242 N 
ATOM      6  HN  UNL d   1      -1.859   1.031  -0.003  1.00  0.00     0.196 HD
ATOM      7  O   UNL d   1      -0.693  -0.805   0.022  0.00  0.00    -0.217 OA
ENDROOT
BRANCH   3   8
ATOM      8  C   UNL d   1       0.534   2.555  -0.073  0.00  0.00     0.049 A 
ATOM      9  C   UNL d   1      -0.490   3.508  -0.018  0.00  0.00     0.133 A 
ATOM     10  C   UNL d   1      -0.212   4.874  -0.045  0.00  0.00     0.085 A 
ATOM     11  F   UNL d   1      -1.778   3.142   0.068  0.00  0.00    -0.205 F 
ATOM     12  C   UNL d   1       1.106   5.297  -0.129  0.00  0.00     0.119 A 
ATOM     13  C   UNL d   1       2.148   4.380  -0.182  0.00  0.00     0.043 A 
ATOM     14  F   UNL d   1       1.378   6.607  -0.158  0.00  0.00    -0.206 F 
ATOM     15  C   UNL d   1       1.864   3.012  -0.153  0.00  0.00     0.021 A 
ENDBRANCH   3   8
BRANCH   4  16
ATOM     16  C   UNL d   1       1.180  -2.310   0.044  0.00  0.00     0.039 A 
ATOM     17  C   UNL d   1       2.404  -2.632   0.656  0.00  0.00     0.048 A 
ATOM     18 CL   UNL d   1       3.382  -1.464   1.480  0.00  0.00    -0.083 Cl
ATOM     19  C   UNL d   1       2.875  -3.951   0.655  0.00  0.00     0.025 A 
ATOM     20  C   UNL d   1       2.136  -4.965   0.047  0.00  0.00     0.002 A 
ATOM     21  C   UNL d   1       0.921  -4.665  -0.558  0.00  0.00     0.001 A 
ATOM     22  C   UNL d   1       0.446  -3.351  -0.559  0.00  0.00     0.017 A 
ENDBRANCH   4  16
TORSDOF 2
