REMARK  5 active torsions:
REMARK  status: ('A' for Active; 'I' for Inactive)
REMARK    1  A    between atoms: C_9  and  C_1 
REMARK    2  A    between atoms: N_15  and  C_3 
REMARK    3  A    between atoms: C_12  and  C_6 
REMARK       I    between atoms: N_18  and  C_9 
REMARK    4  A    between atoms: C_14  and  C_10 
REMARK    5  A    between atoms: N_24  and  N_18 
ROOT
ATOM      1  C   UNL d   1       2.352   0.124  -0.025  0.00  0.00     0.173 A 
ATOM      2  C   UNL d   1       0.228   0.913   0.035  0.00  0.00     0.058 A 
ATOM      3  C   UNL d   1       1.602   1.283  -0.041  0.00  0.00     0.081 A 
ATOM      4  C   UNL d   1       0.234  -0.481   0.027  0.00  0.00     0.162 A 
ATOM      5  O   UNL d   1       1.511  -0.956   0.018  0.00  0.00    -0.285 OA
ATOM      6  C   UNL d   1      -1.035   1.534   0.080  0.00  0.00     0.017 A 
ATOM      7  N   UNL d   1      -0.826  -1.308   0.015  0.00  0.00    -0.335 N 
ATOM      8  HN  UNL d   1      -0.733  -2.324   0.022  1.00  0.00     0.168 HD
ATOM      9  C   UNL d   1      -2.025  -0.684  -0.007  0.00  0.00     0.045 A 
ATOM     10  C   UNL d   1      -2.165   0.704   0.048  0.00  0.00     0.045 A 
ENDROOT
BRANCH   1  11
ATOM     11  C   UNL d   1       3.780  -0.097  -0.056  0.00  0.00     0.291 C 
ATOM     12  O   UNL d   1       4.622   0.802  -0.114  0.00  0.00    -0.264 OA
ATOM     13  N   UNL d   1       4.152  -1.441  -0.003  0.00  0.00    -0.288 N 
ATOM     14  H   UNL d   1       3.426  -2.141   0.149  0.00  0.00     0.183 HD
BRANCH  13  15
ATOM     15  N   UNL d   1       5.517  -1.807   0.068  0.00  0.00    -0.247 NA
ATOM     16  H   UNL d   1       6.055  -0.935   0.173  0.00  0.00     0.143 HD
ATOM     17  H   UNL d   1       5.794  -2.163  -0.850  0.00  0.00     0.143 HD
ENDBRANCH  13  15
ENDBRANCH   1  11
BRANCH   3  18
ATOM     18  N   UNL d   1       2.098   2.533  -0.131  0.00  0.00    -0.396 N 
ATOM     19  H   UNL d   1       1.511   3.339   0.083  0.00  0.00     0.156 HD
ATOM     20  H   UNL d   1       3.098   2.715  -0.035  0.00  0.00     0.156 HD
ENDBRANCH   3  18
BRANCH   6  21
ATOM     21  C   UNL d   1      -1.179   2.980   0.139  0.00  0.00     0.086 A 
ATOM     22  O   UNL d   1      -0.254   3.664   0.876  0.00  0.00    -0.322 OA
ATOM     23  C   UNL d   1      -0.593   4.978   0.838  0.00  0.00     0.142 A 
ATOM     24  C   UNL d   1      -1.731   5.157   0.091  0.00  0.00     0.027 A 
ATOM     25  C   UNL d   1      -2.118   3.868  -0.350  0.00  0.00     0.040 A 
ENDBRANCH   6  21
BRANCH   9  26
ATOM     26  C   UNL d   1      -3.202  -1.575  -0.113  0.00  0.00    -0.009 A 
ATOM     27  C   UNL d   1      -3.227  -2.827   0.532  0.00  0.00     0.015 A 
ATOM     28  C   UNL d   1      -4.334  -3.678   0.429  0.00  0.00     0.024 A 
ATOM     29  C   UNL d   1      -5.435  -3.293  -0.329  0.00  0.00     0.034 A 
ATOM     30  C   UNL d   1      -5.439  -2.067  -0.984  0.00  0.00     0.024 A 
ATOM     31 CL   UNL d   1      -6.794  -4.339  -0.466  0.00  0.00    -0.084 Cl
ATOM     32  C   UNL d   1      -4.331  -1.219  -0.877  0.00  0.00     0.015 A 
ENDBRANCH   9  26
TORSDOF 5
