REMARK  5 active torsions:
REMARK  status: ('A' for Active; 'I' for Inactive)
REMARK    1  A    between atoms: C_13  and  N_1 
REMARK    2  A    between atoms: C_7  and  C_2 
REMARK    3  A    between atoms: O_15  and  C_8 
REMARK    4  A    between atoms: O_17  and  C_9 
REMARK    5  A    between atoms: O_16  and  C_10 
ROOT
ATOM      1  N   UNL d   1       0.836  -0.601  -0.400  0.00  0.00    -0.271 N 
ATOM      2  C   UNL d   1       0.885   0.720   0.024  0.00  0.00     0.140 A 
ATOM      3  N   UNL d   1      -0.237   1.169   0.512  0.00  0.00    -0.282 N 
ATOM      4  HN  UNL d   1      -0.422   2.092   0.905  1.00  0.00     0.188 HD
ATOM      5  C   UNL d   1      -0.480  -0.979  -0.171  0.00  0.00     0.199 A 
ATOM      6  N   UNL d   1      -1.107   0.132   0.380  0.00  0.00    -0.274 N 
ATOM      7  S   UNL d   1      -1.301  -2.411  -0.355  0.00  0.00    -0.039 SA
ATOM      8  H   UNL d   1      -2.063   0.187   0.708  0.00  0.00     0.189 HD
ENDROOT
BRANCH   2   9
ATOM      9  C   UNL d   1       2.061   1.609  -0.103  0.00  0.00     0.015 A 
ATOM     10  C   UNL d   1       2.879   1.568  -1.236  0.00  0.00     0.055 A 
ATOM     11  C   UNL d   1       4.039   2.350  -1.322  0.00  0.00     0.105 A 
ATOM     12  C   UNL d   1       4.333   3.275  -0.295  0.00  0.00     0.135 A 
ATOM     13  C   UNL d   1       3.428   3.402   0.784  0.00  0.00     0.105 A 
ATOM     14  C   UNL d   1       2.321   2.550   0.887  0.00  0.00     0.055 A 
BRANCH  11  15
ATOM     15  O   UNL d   1       4.896   2.249  -2.387  0.00  0.00    -0.353 OA
ATOM     16  C   UNL d   1       4.712   1.181  -3.311  0.00  0.00     0.210 C 
ENDBRANCH  11  15
BRANCH  12  17
ATOM     17  O   UNL d   1       5.448   4.068  -0.212  0.00  0.00    -0.351 OA
ATOM     18  C   UNL d   1       6.471   3.982  -1.189  0.00  0.00     0.210 C 
ENDBRANCH  12  17
BRANCH  13  19
ATOM     19  O   UNL d   1       3.541   4.272   1.845  0.00  0.00    -0.353 OA
ATOM     20  C   UNL d   1       4.068   5.563   1.551  0.00  0.00     0.210 C 
ENDBRANCH  13  19
ENDBRANCH   2   9
BRANCH   1  21
ATOM     21  C   UNL d   1       1.897  -1.437  -0.856  0.00  0.00     0.043 A 
ATOM     22  C   UNL d   1       3.189  -1.334  -0.317  0.00  0.00     0.030 A 
ATOM     23  C   UNL d   1       4.251  -2.091  -0.829  0.00  0.00     0.002 A 
ATOM     24  C   UNL d   1       4.031  -2.994  -1.862  0.00  0.00     0.000 A 
ATOM     25  C   UNL d   1       2.751  -3.142  -2.384  0.00  0.00     0.002 A 
ATOM     26  C   UNL d   1       1.696  -2.363  -1.890  0.00  0.00     0.030 A 
ENDBRANCH   1  21
TORSDOF 5
