REMARK  3 active torsions:
REMARK  status: ('A' for Active; 'I' for Inactive)
REMARK    1  A    between atoms: C_10  and  C_3 
REMARK       I    between atoms: C_9  and  N_8 
REMARK       I    between atoms: N_13  and  C_9 
REMARK    2  A    between atoms: C_19  and  N_13 
REMARK    3  A    between atoms: C_14  and  C_15 
ROOT
ATOM      1  S   UNL d   1       1.405   6.740   1.469  0.00  0.00    -0.037 SA
ATOM      2  C   UNL d   1       1.673   5.119   1.008  0.00  0.00     0.169 A 
ATOM      3  C   UNL d   1      -0.122   6.619   0.692  0.00  0.00     0.074 A 
ATOM      4  N   UNL d   1      -0.368   5.434   0.176  0.00  0.00    -0.296 N 
ATOM      5  HN  UNL d   1      -1.242   5.185  -0.287  1.00  0.00     0.187 HD
ATOM      6  N   UNL d   1       0.697   4.562   0.335  0.00  0.00    -0.279 N 
ATOM      7  HN  UNL d   1       0.719   3.609  -0.027  1.00  0.00     0.189 HD
ATOM      8  N   UNL d   1       2.870   4.593   1.381  0.00  0.00    -0.287 N 
ATOM      9  C   UNL d   1       3.330   3.332   1.129  0.00  0.00     0.326 C 
ATOM     10  N   UNL d   1       2.595   2.558   0.271  0.00  0.00    -0.309 N 
ATOM     11  O   UNL d   1       4.380   3.001   1.676  0.00  0.00    -0.247 OA
ATOM     12  H   UNL d   1       3.469   5.149   1.979  0.00  0.00     0.172 HD
ATOM     13  H   UNL d   1       1.809   3.015  -0.179  0.00  0.00     0.170 HD
ENDROOT
BRANCH  10  14
ATOM     14  C   UNL d   1       2.760   1.187  -0.019  0.00  0.00     0.036 A 
ATOM     15  C   UNL d   1       3.657   0.350   0.637  0.00  0.00     0.030 A 
ATOM     16  C   UNL d   1       3.631  -1.034   0.416  0.00  0.00     0.010 A 
ATOM     17  C   UNL d   1       2.704  -1.625  -0.462  0.00  0.00    -0.051 A 
ATOM     18  C   UNL d   1       1.894  -0.756  -1.206  0.00  0.00     0.010 A 
ATOM     19  C   UNL d   1       1.912   0.627  -0.979  0.00  0.00     0.030 A 
BRANCH  17  20
ATOM     20  C   UNL d   1       2.529  -3.154  -0.490  0.00  0.00    -0.024 C 
ATOM     21  C   UNL d   1       1.378  -3.632  -1.404  0.00  0.00     0.019 C 
ATOM     22  C   UNL d   1       3.818  -3.855  -0.961  0.00  0.00     0.019 C 
ATOM     23  C   UNL d   1       2.189  -3.632   0.943  0.00  0.00     0.019 C 
ENDBRANCH  17  20
ENDBRANCH  10  14
BRANCH   3  24
ATOM     24  C   UNL d   1      -1.154   7.743   0.557  0.00  0.00     0.044 A 
ATOM     25  C   UNL d   1      -0.686   9.137   0.190  0.00  0.00     0.012 A 
ATOM     26  C   UNL d   1      -1.228   8.879   1.555  0.00  0.00     0.012 A 
ENDBRANCH   3  24
TORSDOF 3
