REMARK  3 active torsions:
REMARK  status: ('A' for Active; 'I' for Inactive)
REMARK    1  A    between atoms: C_8  and  C_3 
REMARK    2  A    between atoms: C_10  and  C_4 
REMARK    3  A    between atoms: C_11  and  C_10 
ROOT
ATOM      1  N   UNL d   1       1.342  -1.092   0.042  0.00  0.00    -0.297 N 
ATOM      2  HN  UNL d   1       1.901  -1.944   0.090  1.00  0.00     0.187 HD
ATOM      3  C   UNL d   1       1.899   0.084   0.062  0.00  0.00     0.066 A 
ATOM      4  C   UNL d   1      -0.227   1.271  -0.034  0.00  0.00     0.018 A 
ATOM      5  N   UNL d   1      -0.021  -1.141  -0.047  0.00  0.00    -0.266 N 
ATOM      6  C   UNL d   1       1.109   1.342   0.031  0.00  0.00     0.045 A 
ATOM      7  C   UNL d   1      -0.869  -0.064  -0.111  0.00  0.00     0.266 A 
ATOM      8  O   UNL d   1      -2.082  -0.194  -0.230  0.00  0.00    -0.266 OA
ATOM      9  H   UNL d   1      -0.439  -2.065  -0.101  0.00  0.00     0.190 HD
ENDROOT
BRANCH   4  10
ATOM     10  C   UNL d   1      -1.112   2.481  -0.080  0.00  0.00     0.083 C 
BRANCH  10  11
ATOM     11  C   UNL d   1      -1.549   2.924   1.289  0.00  0.00    -0.047 A 
ATOM     12  C   UNL d   1      -0.829   3.768   2.118  0.00  0.00     0.056 A 
ATOM     13  S   UNL d   1      -1.624   4.083   3.598  0.00  0.00    -0.113 SA
ATOM     14  C   UNL d   1      -2.949   3.100   3.157  0.00  0.00     0.050 A 
ATOM     15  C   UNL d   1      -2.783   2.539   1.911  0.00  0.00     0.015 A 
ENDBRANCH  10  11
ENDBRANCH   4  10
BRANCH   3  16
ATOM     16  C   UNL d   1       3.354   0.147   0.141  0.00  0.00     0.033 A 
ATOM     17  S   UNL d   1       4.239   1.492  -0.456  0.00  0.00    -0.100 SA
ATOM     18  C   UNL d   1       5.737   0.802  -0.017  0.00  0.00     0.050 A 
ATOM     19  C   UNL d   1       5.582  -0.436   0.563  0.00  0.00     0.008 A 
ATOM     20  C   UNL d   1       4.212  -0.821   0.638  0.00  0.00     0.021 A 
ENDBRANCH   3  16
TORSDOF 3
