REMARK  10 active torsions:
REMARK  status: ('A' for Active; 'I' for Inactive)
REMARK    1  A    between atoms: C_10  and  N_2 
REMARK    2  A    between atoms: C_11  and  N_3 
REMARK    3  A    between atoms: S_7  and  C_4 
REMARK    4  A    between atoms: C_8  and  C_5 
REMARK    5  A    between atoms: C_15  and  S_7 
REMARK    6  A    between atoms: O_17  and  C_8 
REMARK    7  A    between atoms: C_13  and  C_15 
REMARK    8  A    between atoms: O_18  and  C_13 
REMARK    9  A    between atoms: C_23  and  O_17 
REMARK   10  A    between atoms: C_24  and  O_18 
ROOT
ATOM      1  C   UNL d   1      -0.750   1.279  -0.320  0.00  0.00     0.194 C 
ATOM      2  N   UNL d   1      -1.463   0.024  -0.266  0.00  0.00    -0.281 N 
ATOM      3  N   UNL d   1       0.652   1.187  -0.148  0.00  0.00    -0.254 N 
ATOM      4  C   UNL d   1      -0.761  -1.222  -0.286  0.00  0.00     0.101 C 
ATOM      5  C   UNL d   1       0.584  -1.251  -0.256  0.00  0.00     0.141 C 
ATOM      6  C   UNL d   1       1.361  -0.001  -0.211  0.00  0.00     0.273 C 
ATOM      7  S   UNL d   1      -1.501   2.768  -0.724  0.00  0.00    -0.039 SA
ATOM      8  O   UNL d   1       2.590  -0.072  -0.269  0.00  0.00    -0.266 OA
ENDROOT
BRANCH   4   9
ATOM      9  S   UNL d   1      -1.703  -2.701  -0.491  0.00  0.00    -0.101 SA
BRANCH   9  10
ATOM     10  C   UNL d   1      -1.284  -3.837   0.836  0.00  0.00     0.191 C 
BRANCH  10  11
ATOM     11  C   UNL d   1      -1.720  -3.390   2.206  0.00  0.00     0.268 C 
ATOM     12  O   UNL d   1      -1.803  -2.236   2.600  0.00  0.00    -0.264 OA
BRANCH  11  13
ATOM     13  O   UNL d   1      -1.870  -4.504   2.987  0.00  0.00    -0.321 OA
BRANCH  13  14
ATOM     14  C   UNL d   1      -2.029  -4.277   4.393  0.00  0.00     0.174 C 
ATOM     15  C   UNL d   1      -0.665  -4.049   5.018  0.00  0.00     0.034 C 
ENDBRANCH  13  14
ENDBRANCH  11  13
ENDBRANCH  10  11
ENDBRANCH   9  10
ENDBRANCH   4   9
BRANCH   2  16
ATOM     16  C   UNL d   1      -2.913   0.094  -0.146  0.00  0.00     0.042 A 
ATOM     17  C   UNL d   1      -3.767  -0.486  -1.095  0.00  0.00     0.030 A 
ATOM     18  C   UNL d   1      -5.157  -0.389  -0.964  0.00  0.00     0.002 A 
ATOM     19  C   UNL d   1      -5.712   0.338   0.085  0.00  0.00     0.000 A 
ATOM     20  C   UNL d   1      -4.880   0.947   1.021  0.00  0.00     0.002 A 
ATOM     21  C   UNL d   1      -3.493   0.804   0.920  0.00  0.00     0.030 A 
ENDBRANCH   2  16
BRANCH   5  22
ATOM     22  C   UNL d   1       1.399  -2.487  -0.234  0.00  0.00     0.301 C 
ATOM     23  O   UNL d   1       1.394  -3.361  -1.083  0.00  0.00    -0.259 OA
BRANCH  22  24
ATOM     24  O   UNL d   1       2.100  -2.485   0.928  0.00  0.00    -0.318 OA
BRANCH  24  25
ATOM     25  C   UNL d   1       3.069  -3.522   1.126  0.00  0.00     0.174 C 
ATOM     26  C   UNL d   1       2.992  -3.928   2.585  0.00  0.00     0.034 C 
ENDBRANCH  24  25
ENDBRANCH  22  24
ENDBRANCH   5  22
BRANCH   3  27
ATOM     27  C   UNL d   1       1.460   2.374  -0.025  0.00  0.00     0.045 A 
ATOM     28  C   UNL d   1       2.412   2.688  -1.002  0.00  0.00     0.030 A 
ATOM     29  C   UNL d   1       3.226   3.813  -0.860  0.00  0.00     0.002 A 
ATOM     30  C   UNL d   1       3.110   4.620   0.270  0.00  0.00     0.000 A 
ATOM     31  C   UNL d   1       2.174   4.305   1.258  0.00  0.00     0.002 A 
ATOM     32  C   UNL d   1       1.347   3.189   1.112  0.00  0.00     0.030 A 
ENDBRANCH   3  27
TORSDOF 10
