REMARK  5 active torsions:
REMARK  status: ('A' for Active; 'I' for Inactive)
REMARK    1  A    between atoms: N_6  and  C_3 
REMARK    2  A    between atoms: N_16  and  C_4 
REMARK    3  A    between atoms: C_11  and  N_6 
REMARK    4  A    between atoms: O_19  and  C_12 
REMARK    5  A    between atoms: O_20  and  C_17 
ROOT
ATOM      1  N   UNL d   1       5.204   1.562   0.906  0.00  0.00    -0.180 N 
ATOM      2  HN  UNL d   1       5.931   1.016   0.445  1.00  0.00     0.185 HD
ATOM      3  C   UNL d   1       3.935   1.119   0.942  0.00  0.00     0.683 A 
ATOM      4  C   UNL d   1       5.497   2.736   1.486  0.00  0.00     0.116 A 
ATOM      5  C   UNL d   1       4.533   3.511   2.091  0.00  0.00     0.099 A 
ATOM      6  N   UNL d   1       2.940   1.792   1.537  0.00  0.00    -0.200 N 
ATOM      7  HN  UNL d   1       1.988   1.426   1.567  1.00  0.00     0.183 HD
ATOM      8  C   UNL d   1       4.805   4.780   2.677  0.00  0.00     0.104 C 
ATOM      9  N   UNL d   1       5.006   5.808   3.173  0.00  0.00    -0.191 NA
ATOM     10  C   UNL d   1       3.263   2.980   2.096  0.00  0.00     0.132 A 
ENDROOT
BRANCH   4  11
ATOM     11  N   UNL d   1       6.830   3.123   1.372  0.00  0.00    -0.287 NA
ATOM     12  H   UNL d   1       7.339   2.363   0.920  0.00  0.00     0.125 HD
ATOM     13  H   UNL d   1       7.261   3.391   2.251  0.00  0.00     0.125 HD
ENDBRANCH   4  11
BRANCH   3  14
ATOM     14  N   UNL d   1       3.602  -0.085   0.315  0.00  0.00    -0.189 N 
ATOM     15  H   UNL d   1       2.671  -0.357   0.602  0.00  0.00     0.184 HD
BRANCH  14  16
ATOM     16  C   UNL d   1       4.466  -1.173   0.076  0.00  0.00     0.082 A 
ATOM     17  C   UNL d   1       4.338  -2.028  -1.035  0.00  0.00     0.098 A 
ATOM     18  C   UNL d   1       5.223  -3.117  -1.183  0.00  0.00     0.075 A 
ATOM     19  C   UNL d   1       6.214  -3.387  -0.242  0.00  0.00     0.070 A 
ATOM     20  C   UNL d   1       6.326  -2.561   0.868  0.00  0.00     0.039 A 
ATOM     21  C   UNL d   1       5.460  -1.480   1.028  0.00  0.00     0.036 A 
BRANCH  17  22
ATOM     22  O   UNL d   1       3.455  -1.965  -2.082  0.00  0.00    -0.354 OA
ATOM     23  C   UNL d   1       2.558  -0.876  -2.201  0.00  0.00     0.210 C 
ENDBRANCH  17  22
BRANCH  19  24
ATOM     24  O   UNL d   1       7.116  -4.412  -0.284  0.00  0.00    -0.356 OA
ATOM     25  C   UNL d   1       7.015  -5.310  -1.381  0.00  0.00     0.210 C 
ENDBRANCH  19  24
ENDBRANCH  14  16
ENDBRANCH   3  14
TORSDOF 5
