REMARK  3 active torsions:
REMARK  status: ('A' for Active; 'I' for Inactive)
REMARK    1  A    between atoms: C_8  and  N_1 
REMARK    2  A    between atoms: C_7  and  C_2 
REMARK    3  A    between atoms: N_13  and  C_9 
ROOT
ATOM      1  N   UNL d   1      -0.148  -1.352  -0.099  0.00  0.00    -0.225 N 
ATOM      2  C   UNL d   1       1.061  -0.678   0.073  0.00  0.00     0.139 C 
ATOM      3  N   UNL d   1      -0.519   0.750  -0.261  0.00  0.00    -0.007 NA
ATOM      4  N   UNL d   1      -1.086  -0.432  -0.440  0.00  0.00     0.001 NA
ATOM      5  N   UNL d   1       0.802   0.617   0.065  0.00  0.00    -0.270 N 
ATOM      6  HN  UNL d   1       1.460   1.371   0.262  1.00  0.00     0.185 HD
ENDROOT
BRANCH   1   7
ATOM      7  C   UNL d   1      -0.516  -2.709   0.108  0.00  0.00     0.057 A 
ATOM      8  C   UNL d   1       0.209  -3.529   0.985  0.00  0.00     0.043 A 
ATOM      9  C   UNL d   1      -0.218  -4.838   1.264  0.00  0.00    -0.024 A 
ATOM     10  C   UNL d   1       0.471  -5.648   2.179  0.00  0.00     0.012 A 
ATOM     11  C   UNL d   1      -1.381  -5.341   0.635  0.00  0.00    -0.026 A 
ATOM     12  C   UNL d   1       0.020  -6.934   2.477  0.00  0.00     0.001 A 
ATOM     13  C   UNL d   1      -1.122  -7.431   1.857  0.00  0.00     0.001 A 
ATOM     14  C   UNL d   1      -1.816  -6.642   0.937  0.00  0.00     0.012 A 
ATOM     15  C   UNL d   1      -2.088  -4.519  -0.257  0.00  0.00     0.014 A 
ATOM     16  C   UNL d   1      -1.671  -3.209  -0.505  0.00  0.00     0.032 A 
ENDBRANCH   1   7
BRANCH   2  17
ATOM     17  C   UNL d   1       2.305  -1.358   0.107  0.00  0.00     0.068 C 
ATOM     18  C   UNL d   1       3.373  -0.822   0.713  0.00  0.00     0.088 C 
BRANCH  18  19
ATOM     19  N   UNL d   1       4.664  -1.320   0.828  0.00  0.00    -0.398 N 
ATOM     20  C   UNL d   1       5.162  -2.510   0.139  0.00  0.00     0.148 C 
ATOM     21  C   UNL d   1       5.697  -0.599   1.576  0.00  0.00     0.148 C 
ENDBRANCH  18  19
ENDBRANCH   2  17
TORSDOF 3
