REMARK  5 active torsions:
REMARK  status: ('A' for Active; 'I' for Inactive)
REMARK    1  A    between atoms: C_9  and  N_1 
REMARK    2  A    between atoms: C_6  and  C_2 
REMARK    3  A    between atoms: C_4  and  C_8 
REMARK    4  A    between atoms: O_18  and  C_6 
REMARK    5  A    between atoms: C_17  and  C_9 
ROOT
ATOM      1  C   UNL d   1       0.392  -2.364  -0.022  0.00  0.00     0.164 C 
ENDROOT
BRANCH   1   2
ATOM      2  N   UNL d   1       0.002  -0.971   0.066  0.00  0.00    -0.347 N 
ATOM      3  C   UNL d   1      -0.682  -0.295  -0.926  0.00  0.00     0.221 C 
ATOM      4  C   UNL d   1      -0.967   1.098  -0.422  0.00  0.00     0.119 C 
ATOM      5  O   UNL d   1      -0.985  -0.712  -2.029  0.00  0.00    -0.273 OA
ATOM      6  C   UNL d   1      -0.824   0.959   1.092  0.00  0.00     0.110 C 
ATOM      7  C   UNL d   1       0.169  -0.184   1.263  0.00  0.00     0.141 C 
BRANCH   6   8
ATOM      8  C   UNL d   1      -2.157   0.645   1.742  0.00  0.00     0.145 C 
ATOM      9  O   UNL d   1      -2.433  -0.399   2.308  0.00  0.00    -0.650 OA
BRANCH   8  10
ATOM     10  O   UNL d   1      -3.034   1.675   1.683  0.00  0.00    -0.776 OA
ATOM     11  H   UNL d   1      -2.712   2.476   1.230  0.00  0.00     0.167 HD
ENDBRANCH   8  10
ENDBRANCH   6   8
ENDBRANCH   1   2
BRANCH   1  12
ATOM     12  C   UNL d   1       1.884  -2.581   0.040  0.00  0.00    -0.040 A 
ATOM     13  C   UNL d   1       2.534  -2.743   1.272  0.00  0.00     0.009 A 
ATOM     14  C   UNL d   1       3.902  -3.029   1.323  0.00  0.00     0.017 A 
ATOM     15  C   UNL d   1       4.648  -3.159   0.143  0.00  0.00     0.047 A 
ATOM     16  C   UNL d   1       4.005  -2.956  -1.087  0.00  0.00     0.017 A 
ATOM     17  C   UNL d   1       2.639  -2.663  -1.137  0.00  0.00     0.009 A 
BRANCH  15  18
ATOM     18  C   UNL d   1       6.109  -3.537   0.179  0.00  0.00     0.417 C 
ATOM     19  F   UNL d   1       6.599  -3.705   1.440  0.00  0.00    -0.166 F 
ATOM     20  F   UNL d   1       6.361  -4.705  -0.475  0.00  0.00    -0.166 F 
ATOM     21  F   UNL d   1       6.907  -2.602  -0.407  0.00  0.00    -0.166 F 
ENDBRANCH  15  18
ENDBRANCH   1  12
TORSDOF 5
