REMARK  2 active torsions:
REMARK  status: ('A' for Active; 'I' for Inactive)
REMARK    1  A    between atoms: C_2  and  C_1 
REMARK    2  A    between atoms: C_12  and  N_3 
ROOT
ATOM      1  C   UNL d   1      -0.406  -1.955  -0.502  0.00  0.00     0.151 C 
ATOM      2  N   UNL d   1       0.757  -1.400   0.021  0.00  0.00    -0.224 N 
ATOM      3  N   UNL d   1       0.504  -0.086   0.271  0.00  0.00     0.001 NA
ATOM      4  N   UNL d   1      -0.639   0.183  -0.334  0.00  0.00    -0.007 NA
ATOM      5  N   UNL d   1      -1.189  -0.946  -0.860  0.00  0.00    -0.269 N 
ATOM      6  HN  UNL d   1      -2.038  -1.004  -1.421  1.00  0.00     0.185 HD
ENDROOT
BRANCH   1   7
ATOM      7  C   UNL d   1      -0.930  -3.349  -0.527  0.00  0.00     0.038 C 
ATOM      8  C   UNL d   1      -0.721  -4.465   0.348  0.00  0.00     0.006 A 
ATOM      9  C   UNL d   1      -1.803  -5.328   0.124  0.00  0.00     0.043 A 
ATOM     10  C   UNL d   1       0.168  -4.802   1.398  0.00  0.00     0.021 A 
ATOM     11  C   UNL d   1      -2.122  -6.394   0.969  0.00  0.00     0.031 A 
ATOM     12  N   UNL d   1      -2.458  -4.893  -1.003  0.00  0.00    -0.364 N 
ATOM     13  C   UNL d   1      -1.257  -6.666   2.027  0.00  0.00     0.009 A 
ATOM     14  C   UNL d   1      -0.081  -5.934   2.202  0.00  0.00    -0.061 A 
ATOM     15  C   UNL d   1       0.869  -6.322   3.299  0.00  0.00     0.048 C 
ATOM     16  C   UNL d   1      -1.963  -3.682  -1.385  0.00  0.00     0.104 C 
ATOM     17  H   UNL d   1      -3.254  -5.356  -1.420  0.00  0.00     0.165 HD
ENDBRANCH   1   7
BRANCH   2  18
ATOM     18  C   UNL d   1       2.083  -1.887   0.099  0.00  0.00     0.056 A 
ATOM     19  C   UNL d   1       2.466  -3.052  -0.572  0.00  0.00     0.032 A 
ATOM     20  C   UNL d   1       3.808  -3.445  -0.568  0.00  0.00     0.009 A 
ATOM     21  C   UNL d   1       4.777  -2.683   0.095  0.00  0.00    -0.062 A 
ATOM     22  C   UNL d   1       4.388  -1.522   0.767  0.00  0.00     0.009 A 
ATOM     23  C   UNL d   1       6.218  -3.103   0.051  0.00  0.00     0.048 C 
ATOM     24  C   UNL d   1       3.048  -1.127   0.769  0.00  0.00     0.032 A 
ENDBRANCH   2  18
TORSDOF 2
