REMARK  2 active torsions:
REMARK  status: ('A' for Active; 'I' for Inactive)
REMARK    1  A    between atoms: S_10  and  C_7 
REMARK    2  A    between atoms: N_11  and  C_8 
ROOT
ATOM      1  N   UNL d   1      -1.149   1.071   0.080  0.00  0.00    -0.313 N 
ATOM      2  HN  UNL d   1      -2.035   1.575   0.094  1.00  0.00     0.170 HD
ATOM      3  N   UNL d   1       1.211   1.087  -0.032  0.00  0.00    -0.327 N 
ATOM      4  HN  UNL d   1       2.090   1.602  -0.090  1.00  0.00     0.169 HD
ATOM      5  N   UNL d   1       0.035  -0.955   0.083  0.00  0.00    -0.323 N 
ATOM      6  HN  UNL d   1       0.036  -1.975   0.099  1.00  0.00     0.169 HD
ATOM      7  C   UNL d   1       0.025   1.691   0.008  0.00  0.00     0.147 A 
ATOM      8  C   UNL d   1      -1.083  -0.247   0.133  0.00  0.00     0.158 A 
ATOM      9  C   UNL d   1       1.158  -0.243   0.010  0.00  0.00     0.081 A 
ATOM     10  C   UNL d   1       2.455  -0.989  -0.012  0.00  0.00     0.089 C 
ENDROOT
BRANCH   8  11
ATOM     11  N   UNL d   1      -2.272  -0.941   0.213  0.00  0.00    -0.274 NA
ATOM     12  H   UNL d   1      -2.166  -1.875  -0.157  0.00  0.00     0.127 HD
ATOM     13  H   UNL d   1      -3.033  -0.381  -0.143  0.00  0.00     0.127 HD
ENDBRANCH   8  11
BRANCH   7  14
ATOM     14  S   UNL d   1      -0.046   3.470  -0.046  0.00  0.00    -0.098 SA
ATOM     15  C   UNL d   1       1.716   3.878  -0.031  0.00  0.00     0.099 C 
ENDBRANCH   7  14
TORSDOF 2
