REMARK  6 active torsions:
REMARK  status: ('A' for Active; 'I' for Inactive)
REMARK    1  A    between atoms: C_5  and  C_1 
REMARK    2  A    between atoms: C_11  and  C_6 
REMARK    3  A    between atoms: O_20  and  C_8 
REMARK    4  A    between atoms: O_22  and  C_14 
REMARK    5  A    between atoms: O_23  and  C_16 
REMARK    6  A    between atoms: O_24  and  C_19 
ROOT
ATOM      1  C   UNL d   1      -1.512   1.836  -0.038  0.00  0.00     0.024 C 
ATOM      2  N   UNL d   1      -0.343   1.755  -0.604  0.00  0.00    -0.358 N 
ATOM      3  HN  UNL d   1      -0.111   2.404  -1.356  1.00  0.00     0.166 HD
ATOM      4  S   UNL d   1      -1.186  -1.347  -0.554  0.00  0.00    -0.118 SA
ATOM      5  C   UNL d   1      -2.351  -0.504   0.597  0.00  0.00     0.091 C 
ATOM      6  C   UNL d   1      -1.970   0.904   1.076  0.00  0.00     0.078 C 
ATOM      7  C   UNL d   1       0.609   0.797  -0.211  0.00  0.00     0.049 A 
ATOM      8  C   UNL d   1       0.372  -0.590  -0.129  0.00  0.00     0.028 A 
ATOM      9  C   UNL d   1       1.907   1.272   0.020  0.00  0.00     0.031 A 
ATOM     10  C   UNL d   1       1.425  -1.456   0.207  0.00  0.00     0.021 A 
ATOM     11  C   UNL d   1       2.950   0.404   0.350  0.00  0.00     0.002 A 
ATOM     12  C   UNL d   1       2.707  -0.962   0.451  0.00  0.00     0.002 A 
ENDROOT
BRANCH   1  13
ATOM     13  C   UNL d   1      -2.462   2.867  -0.558  0.00  0.00     0.020 A 
ATOM     14  C   UNL d   1      -3.361   3.583   0.236  0.00  0.00     0.080 A 
ATOM     15  C   UNL d   1      -4.350   4.371  -0.354  0.00  0.00     0.074 A 
ATOM     16  C   UNL d   1      -4.415   4.510  -1.743  0.00  0.00     0.070 A 
ATOM     17  C   UNL d   1      -3.450   3.888  -2.535  0.00  0.00     0.038 A 
ATOM     18  C   UNL d   1      -2.483   3.069  -1.946  0.00  0.00     0.019 A 
BRANCH  14  19
ATOM     19  O   UNL d   1      -3.309   3.613   1.602  0.00  0.00    -0.360 OA
ATOM     20  H   UNL d   1      -2.374   3.559   1.866  0.00  0.00     0.217 HD
ENDBRANCH  14  19
BRANCH  16  21
ATOM     21  O   UNL d   1      -5.443   5.285  -2.201  0.00  0.00    -0.356 OA
ATOM     22  C   UNL d   1      -5.643   5.315  -3.609  0.00  0.00     0.210 C 
ENDBRANCH  16  21
ENDBRANCH   1  13
BRANCH   5  23
ATOM     23  C   UNL d   1      -3.776  -0.575   0.046  0.00  0.00    -0.041 A 
ATOM     24  C   UNL d   1      -4.810  -1.121   0.830  0.00  0.00     0.048 A 
ATOM     25  C   UNL d   1      -6.125  -1.224   0.344  0.00  0.00     0.102 A 
ATOM     26  C   UNL d   1      -6.418  -0.743  -0.942  0.00  0.00     0.101 A 
ATOM     27  C   UNL d   1      -5.404  -0.164  -1.710  0.00  0.00     0.040 A 
ATOM     28  C   UNL d   1      -4.098  -0.098  -1.230  0.00  0.00     0.011 A 
BRANCH  25  29
ATOM     29  O   UNL d   1      -7.162  -1.715   1.095  0.00  0.00    -0.353 OA
ATOM     30  C   UNL d   1      -6.827  -2.632   2.128  0.00  0.00     0.210 C 
ENDBRANCH  25  29
BRANCH  26  31
ATOM     31  O   UNL d   1      -7.644  -0.740  -1.556  0.00  0.00    -0.353 OA
ATOM     32  C   UNL d   1      -8.445  -1.896  -1.337  0.00  0.00     0.210 C 
ENDBRANCH  26  31
ENDBRANCH   5  23
TORSDOF 6
