REMARK  2 active torsions:
REMARK  status: ('A' for Active; 'I' for Inactive)
REMARK       I    between atoms: C_9  and  N_1 
REMARK    1  A    between atoms: C_10  and  C_2 
REMARK    2  A    between atoms: C_11  and  C_5 
ROOT
ATOM      1  N   UNL d   1      -0.869  -1.394  -0.810  0.00  0.00    -0.307 N 
ATOM      2  C   UNL d   1      -2.133  -1.236  -0.034  0.00  0.00     0.131 C 
ATOM      3  N   UNL d   1      -0.815   1.537  -0.586  0.00  0.00    -0.357 N 
ATOM      4  HN  UNL d   1      -0.679   2.340  -1.201  1.00  0.00     0.166 HD
ATOM      5  C   UNL d   1      -2.001   1.264  -0.126  0.00  0.00     0.022 C 
ATOM      6  C   UNL d   1      -2.262   0.070   0.778  0.00  0.00     0.088 C 
ATOM      7  C   UNL d   1       0.280  -0.680  -0.326  0.00  0.00     0.064 A 
ATOM      8  C   UNL d   1       0.279   0.727  -0.238  0.00  0.00     0.059 A 
ATOM      9  C   UNL d   1      -0.701  -2.554  -1.573  0.00  0.00     0.221 C 
ATOM     10  O   UNL d   1      -1.447  -3.531  -1.507  0.00  0.00    -0.273 OA
ATOM     11  C   UNL d   1       1.435  -1.391   0.051  0.00  0.00     0.032 A 
ATOM     12  C   UNL d   1       1.463   1.383   0.124  0.00  0.00     0.032 A 
ATOM     13  C   UNL d   1       0.392  -2.522  -2.629  0.00  0.00     0.117 C 
ATOM     14  C   UNL d   1       2.602  -0.720   0.419  0.00  0.00     0.002 A 
ATOM     15  C   UNL d   1       2.621   0.669   0.438  0.00  0.00     0.002 A 
ENDROOT
BRANCH   2  16
ATOM     16  C   UNL d   1      -3.411  -1.416  -0.866  0.00  0.00    -0.035 A 
ATOM     17  C   UNL d   1      -4.537  -2.015  -0.268  0.00  0.00     0.009 A 
ATOM     18  C   UNL d   1      -5.718  -2.195  -0.993  0.00  0.00     0.001 A 
ATOM     19  C   UNL d   1      -5.792  -1.780  -2.319  0.00  0.00     0.000 A 
ATOM     20  C   UNL d   1      -4.690  -1.171  -2.919  0.00  0.00     0.001 A 
ATOM     21  C   UNL d   1      -3.510  -0.981  -2.194  0.00  0.00     0.009 A 
ENDBRANCH   2  16
BRANCH   5  22
ATOM     22  C   UNL d   1      -3.143   2.129  -0.560  0.00  0.00    -0.013 A 
ATOM     23  C   UNL d   1      -4.275   2.338   0.233  0.00  0.00     0.013 A 
ATOM     24  C   UNL d   1      -5.327   3.125  -0.245  0.00  0.00     0.001 A 
ATOM     25  C   UNL d   1      -5.251   3.710  -1.510  0.00  0.00     0.000 A 
ATOM     26  C   UNL d   1      -4.117   3.523  -2.295  0.00  0.00     0.001 A 
ATOM     27  C   UNL d   1      -3.064   2.740  -1.820  0.00  0.00     0.013 A 
ENDBRANCH   5  22
TORSDOF 2
