REMARK  3 active torsions:
REMARK  status: ('A' for Active; 'I' for Inactive)
REMARK       I    between atoms: N_3  and  C_1 
REMARK       I    between atoms: N_6  and  C_1 
REMARK    1  A    between atoms: C_4  and  N_3 
REMARK    2  A    between atoms: N_5  and  C_7 
REMARK    3  A    between atoms: C_13  and  N_6 
ROOT
ATOM      1  C   UNL d   1       1.108   1.815   1.089  0.00  0.00     0.325 C 
ATOM      2  N   UNL d   1       2.353   1.588   0.522  0.00  0.00    -0.307 N 
ATOM      3  N   UNL d   1       0.234   0.785   0.816  0.00  0.00    -0.309 N 
ATOM      4  O   UNL d   1       0.829   2.837   1.706  0.00  0.00    -0.247 OA
ATOM      5  H   UNL d   1       2.295   1.145  -0.386  0.00  0.00     0.170 HD
ATOM      6  H   UNL d   1       0.651  -0.125   0.726  0.00  0.00     0.170 HD
ENDROOT
BRANCH   3   7
ATOM      7  C   UNL d   1      -1.168   0.850   0.956  0.00  0.00     0.036 A 
ATOM      8  C   UNL d   1      -1.864   2.053   0.986  0.00  0.00     0.032 A 
ATOM      9  C   UNL d   1      -3.260   2.068   1.072  0.00  0.00     0.031 A 
ATOM     10  C   UNL d   1      -4.017   0.890   1.134  0.00  0.00     0.030 A 
ATOM     11  C   UNL d   1      -3.297  -0.311   1.123  0.00  0.00     0.031 A 
ATOM     12  C   UNL d   1      -1.894  -0.340   1.019  0.00  0.00     0.032 A 
BRANCH  10  13
ATOM     13  N   UNL d   1      -5.396   0.934   1.199  0.00  0.00    -0.381 N 
ATOM     14  C   UNL d   1      -6.187  -0.058   1.923  0.00  0.00     0.123 C 
ATOM     15  C   UNL d   1      -7.100   0.666   2.918  0.00  0.00     0.020 C 
ATOM     16  C   UNL d   1      -7.931   1.760   2.244  0.00  0.00     0.003 C 
ATOM     17  C   UNL d   1      -7.048   2.713   1.439  0.00  0.00     0.020 C 
ATOM     18  C   UNL d   1      -6.161   1.943   0.464  0.00  0.00     0.123 C 
ENDBRANCH  10  13
ENDBRANCH   3   7
BRANCH   2  19
ATOM     19  C   UNL d   1       3.412   2.522   0.670  0.00  0.00     0.059 A 
ATOM     20  C   UNL d   1       4.169   2.912  -0.450  0.00  0.00     0.082 A 
ATOM     21  C   UNL d   1       5.196   3.856  -0.297  0.00  0.00     0.058 A 
ATOM     22 CL   UNL d   1       3.759   2.271  -2.012  0.00  0.00    -0.080 Cl
ATOM     23 CL   UNL d   1       6.135   4.429  -1.632  0.00  0.00    -0.082 Cl
ATOM     24  C   UNL d   1       5.487   4.382   0.965  0.00  0.00     0.026 A 
ATOM     25  C   UNL d   1       4.750   3.978   2.078  0.00  0.00     0.004 A 
ATOM     26  C   UNL d   1       3.715   3.055   1.929  0.00  0.00     0.031 A 
ENDBRANCH   2  19
TORSDOF 3
