REMARK  7 active torsions:
REMARK  status: ('A' for Active; 'I' for Inactive)
REMARK    1  A    between atoms: N_3  and  C_1 
REMARK    2  A    between atoms: N_8  and  C_1 
REMARK    3  A    between atoms: C_2  and  N_3 
REMARK    4  A    between atoms: N_4  and  C_13 
REMARK    5  A    between atoms: C_17  and  N_8 
REMARK    6  A    between atoms: C_13  and  C_14 
REMARK    7  A    between atoms: C_14  and  C_17 
ROOT
ATOM      1  C   UNL d   1       0.817  -0.332  -0.233  0.00  0.00     0.172 C 
ATOM      2  S   UNL d   1       0.211   0.793  -1.312  0.00  0.00    -0.041 SA
ENDROOT
BRANCH   1   3
ATOM      3  N   UNL d   1       0.099  -1.248   0.493  0.00  0.00    -0.333 N 
ATOM      4  H   UNL d   1       0.318  -1.258   1.480  0.00  0.00     0.168 HD
BRANCH   3   5
ATOM      5  C   UNL d   1      -1.105  -1.876   0.088  0.00  0.00     0.040 A 
ATOM      6  C   UNL d   1      -2.131  -2.168   1.005  0.00  0.00    -0.035 A 
ATOM      7  C   UNL d   1      -3.245  -2.903   0.556  0.00  0.00     0.009 A 
ATOM      8  C   UNL d   1      -2.167  -1.681   2.427  0.00  0.00     0.050 C 
ATOM      9  C   UNL d   1      -3.344  -3.339  -0.766  0.00  0.00     0.007 A 
ATOM     10  C   UNL d   1      -2.332  -3.043  -1.678  0.00  0.00    -0.060 A 
ATOM     11  C   UNL d   1      -1.220  -2.318  -1.239  0.00  0.00     0.037 A 
ATOM     12  C   UNL d   1      -2.419  -3.523  -3.096  0.00  0.00     0.048 C 
ENDBRANCH   3   5
ENDBRANCH   1   3
BRANCH   1  13
ATOM     13  N   UNL d   1       2.165  -0.314  -0.009  0.00  0.00    -0.367 N 
ATOM     14  H   UNL d   1       2.628   0.338  -0.634  0.00  0.00     0.161 HD
BRANCH  13  15
ATOM     15  C   UNL d   1       2.966  -1.450   0.429  0.00  0.00     0.123 C 
BRANCH  15  16
ATOM     16  C   UNL d   1       4.459  -1.117   0.456  0.00  0.00     0.050 C 
BRANCH  16  17
ATOM     17  C   UNL d   1       4.810  -0.050   1.505  0.00  0.00     0.274 C 
BRANCH  17  18
ATOM     18  N   UNL d   1       6.193   0.435   1.367  0.00  0.00     0.092 N 
ATOM     19  C   UNL d   1       7.228  -0.564   1.709  0.00  0.00     0.298 C 
ATOM     20  C   UNL d   1       7.394  -0.807   3.218  0.00  0.00     0.198 C 
ATOM     21  O   UNL d   1       7.678   0.414   3.910  0.00  0.00    -0.388 OA
ATOM     22  C   UNL d   1       6.636   1.373   3.688  0.00  0.00     0.198 C 
ATOM     23  C   UNL d   1       6.431   1.647   2.187  0.00  0.00     0.298 C 
ENDBRANCH  17  18
ENDBRANCH  16  17
ENDBRANCH  15  16
ENDBRANCH  13  15
ENDBRANCH   1  13
TORSDOF 7
