REMARK  4 active torsions:
REMARK  status: ('A' for Active; 'I' for Inactive)
REMARK    1  A    between atoms: N_7  and  C_1 
REMARK    2  A    between atoms: N_14  and  N_7 
REMARK    3  A    between atoms: C_9  and  N_14 
REMARK    4  A    between atoms: C_15  and  C_10 
ROOT
ATOM      1  N   UNL d   1      -2.935   2.220   0.085  0.00  0.00    -0.279 N 
ATOM      2  H   UNL d   1      -3.487   1.406   0.364  0.00  0.00     0.189 HD
ENDROOT
BRANCH   1   3
ATOM      3  C   UNL d   1      -3.528   3.437   0.184  0.00  0.00     0.163 A 
ATOM      4  N   UNL d   1      -3.049   4.559  -0.313  0.00  0.00    -0.334 N 
ATOM      5  C   UNL d   1      -3.904   5.615  -0.061  0.00  0.00     0.051 A 
ATOM      6  HN  UNL d   1      -2.166   4.638  -0.817  1.00  0.00     0.168 HD
ATOM      7  C   UNL d   1      -4.988   5.303   0.732  0.00  0.00     0.083 A 
ATOM      8  S   UNL d   1      -5.019   3.615   1.033  0.00  0.00    -0.062 SA
BRANCH   5   9
ATOM      9  C   UNL d   1      -3.621   6.943  -0.591  0.00  0.00    -0.009 A 
ATOM     10  C   UNL d   1      -4.645   7.861  -0.865  0.00  0.00     0.015 A 
ATOM     11  C   UNL d   1      -4.345   9.127  -1.376  0.00  0.00     0.020 A 
ATOM     12  C   UNL d   1      -3.019   9.478  -1.620  0.00  0.00     0.011 A 
ATOM     13  C   UNL d   1      -1.991   8.572  -1.373  0.00  0.00     0.020 A 
ATOM     14 BR   UNL d   1      -2.613  11.199  -2.287  0.00  0.00    -0.051 Br
ATOM     15  C   UNL d   1      -2.294   7.306  -0.864  0.00  0.00     0.015 A 
ENDBRANCH   5   9
ENDBRANCH   1   3
BRANCH   1  16
ATOM     16  N   UNL d   1      -1.581   2.096  -0.036  0.00  0.00    -0.293 N 
ATOM     17  HN  UNL d   1      -0.974   2.916  -0.057  1.00  0.00     0.187 HD
BRANCH  16  18
ATOM     18  C   UNL d   1      -1.097   0.899  -0.125  0.00  0.00     0.129 A 
ATOM     19  C   UNL d   1      -1.830  -0.442  -0.179  0.00  0.00     0.275 A 
ATOM     20  N   UNL d   1      -0.838  -1.399  -0.256  0.00  0.00    -0.321 N 
ATOM     21  O   UNL d   1      -3.032  -0.588  -0.128  0.00  0.00    -0.266 OA
ATOM     22  C   UNL d   1       0.422  -0.806  -0.221  0.00  0.00     0.047 A 
ATOM     23  H   UNL d   1      -1.025  -2.390  -0.291  0.00  0.00     0.169 HD
ATOM     24  C   UNL d   1       0.324   0.583  -0.161  0.00  0.00     0.024 A 
ATOM     25  C   UNL d   1       1.648  -1.435  -0.211  0.00  0.00     0.030 A 
ATOM     26  C   UNL d   1       1.430   1.405  -0.090  0.00  0.00     0.016 A 
ATOM     27  C   UNL d   1       2.680   0.783  -0.077  0.00  0.00     0.001 A 
ATOM     28  C   UNL d   1       2.787  -0.623  -0.134  0.00  0.00     0.002 A 
ENDBRANCH  16  18
ENDBRANCH   1  16
TORSDOF 4
