REMARK  5 active torsions:
REMARK  status: ('A' for Active; 'I' for Inactive)
REMARK    1  A    between atoms: C_20  and  C_2 
REMARK    2  A    between atoms: S_17  and  C_7 
REMARK    3  A    between atoms: C_8  and  N_15 
REMARK       I    between atoms: N_15  and  C_18 
REMARK    4  A    between atoms: C_27  and  S_17 
REMARK    5  A    between atoms: C_18  and  C_27 
ROOT
ATOM      1  C   UNL d   1       2.248  -2.842  -0.102  0.00  0.00     0.185 C 
ENDROOT
BRANCH   1   2
ATOM      2  C   UNL d   1       2.736  -4.282  -0.188  0.00  0.00     0.233 C 
ATOM      3  N   UNL d   1       1.933  -5.244   0.382  0.00  0.00    -0.305 N 
ATOM      4  H   UNL d   1       1.084  -4.981   0.861  0.00  0.00     0.171 HD
ATOM      5  O   UNL d   1       3.785  -4.511  -0.793  0.00  0.00    -0.272 OA
BRANCH   3   6
ATOM      6  C   UNL d   1       2.284  -6.570   0.366  0.00  0.00     0.168 A 
ATOM      7  S   UNL d   1       1.205  -7.630   1.157  0.00  0.00    -0.032 SA
ATOM      8  C   UNL d   1       2.281  -8.915   0.746  0.00  0.00     0.109 A 
ATOM      9  C   UNL d   1       2.110 -10.305   1.101  0.00  0.00     0.040 A 
ATOM     10  N   UNL d   1       3.334  -8.512   0.060  0.00  0.00    -0.291 N 
ATOM     11  S   UNL d   1       0.743 -10.924   1.933  0.00  0.00    -0.099 SA
ATOM     12  C   UNL d   1       3.013 -11.322   0.826  0.00  0.00     0.022 A 
ATOM     13  C   UNL d   1       1.360 -12.519   1.926  0.00  0.00     0.050 A 
ATOM     14  C   UNL d   1       2.584 -12.595   1.302  0.00  0.00     0.008 A 
ATOM     15  N   UNL d   1       3.333  -7.150  -0.161  0.00  0.00    -0.279 N 
ATOM     16  HN  UNL d   1       4.068  -9.138  -0.270  1.00  0.00     0.187 HD
ATOM     17  HN  UNL d   1       4.063  -6.654  -0.673  1.00  0.00     0.189 HD
ENDBRANCH   3   6
ENDBRANCH   1   2
BRANCH   1  18
ATOM     18  S   UNL d   1       0.949  -2.540   1.134  0.00  0.00    -0.083 SA
BRANCH  18  19
ATOM     19  C   UNL d   1       0.606  -0.872   0.797  0.00  0.00     0.163 C 
ATOM     20  N   UNL d   1      -0.286  -0.112   1.507  0.00  0.00    -0.315 N 
ATOM     21  C   UNL d   1      -0.386   1.087   0.826  0.00  0.00     0.134 C 
ATOM     22  C   UNL d   1      -0.901  -0.481   2.755  0.00  0.00     0.160 C 
ATOM     23  N   UNL d   1       0.518   1.076  -0.141  0.00  0.00    -0.283 N 
ATOM     24  N   UNL d   1       1.122  -0.157  -0.171  0.00  0.00    -0.278 N 
ATOM     25  HN  UNL d   1       0.731   1.856  -0.762  1.00  0.00     0.188 HD
ATOM     26  HN  UNL d   1       1.841  -0.460  -0.827  1.00  0.00     0.189 HD
BRANCH  21  27
ATOM     27  C   UNL d   1      -1.299   2.200   1.100  0.00  0.00     0.012 A 
ATOM     28  C   UNL d   1      -0.854   3.515   0.935  0.00  0.00     0.032 A 
ATOM     29  C   UNL d   1      -1.738   4.554   1.185  0.00  0.00     0.088 A 
ATOM     30  N   UNL d   1      -3.015   4.373   1.578  0.00  0.00    -0.375 N 
ATOM     31  C   UNL d   1      -3.439   3.098   1.696  0.00  0.00     0.088 A 
ATOM     32  HN  UNL d   1      -3.631   5.161   1.776  1.00  0.00     0.164 HD
ATOM     33  C   UNL d   1      -2.634   1.996   1.459  0.00  0.00     0.032 A 
ENDBRANCH  21  27
ENDBRANCH  18  19
ENDBRANCH   1  18
TORSDOF 5
