REMARK  4 active torsions:
REMARK  status: ('A' for Active; 'I' for Inactive)
REMARK    1  A    between atoms: O_16  and  C_3 
REMARK    2  A    between atoms: C_12  and  C_4 
REMARK    3  A    between atoms: C_11  and  C_5 
REMARK    4  A    between atoms: C_10  and  C_6 
ROOT
ATOM      1  C   UNL d   1       5.863  -2.509  -0.149  0.00  0.00     0.079 C 
ATOM      2  C   UNL d   1       6.087  -1.493   0.816  0.00  0.00    -0.016 C 
ATOM      3  C   UNL d   1       4.927  -2.398  -1.203  0.00  0.00    -0.016 C 
ATOM      4  C   UNL d   1       4.181  -0.305  -0.156  0.00  0.00    -0.034 C 
ATOM      5  C   UNL d   1       5.197  -0.401   0.796  0.00  0.00     0.022 C 
ATOM      6  C   UNL d   1       4.076  -1.276  -1.156  0.00  0.00     0.022 C 
ENDROOT
BRANCH   4   7
ATOM      7  C   UNL d   1       3.213   0.793  -0.114  0.00  0.00     0.023 C 
ATOM      8  C   UNL d   1       3.416   1.967  -0.724  0.00  0.00    -0.002 A 
ATOM      9  C   UNL d   1       2.384   3.059  -0.725  0.00  0.00     0.189 A 
ATOM     10  C   UNL d   1       4.609   2.420  -1.532  0.00  0.00     0.082 A 
ATOM     11  C   UNL d   1       2.928   4.132  -1.565  0.00  0.00     0.021 A 
ATOM     12  O   UNL d   1       1.306   3.050  -0.158  0.00  0.00    -0.287 OA
ATOM     13  C   UNL d   1       2.335   5.335  -1.899  0.00  0.00     0.016 A 
ATOM     14  C   UNL d   1       4.194   3.769  -2.036  0.00  0.00    -0.040 A 
ATOM     15  C   UNL d   1       3.047   6.198  -2.735  0.00  0.00     0.001 A 
ATOM     16  C   UNL d   1       4.321   5.845  -3.215  0.00  0.00     0.001 A 
ATOM     17  C   UNL d   1       4.904   4.622  -2.867  0.00  0.00     0.008 A 
ENDBRANCH   4   7
BRANCH   2  18
ATOM     18  C   UNL d   1       7.193  -1.561   1.902  0.00  0.00    -0.021 C 
ATOM     19  C   UNL d   1       6.623  -2.255   3.152  0.00  0.00     0.019 C 
ATOM     20  C   UNL d   1       8.469  -2.309   1.442  0.00  0.00     0.019 C 
ATOM     21  C   UNL d   1       7.704  -0.158   2.330  0.00  0.00     0.019 C 
ENDBRANCH   2  18
BRANCH   3  22
ATOM     22  C   UNL d   1       4.730  -3.449  -2.326  0.00  0.00    -0.021 C 
ATOM     23  C   UNL d   1       3.646  -4.447  -1.876  0.00  0.00     0.019 C 
ATOM     24  C   UNL d   1       4.279  -2.779  -3.653  0.00  0.00     0.019 C 
ATOM     25  C   UNL d   1       5.991  -4.260  -2.716  0.00  0.00     0.019 C 
ENDBRANCH   3  22
BRANCH   1  26
ATOM     26  O   UNL d   1       6.508  -3.702   0.012  0.00  0.00    -0.360 OA
ATOM     27  H   UNL d   1       7.274  -3.670  -0.585  0.00  0.00     0.217 HD
ENDBRANCH   1  26
TORSDOF 4
