REMARK  6 active torsions:
REMARK  status: ('A' for Active; 'I' for Inactive)
REMARK    1  A    between atoms: C_7  and  C_1 
REMARK    2  A    between atoms: N_13  and  C_2 
REMARK       I    between atoms: C_8  and  N_6 
REMARK    3  A    between atoms: C_11  and  C_7 
REMARK    4  A    between atoms: O_18  and  C_8 
REMARK    5  A    between atoms: C_23  and  O_18 
REMARK    6  A    between atoms: O_22  and  C_19 
ROOT
ATOM      1  C   UNL d   1       1.260  -1.542   0.005  0.00  0.00     0.056 A 
ATOM      2  C   UNL d   1       2.352  -0.687  -0.057  0.00  0.00     0.083 A 
ATOM      3  C   UNL d   1       0.022  -0.782   0.015  0.00  0.00    -0.025 A 
ATOM      4  C   UNL d   1       0.244   0.584   0.044  0.00  0.00     0.010 A 
ATOM      5  S   UNL d   1       1.892   0.964   0.023  0.00  0.00    -0.074 SA
ATOM      6  N   UNL d   1      -2.119   1.035   0.276  0.00  0.00    -0.323 N 
ATOM      7  C   UNL d   1      -2.936   1.527   1.271  0.00  0.00     0.363 C 
ATOM      8  C   UNL d   1      -0.811   1.655   0.059  0.00  0.00     0.174 C 
ATOM      9  C   UNL d   1      -1.388  -1.315   0.030  0.00  0.00     0.060 C 
ATOM     10  C   UNL d   1      -2.375  -0.230  -0.427  0.00  0.00     0.133 C 
ATOM     11  O   UNL d   1      -2.681   2.518   1.944  0.00  0.00    -0.238 OA
ENDROOT
BRANCH   1  12
ATOM     12  C   UNL d   1       1.303  -3.014  -0.007  0.00  0.00     0.195 C 
ATOM     13  O   UNL d   1       0.421  -3.675  -0.558  0.00  0.00    -0.287 OA
BRANCH  12  14
ATOM     14  C   UNL d   1       2.403  -3.770   0.656  0.00  0.00     0.015 A 
ATOM     15  C   UNL d   1       2.713  -5.049   0.171  0.00  0.00     0.018 A 
ATOM     16  C   UNL d   1       3.748  -5.799   0.740  0.00  0.00     0.037 A 
ATOM     17  C   UNL d   1       4.483  -5.278   1.804  0.00  0.00     0.068 A 
ATOM     18  C   UNL d   1       4.158  -4.016   2.306  0.00  0.00     0.037 A 
ATOM     19  C   UNL d   1       3.110  -3.274   1.756  0.00  0.00     0.018 A 
BRANCH  17  20
ATOM     20  O   UNL d   1       5.527  -5.892   2.439  0.00  0.00    -0.356 OA
ATOM     21  C   UNL d   1       5.856  -7.208   2.012  0.00  0.00     0.210 C 
ENDBRANCH  17  20
ENDBRANCH  12  14
ENDBRANCH   1  12
BRANCH   2  22
ATOM     22  N   UNL d   1       3.667  -0.969  -0.164  0.00  0.00    -0.393 N 
ATOM     23  H   UNL d   1       4.022  -1.881  -0.439  0.00  0.00     0.156 HD
ATOM     24  H   UNL d   1       4.332  -0.210  -0.298  0.00  0.00     0.156 HD
ENDBRANCH   2  22
BRANCH   7  25
ATOM     25  O   UNL d   1      -4.035   0.749   1.458  0.00  0.00    -0.304 OA
BRANCH  25  26
ATOM     26  C   UNL d   1      -4.728   0.931   2.697  0.00  0.00     0.176 C 
ATOM     27  C   UNL d   1      -4.074   0.033   3.733  0.00  0.00     0.034 C 
ENDBRANCH  25  26
ENDBRANCH   7  25
TORSDOF 6
