REMARK  3 active torsions:
REMARK  status: ('A' for Active; 'I' for Inactive)
REMARK    1  A    between atoms: N_7  and  C_2 
REMARK    2  A    between atoms: C_12  and  C_3 
REMARK       I    between atoms: C_4  and  N_7 
REMARK       I    between atoms: N_10  and  C_4 
REMARK    3  A    between atoms: C_9  and  N_10 
ROOT
ATOM      1  C   UNL d   1      -0.909  -3.124   0.390  0.00  0.00     0.326 C 
ATOM      2  N   UNL d   1       0.054  -2.161   0.319  0.00  0.00    -0.293 N 
ATOM      3  N   UNL d   1      -2.204  -2.745   0.189  0.00  0.00    -0.308 N 
ATOM      4  O   UNL d   1      -0.545  -4.280   0.605  0.00  0.00    -0.247 OA
ATOM      5  H   UNL d   1       0.989  -2.529   0.420  0.00  0.00     0.172 HD
ATOM      6  H   UNL d   1      -2.331  -1.874  -0.315  0.00  0.00     0.170 HD
ENDROOT
BRANCH   2   7
ATOM      7  C   UNL d   1      -0.100  -0.796   0.465  0.00  0.00     0.132 A 
ATOM      8  C   UNL d   1       0.976   0.104   0.657  0.00  0.00     0.086 A 
ATOM      9  C   UNL d   1       0.383   1.318   0.917  0.00  0.00     0.087 A 
ATOM     10  O   UNL d   1      -0.967   1.168   0.785  0.00  0.00    -0.240 OA
ATOM     11  N   UNL d   1      -1.267  -0.147   0.495  0.00  0.00    -0.245 N 
ATOM     12  HN  UNL d   1      -2.193  -0.544   0.336  1.00  0.00     0.196 HD
BRANCH   9  13
ATOM     13  C   UNL d   1       0.871   2.694   1.293  0.00  0.00     0.000 C 
ATOM     14  C   UNL d   1       0.781   3.621   0.070  0.00  0.00     0.021 C 
ATOM     15  C   UNL d   1       0.010   3.269   2.435  0.00  0.00     0.021 C 
ATOM     16  C   UNL d   1       2.334   2.656   1.778  0.00  0.00     0.021 C 
ENDBRANCH   9  13
ENDBRANCH   2   7
BRANCH   3  17
ATOM     17  C   UNL d   1      -3.356  -3.469   0.558  0.00  0.00     0.045 A 
ATOM     18  C   UNL d   1      -3.331  -4.316   1.674  0.00  0.00     0.072 A 
ATOM     19  C   UNL d   1      -4.512  -4.868   2.159  0.00  0.00     0.118 A 
ATOM     20  F   UNL d   1      -4.481  -5.632   3.258  0.00  0.00    -0.206 F 
ATOM     21  C   UNL d   1      -5.728  -4.611   1.544  0.00  0.00     0.043 A 
ATOM     22  C   UNL d   1      -5.758  -3.820   0.398  0.00  0.00     0.012 A 
ATOM     23  C   UNL d   1      -4.574  -3.260  -0.119  0.00  0.00    -0.035 A 
ATOM     24  C   UNL d   1      -4.672  -2.504  -1.417  0.00  0.00     0.050 C 
ENDBRANCH   3  17
TORSDOF 3
