REMARK  3 active torsions:
REMARK  status: ('A' for Active; 'I' for Inactive)
REMARK    1  A    between atoms: C_4  and  N_2 
REMARK    2  A    between atoms: O_8  and  C_7 
REMARK    3  A    between atoms: C_13  and  O_8 
ROOT
ATOM      1  C   UNL d   1       3.029   1.110   0.163  0.00  0.00     0.067 A 
ATOM      2  C   UNL d   1       2.693   2.018   1.185  0.00  0.00     0.095 A 
ATOM      3  C   UNL d   1       4.223   1.322  -0.546  0.00  0.00     0.032 A 
ATOM      4  C   UNL d   1       3.490   3.152   1.408  0.00  0.00     0.039 A 
ATOM      5  C   UNL d   1       5.015   2.450  -0.317  0.00  0.00     0.002 A 
ATOM      6  C   UNL d   1       4.644   3.370   0.656  0.00  0.00     0.003 A 
ENDROOT
BRANCH   1   7
ATOM      7  N   UNL d   1       2.234  -0.020  -0.116  0.00  0.00    -0.335 N 
ATOM      8  C   UNL d   1       1.664  -0.195  -1.264  0.00  0.00     0.140 C 
ATOM      9  N   UNL d   1       0.846  -1.264  -1.507  0.00  0.00    -0.370 N 
ATOM     10  S   UNL d   1       1.737   0.840  -2.688  0.00  0.00    -0.093 SA
ATOM     11  C   UNL d   1      -0.018  -1.120  -2.661  0.00  0.00     0.132 C 
ATOM     12  H   UNL d   1       0.466  -1.688  -0.670  0.00  0.00     0.161 HD
ATOM     13  C   UNL d   1       0.803  -0.359  -3.694  0.00  0.00     0.102 C 
ATOM     14  HN  UNL d   1       2.104  -0.722   0.612  1.00  0.00     0.168 HD
ENDBRANCH   1   7
BRANCH   2  15
ATOM     15  O   UNL d   1       1.593   1.952   2.009  0.00  0.00    -0.349 OA
BRANCH  15  16
ATOM     16  C   UNL d   1       1.247   0.646   2.469  0.00  0.00     0.171 C 
ATOM     17  C   UNL d   1       0.427   0.801   3.740  0.00  0.00     0.034 C 
ENDBRANCH  15  16
ENDBRANCH   2  15
TORSDOF 3
