REMARK  10 active torsions:
REMARK  status: ('A' for Active; 'I' for Inactive)
REMARK    1  A    between atoms: S_10  and  C_1 
REMARK    2  A    between atoms: N_14  and  C_1 
REMARK    3  A    between atoms: C_2  and  C_11 
REMARK    4  A    between atoms: C_17  and  N_8 
REMARK    5  A    between atoms: C_11  and  S_10 
REMARK    6  A    between atoms: C_27  and  N_14 
REMARK    7  A    between atoms: C_28  and  N_14 
REMARK    8  A    between atoms: C_19  and  C_27 
REMARK    9  A    between atoms: C_20  and  C_28 
REMARK   10  A    between atoms: O_29  and  C_21 
ROOT
ATOM      1  N   UNL d   1       3.683  -1.365   3.309  0.00  0.00    -0.197 NA
ATOM      2  C   UNL d   1       3.285  -0.344   2.921  0.00  0.00     0.060 C 
ATOM      3  C   UNL d   1       2.824   0.956   2.432  0.00  0.00     0.143 C 
ENDROOT
BRANCH   3   4
ATOM      4  C   UNL d   1       3.062   1.135   0.934  0.00  0.00     0.139 C 
BRANCH   4   5
ATOM      5  N   UNL d   1       2.379   0.207   0.009  0.00  0.00    -0.360 N 
BRANCH   5   6
ATOM      6  C   UNL d   1       0.996   0.155  -0.108  0.00  0.00     0.143 C 
ATOM      7  N   UNL d   1       0.220   0.514  -1.064  0.00  0.00    -0.337 N 
ATOM      8  HN  UNL d   1      -0.773   0.323  -0.928  1.00  0.00     0.168 HD
BRANCH   7   9
ATOM      9  C   UNL d   1       0.559   1.131  -2.264  0.00  0.00     0.036 A 
ATOM     10  C   UNL d   1       1.619   2.023  -2.423  0.00  0.00     0.066 A 
ATOM     11  C   UNL d   1       1.795   2.724  -3.617  0.00  0.00     0.070 A 
ATOM     12  C   UNL d   1       0.893   2.534  -4.665  0.00  0.00     0.037 A 
ATOM     13  C   UNL d   1      -0.174   1.649  -4.522  0.00  0.00     0.005 A 
ATOM     14  C   UNL d   1      -0.334   0.952  -3.326  0.00  0.00     0.029 A 
BRANCH  11  15
ATOM     15  O   UNL d   1       2.789   3.633  -3.860  0.00  0.00    -0.356 OA
ATOM     16  C   UNL d   1       3.676   3.909  -2.782  0.00  0.00     0.210 C 
ENDBRANCH  11  15
ENDBRANCH   7   9
BRANCH   6  17
ATOM     17  S   UNL d   1       0.161  -0.600   1.253  0.00  0.00    -0.089 SA
BRANCH  17  18
ATOM     18  C   UNL d   1      -1.587  -0.195   0.950  0.00  0.00     0.122 C 
BRANCH  18  19
ATOM     19  C   UNL d   1      -2.416  -0.896  -0.137  0.00  0.00    -0.035 C 
ATOM     20  C   UNL d   1      -2.212  -2.245  -0.536  0.00  0.00    -0.048 C 
ATOM     21  C   UNL d   1      -2.929  -2.781  -1.645  0.00  0.00    -0.049 C 
ATOM     22  C   UNL d   1      -1.255  -3.158   0.195  0.00  0.00     0.049 C 
ATOM     23  C   UNL d   1      -2.592  -4.154  -2.199  0.00  0.00     0.049 C 
ATOM     24  C   UNL d   1      -3.993  -2.054  -2.246  0.00  0.00    -0.049 C 
ATOM     25  C   UNL d   1      -4.327  -0.779  -1.743  0.00  0.00    -0.049 C 
ATOM     26  C   UNL d   1      -4.758  -2.718  -3.373  0.00  0.00     0.049 C 
ATOM     27  C   UNL d   1      -3.528  -0.193  -0.709  0.00  0.00    -0.048 C 
ATOM     28  C   UNL d   1      -5.514   0.005  -2.271  0.00  0.00     0.049 C 
ATOM     29  C   UNL d   1      -3.926   1.198  -0.237  0.00  0.00     0.049 C 
ENDBRANCH  18  19
ENDBRANCH  17  18
ENDBRANCH   6  17
ENDBRANCH   5   6
BRANCH   5  30
ATOM     30  C   UNL d   1       3.181  -0.892  -0.575  0.00  0.00     0.139 C 
BRANCH  30  31
ATOM     31  C   UNL d   1       4.246  -0.388  -1.556  0.00  0.00     0.143 C 
ATOM     32  C   UNL d   1       5.082  -1.495  -2.042  0.00  0.00     0.060 C 
ATOM     33  N   UNL d   1       5.763  -2.351  -2.418  0.00  0.00    -0.197 NA
ENDBRANCH  30  31
ENDBRANCH   5  30
ENDBRANCH   4   5
ENDBRANCH   3   4
TORSDOF 10
