REMARK  5 active torsions:
REMARK  status: ('A' for Active; 'I' for Inactive)
REMARK    1  A    between atoms: N_7  and  C_1 
REMARK    2  A    between atoms: C_9  and  N_2 
REMARK    3  A    between atoms: N_5  and  N_7 
REMARK    4  A    between atoms: C_10  and  C_8 
REMARK    5  A    between atoms: C_16  and  C_9 
ROOT
ATOM      1  C   UNL d   1       1.991  -1.698  -0.009  0.00  0.00     0.691 C 
ATOM      2  N   UNL d   1       1.092  -0.679  -0.097  0.00  0.00    -0.211 N 
ATOM      3  N   UNL d   1       3.260  -1.359  -0.000  0.00  0.00    -0.223 N 
ATOM      4  HN  UNL d   1       4.071  -1.977   0.042  1.00  0.00     0.177 HD
ATOM      5  C   UNL d   1       3.251   0.127  -0.066  0.00  0.00     0.158 C 
ATOM      6  C   UNL d   1       1.798   0.565  -0.269  0.00  0.00     0.161 C 
ENDROOT
BRANCH   1   7
ATOM      7  N   UNL d   1       1.634  -3.014   0.011  0.00  0.00    -0.132 N 
ATOM      8  H   UNL d   1       2.468  -3.585   0.085  0.00  0.00     0.205 HD
BRANCH   7   9
ATOM      9  N   UNL d   1       0.477  -3.544  -0.466  0.00  0.00    -0.290 N 
ATOM     10  C   UNL d   1       0.455  -4.767  -0.907  0.00  0.00     0.032 C 
ATOM     11  C   UNL d   1       1.640  -5.709  -0.983  0.00  0.00     0.070 C 
ATOM     12  HN  UNL d   1      -0.375  -2.982  -0.478  1.00  0.00     0.187 HD
BRANCH  10  13
ATOM     13  C   UNL d   1      -0.857  -5.300  -1.401  0.00  0.00    -0.013 A 
ATOM     14  C   UNL d   1      -1.789  -4.412  -1.956  0.00  0.00     0.015 A 
ATOM     15  C   UNL d   1      -3.019  -4.882  -2.422  0.00  0.00     0.020 A 
ATOM     16  C   UNL d   1      -3.320  -6.239  -2.325  0.00  0.00     0.011 A 
ATOM     17  C   UNL d   1      -2.403  -7.130  -1.769  0.00  0.00     0.020 A 
ATOM     18 BR   UNL d   1      -4.987  -6.878  -2.948  0.00  0.00    -0.051 Br
ATOM     19  C   UNL d   1      -1.170  -6.661  -1.308  0.00  0.00     0.015 A 
ENDBRANCH  10  13
ENDBRANCH   7   9
ENDBRANCH   1   7
BRANCH   2  20
ATOM     20  C   UNL d   1      -0.331  -0.683   0.137  0.00  0.00     0.179 C 
BRANCH  20  21
ATOM     21  C   UNL d   1      -0.688  -0.576   1.605  0.00  0.00    -0.040 A 
ATOM     22  C   UNL d   1      -0.945   0.671   2.194  0.00  0.00     0.009 A 
ATOM     23  C   UNL d   1      -1.323   0.760   3.537  0.00  0.00     0.001 A 
ATOM     24  C   UNL d   1      -1.447  -0.396   4.307  0.00  0.00     0.000 A 
ATOM     25  C   UNL d   1      -1.180  -1.639   3.739  0.00  0.00     0.001 A 
ATOM     26  C   UNL d   1      -0.797  -1.728   2.396  0.00  0.00     0.009 A 
ENDBRANCH  20  21
ENDBRANCH   2  20
TORSDOF 5
