REMARK  10 active torsions:
REMARK  status: ('A' for Active; 'I' for Inactive)
REMARK    1  A    between atoms: C_8  and  C_1 
REMARK    2  A    between atoms: C_9  and  C_2 
REMARK    3  A    between atoms: S_15  and  C_6 
REMARK    4  A    between atoms: O_20  and  C_8 
REMARK    5  A    between atoms: C_11  and  C_13 
REMARK    6  A    between atoms: O_22  and  C_11 
REMARK    7  A    between atoms: C_13  and  C_19 
REMARK    8  A    between atoms: C_19  and  S_15 
REMARK    9  A    between atoms: C_23  and  O_20 
REMARK   10  A    between atoms: C_24  and  O_22 
ROOT
ATOM      1  C   UNL d   1       0.842   1.136  -0.095  0.00  0.00     0.067 C 
ATOM      2  C   UNL d   1       1.403  -0.241   0.225  0.00  0.00     0.165 C 
ATOM      3  C   UNL d   1      -0.497   1.324  -0.177  0.00  0.00     0.022 C 
ATOM      4  N   UNL d   1       0.457  -1.372   0.022  0.00  0.00    -0.357 N 
ATOM      5  HN  UNL d   1       0.777  -2.339  -0.037  1.00  0.00     0.162 HD
ATOM      6  C   UNL d   1      -0.784  -1.060  -0.074  0.00  0.00     0.141 C 
ATOM      7  N   UNL d   1      -1.294   0.202  -0.072  0.00  0.00    -0.340 N 
ATOM      8  C   UNL d   1      -1.222   2.621  -0.396  0.00  0.00     0.069 C 
ATOM      9  H   UNL d   1      -2.289   0.301  -0.246  0.00  0.00     0.167 HD
ENDROOT
BRANCH   6  10
ATOM     10  S   UNL d   1      -1.984  -2.321  -0.239  0.00  0.00    -0.094 SA
BRANCH  10  11
ATOM     11  C   UNL d   1      -1.110  -3.731   0.518  0.00  0.00     0.092 C 
BRANCH  11  12
ATOM     12  C   UNL d   1      -0.884  -3.516   2.008  0.00  0.00     0.121 C 
BRANCH  12  13
ATOM     13  C   UNL d   1      -0.387  -4.775   2.666  0.00  0.00     0.259 C 
ATOM     14  O   UNL d   1      -0.204  -5.846   2.106  0.00  0.00    -0.265 OA
BRANCH  13  15
ATOM     15  O   UNL d   1      -0.262  -4.550   4.005  0.00  0.00    -0.322 OA
BRANCH  15  16
ATOM     16  C   UNL d   1      -0.124  -5.721   4.820  0.00  0.00     0.174 C 
ATOM     17  C   UNL d   1      -1.513  -6.203   5.197  0.00  0.00     0.034 C 
ENDBRANCH  15  16
ENDBRANCH  13  15
ENDBRANCH  12  13
ENDBRANCH  11  12
ENDBRANCH  10  11
ENDBRANCH   6  10
BRANCH   2  18
ATOM     18  C   UNL d   1       1.885  -0.340   1.663  0.00  0.00     0.010 A 
ATOM     19  S   UNL d   1       3.507  -0.752   2.023  0.00  0.00    -0.104 SA
ATOM     20  C   UNL d   1       3.224  -0.656   3.708  0.00  0.00     0.050 A 
ATOM     21  C   UNL d   1       1.923  -0.317   3.997  0.00  0.00     0.008 A 
ATOM     22  C   UNL d   1       1.151  -0.131   2.818  0.00  0.00     0.017 A 
ENDBRANCH   2  18
BRANCH   1  23
ATOM     23  C   UNL d   1       1.825   2.230  -0.281  0.00  0.00     0.293 C 
ATOM     24  O   UNL d   1       1.640   3.400   0.013  0.00  0.00    -0.259 OA
BRANCH  23  25
ATOM     25  O   UNL d   1       2.910   1.735  -0.924  0.00  0.00    -0.318 OA
BRANCH  25  26
ATOM     26  C   UNL d   1       3.798   2.689  -1.522  0.00  0.00     0.174 C 
ATOM     27  C   UNL d   1       3.446   2.774  -2.996  0.00  0.00     0.034 C 
ENDBRANCH  25  26
ENDBRANCH  23  25
ENDBRANCH   1  23
TORSDOF 10
