REMARK  4 active torsions:
REMARK  status: ('A' for Active; 'I' for Inactive)
REMARK    1  A    between atoms: C_8  and  C_2 
REMARK    2  A    between atoms: C_10  and  C_5 
REMARK    3  A    between atoms: N_7  and  C_9 
REMARK    4  A    between atoms: C_11  and  C_12 
ROOT
ATOM      1  S   UNL d   1      -1.016  -0.099  -0.023  0.00  0.00    -0.070 SA
ATOM      2  C   UNL d   1       0.076   1.230  -0.001  0.00  0.00     0.032 A 
ATOM      3  N   UNL d   1       1.493  -0.645   0.016  0.00  0.00    -0.359 N 
ATOM      4  HN  UNL d   1       2.381  -1.146   0.029  1.00  0.00     0.166 HD
ATOM      5  C   UNL d   1       0.306  -1.219  -0.007  0.00  0.00     0.074 A 
ATOM      6  C   UNL d   1       1.365   0.728   0.019  0.00  0.00     0.108 A 
ENDROOT
BRANCH   5   7
ATOM      7  C   UNL d   1       0.038  -2.618  -0.031  0.00  0.00     0.037 C 
ATOM      8  C   UNL d   1       1.045  -3.507  -0.043  0.00  0.00     0.004 C 
BRANCH   8   9
ATOM      9  C   UNL d   1       0.835  -4.937  -0.098  0.00  0.00     0.017 C 
ATOM     10  C   UNL d   1       1.837  -5.827  -0.090  0.00  0.00     0.085 C 
BRANCH  10  11
ATOM     11  N   UNL d   1       1.769  -7.212  -0.146  0.00  0.00    -0.386 N 
ATOM     12  C   UNL d   1       0.653  -7.933  -0.800  0.00  0.00     0.148 C 
ATOM     13  C   UNL d   1       0.442  -9.302  -0.140  0.00  0.00     0.187 C 
ATOM     14  O   UNL d   1       1.642 -10.090  -0.156  0.00  0.00    -0.388 OA
ATOM     15  C   UNL d   1       2.689  -9.401   0.546  0.00  0.00     0.187 C 
ATOM     16  C   UNL d   1       2.997  -8.039  -0.094  0.00  0.00     0.148 C 
ENDBRANCH  10  11
ENDBRANCH   8   9
ENDBRANCH   5   7
BRANCH   2  17
ATOM     17  C   UNL d   1      -0.374   2.631  -0.025  0.00  0.00    -0.018 A 
ATOM     18  C   UNL d   1      -1.597   3.038   0.534  0.00  0.00     0.014 A 
ATOM     19  C   UNL d   1      -1.977   4.387   0.531  0.00  0.00     0.020 A 
ATOM     20  C   UNL d   1      -1.136   5.342  -0.029  0.00  0.00     0.011 A 
ATOM     21  C   UNL d   1       0.077   4.965  -0.595  0.00  0.00     0.020 A 
ATOM     22 BR   UNL d   1      -1.637   7.165  -0.016  0.00  0.00    -0.051 Br
ATOM     23  C   UNL d   1       0.451   3.617  -0.593  0.00  0.00     0.014 A 
ENDBRANCH   2  17
TORSDOF 4
