REMARK  6 active torsions:
REMARK  status: ('A' for Active; 'I' for Inactive)
REMARK    1  A    between atoms: C_11  and  N_7 
REMARK    2  A    between atoms: O_14  and  C_10 
REMARK    3  A    between atoms: C_17  and  C_11 
REMARK    4  A    between atoms: C_24  and  O_14 
REMARK    5  A    between atoms: C_25  and  C_24 
REMARK    6  A    between atoms: C_26  and  C_25 
ROOT
ATOM      1  C   UNL d   1      -0.247  -0.794   0.014  0.00  0.00     0.147 A 
ATOM      2  C   UNL d   1      -0.504   0.545  -0.002  0.00  0.00     0.151 A 
ATOM      3  N   UNL d   1      -1.382  -1.534   0.034  0.00  0.00    -0.306 N 
ATOM      4  HN  UNL d   1      -1.463  -2.551   0.047  1.00  0.00     0.171 HD
ATOM      5  N   UNL d   1       1.033  -1.294   0.003  0.00  0.00    -0.287 N 
ATOM      6  N   UNL d   1       1.822   0.960  -0.005  0.00  0.00    -0.269 N 
ATOM      7  N   UNL d   1      -1.875   0.643   0.018  0.00  0.00    -0.301 N 
ATOM      8  C   UNL d   1       2.112  -0.413   0.002  0.00  0.00     0.332 A 
ATOM      9  C   UNL d   1       0.535   1.520  -0.031  0.00  0.00     0.282 A 
ATOM     10  C   UNL d   1      -2.358  -0.649   0.035  0.00  0.00     0.228 A 
ATOM     11  O   UNL d   1       3.275  -0.835   0.006  0.00  0.00    -0.246 OA
ATOM     12  O   UNL d   1       0.328   2.728  -0.087  0.00  0.00    -0.265 OA
ATOM     13  C   UNL d   1       1.298  -2.720  -0.003  0.00  0.00     0.163 C 
ATOM     14  C   UNL d   1       2.930   1.894  -0.001  0.00  0.00     0.164 C 
ENDROOT
BRANCH   7  15
ATOM     15  C   UNL d   1      -2.678   1.856  -0.021  0.00  0.00     0.171 C 
BRANCH  15  16
ATOM     16  C   UNL d   1      -3.026   2.361   1.361  0.00  0.00    -0.040 A 
ATOM     17  C   UNL d   1      -2.160   3.224   2.053  0.00  0.00     0.010 A 
ATOM     18  C   UNL d   1      -2.457   3.648   3.352  0.00  0.00     0.019 A 
ATOM     19  C   UNL d   1      -3.632   3.224   3.964  0.00  0.00     0.011 A 
ATOM     20  C   UNL d   1      -4.524   2.401   3.281  0.00  0.00     0.019 A 
ATOM     21 BR   UNL d   1      -4.010   3.756   5.739  0.00  0.00    -0.051 Br
ATOM     22  C   UNL d   1      -4.220   1.969   1.986  0.00  0.00     0.010 A 
ENDBRANCH  15  16
ENDBRANCH   7  15
BRANCH  10  23
ATOM     23  O   UNL d   1      -3.654  -0.960   0.055  0.00  0.00    -0.322 OA
BRANCH  23  24
ATOM     24  C   UNL d   1      -3.903  -2.296   0.519  0.00  0.00     0.178 C 
BRANCH  24  25
ATOM     25  C   UNL d   1      -5.383  -2.654   0.391  0.00  0.00     0.026 C 
BRANCH  25  26
ATOM     26  C   UNL d   1      -5.825  -2.785  -1.068  0.00  0.00    -0.002 C 
ATOM     27  C   UNL d   1      -7.294  -3.167  -1.176  0.00  0.00     0.005 C 
ENDBRANCH  25  26
ENDBRANCH  24  25
ENDBRANCH  23  24
ENDBRANCH  10  23
TORSDOF 6
