REMARK  3 active torsions:
REMARK  status: ('A' for Active; 'I' for Inactive)
REMARK       I    between atoms: C_3  and  N_1 
REMARK    1  A    between atoms: C_6  and  C_3 
REMARK    2  A    between atoms: C_12  and  C_4 
REMARK    3  A    between atoms: O_23  and  C_20 
ROOT
ATOM      1  N   UNL d   1      -2.528   0.337  -0.382  0.00  0.00    -0.334 N 
ATOM      2  C   UNL d   1      -0.192   0.822   0.036  0.00  0.00    -0.017 A 
ATOM      3  C   UNL d   1      -3.575   0.596  -1.274  0.00  0.00     0.261 C 
ATOM      4  C   UNL d   1      -1.605   1.335   0.180  0.00  0.00     0.155 C 
ATOM      5  C   UNL d   1       0.095  -0.521  -0.140  0.00  0.00    -0.007 A 
ATOM      6  C   UNL d   1      -2.335  -1.048   0.089  0.00  0.00     0.132 C 
ATOM      7  S   UNL d   1       1.761  -0.839  -0.227  0.00  0.00    -0.106 SA
ATOM      8  C   UNL d   1      -0.938  -1.600  -0.259  0.00  0.00     0.067 C 
ATOM      9  C   UNL d   1       1.008   1.604   0.051  0.00  0.00     0.018 A 
ATOM     10  C   UNL d   1       2.138   0.824  -0.065  0.00  0.00     0.051 A 
ATOM     11  O   UNL d   1      -4.353  -0.317  -1.581  0.00  0.00    -0.267 OA
ENDROOT
BRANCH   4  12
ATOM     12  C   UNL d   1      -1.844   1.653   1.655  0.00  0.00    -0.031 A 
ATOM     13  C   UNL d   1      -2.711   2.713   1.978  0.00  0.00     0.012 A 
ATOM     14  C   UNL d   1      -2.918   3.103   3.308  0.00  0.00     0.037 A 
ATOM     15  C   UNL d   1      -2.274   2.430   4.345  0.00  0.00     0.068 A 
ATOM     16  C   UNL d   1      -1.444   1.354   4.043  0.00  0.00     0.037 A 
ATOM     17  C   UNL d   1      -1.238   0.963   2.719  0.00  0.00     0.012 A 
BRANCH  15  18
ATOM     18  O   UNL d   1      -2.364   2.719   5.678  0.00  0.00    -0.356 OA
ATOM     19  C   UNL d   1      -3.208   3.800   6.045  0.00  0.00     0.210 C 
ENDBRANCH  15  18
ENDBRANCH   4  12
BRANCH   3  20
ATOM     20  C   UNL d   1      -3.743   1.931  -1.841  0.00  0.00     0.072 A 
ATOM     21  S   UNL d   1      -5.346   2.532  -2.033  0.00  0.00    -0.097 SA
ATOM     22  C   UNL d   1      -4.798   4.017  -2.674  0.00  0.00     0.050 A 
ATOM     23  C   UNL d   1      -3.427   4.060  -2.770  0.00  0.00     0.009 A 
ATOM     24  C   UNL d   1      -2.827   2.832  -2.360  0.00  0.00     0.025 A 
ENDBRANCH   3  20
TORSDOF 3
