REMARK  3 active torsions:
REMARK  status: ('A' for Active; 'I' for Inactive)
REMARK    1  A    between atoms: C_2  and  C_1 
REMARK    2  A    between atoms: C_6  and  C_8 
REMARK    3  A    between atoms: C_10  and  C_7 
ROOT
ATOM      1  C   UNL d   1      -0.184   0.999  -0.062  0.00  0.00     0.160 A 
ATOM      2  N   UNL d   1      -1.279   0.287  -0.238  0.00  0.00    -0.343 N 
ATOM      3  HN  UNL d   1      -2.240   0.618  -0.328  1.00  0.00     0.167 HD
ATOM      4  O   UNL d   1       0.970   0.262  -0.017  0.00  0.00    -0.291 OA
ATOM      5  C   UNL d   1       0.551  -1.039  -0.147  0.00  0.00     0.103 A 
ATOM      6  C   UNL d   1      -0.822  -1.005  -0.272  0.00  0.00     0.128 A 
ENDROOT
BRANCH   1   7
ATOM      7  C   UNL d   1      -0.050   2.441   0.058  0.00  0.00     0.046 A 
ATOM      8  C   UNL d   1      -0.984   3.257   0.718  0.00  0.00     0.065 A 
ATOM      9  C   UNL d   1      -0.810   4.655   0.667  0.00  0.00     0.034 A 
ATOM     10  C   UNL d   1       0.287   5.182   0.011  0.00  0.00     0.088 A 
ATOM     11  N   UNL d   1       1.217   4.422  -0.592  0.00  0.00    -0.374 N 
ATOM     12  C   UNL d   1       1.028   3.078  -0.558  0.00  0.00     0.104 A 
ATOM     13  HN  UNL d   1       2.027   4.835  -1.054  1.00  0.00     0.164 HD
BRANCH   8  14
ATOM     14  C   UNL d   1      -2.175   2.741   1.488  0.00  0.00     0.418 C 
ATOM     15  F   UNL d   1      -2.128   1.440   1.873  0.00  0.00    -0.166 F 
ATOM     16  F   UNL d   1      -2.336   3.434   2.658  0.00  0.00    -0.166 F 
ATOM     17  F   UNL d   1      -3.342   2.912   0.811  0.00  0.00    -0.166 F 
ENDBRANCH   8  14
ENDBRANCH   1   7
BRANCH   5  18
ATOM     18  C   UNL d   1       1.562  -2.089  -0.145  0.00  0.00     0.001 A 
ATOM     19  C   UNL d   1       2.929  -1.796  -0.035  0.00  0.00     0.038 A 
ATOM     20  C   UNL d   1       3.878  -2.821  -0.083  0.00  0.00     0.035 A 
ATOM     21 CL   UNL d   1       5.553  -2.442   0.032  0.00  0.00    -0.084 Cl
ATOM     22  C   UNL d   1       3.485  -4.149  -0.232  0.00  0.00     0.024 A 
ATOM     23  C   UNL d   1       2.130  -4.457  -0.324  0.00  0.00     0.003 A 
ATOM     24  C   UNL d   1       1.178  -3.434  -0.279  0.00  0.00     0.014 A 
ENDBRANCH   5  18
TORSDOF 3
