REMARK  5 active torsions:
REMARK  status: ('A' for Active; 'I' for Inactive)
REMARK    1  A    between atoms: N_3  and  S_1 
REMARK    2  A    between atoms: C_4  and  S_1 
REMARK    3  A    between atoms: O_17  and  C_2 
REMARK    4  A    between atoms: N_7  and  N_3 
REMARK    5  A    between atoms: C_6  and  C_12 
ROOT
ATOM      1  N   UNL d   1       0.866   1.592  -2.208  0.00  0.00    -0.301 N 
ATOM      2  HN  UNL d   1       1.577   2.212  -1.821  1.00  0.00     0.186 HD
ATOM      3  C   UNL d   1       0.283   1.833  -3.339  0.00  0.00     0.122 C 
ENDROOT
BRANCH   1   4
ATOM      4  N   UNL d   1       0.447   0.401  -1.538  0.00  0.00    -0.223 N 
ATOM      5  H   UNL d   1      -0.293  -0.206  -1.896  0.00  0.00     0.200 HD
BRANCH   4   6
ATOM      6  S   UNL d   1       0.598   0.304   0.160  0.00  0.00     0.276 S 
ATOM      7  O   UNL d   1      -0.418  -0.638   0.584  0.00  0.00    -0.199 OA
ATOM      8  O   UNL d   1       0.680   1.637   0.718  0.00  0.00    -0.199 OA
BRANCH   6   9
ATOM      9  C   UNL d   1       2.183  -0.466   0.343  0.00  0.00     0.081 A 
ATOM     10  C   UNL d   1       3.323   0.195  -0.124  0.00  0.00     0.026 A 
ATOM     11  C   UNL d   1       4.568  -0.425  -0.016  0.00  0.00     0.008 A 
ATOM     12  C   UNL d   1       4.681  -1.697   0.564  0.00  0.00    -0.062 A 
ATOM     13  C   UNL d   1       3.533  -2.333   1.055  0.00  0.00     0.008 A 
ATOM     14  C   UNL d   1       6.022  -2.363   0.648  0.00  0.00     0.048 C 
ATOM     15  C   UNL d   1       2.283  -1.721   0.947  0.00  0.00     0.026 A 
ENDBRANCH   6   9
ENDBRANCH   4   6
ENDBRANCH   1   4
BRANCH   3  16
ATOM     16  C   UNL d   1       0.643   3.027  -4.134  0.00  0.00     0.015 A 
ATOM     17  C   UNL d   1       1.676   3.897  -3.755  0.00  0.00     0.088 A 
ATOM     18  C   UNL d   1       2.027   5.000  -4.563  0.00  0.00     0.008 A 
ATOM     19  C   UNL d   1       3.077   5.880  -4.235  0.00  0.00     0.015 A 
ATOM     20  C   UNL d   1       1.299   5.232  -5.755  0.00  0.00    -0.023 A 
ATOM     21  C   UNL d   1       3.405   6.958  -5.056  0.00  0.00     0.001 A 
ATOM     22  C   UNL d   1       2.683   7.183  -6.223  0.00  0.00     0.001 A 
ATOM     23  C   UNL d   1       1.637   6.326  -6.569  0.00  0.00     0.012 A 
ATOM     24  C   UNL d   1       0.251   4.364  -6.108  0.00  0.00     0.013 A 
ATOM     25  C   UNL d   1      -0.073   3.265  -5.309  0.00  0.00     0.016 A 
BRANCH  17  26
ATOM     26  O   UNL d   1       2.387   3.713  -2.590  0.00  0.00    -0.359 OA
ATOM     27  H   UNL d   1       1.958   2.995  -2.078  0.00  0.00     0.217 HD
ENDBRANCH  17  26
ENDBRANCH   3  16
TORSDOF 5
