REMARK  5 active torsions:
REMARK  status: ('A' for Active; 'I' for Inactive)
REMARK    1  A    between atoms: C_8  and  C_1 
REMARK    2  A    between atoms: S_15  and  C_5 
REMARK    3  A    between atoms: C_9  and  C_17 
REMARK    4  A    between atoms: C_24  and  S_15 
REMARK    5  A    between atoms: C_25  and  C_24 
ROOT
ATOM      1  C   UNL d   1       2.132  -2.900  -0.130  0.00  0.00     0.121 C 
ENDROOT
BRANCH   1   2
ATOM      2  S   UNL d   1       0.320  -2.737   0.020  0.00  0.00    -0.088 SA
BRANCH   2   3
ATOM      3  C   UNL d   1       0.117  -1.023   0.078  0.00  0.00     0.162 A 
ATOM      4  N   UNL d   1      -1.111  -0.406   0.072  0.00  0.00    -0.312 N 
ATOM      5  C   UNL d   1      -0.849   0.938   0.233  0.00  0.00     0.209 A 
ATOM      6  C   UNL d   1      -2.376  -1.080  -0.085  0.00  0.00     0.160 C 
ATOM      7  N   UNL d   1       0.467   1.101   0.257  0.00  0.00    -0.279 N 
ATOM      8  N   UNL d   1       1.067  -0.128   0.162  0.00  0.00    -0.278 N 
ATOM      9  HN  UNL d   1       0.953   1.994   0.334  1.00  0.00     0.188 HD
ATOM     10  HN  UNL d   1       2.070  -0.310   0.157  1.00  0.00     0.189 HD
BRANCH   5  11
ATOM     11  C   UNL d   1      -1.845   2.037   0.377  0.00  0.00     0.450 C 
ATOM     12  F   UNL d   1      -3.137   1.617   0.366  0.00  0.00    -0.163 F 
ATOM     13  F   UNL d   1      -1.688   2.710   1.548  0.00  0.00    -0.163 F 
ATOM     14  F   UNL d   1      -1.741   2.953  -0.621  0.00  0.00    -0.163 F 
ENDBRANCH   5  11
ENDBRANCH   2   3
ENDBRANCH   1   2
BRANCH   1  15
ATOM     15  C   UNL d   1       2.604  -4.336  -0.287  0.00  0.00    -0.048 A 
ATOM     16  C   UNL d   1       1.888  -5.282  -1.034  0.00  0.00     0.009 A 
ATOM     17  C   UNL d   1       2.349  -6.593  -1.180  0.00  0.00     0.016 A 
ATOM     18  C   UNL d   1       3.565  -6.997  -0.616  0.00  0.00     0.017 A 
ATOM     19  C   UNL d   1       4.309  -6.047   0.098  0.00  0.00     0.016 A 
ATOM     20  C   UNL d   1       3.836  -4.734   0.259  0.00  0.00     0.009 A 
BRANCH  18  21
ATOM     21  C   UNL d   1       4.053  -8.361  -0.773  0.00  0.00     0.173 A 
ATOM     22  N   UNL d   1       5.163  -8.933  -0.348  0.00  0.00    -0.278 N 
ATOM     23  N   UNL d   1       5.122 -10.247  -0.778  0.00  0.00    -0.288 N 
ATOM     24  HN  UNL d   1       5.908  -8.492   0.192  1.00  0.00     0.189 HD
ATOM     25  C   UNL d   1       3.990 -10.377  -1.429  0.00  0.00     0.251 A 
ATOM     26  HN  UNL d   1       5.826 -10.967  -0.620  1.00  0.00     0.188 HD
ATOM     27  O   UNL d   1       3.255  -9.237  -1.474  0.00  0.00    -0.286 OA
ENDBRANCH  18  21
ENDBRANCH   1  15
TORSDOF 5
