REMARK  4 active torsions:
REMARK  status: ('A' for Active; 'I' for Inactive)
REMARK    1  A    between atoms: C_11  and  C_1 
REMARK    2  A    between atoms: O_7  and  C_4 
REMARK    3  A    between atoms: C_8  and  O_7 
REMARK    4  A    between atoms: C_14  and  C_8 
ROOT
ATOM      1  C   UNL d   1       2.587  -0.900  -0.156  0.00  0.00     0.077 A 
ATOM      2  N   UNL d   1       1.025   0.979  -0.035  0.00  0.00    -0.312 N 
ATOM      3  C   UNL d   1       2.336   0.599  -0.061  0.00  0.00     0.262 A 
ATOM      4  C   UNL d   1       1.553  -1.780  -0.187  0.00  0.00     0.108 A 
ATOM      5  C   UNL d   1       0.160  -1.296  -0.053  0.00  0.00     0.026 A 
ATOM      6  C   UNL d   1      -0.017   0.074  -0.021  0.00  0.00     0.057 A 
ATOM      7  C   UNL d   1       0.497   2.340   0.019  0.00  0.00     0.137 A 
ATOM      8  O   UNL d   1       3.259   1.410  -0.022  0.00  0.00    -0.267 OA
ATOM      9  C   UNL d   1      -1.242   0.723   0.036  0.00  0.00    -0.029 A 
ATOM     10  C   UNL d   1      -1.045   2.209   0.033  0.00  0.00     0.061 A 
ATOM     11  C   UNL d   1      -1.011  -2.054   0.016  0.00  0.00     0.017 A 
ATOM     12  C   UNL d   1      -2.276  -1.424   0.067  0.00  0.00     0.002 A 
ATOM     13  C   UNL d   1      -2.399  -0.026   0.070  0.00  0.00     0.009 A 
ENDROOT
BRANCH   4  14
ATOM     14  O   UNL d   1       1.751  -3.176  -0.344  0.00  0.00    -0.273 OA
BRANCH  14  15
ATOM     15  C   UNL d   1       1.315  -3.654  -1.549  0.00  0.00     0.298 C 
ATOM     16  O   UNL d   1       0.758  -3.019  -2.438  0.00  0.00    -0.259 OA
BRANCH  15  17
ATOM     17  C   UNL d   1       1.548  -5.113  -1.690  0.00  0.00     0.039 A 
ATOM     18  C   UNL d   1       2.642  -5.763  -1.110  0.00  0.00     0.017 A 
ATOM     19  C   UNL d   1       2.892  -7.106  -1.417  0.00  0.00     0.001 A 
ATOM     20  C   UNL d   1       2.047  -7.804  -2.285  0.00  0.00     0.000 A 
ATOM     21  C   UNL d   1       0.934  -7.173  -2.829  0.00  0.00     0.001 A 
ATOM     22  C   UNL d   1       0.682  -5.833  -2.532  0.00  0.00     0.017 A 
ENDBRANCH  15  17
ENDBRANCH  14  15
ENDBRANCH   4  14
BRANCH   1  23
ATOM     23  C   UNL d   1       3.993  -1.332  -0.250  0.00  0.00    -0.018 A 
ATOM     24  C   UNL d   1       4.608  -1.463  -1.501  0.00  0.00     0.012 A 
ATOM     25  C   UNL d   1       5.976  -1.732  -1.585  0.00  0.00     0.001 A 
ATOM     26  C   UNL d   1       6.734  -1.875  -0.423  0.00  0.00     0.000 A 
ATOM     27  C   UNL d   1       6.125  -1.759   0.826  0.00  0.00     0.001 A 
ATOM     28  C   UNL d   1       4.758  -1.490   0.913  0.00  0.00     0.012 A 
ENDBRANCH   1  23
TORSDOF 4
