REMARK  4 active torsions:
REMARK  status: ('A' for Active; 'I' for Inactive)
REMARK    1  A    between atoms: C_5  and  N_1 
REMARK    2  A    between atoms: N_9  and  C_2 
REMARK    3  A    between atoms: S_17  and  C_8 
REMARK    4  A    between atoms: N_18  and  C_13 
ROOT
ATOM      1  N   UNL d   1      -0.044  -1.178   0.140  0.00  0.00    -0.081 N 
ATOM      2  C   UNL d   1       1.243  -0.625   0.107  0.00  0.00     0.707 A 
ATOM      3  N   UNL d   1       1.127   0.690   0.133  0.00  0.00    -0.167 N 
ATOM      4  HN  UNL d   1       1.873   1.385   0.141  1.00  0.00     0.186 HD
ATOM      5  N   UNL d   1      -0.970  -0.192   0.153  0.00  0.00    -0.258 N 
ATOM      6  HN  UNL d   1      -1.987  -0.269   0.164  1.00  0.00     0.190 HD
ATOM      7  C   UNL d   1      -0.214   0.903   0.146  0.00  0.00     0.174 A 
ENDROOT
BRANCH   1   8
ATOM      8  C   UNL d   1      -0.422  -2.543   0.118  0.00  0.00     0.118 A 
ATOM      9  C   UNL d   1       0.193  -3.480   0.968  0.00  0.00     0.066 A 
ATOM     10  C   UNL d   1      -0.132  -4.839   0.876  0.00  0.00     0.050 A 
ATOM     11 CL   UNL d   1       1.224  -3.053   2.295  0.00  0.00    -0.082 Cl
ATOM     12  C   UNL d   1      -1.095  -5.265  -0.030  0.00  0.00     0.037 A 
ATOM     13  C   UNL d   1      -1.749  -4.347  -0.842  0.00  0.00     0.050 A 
ATOM     14 CL   UNL d   1      -1.489  -6.935  -0.138  0.00  0.00    -0.084 Cl
ATOM     15  C   UNL d   1      -1.416  -2.987  -0.777  0.00  0.00     0.066 A 
ATOM     16 CL   UNL d   1      -2.213  -1.975  -1.934  0.00  0.00    -0.082 Cl
ENDBRANCH   1   8
BRANCH   2  17
ATOM     17  N   UNL d   1       2.352  -1.399  -0.013  0.00  0.00    -0.186 N 
ATOM     18  C   UNL d   1       3.482  -0.775   0.030  0.00  0.00     0.195 C 
ATOM     19  HN  UNL d   1       2.297  -2.411  -0.129  1.00  0.00     0.185 HD
BRANCH  18  20
ATOM     20  N   UNL d   1       4.728  -1.361  -0.036  0.00  0.00    -0.385 N 
ATOM     21  C   UNL d   1       4.889  -2.793   0.179  0.00  0.00     0.149 C 
ATOM     22  C   UNL d   1       5.936  -0.567   0.126  0.00  0.00     0.149 C 
ENDBRANCH  18  20
ENDBRANCH   2  17
BRANCH   7  23
ATOM     23  S   UNL d   1      -0.940   2.486   0.129  0.00  0.00    -0.097 SA
ATOM     24  C   UNL d   1       0.530   3.523   0.007  0.00  0.00     0.099 C 
ENDBRANCH   7  23
TORSDOF 4
