REMARK  4 active torsions:
REMARK  status: ('A' for Active; 'I' for Inactive)
REMARK    1  A    between atoms: C_2  and  C_1 
REMARK    2  A    between atoms: C_8  and  C_1 
REMARK    3  A    between atoms: C_9  and  C_3 
REMARK    4  A    between atoms: N_6  and  C_4 
ROOT
ATOM      1  C   UNL d   1       2.316  -0.252  -0.150  0.00  0.00     0.037 C 
ATOM      2  C   UNL d   1       3.167   0.317   0.732  0.00  0.00     0.055 C 
ATOM      3  C   UNL d   1       2.675   0.944   1.926  0.00  0.00     0.100 C 
ATOM      4  N   UNL d   1       2.307   1.476   2.888  0.00  0.00    -0.191 NA
ENDROOT
BRANCH   2   5
ATOM      5  C   UNL d   1       4.644   0.299   0.509  0.00  0.00    -0.015 A 
ATOM      6  C   UNL d   1       5.443   1.377   0.938  0.00  0.00     0.013 A 
ATOM      7  C   UNL d   1       6.836   1.339   0.827  0.00  0.00     0.001 A 
ATOM      8  C   UNL d   1       7.462   0.226   0.274  0.00  0.00     0.000 A 
ATOM      9  C   UNL d   1       6.693  -0.843  -0.177  0.00  0.00     0.001 A 
ATOM     10  C   UNL d   1       5.298  -0.809  -0.058  0.00  0.00     0.013 A 
ENDBRANCH   2   5
BRANCH   1  11
ATOM     11  C   UNL d   1       0.848  -0.329  -0.063  0.00  0.00    -0.009 C 
ATOM     12  C   UNL d   1       0.114   0.807  -0.037  0.00  0.00     0.098 C 
BRANCH  12  13
ATOM     13  N   UNL d   1      -1.241   1.126  -0.021  0.00  0.00    -0.385 N 
ATOM     14  C   UNL d   1      -1.701   2.535  -0.009  0.00  0.00     0.148 C 
ATOM     15  C   UNL d   1      -2.783   2.728  -1.080  0.00  0.00     0.187 C 
ATOM     16  O   UNL d   1      -3.901   1.853  -0.857  0.00  0.00    -0.388 OA
ATOM     17  C   UNL d   1      -3.468   0.482  -0.872  0.00  0.00     0.187 C 
ATOM     18  C   UNL d   1      -2.381   0.209   0.183  0.00  0.00     0.148 C 
ENDBRANCH  12  13
BRANCH  11  19
ATOM     19  C   UNL d   1       0.207  -1.657  -0.130  0.00  0.00    -0.025 A 
ATOM     20  C   UNL d   1      -0.218  -2.177  -1.359  0.00  0.00     0.012 A 
ATOM     21  C   UNL d   1      -0.857  -3.417  -1.417  0.00  0.00     0.001 A 
ATOM     22  C   UNL d   1      -1.065  -4.148  -0.247  0.00  0.00     0.000 A 
ATOM     23  C   UNL d   1      -0.628  -3.647   0.979  0.00  0.00     0.001 A 
ATOM     24  C   UNL d   1       0.012  -2.406   1.040  0.00  0.00     0.012 A 
ENDBRANCH  11  19
ENDBRANCH   1  11
TORSDOF 4
