REMARK  4 active torsions:
REMARK  status: ('A' for Active; 'I' for Inactive)
REMARK    1  A    between atoms: C_4  and  C_1 
REMARK    2  A    between atoms: C_2  and  C_3 
REMARK       I    between atoms: C_5  and  N_11 
REMARK       I    between atoms: N_21  and  C_5 
REMARK    3  A    between atoms: N_11  and  N_7 
REMARK    4  A    between atoms: C_20  and  C_12 
ROOT
ATOM      1  C   UNL d   1       0.682   3.619  -1.159  0.00  0.00     0.049 A 
ATOM      2  C   UNL d   1       0.607   1.193  -0.833  0.00  0.00     0.049 A 
ATOM      3  C   UNL d   1       1.082   2.466  -0.466  0.00  0.00     0.032 A 
ATOM      4  C   UNL d   1      -0.199   3.482  -2.240  0.00  0.00     0.029 A 
ATOM      5  C   UNL d   1      -0.284   1.080  -1.916  0.00  0.00     0.029 A 
ATOM      6  C   UNL d   1      -0.689   2.224  -2.608  0.00  0.00    -0.018 A 
ENDROOT
BRANCH   6   7
ATOM      7  C   UNL d   1      -1.679   2.113  -3.701  0.00  0.00     0.118 C 
ATOM      8  N   UNL d   1      -2.131   3.181  -4.276  0.00  0.00    -0.307 N 
ATOM      9  HN  UNL d   1      -1.803   4.112  -4.022  1.00  0.00     0.186 HD
BRANCH   8  10
ATOM     10  N   UNL d   1      -3.073   2.985  -5.242  0.00  0.00    -0.252 N 
ATOM     11  C   UNL d   1      -3.653   4.045  -5.895  0.00  0.00     0.332 C 
ATOM     12  O   UNL d   1      -4.492   3.912  -6.779  0.00  0.00    -0.246 OA
ATOM     13  N   UNL d   1      -3.222   5.260  -5.472  0.00  0.00    -0.351 N 
ATOM     14  H   UNL d   1      -2.422   5.255  -4.853  0.00  0.00     0.160 HD
ATOM     15  H   UNL d   1      -3.505   6.093  -5.963  0.00  0.00     0.160 HD
ATOM     16  H   UNL d   1      -3.389   2.057  -5.499  0.00  0.00     0.191 HD
ENDBRANCH   8  10
ENDBRANCH   6   7
BRANCH   1  17
ATOM     17  C   UNL d   1       1.157   4.994  -0.756  0.00  0.00     0.417 C 
ATOM     18  F   UNL d   1       1.918   4.993   0.373  0.00  0.00    -0.166 F 
ATOM     19  F   UNL d   1       1.914   5.585  -1.720  0.00  0.00    -0.166 F 
ATOM     20  F   UNL d   1       0.125   5.846  -0.511  0.00  0.00    -0.166 F 
ENDBRANCH   1  17
BRANCH   2  21
ATOM     21  C   UNL d   1       1.026  -0.040  -0.066  0.00  0.00     0.417 C 
ATOM     22  F   UNL d   1       1.847   0.227   0.986  0.00  0.00    -0.166 F 
ATOM     23  F   UNL d   1       1.693  -0.933  -0.847  0.00  0.00    -0.166 F 
ATOM     24  F   UNL d   1      -0.039  -0.713   0.450  0.00  0.00    -0.166 F 
ENDBRANCH   2  21
TORSDOF 4
