REMARK  1 active torsions:
REMARK  status: ('A' for Active; 'I' for Inactive)
REMARK    1  A    between atoms: C_13  and  C_4 
ROOT
ATOM      1  C   UNL d   1       1.349   0.829  -0.011  0.00  0.00     0.006 A 
ATOM      2  C   UNL d   1       0.740  -0.370  -0.021  0.00  0.00     0.057 A 
ATOM      3  C   UNL d   1       3.569  -0.226  -0.006  0.00  0.00     0.124 A 
ATOM      4  C   UNL d   1       2.826   0.909   0.003  0.00  0.00     0.011 A 
ATOM      5  N   UNL d   1       1.501  -1.512  -0.023  0.00  0.00    -0.321 N 
ATOM      6  C   UNL d   1       2.871  -1.541  -0.019  0.00  0.00     0.267 A 
ATOM      7  C   UNL d   1      -0.733  -0.422  -0.019  0.00  0.00     0.025 A 
ATOM      8  C   UNL d   1       0.552   2.111  -0.007  0.00  0.00     0.217 C 
ATOM      9  C   UNL d   1       4.998  -0.241   0.003  0.00  0.00     0.106 C 
ATOM     10  O   UNL d   1      -0.871   2.014  -0.116  0.00  0.00    -0.346 OA
ATOM     11  N   UNL d   1       6.159  -0.220   0.011  0.00  0.00    -0.191 NA
ATOM     12  C   UNL d   1      -1.449   0.781  -0.052  0.00  0.00     0.081 A 
ATOM     13  O   UNL d   1       3.475  -2.611  -0.022  0.00  0.00    -0.266 OA
ATOM     14  C   UNL d   1      -1.473  -1.619   0.013  0.00  0.00     0.016 A 
ATOM     15  C   UNL d   1      -2.850   0.792  -0.042  0.00  0.00     0.038 A 
ATOM     16  C   UNL d   1      -2.874  -1.607   0.019  0.00  0.00     0.001 A 
ATOM     17  C   UNL d   1      -3.564  -0.401  -0.004  0.00  0.00     0.003 A 
ATOM     18  H   UNL d   1       1.065  -2.423  -0.029  0.00  0.00     0.169 HD
ENDROOT
BRANCH   4  19
ATOM     19  C   UNL d   1       3.535   2.213   0.040  0.00  0.00    -0.021 A 
ATOM     20  C   UNL d   1       3.904   2.856  -1.143  0.00  0.00     0.029 A 
ATOM     21  C   UNL d   1       4.587   4.057  -1.049  0.00  0.00     0.088 A 
ATOM     22  N   UNL d   1       4.899   4.652   0.122  0.00  0.00    -0.375 N 
ATOM     23  C   UNL d   1       4.529   4.013   1.251  0.00  0.00     0.088 A 
ATOM     24  HN  UNL d   1       5.393   5.544   0.151  1.00  0.00     0.164 HD
ATOM     25  C   UNL d   1       3.851   2.806   1.264  0.00  0.00     0.029 A 
ENDBRANCH   4  19
TORSDOF 1
