REMARK  8 active torsions:
REMARK  status: ('A' for Active; 'I' for Inactive)
REMARK    1  A    between atoms: C_5  and  C_1 
REMARK       I    between atoms: C_4  and  N_10 
REMARK    2  A    between atoms: C_11  and  C_4 
REMARK    3  A    between atoms: C_6  and  C_11 
REMARK    4  A    between atoms: C_13  and  C_6 
REMARK    5  A    between atoms: C_8  and  C_13 
REMARK    6  A    between atoms: O_19  and  C_8 
REMARK    7  A    between atoms: N_10  and  C_17 
REMARK    8  A    between atoms: C_17  and  C_18 
ROOT
ATOM      1  C   UNL d   1       2.128  -8.397   1.856  0.00  0.00     0.218 C 
ATOM      2  N   UNL d   1       1.601  -7.139   1.652  0.00  0.00    -0.357 N 
ATOM      3  O   UNL d   1       2.472  -8.820   2.954  0.00  0.00    -0.274 OA
ATOM      4  H   UNL d   1       1.245  -6.889   0.738  0.00  0.00     0.162 HD
ENDROOT
BRANCH   2   5
ATOM      5  C   UNL d   1       1.384  -6.184   2.724  0.00  0.00     0.161 C 
BRANCH   5   6
ATOM      6  C   UNL d   1       2.191  -4.917   2.554  0.00  0.00    -0.040 A 
ATOM      7  C   UNL d   1       1.633  -3.668   2.859  0.00  0.00     0.010 A 
ATOM      8  C   UNL d   1       2.411  -2.502   2.823  0.00  0.00     0.013 A 
ATOM      9  C   UNL d   1       3.777  -2.552   2.505  0.00  0.00    -0.018 A 
ATOM     10  C   UNL d   1       4.324  -3.803   2.187  0.00  0.00     0.013 A 
ATOM     11  C   UNL d   1       3.547  -4.967   2.210  0.00  0.00     0.010 A 
BRANCH   9  12
ATOM     12  C   UNL d   1       4.645  -1.356   2.558  0.00  0.00     0.021 A 
ATOM     13  C   UNL d   1       5.684  -0.956   1.718  0.00  0.00    -0.044 A 
ATOM     14  C   UNL d   1       6.338   0.223   2.217  0.00  0.00     0.015 A 
ATOM     15  C   UNL d   1       6.129  -1.634   0.461  0.00  0.00     0.049 C 
ATOM     16  C   UNL d   1       5.773   0.700   3.373  0.00  0.00     0.051 A 
ATOM     17  S   UNL d   1       4.465  -0.262   3.880  0.00  0.00    -0.101 SA
ENDBRANCH   9  12
ENDBRANCH   5   6
ENDBRANCH   2   5
BRANCH   1  18
ATOM     18  C   UNL d   1       2.121  -9.251   0.593  0.00  0.00     0.112 C 
BRANCH  18  19
ATOM     19  C   UNL d   1       2.857 -10.632   0.591  0.00  0.00    -0.023 C 
ATOM     20  C   UNL d   1       4.399 -10.457   0.485  0.00  0.00     0.010 C 
ATOM     21  C   UNL d   1       4.905  -9.956  -0.869  0.00  0.00     0.001 C 
ATOM     22  C   UNL d   1       4.342 -10.755  -2.039  0.00  0.00     0.000 C 
ATOM     23  C   UNL d   1       2.825 -10.838  -1.984  0.00  0.00     0.001 C 
ATOM     24  C   UNL d   1       2.364 -11.428  -0.655  0.00  0.00     0.010 C 
BRANCH  19  25
ATOM     25  C   UNL d   1       2.587 -11.497   1.855  0.00  0.00     0.119 C 
BRANCH  25  26
ATOM     26  C   UNL d   1       1.131 -11.818   2.094  0.00  0.00     0.140 C 
ATOM     27  O   UNL d   1       0.541 -12.739   1.561  0.00  0.00    -0.650 OA
BRANCH  26  28
ATOM     28  O   UNL d   1       0.526 -10.951   2.935  0.00  0.00    -0.776 OA
ATOM     29  H   UNL d   1       1.141 -10.272   3.300  0.00  0.00     0.167 HD
ENDBRANCH  26  28
ENDBRANCH  25  26
ENDBRANCH  19  25
ENDBRANCH  18  19
ENDBRANCH   1  18
TORSDOF 8
