REMARK  7 active torsions:
REMARK  status: ('A' for Active; 'I' for Inactive)
REMARK    1  A    between atoms: N_2  and  C_1 
REMARK    2  A    between atoms: N_9  and  C_1 
REMARK    3  A    between atoms: C_3  and  N_2 
REMARK    4  A    between atoms: C_18  and  N_9 
REMARK    5  A    between atoms: C_19  and  N_9 
REMARK    6  A    between atoms: C_16  and  C_18 
REMARK    7  A    between atoms: C_17  and  C_19 
ROOT
ATOM      1  N   UNL d   1       4.454  -2.101  -2.623  0.00  0.00    -0.197 NA
ATOM      2  C   UNL d   1       3.807  -2.255  -1.673  0.00  0.00     0.060 C 
ATOM      3  C   UNL d   1       3.000  -2.438  -0.459  0.00  0.00     0.143 C 
ENDROOT
BRANCH   3   4
ATOM      4  C   UNL d   1       2.931  -1.171   0.406  0.00  0.00     0.139 C 
BRANCH   4   5
ATOM      5  N   UNL d   1       2.139  -0.059  -0.172  0.00  0.00    -0.357 N 
BRANCH   5   6
ATOM      6  C   UNL d   1       0.737  -0.013  -0.040  0.00  0.00     0.170 C 
ATOM      7  S   UNL d   1      -0.309   0.322  -1.308  0.00  0.00    -0.041 SA
BRANCH   6   8
ATOM      8  N   UNL d   1       0.305  -0.223   1.258  0.00  0.00    -0.362 N 
ATOM      9  H   UNL d   1       1.018  -0.439   1.936  0.00  0.00     0.162 HD
BRANCH   8  10
ATOM     10  C   UNL d   1      -0.837   0.469   1.879  0.00  0.00     0.092 C 
ATOM     11  C   UNL d   1      -1.895  -0.442   2.562  0.00  0.00     0.031 C 
ATOM     12  C   UNL d   1      -1.238  -1.312   3.612  0.00  0.00    -0.024 C 
ATOM     13  C   UNL d   1      -2.562   0.576   3.503  0.00  0.00     0.019 C 
ATOM     14  C   UNL d   1      -0.848  -0.504   4.609  0.00  0.00    -0.026 C 
ATOM     15  C   UNL d   1      -1.257   0.902   4.234  0.00  0.00     0.010 C 
ATOM     16  C   UNL d   1      -0.368   1.377   3.066  0.00  0.00     0.034 C 
ENDBRANCH   8  10
ENDBRANCH   6   8
ENDBRANCH   5   6
BRANCH   5  17
ATOM     17  C   UNL d   1       2.852   0.761  -1.186  0.00  0.00     0.139 C 
BRANCH  17  18
ATOM     18  C   UNL d   1       2.550   2.267  -1.212  0.00  0.00     0.143 C 
ATOM     19  C   UNL d   1       2.499   2.861   0.126  0.00  0.00     0.060 C 
ATOM     20  N   UNL d   1       2.448   3.344   1.183  0.00  0.00    -0.197 NA
ENDBRANCH  17  18
ENDBRANCH   5  17
ENDBRANCH   4   5
ENDBRANCH   3   4
TORSDOF 7
