REMARK  10 active torsions:
REMARK  status: ('A' for Active; 'I' for Inactive)
REMARK    1  A    between atoms: N_3  and  C_1 
REMARK    2  A    between atoms: N_4  and  C_1 
REMARK    3  A    between atoms: C_2  and  C_5 
REMARK    4  A    between atoms: C_7  and  N_3 
REMARK    5  A    between atoms: C_11  and  N_4 
REMARK    6  A    between atoms: C_12  and  N_4 
REMARK    7  A    between atoms: C_13  and  C_11 
REMARK    8  A    between atoms: C_18  and  C_12 
REMARK    9  A    between atoms: C_17  and  C_13 
REMARK   10  A    between atoms: C_19  and  C_18 
ROOT
ATOM      1  N   UNL d   1       0.347  -0.512   1.011  0.00  0.00    -0.357 N 
ENDROOT
BRANCH   1   2
ATOM      2  C   UNL d   1       1.122   0.348   0.174  0.00  0.00     0.174 C 
ATOM      3  S   UNL d   1       0.875   2.003   0.042  0.00  0.00    -0.041 SA
BRANCH   2   4
ATOM      4  N   UNL d   1       2.091  -0.413  -0.483  0.00  0.00    -0.333 N 
ATOM      5  H   UNL d   1       1.801  -1.373  -0.627  0.00  0.00     0.168 HD
BRANCH   4   6
ATOM      6  C   UNL d   1       3.307  -0.023  -1.085  0.00  0.00     0.035 A 
ATOM      7  C   UNL d   1       3.867  -0.869  -2.055  0.00  0.00     0.045 A 
ATOM      8  C   UNL d   1       5.094  -0.549  -2.668  0.00  0.00     0.050 A 
ATOM      9  C   UNL d   1       5.769   0.617  -2.276  0.00  0.00     0.016 A 
ATOM     10  C   UNL d   1       5.235   1.439  -1.289  0.00  0.00     0.003 A 
ATOM     11  C   UNL d   1       4.014   1.115  -0.694  0.00  0.00     0.029 A 
BRANCH   8  12
ATOM     12  C   UNL d   1       5.701  -1.432  -3.728  0.00  0.00     0.417 C 
ATOM     13  F   UNL d   1       4.923  -2.499  -4.063  0.00  0.00    -0.166 F 
ATOM     14  F   UNL d   1       5.938  -0.764  -4.891  0.00  0.00    -0.166 F 
ATOM     15  F   UNL d   1       6.901  -1.951  -3.346  0.00  0.00    -0.166 F 
ENDBRANCH   8  12
ENDBRANCH   4   6
ENDBRANCH   2   4
ENDBRANCH   1   2
BRANCH   1  16
ATOM     16  C   UNL d   1       1.057  -0.783   2.287  0.00  0.00     0.131 C 
BRANCH  16  17
ATOM     17  C   UNL d   1       0.523  -1.954   3.117  0.00  0.00     0.077 C 
BRANCH  17  18
ATOM     18  C   UNL d   1       1.296  -2.188   4.397  0.00  0.00     0.010 A 
ATOM     19  N   UNL d   1       1.945  -1.138   4.953  0.00  0.00    -0.369 N 
ATOM     20  C   UNL d   1       2.558  -1.338   6.144  0.00  0.00     0.088 A 
ATOM     21  HN  UNL d   1       1.972  -0.229   4.491  1.00  0.00     0.165 HD
ATOM     22  C   UNL d   1       2.548  -2.543   6.821  0.00  0.00     0.017 A 
ATOM     23  C   UNL d   1       1.871  -3.610   6.245  0.00  0.00     0.003 A 
ATOM     24  C   UNL d   1       1.233  -3.433   5.019  0.00  0.00     0.025 A 
ENDBRANCH  17  18
ENDBRANCH  16  17
ENDBRANCH   1  16
BRANCH   1  25
ATOM     25  C   UNL d   1      -1.116  -0.302   1.146  0.00  0.00     0.130 C 
BRANCH  25  26
ATOM     26  C   UNL d   1      -1.882  -0.088  -0.171  0.00  0.00     0.058 C 
BRANCH  26  27
ATOM     27  C   UNL d   1      -3.380  -0.190   0.003  0.00  0.00    -0.057 A 
ATOM     28  C   UNL d   1      -4.110   0.872   0.557  0.00  0.00     0.007 A 
ATOM     29  C   UNL d   1      -5.499   0.788   0.675  0.00  0.00     0.001 A 
ATOM     30  C   UNL d   1      -6.171  -0.355   0.246  0.00  0.00     0.000 A 
ATOM     31  C   UNL d   1      -5.453  -1.421  -0.292  0.00  0.00     0.001 A 
ATOM     32  C   UNL d   1      -4.065  -1.341  -0.411  0.00  0.00     0.007 A 
ENDBRANCH  26  27
ENDBRANCH  25  26
ENDBRANCH   1  25
TORSDOF 10
