REMARK  6 active torsions:
REMARK  status: ('A' for Active; 'I' for Inactive)
REMARK    1  A    between atoms: C_13  and  N_4 
REMARK    2  A    between atoms: C_14  and  C_5 
REMARK    3  A    between atoms: C_17  and  N_9 
REMARK    4  A    between atoms: C_18  and  C_12 
REMARK    5  A    between atoms: O_21  and  C_14 
REMARK    6  A    between atoms: C_30  and  O_21 
ROOT
ATOM      1  C   UNL d   1      -0.407   1.226   0.160  0.00  0.00     0.099 C 
ATOM      2  C   UNL d   1      -0.638   2.485   0.599  0.00  0.00     0.118 C 
ATOM      3  C   UNL d   1       0.943   0.645  -0.119  0.00  0.00     0.282 C 
ATOM      4  N   UNL d   1       0.248   3.498   1.033  0.00  0.00    -0.247 N 
ATOM      5  C   UNL d   1      -1.628   4.352   1.767  0.00  0.00     0.167 C 
ATOM      6  S   UNL d   1      -2.300   3.098   0.784  0.00  0.00    -0.044 SA
ATOM      7  N   UNL d   1      -0.340   4.513   1.811  0.00  0.00    -0.281 N 
ATOM      8  HN  UNL d   1       0.157   5.246   2.318  1.00  0.00     0.188 HD
ATOM      9  N   UNL d   1       0.657  -0.380  -1.032  0.00  0.00    -0.219 N 
ATOM     10  N   UNL d   1      -0.684  -0.707  -1.091  0.00  0.00    -0.289 N 
ATOM     11  HN  UNL d   1      -1.102  -1.467  -1.627  1.00  0.00     0.188 HD
ATOM     12  C   UNL d   1      -1.315   0.147  -0.327  0.00  0.00     0.077 C 
ATOM     13  O   UNL d   1       2.001   0.990   0.370  0.00  0.00    -0.265 OA
ENDROOT
BRANCH  12  14
ATOM     14  C   UNL d   1      -2.728  -0.065   0.023  0.00  0.00    -0.007 A 
ATOM     15  C   UNL d   1      -3.211   0.153   1.318  0.00  0.00     0.014 A 
ATOM     16  C   UNL d   1      -4.566  -0.030   1.599  0.00  0.00     0.001 A 
ATOM     17  C   UNL d   1      -5.421  -0.521   0.614  0.00  0.00     0.000 A 
ATOM     18  C   UNL d   1      -4.923  -0.839  -0.649  0.00  0.00     0.001 A 
ATOM     19  C   UNL d   1      -3.579  -0.609  -0.946  0.00  0.00     0.014 A 
ENDBRANCH  12  14
BRANCH   4  20
ATOM     20  C   UNL d   1       1.501   3.867   0.458  0.00  0.00     0.059 A 
ATOM     21  C   UNL d   1       1.846   3.567  -0.869  0.00  0.00     0.055 A 
ATOM     22  C   UNL d   1       3.129   3.840  -1.350  0.00  0.00     0.036 A 
ATOM     23 CL   UNL d   1       3.562   3.347  -2.942  0.00  0.00    -0.084 Cl
ATOM     24  C   UNL d   1       4.067   4.483  -0.549  0.00  0.00     0.024 A 
ATOM     25  C   UNL d   1       3.716   4.870   0.741  0.00  0.00     0.004 A 
ATOM     26  C   UNL d   1       2.444   4.566   1.236  0.00  0.00     0.031 A 
ENDBRANCH   4  20
BRANCH   9  27
ATOM     27  C   UNL d   1       1.565  -1.145  -1.810  0.00  0.00     0.060 A 
ATOM     28  C   UNL d   1       2.943  -0.900  -1.805  0.00  0.00     0.031 A 
ATOM     29  C   UNL d   1       3.810  -1.654  -2.607  0.00  0.00     0.002 A 
ATOM     30  C   UNL d   1       3.310  -2.659  -3.433  0.00  0.00     0.000 A 
ATOM     31  C   UNL d   1       1.943  -2.910  -3.460  0.00  0.00     0.002 A 
ATOM     32  C   UNL d   1       1.080  -2.159  -2.655  0.00  0.00     0.031 A 
ENDBRANCH   9  27
BRANCH   5  33
ATOM     33  C   UNL d   1      -2.740   5.102   2.422  0.00  0.00     0.318 C 
ATOM     34  O   UNL d   1      -3.590   4.570   3.112  0.00  0.00    -0.257 OA
BRANCH  33  35
ATOM     35  O   UNL d   1      -2.687   6.390   2.018  0.00  0.00    -0.316 OA
BRANCH  35  36
ATOM     36  C   UNL d   1      -3.916   7.120   2.135  0.00  0.00     0.175 C 
ATOM     37  C   UNL d   1      -4.598   7.054   0.780  0.00  0.00     0.034 C 
ENDBRANCH  35  36
ENDBRANCH  33  35
ENDBRANCH   5  33
TORSDOF 6
