REMARK  2 active torsions:
REMARK  status: ('A' for Active; 'I' for Inactive)
REMARK    1  A    between atoms: C_9  and  C_1 
REMARK    2  A    between atoms: O_13  and  C_9 
ROOT
ATOM      1  C   UNL d   1       1.550   1.247   0.011  0.00  0.00     0.137 A 
ATOM      2  N   UNL d   1       0.247   0.769   0.014  0.00  0.00    -0.301 N 
ATOM      3  C   UNL d   1       0.331  -0.620  -0.047  0.00  0.00     0.113 A 
ATOM      4  N   UNL d   1       1.575  -1.033  -0.073  0.00  0.00    -0.344 N 
ATOM      5  HN  UNL d   1       1.905  -1.997  -0.130  1.00  0.00     0.167 HD
ATOM      6  C   UNL d   1       2.340   0.103  -0.008  0.00  0.00     0.041 A 
ATOM      7  C   UNL d   1      -0.981   1.438   0.076  0.00  0.00     0.100 A 
ATOM      8  C   UNL d   1      -0.883  -1.360  -0.052  0.00  0.00     0.056 A 
ATOM      9  C   UNL d   1      -2.127   0.734   0.049  0.00  0.00     0.024 A 
ATOM     10  C   UNL d   1      -2.074  -0.724  -0.012  0.00  0.00    -0.057 A 
ATOM     11  C   UNL d   1       3.821  -0.007   0.009  0.00  0.00     0.071 C 
ATOM     12  C   UNL d   1      -3.364  -1.489  -0.001  0.00  0.00     0.048 C 
ENDROOT
BRANCH   1  13
ATOM     13  C   UNL d   1       2.018   2.604   0.095  0.00  0.00     0.196 C 
ATOM     14  O   UNL d   1       3.024   2.969   0.679  0.00  0.00    -0.645 OA
BRANCH  13  15
ATOM     15  O   UNL d   1       1.254   3.477  -0.607  0.00  0.00    -0.772 OA
ATOM     16  H   UNL d   1       0.640   3.051  -1.231  0.00  0.00     0.167 HD
ENDBRANCH  13  15
ENDBRANCH   1  13
TORSDOF 2
