REMARK  1 active torsions:
REMARK  status: ('A' for Active; 'I' for Inactive)
REMARK    1  A    between atoms: C_13  and  N_3 
ROOT
ATOM      1  C   UNL d   1      -0.260  -0.687   0.016  0.00  0.00     0.144 A 
ATOM      2  C   UNL d   1      -0.268   0.685  -0.009  0.00  0.00     0.065 A 
ATOM      3  N   UNL d   1      -1.573  -1.116  -0.083  0.00  0.00    -0.239 N 
ATOM      4  N   UNL d   1       0.934  -1.389   0.045  0.00  0.00    -0.317 N 
ATOM      5  C   UNL d   1       0.956   1.419   0.084  0.00  0.00     0.118 A 
ATOM      6  N   UNL d   1       2.106   0.668   0.142  0.00  0.00    -0.323 N 
ATOM      7  N   UNL d   1      -2.404  -0.060  -0.295  0.00  0.00    -0.302 N 
ATOM      8  HN  UNL d   1      -3.404  -0.085  -0.494  1.00  0.00     0.186 HD
ATOM      9  C   UNL d   1       2.184  -0.701   0.108  0.00  0.00     0.178 A 
ATOM     10  C   UNL d   1      -1.623   1.018  -0.186  0.00  0.00     0.126 A 
ATOM     11  S   UNL d   1       0.963   3.074   0.102  0.00  0.00    -0.059 SA
ATOM     12  S   UNL d   1       3.626  -1.515   0.129  0.00  0.00    -0.040 SA
ATOM     13  H   UNL d   1       0.944  -2.401  -0.042  0.00  0.00     0.170 HD
ATOM     14  H   UNL d   1       2.983   1.174   0.183  0.00  0.00     0.169 HD
ENDROOT
BRANCH   3  15
ATOM     15  C   UNL d   1      -2.077  -2.440  -0.027  0.00  0.00     0.058 A 
ATOM     16  C   UNL d   1      -1.392  -3.451   0.661  0.00  0.00     0.031 A 
ATOM     17  C   UNL d   1      -1.899  -4.753   0.667  0.00  0.00     0.002 A 
ATOM     18  C   UNL d   1      -3.082  -5.050  -0.009  0.00  0.00     0.000 A 
ATOM     19  C   UNL d   1      -3.780  -4.040  -0.669  0.00  0.00     0.002 A 
ATOM     20  C   UNL d   1      -3.291  -2.733  -0.665  0.00  0.00     0.031 A 
ENDBRANCH   3  15
TORSDOF 1
