REMARK  0 active torsions:
REMARK  status: ('A' for Active; 'I' for Inactive)
ROOT
ATOM      1  C   UNL d   1       0.028  -0.709   0.031  0.00  0.00    -0.025 A 
ATOM      2  C   UNL d   1       0.002   0.706   0.010  0.00  0.00    -0.023 A 
ATOM      3  C   UNL d   1       1.211   1.417   0.005  0.00  0.00     0.054 A 
ATOM      4  C   UNL d   1      -1.185  -1.419   0.045  0.00  0.00     0.019 A 
ATOM      5  C   UNL d   1       1.266  -1.376   0.032  0.00  0.00     0.015 A 
ATOM      6  C   UNL d   1      -1.234   1.369  -0.013  0.00  0.00     0.013 A 
ATOM      7  C   UNL d   1       2.421   0.732   0.006  0.00  0.00     0.117 A 
ATOM      8  C   UNL d   1      -2.416  -0.750   0.026  0.00  0.00    -0.061 A 
ATOM      9  C   UNL d   1       2.460  -0.655   0.014  0.00  0.00     0.043 A 
ATOM     10  C   UNL d   1      -2.430   0.647  -0.013  0.00  0.00     0.007 A 
ATOM     11  F   UNL d   1       3.568   1.423  -0.007  0.00  0.00    -0.206 F 
ATOM     12  C   UNL d   1      -3.707  -1.513   0.018  0.00  0.00     0.048 C 
ENDROOT
TORSDOF 0
