REMARK  2 active torsions:
REMARK  status: ('A' for Active; 'I' for Inactive)
REMARK    1  A    between atoms: C_6  and  N_1 
REMARK    2  A    between atoms: C_12  and  C_3 
ROOT
ATOM      1  N   UNL d   1       1.288   0.675   4.273  0.00  0.00    -0.197 NA
ATOM      2  C   UNL d   1       0.714   0.012   3.517  0.00  0.00     0.066 C 
ATOM      3  C   UNL d   1       0.029  -0.864   2.556  0.00  0.00     0.202 C 
ENDROOT
BRANCH   3   4
ATOM      4  C   UNL d   1       0.055  -0.243   1.188  0.00  0.00     0.118 A 
ATOM      5  N   UNL d   1       0.897  -0.594   0.179  0.00  0.00    -0.274 N 
ATOM      6  C   UNL d   1       0.603   0.300  -0.842  0.00  0.00     0.199 A 
ATOM      7  N   UNL d   1      -0.505   1.018  -0.406  0.00  0.00    -0.274 N 
ATOM      8  S   UNL d   1       1.369   0.670  -2.269  0.00  0.00    -0.039 SA
ATOM      9  N   UNL d   1      -0.801   0.695   0.879  0.00  0.00    -0.285 N 
ATOM     10  H   UNL d   1      -0.928   1.809  -0.877  0.00  0.00     0.189 HD
ATOM     11  HN  UNL d   1      -1.529   1.095   1.471  1.00  0.00     0.188 HD
BRANCH   5  12
ATOM     12  C   UNL d   1       1.956  -1.538   0.193  0.00  0.00     0.049 A 
ATOM     13  C   UNL d   1       2.137  -2.493  -0.831  0.00  0.00    -0.034 A 
ATOM     14  C   UNL d   1       3.282  -3.318  -0.814  0.00  0.00     0.015 A 
ATOM     15  C   UNL d   1       1.162  -2.743  -1.953  0.00  0.00     0.050 C 
ATOM     16  C   UNL d   1       4.211  -3.261   0.228  0.00  0.00    -0.061 A 
ATOM     17  C   UNL d   1       3.986  -2.372   1.276  0.00  0.00     0.009 A 
ATOM     18  C   UNL d   1       5.432  -4.131   0.194  0.00  0.00     0.048 C 
ATOM     19  C   UNL d   1       2.882  -1.513   1.249  0.00  0.00     0.031 A 
ENDBRANCH   5  12
ENDBRANCH   3   4
TORSDOF 2
