REMARK  1 active torsions:
REMARK  status: ('A' for Active; 'I' for Inactive)
REMARK    1  A    between atoms: C_12  and  C_8 
ROOT
ATOM      1  C   UNL d   1      -0.093  -0.744  -0.007  0.00  0.00     0.092 A 
ATOM      2  C   UNL d   1      -0.205   0.617  -0.001  0.00  0.00     0.075 A 
ATOM      3  N   UNL d   1       1.062  -1.437  -0.009  0.00  0.00    -0.334 N 
ATOM      4  HN  UNL d   1       1.098  -2.456  -0.011  1.00  0.00     0.168 HD
ATOM      5  C   UNL d   1       1.016   1.383  -0.006  0.00  0.00     0.302 A 
ATOM      6  S   UNL d   1      -1.607  -1.509  -0.018  0.00  0.00    -0.071 SA
ATOM      7  C   UNL d   1      -1.565   1.051   0.009  0.00  0.00     0.040 A 
ATOM      8  C   UNL d   1      -2.459  -0.011   0.015  0.00  0.00     0.018 A 
ATOM      9  O   UNL d   1       2.184   0.666  -0.009  0.00  0.00    -0.262 OA
ATOM     10  C   UNL d   1       2.121  -0.693  -0.009  0.00  0.00     0.124 A 
ATOM     11  O   UNL d   1       1.024   2.610  -0.010  0.00  0.00    -0.259 OA
ATOM     12  C   UNL d   1       3.483  -1.316  -0.011  0.00  0.00     0.098 C 
ENDROOT
BRANCH   8  13
ATOM     13  C   UNL d   1      -3.933   0.010   0.008  0.00  0.00    -0.019 A 
ATOM     14  C   UNL d   1      -4.690  -1.008   0.612  0.00  0.00     0.013 A 
ATOM     15  C   UNL d   1      -6.087  -0.988   0.577  0.00  0.00     0.001 A 
ATOM     16  C   UNL d   1      -6.753   0.059  -0.054  0.00  0.00     0.000 A 
ATOM     17  C   UNL d   1      -6.022   1.085  -0.646  0.00  0.00     0.001 A 
ATOM     18  C   UNL d   1      -4.624   1.062  -0.614  0.00  0.00     0.013 A 
ENDBRANCH   8  13
TORSDOF 1
