REMARK  4 active torsions:
REMARK  status: ('A' for Active; 'I' for Inactive)
REMARK    1  A    between atoms: N_6  and  C_1 
REMARK       I    between atoms: C_9  and  N_6 
REMARK    2  A    between atoms: C_15  and  N_7 
REMARK    3  A    between atoms: C_12  and  C_9 
REMARK    4  A    between atoms: N_11  and  C_12 
ROOT
ATOM      1  C   UNL d   1       5.088  -2.260   2.102  0.00  0.00     0.098 C 
ATOM      2  C   UNL d   1       5.071  -1.520   3.262  0.00  0.00     0.085 C 
ATOM      3  S   UNL d   1       6.537  -3.111   1.894  0.00  0.00    -0.075 SA
ATOM      4  C   UNL d   1       6.157  -1.887   4.134  0.00  0.00    -0.026 C 
ATOM      5  C   UNL d   1       7.022  -2.774   3.504  0.00  0.00    -0.012 C 
ATOM      6  C   UNL d   1       4.097  -0.499   3.547  0.00  0.00     0.103 C 
ATOM      7  N   UNL d   1       3.376   0.382   3.768  0.00  0.00    -0.191 NA
ATOM      8  C   UNL d   1       6.326  -1.393   5.537  0.00  0.00     0.051 C 
ATOM      9  C   UNL d   1       8.246  -3.422   4.064  0.00  0.00     0.057 C 
ENDROOT
BRANCH   1  10
ATOM     10  N   UNL d   1       4.165  -2.456   1.100  0.00  0.00    -0.319 N 
ATOM     11  C   UNL d   1       2.824  -2.613   1.418  0.00  0.00     0.251 C 
ATOM     12  O   UNL d   1       2.360  -2.580   2.556  0.00  0.00    -0.271 OA
ATOM     13  H   UNL d   1       4.471  -2.870   0.225  0.00  0.00     0.169 HD
BRANCH  11  14
ATOM     14  C   UNL d   1       1.941  -2.987   0.227  0.00  0.00     0.375 C 
BRANCH  14  15
ATOM     15  N   UNL d   1       2.388  -2.333  -1.018  0.00  0.00     0.100 N 
ATOM     16  C   UNL d   1       2.145  -0.863  -0.973  0.00  0.00     0.292 C 
ATOM     17  C   UNL d   1       2.599  -0.145  -2.270  0.00  0.00     0.153 C 
ATOM     18  N   UNL d   1       2.036  -0.792  -3.469  0.00  0.00    -0.378 N 
ATOM     19  C   UNL d   1       2.107  -2.257  -3.494  0.00  0.00     0.153 C 
ATOM     20  C   UNL d   1       1.622  -2.872  -2.168  0.00  0.00     0.292 C 
BRANCH  18  21
ATOM     21  C   UNL d   1       1.078  -0.108  -4.198  0.00  0.00     0.030 A 
ATOM     22  C   UNL d   1      -0.209  -0.611  -4.425  0.00  0.00     0.029 A 
ATOM     23  C   UNL d   1      -1.134   0.083  -5.214  0.00  0.00     0.002 A 
ATOM     24  C   UNL d   1      -0.780   1.292  -5.803  0.00  0.00     0.000 A 
ATOM     25  C   UNL d   1       0.490   1.816  -5.587  0.00  0.00     0.002 A 
ATOM     26  C   UNL d   1       1.401   1.125  -4.784  0.00  0.00     0.029 A 
ENDBRANCH  18  21
ENDBRANCH  14  15
ENDBRANCH  11  14
ENDBRANCH   1  10
TORSDOF 4
