REMARK  5 active torsions:
REMARK  status: ('A' for Active; 'I' for Inactive)
REMARK    1  A    between atoms: O_13  and  C_2 
REMARK    2  A    between atoms: C_12  and  C_20 
REMARK    3  A    between atoms: C_18  and  O_13 
REMARK    4  A    between atoms: C_20  and  C_18 
REMARK    5  A    between atoms: O_24  and  C_20 
ROOT
ATOM      1  C   UNL d   1       2.817  -3.483   0.055  0.00  0.00     0.214 C 
ENDROOT
BRANCH   1   2
ATOM      2  O   UNL d   1       3.586  -2.982  -1.062  0.00  0.00    -0.332 OA
BRANCH   2   3
ATOM      3  C   UNL d   1       3.712  -1.631  -1.166  0.00  0.00     0.151 C 
ATOM      4  C   UNL d   1       4.498  -1.271  -2.354  0.00  0.00     0.036 A 
ATOM      5  C   UNL d   1       4.591   0.103  -2.616  0.00  0.00     0.025 A 
ATOM      6  C   UNL d   1       5.114  -2.209  -3.192  0.00  0.00     0.019 A 
ATOM      7  N   UNL d   1       3.859   1.025  -1.866  0.00  0.00    -0.276 NA
ATOM      8  C   UNL d   1       5.290   0.519  -3.756  0.00  0.00     0.048 A 
ATOM      9  C   UNL d   1       3.462   0.592  -0.541  0.00  0.00     0.216 C 
ATOM     10  H   UNL d   1       4.240   1.966  -1.881  0.00  0.00     0.129 HD
ATOM     11  N   UNL d   1       3.200  -0.825  -0.311  0.00  0.00    -0.358 N 
ATOM     12  HN  UNL d   1       2.645  -1.153   0.480  1.00  0.00     0.162 HD
ATOM     13  C   UNL d   1       5.919  -0.415  -4.582  0.00  0.00     0.035 A 
ATOM     14  C   UNL d   1       5.831  -1.778  -4.307  0.00  0.00     0.025 A 
ATOM     15 CL   UNL d   1       6.799   0.121  -5.960  0.00  0.00    -0.084 Cl
ENDBRANCH   2   3
ENDBRANCH   1   2
BRANCH   1  16
ATOM     16  C   UNL d   1       2.479  -4.971  -0.180  0.00  0.00     0.175 C 
BRANCH  16  17
ATOM     17  C   UNL d   1       1.324  -5.227  -1.128  0.00  0.00    -0.025 C 
ATOM     18  C   UNL d   1       0.490  -6.340  -0.916  0.00  0.00     0.049 C 
ATOM     19  C   UNL d   1      -0.699  -6.487  -1.633  0.00  0.00     0.102 C 
ATOM     20  O   UNL d   1      -1.383  -7.661  -1.478  0.00  0.00    -0.348 OA
ATOM     21  C   UNL d   1      -1.061  -5.516  -2.567  0.00  0.00     0.102 C 
ATOM     22  C   UNL d   1      -2.694  -7.519  -0.935  0.00  0.00     0.178 C 
ATOM     23  C   UNL d   1      -3.704  -6.924  -1.907  0.00  0.00     0.053 C 
ATOM     24  C   UNL d   1      -3.339  -5.493  -2.252  0.00  0.00     0.178 C 
ATOM     25  O   UNL d   1      -2.270  -5.483  -3.204  0.00  0.00    -0.348 OA
ATOM     26  C   UNL d   1      -0.166  -4.506  -2.906  0.00  0.00     0.040 C 
ATOM     27  C   UNL d   1       1.026  -4.369  -2.197  0.00  0.00     0.013 C 
ENDBRANCH  16  17
BRANCH  16  28
ATOM     28  O   UNL d   1       3.624  -5.693  -0.626  0.00  0.00    -0.389 OA
ATOM     29  H   UNL d   1       4.085  -5.096  -1.242  0.00  0.00     0.210 HD
ENDBRANCH  16  28
ENDBRANCH   1  16
TORSDOF 5
