REMARK  5 active torsions:
REMARK  status: ('A' for Active; 'I' for Inactive)
REMARK       I    between atoms: N_2  and  C_1 
REMARK    1  A    between atoms: C_3  and  C_1 
REMARK    2  A    between atoms: C_5  and  C_3 
REMARK    3  A    between atoms: C_12  and  N_4 
REMARK    4  A    between atoms: S_6  and  C_5 
REMARK    5  A    between atoms: C_13  and  S_6 
ROOT
ATOM      1  C   UNL d   1       0.893  -0.018   0.099  0.00  0.00     0.221 C 
ATOM      2  N   UNL d   1       0.387  -1.209   0.616  0.00  0.00    -0.349 N 
ATOM      3  N   UNL d   1      -0.364  -3.857   1.481  0.00  0.00    -0.378 N 
ATOM      4  C   UNL d   1       1.182  -1.927   1.629  0.00  0.00     0.145 C 
ATOM      5  C   UNL d   1      -1.011  -1.649   0.525  0.00  0.00     0.145 C 
ATOM      6  C   UNL d   1      -1.153  -3.187   0.430  0.00  0.00     0.143 C 
ATOM      7  C   UNL d   1       1.055  -3.454   1.488  0.00  0.00     0.143 C 
ATOM      8  O   UNL d   1       2.016   0.371   0.407  0.00  0.00    -0.273 OA
ENDROOT
BRANCH   1   9
ATOM      9  C   UNL d   1       0.008   0.759  -0.884  0.00  0.00     0.123 C 
BRANCH   9  10
ATOM     10  C   UNL d   1       0.608   2.087  -1.421  0.00  0.00     0.014 C 
ATOM     11  C   UNL d   1       0.981   3.074  -0.306  0.00  0.00     0.027 C 
ATOM     12  C   UNL d   1       1.851   1.830  -2.297  0.00  0.00     0.027 C 
BRANCH  10  13
ATOM     13  S   UNL d   1      -0.598   2.901  -2.626  0.00  0.00    -0.120 SA
BRANCH  13  14
ATOM     14  C   UNL d   1      -2.076   3.201  -1.680  0.00  0.00     0.001 A 
ATOM     15  C   UNL d   1      -2.115   4.115  -0.624  0.00  0.00     0.020 A 
ATOM     16  C   UNL d   1      -3.295   4.322   0.097  0.00  0.00     0.025 A 
ATOM     17  C   UNL d   1      -4.457   3.649  -0.271  0.00  0.00     0.034 A 
ATOM     18  C   UNL d   1      -4.453   2.793  -1.369  0.00  0.00     0.025 A 
ATOM     19 CL   UNL d   1      -5.903   3.885   0.628  0.00  0.00    -0.084 Cl
ATOM     20  C   UNL d   1      -3.265   2.574  -2.074  0.00  0.00     0.020 A 
ENDBRANCH  13  14
ENDBRANCH  10  13
ENDBRANCH   9  10
ENDBRANCH   1   9
BRANCH   3  21
ATOM     21  C   UNL d   1      -0.945  -4.626   2.474  0.00  0.00     0.030 A 
ATOM     22  C   UNL d   1      -2.166  -5.293   2.273  0.00  0.00     0.029 A 
ATOM     23  C   UNL d   1      -2.775  -6.071   3.269  0.00  0.00     0.002 A 
ATOM     24  C   UNL d   1      -2.164  -6.220   4.504  0.00  0.00     0.000 A 
ATOM     25  C   UNL d   1      -0.946  -5.597   4.736  0.00  0.00     0.002 A 
ATOM     26  C   UNL d   1      -0.352  -4.812   3.733  0.00  0.00     0.029 A 
ENDBRANCH   3  21
TORSDOF 5
