REMARK  3 active torsions:
REMARK  status: ('A' for Active; 'I' for Inactive)
REMARK    1  A    between atoms: N_11  and  N_1 
REMARK    2  A    between atoms: C_10  and  C_12 
REMARK    3  A    between atoms: C_15  and  N_11 
ROOT
ATOM      1  N   UNL d   1       3.274  -0.146  -0.073  0.00  0.00    -0.181 N 
ATOM      2  C   UNL d   1       1.097  -0.598   0.334  0.00  0.00     0.075 A 
ATOM      3  C   UNL d   1       1.154   0.571  -0.418  0.00  0.00     0.075 A 
ATOM      4  C   UNL d   1       2.473  -0.961   0.689  0.00  0.00     0.282 C 
ATOM      5  C   UNL d   1       2.574   0.911  -0.598  0.00  0.00     0.282 C 
ATOM      6  C   UNL d   1       0.005   1.210  -0.853  0.00  0.00     0.074 A 
ATOM      7  C   UNL d   1      -0.105  -1.213   0.645  0.00  0.00     0.074 A 
ATOM      8  C   UNL d   1      -1.289  -0.597   0.197  0.00  0.00     0.080 A 
ATOM      9  C   UNL d   1      -1.235   0.618  -0.539  0.00  0.00     0.080 A 
ATOM     10  O   UNL d   1       2.765  -1.758   1.560  0.00  0.00    -0.265 OA
ATOM     11  O   UNL d   1       2.987   1.966  -1.034  0.00  0.00    -0.265 OA
ATOM     12 CL   UNL d   1       0.105   2.678  -1.756  0.00  0.00    -0.081 Cl
ATOM     13 CL   UNL d   1      -0.128  -2.709   1.507  0.00  0.00    -0.081 Cl
ATOM     14 CL   UNL d   1      -2.710   1.379  -1.066  0.00  0.00    -0.081 Cl
ATOM     15 CL   UNL d   1      -2.826  -1.337   0.543  0.00  0.00    -0.081 Cl
ENDROOT
BRANCH   1  16
ATOM     16  N   UNL d   1       4.663  -0.050   0.081  0.00  0.00    -0.288 N 
ATOM     17  H   UNL d   1       4.938   0.601   0.815  0.00  0.00     0.188 HD
BRANCH  16  18
ATOM     18  C   UNL d   1       5.415  -1.247   0.065  0.00  0.00     0.049 A 
ATOM     19  C   UNL d   1       6.704  -1.238   0.622  0.00  0.00     0.047 A 
ATOM     20  C   UNL d   1       7.513  -2.389   0.624  0.00  0.00     0.050 A 
ATOM     21  C   UNL d   1       7.018  -3.566   0.048  0.00  0.00     0.016 A 
ATOM     22  C   UNL d   1       5.766  -3.576  -0.559  0.00  0.00     0.003 A 
ATOM     23  C   UNL d   1       4.990  -2.416  -0.580  0.00  0.00     0.031 A 
BRANCH  20  24
ATOM     24  C   UNL d   1       8.896  -2.371   1.223  0.00  0.00     0.417 C 
ATOM     25  F   UNL d   1       9.260  -1.157   1.722  0.00  0.00    -0.166 F 
ATOM     26  F   UNL d   1       9.033  -3.253   2.252  0.00  0.00    -0.166 F 
ATOM     27  F   UNL d   1       9.857  -2.703   0.316  0.00  0.00    -0.166 F 
ENDBRANCH  20  24
ENDBRANCH  16  18
ENDBRANCH   1  16
TORSDOF 3
