REMARK  0 active torsions:
REMARK  status: ('A' for Active; 'I' for Inactive)
ROOT
ATOM      1  C   UNL d   1       0.933   0.517  -0.000  0.00  0.00     0.148 A 
ATOM      2  N   UNL d   1       1.688  -0.649   0.000  0.00  0.00    -0.235 N 
ATOM      3  N   UNL d   1       3.013   1.032  -0.003  0.00  0.00    -0.007 NA
ATOM      4  N   UNL d   1       1.742   1.553  -0.002  0.00  0.00    -0.269 N 
ATOM      5  HN  UNL d   1       1.481   2.539  -0.003  1.00  0.00     0.185 HD
ATOM      6  N   UNL d   1       2.992  -0.296  -0.001  0.00  0.00    -0.000 NA
ATOM      7  C   UNL d   1      -0.523   0.430   0.001  0.00  0.00     0.021 A 
ATOM      8  C   UNL d   1       1.101  -1.913   0.002  0.00  0.00     0.116 A 
ATOM      9  C   UNL d   1      -0.236  -2.063   0.004  0.00  0.00     0.031 A 
ATOM     10  C   UNL d   1      -1.105  -0.863   0.004  0.00  0.00    -0.021 A 
ATOM     11  C   UNL d   1      -1.336   1.566   0.000  0.00  0.00     0.016 A 
ATOM     12  C   UNL d   1      -2.496  -0.992   0.006  0.00  0.00     0.012 A 
ATOM     13  C   UNL d   1      -2.725   1.422   0.002  0.00  0.00     0.001 A 
ATOM     14  C   UNL d   1      -3.302   0.150   0.005  0.00  0.00     0.001 A 
ENDROOT
TORSDOF 0
