REMARK  6 active torsions:
REMARK  status: ('A' for Active; 'I' for Inactive)
REMARK    1  A    between atoms: S_2  and  N_1 
REMARK    2  A    between atoms: C_10  and  S_2 
REMARK    3  A    between atoms: C_7  and  C_3 
REMARK       I    between atoms: N_14  and  C_7 
REMARK    4  A    between atoms: C_17  and  N_14 
REMARK    5  A    between atoms: C_15  and  C_16 
REMARK    6  A    between atoms: C_16  and  C_17 
ROOT
ATOM      1  N   UNL d   1       1.603  -1.063   0.007  0.00  0.00    -0.245 N 
ATOM      2  C   UNL d   1       1.580   1.168   0.040  0.00  0.00     0.061 A 
ATOM      3  C   UNL d   1       2.401   0.050  -0.006  0.00  0.00     0.128 A 
ATOM      4  C   UNL d   1       0.269  -0.727   0.013  0.00  0.00     0.061 A 
ATOM      5  C   UNL d   1       0.225   0.677   0.013  0.00  0.00     0.009 A 
ATOM      6  C   UNL d   1      -0.900  -1.510   0.013  0.00  0.00     0.031 A 
ATOM      7  C   UNL d   1      -1.040   1.305   0.014  0.00  0.00     0.015 A 
ATOM      8  C   UNL d   1      -2.134  -0.857   0.011  0.00  0.00     0.002 A 
ATOM      9  C   UNL d   1      -2.206   0.531   0.010  0.00  0.00     0.001 A 
ENDROOT
BRANCH   2  10
ATOM     10  C   UNL d   1       2.034   2.561   0.083  0.00  0.00     0.253 C 
ATOM     11  O   UNL d   1       1.344   3.494  -0.315  0.00  0.00    -0.268 OA
ATOM     12  N   UNL d   1       3.291   2.726   0.619  0.00  0.00    -0.356 N 
ATOM     13  H   UNL d   1       3.718   1.951   1.110  0.00  0.00     0.162 HD
BRANCH  12  14
ATOM     14  C   UNL d   1       3.943   4.018   0.744  0.00  0.00     0.129 C 
BRANCH  14  15
ATOM     15  C   UNL d   1       3.576   4.772   2.023  0.00  0.00     0.076 C 
BRANCH  15  16
ATOM     16  C   UNL d   1       4.004   4.033   3.267  0.00  0.00     0.010 A 
ATOM     17  N   UNL d   1       5.328   3.778   3.413  0.00  0.00    -0.369 N 
ATOM     18  C   UNL d   1       5.715   3.103   4.519  0.00  0.00     0.088 A 
ATOM     19  HN  UNL d   1       6.006   4.084   2.715  1.00  0.00     0.165 HD
ATOM     20  C   UNL d   1       4.840   2.659   5.495  0.00  0.00     0.017 A 
ATOM     21  C   UNL d   1       3.488   2.935   5.337  0.00  0.00     0.003 A 
ATOM     22  C   UNL d   1       3.061   3.636   4.212  0.00  0.00     0.025 A 
ENDBRANCH  15  16
ENDBRANCH  14  15
ENDBRANCH  12  14
ENDBRANCH   2  10
BRANCH   1  23
ATOM     23  S   UNL d   1       2.215  -2.653   0.021  0.00  0.00     0.269 S 
ATOM     24  O   UNL d   1       3.655  -2.528  -0.052  0.00  0.00    -0.200 OA
ATOM     25  O   UNL d   1       1.550  -3.296   1.141  0.00  0.00    -0.200 OA
BRANCH  23  26
ATOM     26  C   UNL d   1       1.667  -3.422  -1.476  0.00  0.00     0.080 A 
ATOM     27  C   UNL d   1       1.472  -2.683  -2.646  0.00  0.00     0.025 A 
ATOM     28  C   UNL d   1       0.992  -3.328  -3.788  0.00  0.00     0.002 A 
ATOM     29  C   UNL d   1       0.725  -4.698  -3.762  0.00  0.00     0.000 A 
ATOM     30  C   UNL d   1       0.947  -5.435  -2.599  0.00  0.00     0.002 A 
ATOM     31  C   UNL d   1       1.418  -4.799  -1.452  0.00  0.00     0.025 A 
ENDBRANCH  23  26
ENDBRANCH   1  23
TORSDOF 6
