REMARK  1 active torsions:
REMARK  status: ('A' for Active; 'I' for Inactive)
REMARK       I    between atoms: N_2  and  C_1 
REMARK       I    between atoms: N_4  and  C_1 
REMARK    1  A    between atoms: C_10  and  N_4 
ROOT
ATOM      1  C   UNL d   1       0.743   0.281  -0.035  0.00  0.00     0.328 C 
ATOM      2  N   UNL d   1       0.057   0.745   1.113  0.00  0.00    -0.293 N 
ATOM      3  C   UNL d   1      -0.977   0.004   1.848  0.00  0.00     0.099 C 
ATOM      4  N   UNL d   1       0.419  -1.007  -0.430  0.00  0.00    -0.308 N 
ATOM      5  N   UNL d   1       0.763   1.085   4.048  0.00  0.00    -0.325 N 
ATOM      6  C   UNL d   1       0.490   1.972   1.705  0.00  0.00     0.066 A 
ATOM      7  C   UNL d   1       0.276  -0.175   4.082  0.00  0.00     0.224 C 
ATOM      8  C   UNL d   1      -0.350  -0.873   2.910  0.00  0.00     0.128 C 
ATOM      9  C   UNL d   1       0.814   2.095   3.068  0.00  0.00     0.062 A 
ATOM     10  O   UNL d   1       1.595   0.958  -0.612  0.00  0.00    -0.246 OA
ATOM     11  O   UNL d   1       0.389  -0.794   5.149  0.00  0.00    -0.273 OA
ATOM     12  C   UNL d   1      -2.144   0.866   2.357  0.00  0.00     0.033 C 
ATOM     13  C   UNL d   1       0.570   3.111   0.879  0.00  0.00     0.032 A 
ATOM     14  C   UNL d   1       1.264   3.343   3.544  0.00  0.00     0.032 A 
ATOM     15  C   UNL d   1       0.977   4.347   1.378  0.00  0.00     0.002 A 
ATOM     16  C   UNL d   1       1.337   4.461   2.711  0.00  0.00     0.002 A 
ATOM     17  H   UNL d   1      -0.003  -1.582   0.271  0.00  0.00     0.170 HD
ATOM     18  H   UNL d   1       1.127   1.337   4.960  0.00  0.00     0.169 HD
ENDROOT
BRANCH   4  19
ATOM     19  C   UNL d   1       0.865  -1.692  -1.592  0.00  0.00     0.045 A 
ATOM     20  C   UNL d   1       1.467  -1.013  -2.660  0.00  0.00     0.072 A 
ATOM     21  C   UNL d   1       1.870  -1.696  -3.803  0.00  0.00     0.118 A 
ATOM     22  F   UNL d   1       2.444  -1.021  -4.809  0.00  0.00    -0.206 F 
ATOM     23  C   UNL d   1       1.678  -3.061  -3.927  0.00  0.00     0.043 A 
ATOM     24  C   UNL d   1       1.077  -3.755  -2.881  0.00  0.00     0.012 A 
ATOM     25  C   UNL d   1       0.674  -3.091  -1.702  0.00  0.00    -0.035 A 
ATOM     26  C   UNL d   1       0.036  -3.960  -0.648  0.00  0.00     0.050 C 
ENDBRANCH   4  19
TORSDOF 1
