REMARK  2 active torsions:
REMARK  status: ('A' for Active; 'I' for Inactive)
REMARK       I    between atoms: N_2  and  C_1 
REMARK    1  A    between atoms: C_3  and  C_1 
REMARK    2  A    between atoms: C_6  and  N_2 
ROOT
ATOM      1  C   UNL d   1       2.452  -0.008   0.383  0.00  0.00     0.256 C 
ATOM      2  N   UNL d   1       3.065  -1.165  -0.083  0.00  0.00    -0.323 N 
ATOM      3  O   UNL d   1       2.997   0.937   0.937  0.00  0.00    -0.267 OA
ATOM      4  H   UNL d   1       2.488  -1.813  -0.603  0.00  0.00     0.169 HD
ENDROOT
BRANCH   1   5
ATOM      5  C   UNL d   1       0.972   0.042   0.186  0.00  0.00     0.038 A 
ATOM      6  C   UNL d   1       0.316   1.215  -0.238  0.00  0.00    -0.046 A 
ATOM      7  C   UNL d   1       1.032   2.497  -0.566  0.00  0.00     0.049 C 
ATOM      8  C   UNL d   1      -1.089   1.218  -0.297  0.00  0.00     0.007 A 
ATOM      9  C   UNL d   1      -1.827   0.084   0.043  0.00  0.00     0.001 A 
ATOM     10  C   UNL d   1      -1.174  -1.073   0.457  0.00  0.00     0.001 A 
ATOM     11  C   UNL d   1       0.219  -1.095   0.532  0.00  0.00     0.017 A 
ENDBRANCH   1   5
BRANCH   2  12
ATOM     12  C   UNL d   1       4.414  -1.542   0.106  0.00  0.00     0.035 A 
ATOM     13  C   UNL d   1       5.343  -0.767   0.808  0.00  0.00     0.031 A 
ATOM     14  C   UNL d   1       6.653  -1.220   1.002  0.00  0.00     0.026 A 
ATOM     15  C   UNL d   1       7.043  -2.454   0.495  0.00  0.00     0.034 A 
ATOM     16  C   UNL d   1       6.135  -3.234  -0.216  0.00  0.00     0.026 A 
ATOM     17 CL   UNL d   1       8.646  -3.020   0.755  0.00  0.00    -0.084 Cl
ATOM     18  C   UNL d   1       4.825  -2.777  -0.411  0.00  0.00     0.031 A 
ENDBRANCH   2  12
TORSDOF 2
