REMARK  4 active torsions:
REMARK  status: ('A' for Active; 'I' for Inactive)
REMARK    1  A    between atoms: C_2  and  N_1 
REMARK    2  A    between atoms: C_9  and  C_3 
REMARK    3  A    between atoms: N_16  and  N_6 
REMARK    4  A    between atoms: C_17  and  N_16 
ROOT
ATOM      1  N   UNL d   1      -0.295  -1.171  -0.051  0.00  0.00    -0.321 N 
ATOM      2  C   UNL d   1       1.034  -0.759   0.003  0.00  0.00     0.055 A 
ATOM      3  C   UNL d   1      -1.081  -0.037  -0.176  0.00  0.00     0.097 A 
ATOM      4  C   UNL d   1      -0.285   1.080  -0.087  0.00  0.00     0.020 A 
ATOM      5  C   UNL d   1       1.039   0.629   0.042  0.00  0.00     0.033 A 
ENDROOT
BRANCH   2   6
ATOM      6  C   UNL d   1       2.201  -1.604  -0.036  0.00  0.00     0.131 C 
ATOM      7  N   UNL d   1       3.305  -1.210   0.508  0.00  0.00    -0.326 N 
ATOM      8  HN  UNL d   1       3.388  -0.315   0.989  1.00  0.00     0.180 HD
BRANCH   7   9
ATOM      9  N   UNL d   1       4.354  -2.077   0.394  0.00  0.00    -0.206 NA
ATOM     10  H   UNL d   1       4.532  -2.462  -0.533  0.00  0.00     0.153 HD
BRANCH   9  11
ATOM     11  C   UNL d   1       5.549  -1.674   1.040  0.00  0.00     0.029 A 
ATOM     12  C   UNL d   1       5.520  -0.949   2.240  0.00  0.00     0.048 A 
ATOM     13  C   UNL d   1       6.706  -0.587   2.878  0.00  0.00     0.035 A 
ATOM     14 CL   UNL d   1       6.650   0.308   4.348  0.00  0.00    -0.084 Cl
ATOM     15  C   UNL d   1       7.938  -0.947   2.337  0.00  0.00     0.024 A 
ATOM     16  C   UNL d   1       7.981  -1.689   1.158  0.00  0.00     0.003 A 
ATOM     17  C   UNL d   1       6.793  -2.064   0.524  0.00  0.00     0.025 A 
ENDBRANCH   9  11
ENDBRANCH   7   9
ENDBRANCH   2   6
BRANCH   1  18
ATOM     18  C   UNL d   1      -0.815  -2.496   0.062  0.00  0.00     0.042 A 
ATOM     19  C   UNL d   1      -0.135  -3.474   0.799  0.00  0.00     0.054 A 
ATOM     20  C   UNL d   1      -0.690  -4.747   0.945  0.00  0.00     0.037 A 
ATOM     21 CL   UNL d   1       0.144  -5.936   1.870  0.00  0.00    -0.084 Cl
ATOM     22  C   UNL d   1      -1.915  -5.063   0.366  0.00  0.00     0.048 A 
ATOM     23  C   UNL d   1      -2.592  -4.090  -0.362  0.00  0.00     0.037 A 
ATOM     24  C   UNL d   1      -2.055  -2.810  -0.515  0.00  0.00     0.054 A 
ATOM     25 CL   UNL d   1      -4.109  -4.466  -1.082  0.00  0.00    -0.084 Cl
ENDBRANCH   1  18
TORSDOF 4
