REMARK  5 active torsions:
REMARK  status: ('A' for Active; 'I' for Inactive)
REMARK    1  A    between atoms: C_4  and  C_1 
REMARK    2  A    between atoms: C_2  and  C_3 
REMARK       I    between atoms: N_6  and  C_4 
REMARK    3  A    between atoms: O_21  and  C_5 
REMARK    4  A    between atoms: C_18  and  N_6 
REMARK    5  A    between atoms: C_17  and  C_18 
ROOT
ATOM      1  C   UNL d   1       0.396   1.363   0.060  0.00  0.00     0.098 A 
ATOM      2  C   UNL d   1      -0.987   1.143   0.085  0.00  0.00     0.069 A 
ATOM      3  C   UNL d   1       1.240   0.284   0.345  0.00  0.00     0.158 A 
ATOM      4  N   UNL d   1       0.799  -0.954   0.663  0.00  0.00    -0.346 N 
ATOM      5  HN  UNL d   1       1.449  -1.706   0.890  1.00  0.00     0.167 HD
ATOM      6  C   UNL d   1      -0.531  -1.153   0.667  0.00  0.00     0.091 A 
ATOM      7  C   UNL d   1      -1.446  -0.153   0.390  0.00  0.00     0.034 A 
ENDROOT
BRANCH   1   8
ATOM      8  C   UNL d   1       1.008   2.633  -0.364  0.00  0.00     0.257 C 
ATOM      9  N   UNL d   1       0.865   3.719   0.478  0.00  0.00    -0.352 N 
ATOM     10  H   UNL d   1       0.383   3.631   1.362  0.00  0.00     0.163 HD
ATOM     11  O   UNL d   1       1.650   2.661  -1.409  0.00  0.00    -0.267 OA
BRANCH   9  12
ATOM     12  C   UNL d   1       1.657   4.910   0.242  0.00  0.00     0.161 C 
BRANCH  12  13
ATOM     13  C   UNL d   1       0.991   6.216   0.607  0.00  0.00    -0.039 A 
ATOM     14  C   UNL d   1      -0.383   6.439   0.437  0.00  0.00     0.034 A 
ATOM     15  C   UNL d   1      -0.945   7.703   0.667  0.00  0.00     0.056 A 
ATOM     16 CL   UNL d   1      -2.649   7.880   0.436  0.00  0.00    -0.083 Cl
ATOM     17  C   UNL d   1      -0.129   8.771   1.052  0.00  0.00     0.055 A 
ATOM     18  C   UNL d   1       1.242   8.566   1.214  0.00  0.00     0.026 A 
ATOM     19 CL   UNL d   1      -0.742  10.364   1.317  0.00  0.00    -0.083 Cl
ATOM     20  C   UNL d   1       1.795   7.301   0.993  0.00  0.00     0.010 A 
ENDBRANCH  12  13
ENDBRANCH   9  12
ENDBRANCH   1   8
BRANCH   2  21
ATOM     21  C   UNL d   1      -2.012   2.166  -0.310  0.00  0.00     0.418 C 
ATOM     22  F   UNL d   1      -1.628   3.457  -0.171  0.00  0.00    -0.166 F 
ATOM     23  F   UNL d   1      -2.417   2.022  -1.598  0.00  0.00    -0.166 F 
ATOM     24  F   UNL d   1      -3.143   2.057   0.446  0.00  0.00    -0.166 F 
ENDBRANCH   2  21
BRANCH   3  25
ATOM     25  O   UNL d   1       2.599   0.368   0.216  0.00  0.00    -0.340 OA
ATOM     26  C   UNL d   1       3.202   1.002   1.338  0.00  0.00     0.211 C 
ENDBRANCH   3  25
TORSDOF 5
