REMARK  4 active torsions:
REMARK  status: ('A' for Active; 'I' for Inactive)
REMARK    1  A    between atoms: C_6  and  C_1 
REMARK    2  A    between atoms: C_5  and  C_4 
REMARK       I    between atoms: N_7  and  C_6 
REMARK       I    between atoms: C_8  and  N_7 
REMARK       I    between atoms: N_13  and  C_8 
REMARK    3  A    between atoms: C_10  and  C_15 
REMARK    4  A    between atoms: C_14  and  N_13 
ROOT
ATOM      1  C   UNL d   1       2.423   0.352  -1.348  0.00  0.00     0.108 A 
ATOM      2  N   UNL d   1       3.296   0.754  -2.361  0.00  0.00    -0.345 N 
ATOM      3  HN  UNL d   1       3.467   1.723  -2.630  1.00  0.00     0.167 HD
ATOM      4  C   UNL d   1       3.869  -0.294  -2.920  0.00  0.00     0.086 A 
ATOM      5  S   UNL d   1       3.402  -1.814  -2.260  0.00  0.00    -0.081 SA
ATOM      6  C   UNL d   1       2.351  -1.015  -1.166  0.00  0.00     0.087 A 
ENDROOT
BRANCH   1   7
ATOM      7  C   UNL d   1       1.665   1.345  -0.581  0.00  0.00     0.276 C 
ATOM      8  N   UNL d   1       2.012   2.638  -0.919  0.00  0.00    -0.274 N 
ATOM      9  C   UNL d   1       1.380   3.824  -0.631  0.00  0.00     0.327 C 
ATOM     10  H   UNL d   1       2.750   2.729  -1.610  0.00  0.00     0.173 HD
ATOM     11  N   UNL d   1       0.285   3.725   0.186  0.00  0.00    -0.308 N 
ATOM     12  O   UNL d   1       1.826   4.853  -1.126  0.00  0.00    -0.247 OA
ATOM     13  H   UNL d   1       0.290   2.905   0.782  0.00  0.00     0.170 HD
ATOM     14  O   UNL d   1       0.859   1.048   0.297  0.00  0.00    -0.266 OA
BRANCH  11  15
ATOM     15  C   UNL d   1      -0.644   4.746   0.503  0.00  0.00     0.048 A 
ATOM     16  C   UNL d   1      -1.155   5.643  -0.468  0.00  0.00    -0.035 A 
ATOM     17  C   UNL d   1      -2.120   6.597  -0.089  0.00  0.00     0.009 A 
ATOM     18  C   UNL d   1      -0.765   5.649  -1.923  0.00  0.00     0.050 C 
ATOM     19  C   UNL d   1      -2.612   6.649   1.209  0.00  0.00     0.001 A 
ATOM     20  C   UNL d   1      -2.130   5.759   2.157  0.00  0.00     0.009 A 
ATOM     21  C   UNL d   1      -1.153   4.800   1.825  0.00  0.00    -0.035 A 
ATOM     22  C   UNL d   1      -0.612   3.987   2.974  0.00  0.00     0.050 C 
ENDBRANCH  11  15
ENDBRANCH   1   7
BRANCH   4  23
ATOM     23  C   UNL d   1       4.823  -0.218  -4.034  0.00  0.00     0.019 A 
ATOM     24  C   UNL d   1       5.979   0.577  -3.967  0.00  0.00     0.047 A 
ATOM     25  C   UNL d   1       6.818   0.715  -5.082  0.00  0.00     0.041 A 
ATOM     26 CL   UNL d   1       6.449   1.408  -2.523  0.00  0.00    -0.083 Cl
ATOM     27  C   UNL d   1       6.524   0.062  -6.288  0.00  0.00     0.049 A 
ATOM     28  C   UNL d   1       5.389  -0.758  -6.348  0.00  0.00     0.017 A 
ATOM     29  C   UNL d   1       4.548  -0.894  -5.237  0.00  0.00     0.017 A 
BRANCH  27  30
ATOM     30  C   UNL d   1       7.390   0.248  -7.511  0.00  0.00     0.417 C 
ATOM     31  F   UNL d   1       8.449   1.078  -7.307  0.00  0.00    -0.166 F 
ATOM     32  F   UNL d   1       7.912  -0.925  -7.961  0.00  0.00    -0.166 F 
ATOM     33  F   UNL d   1       6.696   0.776  -8.557  0.00  0.00    -0.166 F 
ENDBRANCH  27  30
ENDBRANCH   4  23
TORSDOF 4
