REMARK  4 active torsions:
REMARK  status: ('A' for Active; 'I' for Inactive)
REMARK    1  A    between atoms: C_10  and  C_2 
REMARK    2  A    between atoms: C_11  and  C_9 
REMARK    3  A    between atoms: O_17  and  C_11 
REMARK    4  A    between atoms: C_18  and  O_17 
ROOT
ATOM      1  C   UNL d   1      -0.029   0.517   0.002  0.00  0.00     0.034 A 
ATOM      2  C   UNL d   1      -1.411   0.717   0.001  0.00  0.00     0.145 A 
ATOM      3  C   UNL d   1       0.197  -0.798   0.006  0.00  0.00     0.104 A 
ATOM      4  N   UNL d   1      -2.026  -0.503   0.000  0.00  0.00    -0.293 N 
ATOM      5  HN  UNL d   1      -3.028  -0.696  -0.003  1.00  0.00     0.187 HD
ATOM      6  N   UNL d   1      -1.004  -1.408   0.003  0.00  0.00    -0.288 N 
ATOM      7  S   UNL d   1       1.798  -1.224   0.014  0.00  0.00    -0.064 SA
ATOM      8  C   UNL d   1       1.121   1.307   0.005  0.00  0.00     0.041 A 
ATOM      9  C   UNL d   1       2.248   0.472   0.013  0.00  0.00     0.083 A 
ATOM     10  C   UNL d   1      -1.296  -2.820   0.003  0.00  0.00     0.178 C 
ENDROOT
BRANCH   9  11
ATOM     11  C   UNL d   1       3.664   0.791   0.022  0.00  0.00     0.300 C 
ATOM     12  O   UNL d   1       4.583  -0.019   0.065  0.00  0.00    -0.259 OA
BRANCH  11  13
ATOM     13  O   UNL d   1       3.843   2.144  -0.034  0.00  0.00    -0.317 OA
BRANCH  13  14
ATOM     14  C   UNL d   1       5.213   2.575  -0.035  0.00  0.00     0.174 C 
ATOM     15  C   UNL d   1       5.785   2.522  -1.441  0.00  0.00     0.034 C 
ENDBRANCH  13  14
ENDBRANCH  11  13
ENDBRANCH   9  11
BRANCH   2  16
ATOM     16  C   UNL d   1      -2.184   2.001   0.001  0.00  0.00     0.434 C 
ATOM     17  F   UNL d   1      -1.371   3.095   0.004  0.00  0.00    -0.165 F 
ATOM     18  F   UNL d   1      -2.983   2.126  -1.092  0.00  0.00    -0.165 F 
ATOM     19  F   UNL d   1      -2.987   2.123   1.092  0.00  0.00    -0.165 F 
ENDBRANCH   2  16
TORSDOF 4
