REMARK  5 active torsions:
REMARK  status: ('A' for Active; 'I' for Inactive)
REMARK    1  A    between atoms: C_14  and  N_6 
REMARK    2  A    between atoms: S_11  and  C_7 
REMARK    3  A    between atoms: C_17  and  S_11 
REMARK    4  A    between atoms: C_15  and  C_14 
REMARK    5  A    between atoms: C_19  and  C_17 
ROOT
ATOM      1  C   UNL d   1       0.704   0.487  -0.036  0.00  0.00     0.049 A 
ATOM      2  C   UNL d   1       1.281  -0.765  -0.170  0.00  0.00     0.091 A 
ATOM      3  C   UNL d   1       1.609   1.632   0.069  0.00  0.00     0.117 A 
ATOM      4  N   UNL d   1       2.597  -1.063  -0.309  0.00  0.00    -0.330 N 
ATOM      5  HN  UNL d   1       2.939  -2.018  -0.415  1.00  0.00     0.168 HD
ATOM      6  N   UNL d   1       2.954   1.291  -0.096  0.00  0.00    -0.310 N 
ATOM      7  C   UNL d   1       3.385  -0.028  -0.294  0.00  0.00     0.149 A 
ATOM      8  S   UNL d   1       0.131  -2.023  -0.161  0.00  0.00    -0.075 SA
ATOM      9  C   UNL d   1      -0.743   0.397  -0.053  0.00  0.00    -0.028 A 
ATOM     10  C   UNL d   1      -1.158  -0.925  -0.058  0.00  0.00    -0.008 A 
ATOM     11  N   UNL d   1       1.166   2.822   0.319  0.00  0.00    -0.384 N 
ATOM     12  HN  UNL d   1       1.758   3.649   0.392  1.00  0.00     0.157 HD
ATOM     13  C   UNL d   1      -1.753   1.513  -0.041  0.00  0.00     0.041 C 
ATOM     14  C   UNL d   1      -2.579  -1.400  -0.036  0.00  0.00     0.047 C 
ATOM     15  C   UNL d   1      -3.173   1.032  -0.383  0.00  0.00     0.005 C 
ATOM     16  C   UNL d   1      -3.523  -0.259   0.364  0.00  0.00     0.005 C 
ATOM     17  H   UNL d   1       0.157   2.831   0.434  0.00  0.00     0.157 HD
ENDROOT
BRANCH   7  18
ATOM     18  S   UNL d   1       5.109  -0.394  -0.559  0.00  0.00    -0.089 SA
BRANCH  18  19
ATOM     19  C   UNL d   1       4.965  -2.043  -1.305  0.00  0.00     0.121 C 
BRANCH  19  20
ATOM     20  C   UNL d   1       6.238  -2.726  -1.773  0.00  0.00    -0.048 A 
ATOM     21  C   UNL d   1       7.530  -2.403  -1.338  0.00  0.00     0.009 A 
ATOM     22  C   UNL d   1       8.638  -3.142  -1.775  0.00  0.00     0.024 A 
ATOM     23  C   UNL d   1       8.463  -4.221  -2.638  0.00  0.00     0.034 A 
ATOM     24  C   UNL d   1       7.190  -4.570  -3.072  0.00  0.00     0.024 A 
ATOM     25 CL   UNL d   1       9.824  -5.136  -3.160  0.00  0.00    -0.084 Cl
ATOM     26  C   UNL d   1       6.088  -3.829  -2.640  0.00  0.00     0.009 A 
ENDBRANCH  19  20
ENDBRANCH  18  19
ENDBRANCH   7  18
BRANCH   6  27
ATOM     27  C   UNL d   1       3.905   2.405   0.009  0.00  0.00     0.159 C 
BRANCH  27  28
ATOM     28  C   UNL d   1       4.085   3.149  -1.293  0.00  0.00    -0.017 C 
ATOM     29  C   UNL d   1       3.673   2.789  -2.518  0.00  0.00     0.008 C 
ENDBRANCH  27  28
ENDBRANCH   6  27
TORSDOF 5
