REMARK  3 active torsions:
REMARK  status: ('A' for Active; 'I' for Inactive)
REMARK    1  A    between atoms: C_8  and  C_3 
REMARK    2  A    between atoms: C_11  and  N_4 
REMARK    3  A    between atoms: C_15  and  C_5 
ROOT
ATOM      1  N   UNL d   1       0.977  -0.696   0.024  0.00  0.00    -0.293 N 
ATOM      2  HN  UNL d   1       1.788  -1.307   0.117  1.00  0.00     0.187 HD
ATOM      3  C   UNL d   1      -0.358   1.131  -0.066  0.00  0.00     0.011 A 
ATOM      4  N   UNL d   1      -0.326  -1.072  -0.062  0.00  0.00    -0.266 N 
ATOM      5  C   UNL d   1       0.975   0.646  -0.039  0.00  0.00     0.070 A 
ATOM      6  C   UNL d   1      -1.160   0.019  -0.131  0.00  0.00     0.130 A 
ENDROOT
BRANCH   3   7
ATOM      7  C   UNL d   1      -0.846   2.463   0.015  0.00  0.00     0.026 C 
ATOM      8  C   UNL d   1      -1.242   3.052   1.157  0.00  0.00    -0.006 C 
ATOM      9  C   UNL d   1      -1.764   4.450   1.083  0.00  0.00     0.189 C 
ATOM     10  C   UNL d   1      -1.244   2.434   2.527  0.00  0.00     0.047 C 
ATOM     11  C   UNL d   1      -2.704   4.859   2.166  0.00  0.00     0.021 A 
ATOM     12  O   UNL d   1      -1.456   5.215   0.177  0.00  0.00    -0.287 OA
ATOM     13  C   UNL d   1      -3.172   6.177   2.196  0.00  0.00     0.016 A 
ATOM     14  C   UNL d   1      -3.148   3.929   3.125  0.00  0.00    -0.044 A 
ATOM     15  C   UNL d   1      -4.100   6.565   3.163  0.00  0.00     0.001 A 
ATOM     16  C   UNL d   1      -4.569   5.638   4.093  0.00  0.00     0.001 A 
ATOM     17  C   UNL d   1      -4.099   4.325   4.074  0.00  0.00     0.008 A 
ATOM     18  C   UNL d   1      -2.648   2.507   3.114  0.00  0.00     0.044 C 
ENDBRANCH   3   7
BRANCH   5  19
ATOM     19  C   UNL d   1       2.228   1.407  -0.049  0.00  0.00    -0.007 A 
ATOM     20  C   UNL d   1       3.336   0.969   0.690  0.00  0.00     0.014 A 
ATOM     21  C   UNL d   1       4.541   1.678   0.652  0.00  0.00     0.001 A 
ATOM     22  C   UNL d   1       4.651   2.828  -0.127  0.00  0.00     0.000 A 
ATOM     23  C   UNL d   1       3.558   3.274  -0.866  0.00  0.00     0.001 A 
ATOM     24  C   UNL d   1       2.355   2.566  -0.828  0.00  0.00     0.014 A 
ENDBRANCH   5  19
BRANCH   4  25
ATOM     25  C   UNL d   1      -0.697  -2.446  -0.046  0.00  0.00     0.056 A 
ATOM     26  C   UNL d   1       0.283  -3.425   0.175  0.00  0.00     0.031 A 
ATOM     27  C   UNL d   1      -0.068  -4.777   0.208  0.00  0.00     0.002 A 
ATOM     28  C   UNL d   1      -1.393  -5.162   0.012  0.00  0.00     0.000 A 
ATOM     29  C   UNL d   1      -2.371  -4.196  -0.215  0.00  0.00     0.002 A 
ATOM     30  C   UNL d   1      -2.030  -2.840  -0.241  0.00  0.00     0.031 A 
ENDBRANCH   4  25
TORSDOF 3
