REMARK  5 active torsions:
REMARK  status: ('A' for Active; 'I' for Inactive)
REMARK       I    between atoms: N_2  and  C_1 
REMARK    1  A    between atoms: C_3  and  C_1 
REMARK    2  A    between atoms: C_6  and  N_2 
REMARK    3  A    between atoms: O_7  and  C_4 
REMARK    4  A    between atoms: C_12  and  O_7 
REMARK    5  A    between atoms: O_20  and  C_13 
ROOT
ATOM      1  C   UNL d   1       4.312  -1.132   0.560  0.00  0.00     0.175 A 
ATOM      2  C   UNL d   1       3.479  -0.457  -0.348  0.00  0.00     0.087 A 
ATOM      3  N   UNL d   1       4.492  -2.489   0.555  0.00  0.00    -0.345 N 
ATOM      4  HN  UNL d   1       5.057  -2.943   1.273  1.00  0.00     0.167 HD
ATOM      5  C   UNL d   1       2.906  -1.263  -1.353  0.00  0.00     0.035 A 
ATOM      6  C   UNL d   1       3.909  -3.208  -0.416  0.00  0.00     0.090 A 
ATOM      7  C   UNL d   1       3.130  -2.642  -1.397  0.00  0.00     0.019 A 
ENDROOT
BRANCH   2   8
ATOM      8  N   UNL d   1       3.129   0.935  -0.397  0.00  0.00    -0.319 N 
ATOM      9  C   UNL d   1       3.573   1.960   0.420  0.00  0.00     0.256 C 
ATOM     10  O   UNL d   1       4.399   1.881   1.323  0.00  0.00    -0.267 OA
ATOM     11  H   UNL d   1       2.498   1.201  -1.139  0.00  0.00     0.169 HD
BRANCH   9  12
ATOM     12  C   UNL d   1       3.073   3.342   0.132  0.00  0.00     0.038 C 
ATOM     13  C   UNL d   1       1.724   3.707  -0.061  0.00  0.00    -0.040 C 
ATOM     14  C   UNL d   1       1.429   5.050  -0.416  0.00  0.00    -0.055 C 
ATOM     15  C   UNL d   1       0.592   2.756   0.223  0.00  0.00     0.050 C 
ATOM     16  C   UNL d   1       0.054   5.518  -0.815  0.00  0.00     0.049 C 
ATOM     17  C   UNL d   1       2.439   6.026  -0.357  0.00  0.00     0.007 C 
ATOM     18  C   UNL d   1       3.744   5.681  -0.033  0.00  0.00     0.002 C 
ATOM     19  C   UNL d   1       4.064   4.343   0.169  0.00  0.00     0.017 C 
ENDBRANCH   9  12
ENDBRANCH   2   8
BRANCH   1  20
ATOM     20  O   UNL d   1       4.973  -0.449   1.558  0.00  0.00    -0.292 OA
BRANCH  20  21
ATOM     21  C   UNL d   1       6.187  -0.925   1.999  0.00  0.00     0.078 A 
ATOM     22  C   UNL d   1       7.152  -1.497   1.166  0.00  0.00     0.040 A 
ATOM     23  C   UNL d   1       8.342  -1.998   1.703  0.00  0.00     0.039 A 
ATOM     24  C   UNL d   1       8.587  -1.901   3.073  0.00  0.00     0.068 A 
ATOM     25  C   UNL d   1       7.657  -1.253   3.889  0.00  0.00     0.039 A 
ATOM     26  C   UNL d   1       6.463  -0.761   3.355  0.00  0.00     0.040 A 
BRANCH  24  27
ATOM     27  O   UNL d   1       9.687  -2.390   3.725  0.00  0.00    -0.356 OA
ATOM     28  C   UNL d   1      10.571  -3.199   2.958  0.00  0.00     0.210 C 
ENDBRANCH  24  27
ENDBRANCH  20  21
ENDBRANCH   1  20
TORSDOF 5
