REMARK  2 active torsions:
REMARK  status: ('A' for Active; 'I' for Inactive)
REMARK    1  A    between atoms: C_7  and  N_1 
REMARK    2  A    between atoms: N_2  and  C_8 
ROOT
ATOM      1  C   UNL d   1       0.152  -0.149   1.157  0.00  0.00     0.103 A 
ATOM      2  C   UNL d   1      -1.242  -0.678   3.530  0.00  0.00     0.039 A 
ATOM      3  C   UNL d   1      -0.721  -1.240   1.220  0.00  0.00     0.038 A 
ATOM      4  C   UNL d   1       0.341   0.675   2.269  0.00  0.00     0.038 A 
ATOM      5  C   UNL d   1      -1.425  -1.494   2.403  0.00  0.00     0.032 A 
ATOM      6  C   UNL d   1      -0.346   0.399   3.458  0.00  0.00     0.032 A 
ENDROOT
BRANCH   2   7
ATOM      7  N   UNL d   1      -1.967  -0.939   4.738  0.00  0.00    -0.320 N 
ATOM      8  C   UNL d   1      -2.528   0.017   5.592  0.00  0.00     0.013 A 
ATOM      9  C   UNL d   1      -3.144  -0.642   6.639  0.00  0.00     0.027 A 
ATOM     10  C   UNL d   1      -2.561   1.494   5.376  0.00  0.00     0.068 C 
ATOM     11  C   UNL d   1      -2.992  -2.018   6.433  0.00  0.00     0.027 A 
ATOM     12  C   UNL d   1      -2.255  -2.198   5.278  0.00  0.00     0.013 A 
ATOM     13  C   UNL d   1      -1.773  -3.514   4.765  0.00  0.00     0.068 C 
ENDBRANCH   2   7
BRANCH   1  14
ATOM     14  N   UNL d   1       0.875   0.135  -0.092  0.00  0.00    -0.116 N 
ATOM     15  O   UNL d   1       0.736  -0.663  -1.033  0.00  0.00    -0.532 OA
ATOM     16  O   UNL d   1       1.580   1.151  -0.132  0.00  0.00    -0.532 OA
ENDBRANCH   1  14
TORSDOF 2
