REMARK  6 active torsions:
REMARK  status: ('A' for Active; 'I' for Inactive)
REMARK    1  A    between atoms: C_8  and  C_1 
REMARK    2  A    between atoms: C_13  and  N_2 
REMARK    3  A    between atoms: C_9  and  C_5 
REMARK    4  A    between atoms: S_6  and  N_11 
REMARK    5  A    between atoms: C_10  and  S_6 
REMARK    6  A    between atoms: N_11  and  C_26 
ROOT
ATOM      1  C   UNL d   1       1.930   1.706  -0.038  0.00  0.00     0.057 A 
ATOM      2  C   UNL d   1       4.258   3.219  -0.375  0.00  0.00     0.042 A 
ATOM      3  C   UNL d   1       2.676   1.616  -1.227  0.00  0.00     0.034 A 
ATOM      4  C   UNL d   1       2.313   2.630   0.937  0.00  0.00     0.034 A 
ATOM      5  C   UNL d   1       3.486   3.380   0.772  0.00  0.00     0.032 A 
ATOM      6  C   UNL d   1       3.839   2.361  -1.388  0.00  0.00     0.032 A 
ENDROOT
BRANCH   1   7
ATOM      7  N   UNL d   1       0.807   0.841   0.129  0.00  0.00    -0.251 N 
ATOM      8  C   UNL d   1       0.254   0.277   1.257  0.00  0.00     0.142 C 
ATOM      9  C   UNL d   1      -0.894  -0.374   0.843  0.00  0.00     0.072 C 
ATOM     10  C   UNL d   1      -0.946  -0.220  -0.556  0.00  0.00     0.134 C 
ATOM     11  N   UNL d   1       0.133   0.451  -0.990  0.00  0.00    -0.289 N 
ATOM     12  HN  UNL d   1       0.395   0.631  -1.959  1.00  0.00     0.187 HD
BRANCH   8  13
ATOM     13  C   UNL d   1       0.836   0.279   2.611  0.00  0.00     0.434 C 
ATOM     14  F   UNL d   1       2.109   0.719   2.701  0.00  0.00    -0.165 F 
ATOM     15  F   UNL d   1       0.090   1.041   3.452  0.00  0.00    -0.165 F 
ATOM     16  F   UNL d   1       0.840  -0.976   3.132  0.00  0.00    -0.165 F 
ENDBRANCH   8  13
BRANCH  10  17
ATOM     17  C   UNL d   1      -2.025  -0.753  -1.469  0.00  0.00     0.434 C 
ATOM     18  F   UNL d   1      -1.905  -0.342  -2.758  0.00  0.00    -0.165 F 
ATOM     19  F   UNL d   1      -2.039  -2.113  -1.486  0.00  0.00    -0.165 F 
ATOM     20  F   UNL d   1      -3.260  -0.364  -1.048  0.00  0.00    -0.165 F 
ENDBRANCH  10  17
ENDBRANCH   1   7
BRANCH   2  21
ATOM     21  N   UNL d   1       5.494   3.902  -0.536  0.00  0.00    -0.281 N 
ATOM     22  H   UNL d   1       5.487   4.921  -0.527  0.00  0.00     0.179 HD
BRANCH  21  23
ATOM     23  S   UNL d   1       6.869   3.269   0.209  0.00  0.00     0.263 S 
ATOM     24  O   UNL d   1       7.915   4.250   0.016  0.00  0.00    -0.200 OA
ATOM     25  O   UNL d   1       6.532   2.792   1.532  0.00  0.00    -0.200 OA
BRANCH  23  26
ATOM     26  C   UNL d   1       7.269   1.865  -0.807  0.00  0.00     0.081 A 
ATOM     27  C   UNL d   1       6.824   0.594  -0.428  0.00  0.00     0.050 A 
ATOM     28  C   UNL d   1       7.188  -0.522  -1.187  0.00  0.00     0.057 A 
ATOM     29 CL   UNL d   1       6.595  -2.063  -0.678  0.00  0.00    -0.083 Cl
ATOM     30  C   UNL d   1       8.008  -0.368  -2.312  0.00  0.00     0.055 A 
ATOM     31  C   UNL d   1       8.451   0.906  -2.686  0.00  0.00     0.027 A 
ATOM     32 CL   UNL d   1       8.515  -1.706  -3.278  0.00  0.00    -0.083 Cl
ATOM     33  C   UNL d   1       8.088   2.026  -1.929  0.00  0.00     0.027 A 
ENDBRANCH  23  26
ENDBRANCH  21  23
ENDBRANCH   2  21
TORSDOF 6
