REMARK  2 active torsions:
REMARK  status: ('A' for Active; 'I' for Inactive)
REMARK    1  A    between atoms: C_3  and  C_1 
REMARK       I    between atoms: C_2  and  N_5 
REMARK       I    between atoms: N_7  and  C_2 
REMARK       I    between atoms: N_6  and  C_3 
REMARK    2  A    between atoms: C_18  and  N_7 
ROOT
ATOM      1  C   UNL d   1      -2.470   2.485  -4.013  0.00  0.00     0.323 C 
ATOM      2  C   UNL d   1       2.311   0.528  -1.868  0.00  0.00     0.251 C 
ATOM      3  N   UNL d   1      -1.286   1.950  -3.509  0.00  0.00    -0.331 N 
ATOM      4  N   UNL d   1       1.323   1.146  -2.621  0.00  0.00    -0.347 N 
ATOM      5  N   UNL d   1      -3.205   1.654  -4.826  0.00  0.00    -0.309 N 
ATOM      6  O   UNL d   1      -2.787   3.646  -3.757  0.00  0.00    -0.247 OA
ATOM      7  C   UNL d   1      -0.873   0.542  -3.571  0.00  0.00     0.147 C 
ATOM      8  C   UNL d   1      -0.537   2.785  -2.552  0.00  0.00     0.147 C 
ATOM      9  C   UNL d   1       0.649   0.384  -3.671  0.00  0.00     0.146 C 
ATOM     10  C   UNL d   1       0.982   2.568  -2.608  0.00  0.00     0.146 C 
ATOM     11  O   UNL d   1       2.689  -0.613  -2.155  0.00  0.00    -0.270 OA
ATOM     12  H   UNL d   1      -3.070   0.664  -4.716  0.00  0.00     0.170 HD
ENDROOT
BRANCH   2  13
ATOM     13  C   UNL d   1       2.940   1.310  -0.692  0.00  0.00     0.245 C 
ATOM     14  O   UNL d   1       1.992   1.816   0.254  0.00  0.00    -0.331 OA
ATOM     15  C   UNL d   1       1.597   0.863   1.157  0.00  0.00     0.103 A 
ATOM     16  C   UNL d   1       0.462   1.144   1.915  0.00  0.00     0.040 A 
ATOM     17  C   UNL d   1       2.270  -0.348   1.334  0.00  0.00     0.102 A 
ATOM     18  C   UNL d   1      -0.040   0.185   2.798  0.00  0.00     0.003 A 
ATOM     19  C   UNL d   1       0.591  -1.054   2.918  0.00  0.00     0.003 A 
ATOM     20  C   UNL d   1       1.751  -1.318   2.190  0.00  0.00     0.039 A 
ATOM     21  O   UNL d   1       3.441  -0.658   0.699  0.00  0.00    -0.345 OA
ATOM     22  C   UNL d   1       4.003   0.472   0.021  0.00  0.00     0.218 C 
ENDBRANCH   2  13
BRANCH   5  23
ATOM     23  C   UNL d   1      -4.234   2.032  -5.719  0.00  0.00     0.036 A 
ATOM     24  C   UNL d   1      -4.581   3.362  -5.982  0.00  0.00     0.032 A 
ATOM     25  C   UNL d   1      -5.550   3.670  -6.942  0.00  0.00     0.044 A 
ATOM     26  C   UNL d   1      -6.172   2.648  -7.640  0.00  0.00     0.116 A 
ATOM     27  C   UNL d   1      -5.858   1.320  -7.385  0.00  0.00     0.044 A 
ATOM     28  F   UNL d   1      -7.079   2.946  -8.579  0.00  0.00    -0.206 F 
ATOM     29  C   UNL d   1      -4.892   1.011  -6.422  0.00  0.00     0.032 A 
ENDBRANCH   5  23
TORSDOF 2
