REMARK  1 active torsions:
REMARK  status: ('A' for Active; 'I' for Inactive)
REMARK    1  A    between atoms: C_11  and  C_4 
ROOT
ATOM      1  N   UNL d   1       1.242  -0.056  -1.105  0.00  0.00    -0.297 N 
ATOM      2  HN  UNL d   1       1.777  -0.069  -1.974  1.00  0.00     0.187 HD
ATOM      3  N   UNL d   1      -0.124  -0.109  -1.109  0.00  0.00    -0.266 N 
ATOM      4  C   UNL d   1       1.829   0.011   0.053  0.00  0.00     0.058 A 
ATOM      5  C   UNL d   1      -0.930  -0.104  -0.002  0.00  0.00     0.259 A 
ATOM      6  C   UNL d   1       1.098   0.006   1.345  0.00  0.00     0.037 A 
ATOM      7  C   UNL d   1      -0.235  -0.047   1.296  0.00  0.00     0.078 A 
ATOM      8  O   UNL d   1      -2.154  -0.151  -0.054  0.00  0.00    -0.267 OA
ATOM      9  H   UNL d   1      -0.576  -0.151  -2.016  0.00  0.00     0.190 HD
ENDROOT
BRANCH   4  10
ATOM     10  C   UNL d   1       3.319   0.065   0.110  0.00  0.00    -0.005 A 
ATOM     11  C   UNL d   1       4.000   0.709   1.144  0.00  0.00     0.030 A 
ATOM     12  C   UNL d   1       5.384   0.691   1.122  0.00  0.00     0.088 A 
ATOM     13  N   UNL d   1       6.112   0.096   0.155  0.00  0.00    -0.375 N 
ATOM     14  C   UNL d   1       5.429  -0.498  -0.847  0.00  0.00     0.088 A 
ATOM     15  HN  UNL d   1       7.131   0.094   0.180  1.00  0.00     0.164 HD
ATOM     16  C   UNL d   1       4.049  -0.537  -0.916  0.00  0.00     0.030 A 
ENDBRANCH   4  10
TORSDOF 1
