REMARK  4 active torsions:
REMARK  status: ('A' for Active; 'I' for Inactive)
REMARK    1  A    between atoms: C_2  and  N_1 
REMARK       I    between atoms: C_3  and  N_1 
REMARK    2  A    between atoms: N_5  and  C_2 
REMARK    3  A    between atoms: C_13  and  C_3 
REMARK    4  A    between atoms: C_4  and  N_5 
ROOT
ATOM      1  C   UNL d   1       0.121   1.403  -2.735  0.00  0.00     0.179 C 
ATOM      2  S   UNL d   1      -1.397   0.899  -2.237  0.00  0.00    -0.040 SA
ENDROOT
BRANCH   1   3
ATOM      3  N   UNL d   1       0.537   1.635  -4.033  0.00  0.00    -0.299 N 
ATOM      4  C   UNL d   1      -0.294   1.434  -5.127  0.00  0.00     0.257 C 
ATOM      5  O   UNL d   1      -0.716   0.336  -5.468  0.00  0.00    -0.267 OA
ATOM      6  H   UNL d   1       1.119   2.459  -4.054  0.00  0.00     0.171 HD
BRANCH   4   7
ATOM      7  C   UNL d   1      -0.651   2.631  -5.936  0.00  0.00     0.032 A 
ATOM      8  C   UNL d   1       0.258   3.654  -6.233  0.00  0.00     0.017 A 
ATOM      9  C   UNL d   1      -0.163   4.757  -6.985  0.00  0.00     0.001 A 
ATOM     10  C   UNL d   1      -1.481   4.843  -7.438  0.00  0.00     0.000 A 
ATOM     11  C   UNL d   1      -2.385   3.822  -7.151  0.00  0.00     0.001 A 
ATOM     12  C   UNL d   1      -1.969   2.716  -6.407  0.00  0.00     0.017 A 
ENDBRANCH   4   7
ENDBRANCH   1   3
BRANCH   1  13
ATOM     13  N   UNL d   1       1.011   1.765  -1.755  0.00  0.00    -0.333 N 
ATOM     14  H   UNL d   1       0.573   1.951  -0.860  0.00  0.00     0.168 HD
BRANCH  13  15
ATOM     15  C   UNL d   1       2.419   1.782  -1.752  0.00  0.00     0.040 A 
ATOM     16  C   UNL d   1       3.001   2.785  -0.959  0.00  0.00     0.037 A 
ATOM     17  C   UNL d   1       4.392   2.892  -0.795  0.00  0.00    -0.054 A 
ATOM     18  C   UNL d   1       4.954   3.990   0.067  0.00  0.00     0.049 C 
ATOM     19  C   UNL d   1       5.223   1.941  -1.406  0.00  0.00    -0.056 A 
ATOM     20  C   UNL d   1       4.638   0.931  -2.187  0.00  0.00     0.016 A 
ATOM     21  C   UNL d   1       6.716   1.964  -1.223  0.00  0.00     0.049 C 
ATOM     22  C   UNL d   1       3.240   0.821  -2.356  0.00  0.00    -0.035 A 
ATOM     23  C   UNL d   1       2.760  -0.439  -3.026  0.00  0.00     0.050 C 
ENDBRANCH  13  15
ENDBRANCH   1  13
TORSDOF 4
