REMARK  7 active torsions:
REMARK  status: ('A' for Active; 'I' for Inactive)
REMARK       I    between atoms: N_2  and  C_1 
REMARK    1  A    between atoms: C_16  and  C_1 
REMARK    2  A    between atoms: C_3  and  N_2 
REMARK    3  A    between atoms: N_6  and  C_4 
REMARK       I    between atoms: C_11  and  N_6 
REMARK    4  A    between atoms: O_22  and  C_7 
REMARK    5  A    between atoms: C_20  and  C_11 
REMARK    6  A    between atoms: C_13  and  O_15 
REMARK    7  A    between atoms: O_15  and  C_20 
ROOT
ATOM      1  C   UNL d   1       2.598  -2.503  -0.314  0.00  0.00     0.043 A 
ATOM      2  C   UNL d   1       1.302  -4.990  -0.077  0.00  0.00     0.069 A 
ATOM      3  C   UNL d   1       3.063  -3.483   0.584  0.00  0.00     0.069 A 
ATOM      4  C   UNL d   1       2.433  -4.732   0.711  0.00  0.00     0.097 A 
ATOM      5  C   UNL d   1       1.484  -2.793  -1.127  0.00  0.00    -0.033 A 
ATOM      6  C   UNL d   1       0.833  -4.021  -0.971  0.00  0.00     0.041 A 
ATOM      7  C   UNL d   1       0.977  -1.890  -2.216  0.00  0.00     0.050 C 
ENDROOT
BRANCH   2   8
ATOM      8  N   UNL d   1       0.528  -6.169   0.042  0.00  0.00    -0.323 N 
ATOM      9  C   UNL d   1       0.986  -7.384  -0.462  0.00  0.00     0.246 C 
ATOM     10  O   UNL d   1       2.085  -7.592  -0.966  0.00  0.00    -0.271 OA
ATOM     11  H   UNL d   1      -0.465  -6.054  -0.110  0.00  0.00     0.169 HD
BRANCH   9  12
ATOM     12  C   UNL d   1      -0.088  -8.470  -0.350  0.00  0.00     0.278 C 
BRANCH  12  13
ATOM     13  O   UNL d   1      -1.212  -8.085  -1.147  0.00  0.00    -0.340 OA
BRANCH  13  14
ATOM     14  C   UNL d   1      -2.183  -9.027  -1.378  0.00  0.00     0.091 A 
ATOM     15  C   UNL d   1      -2.831  -9.830  -0.428  0.00  0.00     0.069 A 
ATOM     16  C   UNL d   1      -3.916 -10.637  -0.798  0.00  0.00     0.050 A 
ATOM     17 CL   UNL d   1      -2.450  -9.841   1.260  0.00  0.00    -0.081 Cl
ATOM     18  C   UNL d   1      -4.371 -10.635  -2.113  0.00  0.00     0.035 A 
ATOM     19  C   UNL d   1      -3.740  -9.850  -3.073  0.00  0.00     0.026 A 
ATOM     20 CL   UNL d   1      -5.745 -11.576  -2.544  0.00  0.00    -0.084 Cl
ATOM     21  C   UNL d   1      -2.652  -9.047  -2.706  0.00  0.00     0.040 A 
ENDBRANCH  13  14
ENDBRANCH  12  13
ENDBRANCH   9  12
ENDBRANCH   2   8
BRANCH   4  22
ATOM     22  O   UNL d   1       2.780  -5.683   1.637  0.00  0.00    -0.354 OA
ATOM     23  C   UNL d   1       4.002  -5.488   2.340  0.00  0.00     0.210 C 
ENDBRANCH   4  22
BRANCH   1  24
ATOM     24  N   UNL d   1       3.175  -1.208  -0.335  0.00  0.00    -0.322 N 
ATOM     25  C   UNL d   1       4.464  -0.895   0.058  0.00  0.00     0.256 C 
ATOM     26  O   UNL d   1       5.378  -1.686   0.269  0.00  0.00    -0.267 OA
ATOM     27  H   UNL d   1       2.633  -0.462  -0.741  0.00  0.00     0.169 HD
BRANCH  25  28
ATOM     28  C   UNL d   1       4.745   0.554   0.195  0.00  0.00     0.032 A 
ATOM     29  C   UNL d   1       3.916   1.363   0.981  0.00  0.00     0.017 A 
ATOM     30  C   UNL d   1       4.267   2.695   1.212  0.00  0.00     0.001 A 
ATOM     31  C   UNL d   1       5.433   3.219   0.651  0.00  0.00     0.000 A 
ATOM     32  C   UNL d   1       6.251   2.416  -0.145  0.00  0.00     0.001 A 
ATOM     33  C   UNL d   1       5.913   1.080  -0.369  0.00  0.00     0.017 A 
ENDBRANCH  25  28
ENDBRANCH   1  24
TORSDOF 7
