REMARK  4 active torsions:
REMARK  status: ('A' for Active; 'I' for Inactive)
REMARK    1  A    between atoms: C_10  and  C_1 
REMARK    2  A    between atoms: N_11  and  C_9 
REMARK    3  A    between atoms: O_15  and  C_10 
REMARK    4  A    between atoms: C_18  and  O_15 
ROOT
ATOM      1  C   UNL d   1      -2.288  -0.213   0.012  0.00  0.00     0.127 A 
ATOM      2  N   UNL d   1      -0.140  -0.668  -0.018  0.00  0.00    -0.247 N 
ATOM      3  N   UNL d   1      -1.622   1.002   0.076  0.00  0.00    -0.335 N 
ATOM      4  HN  UNL d   1      -2.035   1.933   0.132  1.00  0.00     0.168 HD
ATOM      5  N   UNL d   1       1.043  -1.335  -0.068  0.00  0.00    -0.278 N 
ATOM      6  HN  UNL d   1       1.097  -2.352  -0.119  1.00  0.00     0.189 HD
ATOM      7  C   UNL d   1      -0.343   0.695   0.048  0.00  0.00     0.127 A 
ATOM      8  C   UNL d   1      -1.374  -1.250  -0.025  0.00  0.00     0.154 A 
ATOM      9  C   UNL d   1       2.108  -0.574  -0.044  0.00  0.00     0.118 A 
ATOM     10  C   UNL d   1       0.802   1.509   0.052  0.00  0.00     0.054 A 
ATOM     11  C   UNL d   1       2.004   0.932   0.003  0.00  0.00     0.053 A 
ENDROOT
BRANCH   1  12
ATOM     12  C   UNL d   1      -3.736  -0.348  -0.081  0.00  0.00     0.311 C 
ATOM     13  O   UNL d   1      -4.304  -1.427  -0.204  0.00  0.00    -0.258 OA
BRANCH  12  14
ATOM     14  O   UNL d   1      -4.364   0.863  -0.122  0.00  0.00    -0.317 OA
BRANCH  14  15
ATOM     15  C   UNL d   1      -5.691   0.849  -0.664  0.00  0.00     0.175 C 
ATOM     16  C   UNL d   1      -5.583   0.995  -2.172  0.00  0.00     0.034 C 
ENDBRANCH  14  15
ENDBRANCH  12  14
ENDBRANCH   1  12
BRANCH   9  17
ATOM     17  N   UNL d   1       3.358  -1.171  -0.055  0.00  0.00    -0.366 N 
ATOM     18  C   UNL d   1       3.559  -2.616  -0.082  0.00  0.00     0.124 C 
ATOM     19  C   UNL d   1       4.803  -2.817   0.773  0.00  0.00     0.021 C 
ATOM     20  C   UNL d   1       5.641  -1.591   0.456  0.00  0.00     0.021 C 
ATOM     21  C   UNL d   1       4.614  -0.485   0.232  0.00  0.00     0.124 C 
ENDBRANCH   9  17
TORSDOF 4
