REMARK  5 active torsions:
REMARK  status: ('A' for Active; 'I' for Inactive)
REMARK       I    between atoms: N_2  and  C_1 
REMARK    1  A    between atoms: C_3  and  C_1 
REMARK    2  A    between atoms: C_5  and  N_2 
REMARK    3  A    between atoms: C_9  and  C_3 
REMARK    4  A    between atoms: C_8  and  O_20 
REMARK    5  A    between atoms: O_20  and  C_9 
ROOT
ATOM      1  C   UNL d   1       1.105  -0.107   0.006  0.00  0.00     0.224 C 
ATOM      2  N   UNL d   1       0.519  -0.551  -1.166  0.00  0.00    -0.327 N 
ATOM      3  O   UNL d   1       2.311  -0.112   0.242  0.00  0.00    -0.273 OA
ATOM      4  H   UNL d   1      -0.451  -0.298  -1.323  0.00  0.00     0.169 HD
ENDROOT
BRANCH   1   5
ATOM      5  C   UNL d   1       0.175   0.474   1.061  0.00  0.00     0.130 C 
BRANCH   5   6
ATOM      6  C   UNL d   1      -1.310   0.227   0.877  0.00  0.00     0.185 C 
BRANCH   6   7
ATOM      7  O   UNL d   1      -1.742   0.948  -0.281  0.00  0.00    -0.351 OA
BRANCH   7   8
ATOM      8  C   UNL d   1      -3.084   0.938  -0.527  0.00  0.00     0.069 A 
ATOM      9  C   UNL d   1      -3.566   2.021  -1.267  0.00  0.00     0.040 A 
ATOM     10  C   UNL d   1      -4.921   2.105  -1.590  0.00  0.00     0.045 A 
ATOM     11  C   UNL d   1      -5.783   1.094  -1.185  0.00  0.00     0.116 A 
ATOM     12  C   UNL d   1      -5.313   0.002  -0.465  0.00  0.00     0.045 A 
ATOM     13  F   UNL d   1      -7.083   1.166  -1.497  0.00  0.00    -0.206 F 
ATOM     14  C   UNL d   1      -3.962  -0.079  -0.137  0.00  0.00     0.040 A 
ENDBRANCH   7   8
ENDBRANCH   6   7
ENDBRANCH   5   6
ENDBRANCH   1   5
BRANCH   2  15
ATOM     15  C   UNL d   1       1.178  -1.175  -2.252  0.00  0.00     0.034 A 
ATOM     16  C   UNL d   1       2.511  -1.592  -2.204  0.00  0.00     0.031 A 
ATOM     17  C   UNL d   1       3.123  -2.167  -3.323  0.00  0.00     0.026 A 
ATOM     18  C   UNL d   1       2.399  -2.343  -4.495  0.00  0.00     0.034 A 
ATOM     19  C   UNL d   1       1.060  -1.961  -4.553  0.00  0.00     0.026 A 
ATOM     20 CL   UNL d   1       3.159  -3.029  -5.876  0.00  0.00    -0.084 Cl
ATOM     21  C   UNL d   1       0.450  -1.383  -3.433  0.00  0.00     0.031 A 
ENDBRANCH   2  15
TORSDOF 5
