REMARK  2 active torsions:
REMARK  status: ('A' for Active; 'I' for Inactive)
REMARK    1  A    between atoms: C_8  and  C_2 
REMARK    2  A    between atoms: C_9  and  C_6 
ROOT
ATOM      1  C   UNL d   1       0.340   1.375  -0.049  0.00  0.00     0.173 C 
ATOM      2  C   UNL d   1      -1.368  -0.321  -0.070  0.00  0.00     0.043 C 
ATOM      3  N   UNL d   1      -0.961   0.984  -0.029  0.00  0.00    -0.333 N 
ATOM      4  C   UNL d   1      -0.460  -1.302  -0.097  0.00  0.00     0.033 C 
ATOM      5  N   UNL d   1       1.281   0.401  -0.114  0.00  0.00    -0.355 N 
ATOM      6  C   UNL d   1       1.011  -1.023  -0.032  0.00  0.00     0.142 C 
ATOM      7  S   UNL d   1       0.764   2.982  -0.002  0.00  0.00    -0.041 SA
ATOM      8  H   UNL d   1      -1.663   1.714   0.011  0.00  0.00     0.168 HD
ATOM      9  H   UNL d   1       2.246   0.703  -0.069  0.00  0.00     0.163 HD
ENDROOT
BRANCH   2  10
ATOM     10  C   UNL d   1      -2.805  -0.596  -0.018  0.00  0.00    -0.010 A 
ATOM     11  C   UNL d   1      -3.436  -0.739   1.224  0.00  0.00     0.013 A 
ATOM     12  C   UNL d   1      -4.808  -0.975   1.293  0.00  0.00     0.001 A 
ATOM     13  C   UNL d   1      -5.557  -1.070   0.121  0.00  0.00     0.000 A 
ATOM     14  C   UNL d   1      -4.934  -0.934  -1.120  0.00  0.00     0.001 A 
ATOM     15  C   UNL d   1      -3.559  -0.698  -1.192  0.00  0.00     0.013 A 
ENDBRANCH   2  10
BRANCH   6  16
ATOM     16  C   UNL d   1       1.650  -1.601   1.219  0.00  0.00    -0.032 A 
ATOM     17  C   UNL d   1       2.658  -2.572   1.122  0.00  0.00     0.009 A 
ATOM     18  C   UNL d   1       3.272  -3.074   2.272  0.00  0.00     0.001 A 
ATOM     19  C   UNL d   1       2.883  -2.617   3.530  0.00  0.00     0.000 A 
ATOM     20  C   UNL d   1       1.871  -1.667   3.643  0.00  0.00     0.001 A 
ATOM     21  C   UNL d   1       1.259  -1.162   2.497  0.00  0.00     0.009 A 
ENDBRANCH   6  16
TORSDOF 2
