REMARK  8 active torsions:
REMARK  status: ('A' for Active; 'I' for Inactive)
REMARK    1  A    between atoms: C_4  and  C_1 
REMARK    2  A    between atoms: N_5  and  C_2 
REMARK    3  A    between atoms: C_11  and  C_4 
REMARK       I    between atoms: C_9  and  N_5 
REMARK    4  A    between atoms: C_16  and  N_7 
REMARK    5  A    between atoms: C_26  and  C_8 
REMARK    6  A    between atoms: C_13  and  C_9 
REMARK    7  A    between atoms: N_10  and  C_13 
REMARK    8  A    between atoms: O_25  and  C_22 
ROOT
ATOM      1  C   UNL d   1      -0.265  -0.234   0.804  0.00  0.00     0.050 A 
ATOM      2  C   UNL d   1       0.132   1.084   0.984  0.00  0.00     0.091 A 
ATOM      3  S   UNL d   1       1.387   1.220   2.145  0.00  0.00    -0.076 SA
ATOM      4  C   UNL d   1       0.496  -1.108   1.671  0.00  0.00     0.033 A 
ATOM      5  C   UNL d   1       1.386  -0.443   2.482  0.00  0.00    -0.015 A 
ENDROOT
BRANCH   2   6
ATOM      6  N   UNL d   1      -0.391   2.268   0.498  0.00  0.00    -0.319 N 
ATOM      7  C   UNL d   1       0.402   3.376   0.241  0.00  0.00     0.251 C 
ATOM      8  O   UNL d   1       1.632   3.345   0.132  0.00  0.00    -0.271 OA
ATOM      9  H   UNL d   1      -1.322   2.306   0.095  0.00  0.00     0.169 HD
BRANCH   7  10
ATOM     10  C   UNL d   1      -0.298   4.716   0.037  0.00  0.00     0.375 C 
BRANCH  10  11
ATOM     11  N   UNL d   1      -1.778   4.690   0.031  0.00  0.00     0.100 N 
ATOM     12  C   UNL d   1      -2.391   4.618   1.391  0.00  0.00     0.292 C 
ATOM     13  C   UNL d   1      -2.400   5.894   2.289  0.00  0.00     0.153 C 
ATOM     14  N   UNL d   1      -2.755   7.108   1.533  0.00  0.00    -0.378 N 
ATOM     15  C   UNL d   1      -2.071   7.230   0.240  0.00  0.00     0.153 C 
ATOM     16  C   UNL d   1      -2.256   5.951  -0.611  0.00  0.00     0.292 C 
BRANCH  14  17
ATOM     17  C   UNL d   1      -4.032   7.646   1.686  0.00  0.00     0.030 A 
ATOM     18  C   UNL d   1      -4.936   7.787   0.622  0.00  0.00     0.029 A 
ATOM     19  C   UNL d   1      -6.179   8.407   0.782  0.00  0.00     0.002 A 
ATOM     20  C   UNL d   1      -6.545   8.921   2.020  0.00  0.00     0.000 A 
ATOM     21  C   UNL d   1      -5.672   8.794   3.095  0.00  0.00     0.002 A 
ATOM     22  C   UNL d   1      -4.437   8.151   2.930  0.00  0.00     0.029 A 
ENDBRANCH  14  17
ENDBRANCH  10  11
ENDBRANCH   7  10
ENDBRANCH   2   6
BRANCH   1  23
ATOM     23  C   UNL d   1      -1.310  -0.759  -0.075  0.00  0.00     0.195 C 
ATOM     24  O   UNL d   1      -1.933  -1.778   0.224  0.00  0.00    -0.287 OA
BRANCH  23  25
ATOM     25  C   UNL d   1      -1.639  -0.110  -1.375  0.00  0.00     0.015 A 
ATOM     26  C   UNL d   1      -2.937  -0.269  -1.886  0.00  0.00     0.018 A 
ATOM     27  C   UNL d   1      -3.302   0.319  -3.102  0.00  0.00     0.037 A 
ATOM     28  C   UNL d   1      -2.368   1.062  -3.822  0.00  0.00     0.068 A 
ATOM     29  C   UNL d   1      -1.072   1.211  -3.322  0.00  0.00     0.037 A 
ATOM     30  C   UNL d   1      -0.697   0.606  -2.121  0.00  0.00     0.018 A 
BRANCH  28  31
ATOM     31  O   UNL d   1      -2.604   1.702  -5.006  0.00  0.00    -0.356 OA
ATOM     32  C   UNL d   1      -3.670   1.185  -5.795  0.00  0.00     0.210 C 
ENDBRANCH  28  31
ENDBRANCH  23  25
ENDBRANCH   1  23
BRANCH   5  33
ATOM     33  C   UNL d   1       2.247  -0.985   3.580  0.00  0.00     0.042 C 
ATOM     34  C   UNL d   1       1.501  -0.954   4.907  0.00  0.00     0.010 C 
ENDBRANCH   5  33
TORSDOF 8
