REMARK  6 active torsions:
REMARK  status: ('A' for Active; 'I' for Inactive)
REMARK    1  A    between atoms: C_5  and  C_1 
REMARK    2  A    between atoms: C_10  and  C_4 
REMARK    3  A    between atoms: O_19  and  C_5 
REMARK    4  A    between atoms: C_6  and  C_17 
REMARK    5  A    between atoms: C_7  and  C_10 
REMARK    6  A    between atoms: N_11  and  O_19 
ROOT
ATOM      1  C   UNL d   1       1.402   0.846  -0.091  0.00  0.00     0.117 A 
ATOM      2  N   UNL d   1       1.501  -0.549  -0.189  0.00  0.00    -0.348 N 
ATOM      3  HN  UNL d   1       2.374  -1.062  -0.315  1.00  0.00     0.166 HD
ATOM      4  C   UNL d   1       0.310  -1.106  -0.094  0.00  0.00     0.055 A 
ATOM      5  C   UNL d   1       0.100   1.306  -0.006  0.00  0.00     0.087 A 
ATOM      6  S   UNL d   1      -1.001   0.006   0.012  0.00  0.00    -0.086 SA
ENDROOT
BRANCH   1   7
ATOM      7  C   UNL d   1       2.578   1.724  -0.111  0.00  0.00     0.332 C 
ATOM      8  O   UNL d   1       3.627   1.450  -0.674  0.00  0.00    -0.256 OA
BRANCH   7   9
ATOM      9  O   UNL d   1       2.382   2.892   0.619  0.00  0.00    -0.194 OA
BRANCH   9  10
ATOM     10  N   UNL d   1       2.577   3.985  -0.248  0.00  0.00    -0.268 N 
ATOM     11  C   UNL d   1       2.991   5.038   0.380  0.00  0.00     0.129 C 
ATOM     12  HN  UNL d   1       2.412   3.950  -1.254  1.00  0.00     0.194 HD
BRANCH  11  13
ATOM     13  C   UNL d   1       3.222   6.312  -0.353  0.00  0.00     0.025 A 
ATOM     14  C   UNL d   1       2.461   6.662  -1.484  0.00  0.00     0.047 A 
ATOM     15 CL   UNL d   1       1.096   5.756  -2.048  0.00  0.00    -0.083 Cl
ATOM     16  C   UNL d   1       2.740   7.840  -2.192  0.00  0.00     0.025 A 
ATOM     17  C   UNL d   1       3.764   8.687  -1.782  0.00  0.00     0.003 A 
ATOM     18  C   UNL d   1       4.507   8.366  -0.649  0.00  0.00     0.025 A 
ATOM     19  C   UNL d   1       4.238   7.188   0.067  0.00  0.00     0.047 A 
ATOM     20 CL   UNL d   1       5.230   6.879   1.450  0.00  0.00    -0.083 Cl
ENDBRANCH  11  13
ENDBRANCH   9  10
ENDBRANCH   7   9
ENDBRANCH   1   7
BRANCH   4  21
ATOM     21  C   UNL d   1       0.048  -2.589  -0.022  0.00  0.00     0.107 C 
BRANCH  21  22
ATOM     22  C   UNL d   1      -0.131  -3.220  -1.387  0.00  0.00    -0.009 A 
ATOM     23  C   UNL d   1       0.978  -3.721  -2.099  0.00  0.00     0.042 A 
ATOM     24 CL   UNL d   1       2.557  -3.837  -1.400  0.00  0.00    -0.084 Cl
ATOM     25  C   UNL d   1       0.847  -4.168  -3.418  0.00  0.00     0.024 A 
ATOM     26  C   UNL d   1      -0.396  -4.161  -4.041  0.00  0.00     0.003 A 
ATOM     27  C   UNL d   1      -1.512  -3.718  -3.341  0.00  0.00     0.024 A 
ATOM     28  C   UNL d   1      -1.384  -3.248  -2.029  0.00  0.00     0.042 A 
ATOM     29 CL   UNL d   1      -2.841  -2.720  -1.258  0.00  0.00    -0.084 Cl
ENDBRANCH  21  22
ENDBRANCH   4  21
TORSDOF 6
