REMARK  7 active torsions:
REMARK  status: ('A' for Active; 'I' for Inactive)
REMARK    1  A    between atoms: C_2  and  C_1 
REMARK       I    between atoms: N_4  and  C_1 
REMARK    2  A    between atoms: N_7  and  N_4 
REMARK    3  A    between atoms: O_11  and  C_8 
REMARK    4  A    between atoms: C_12  and  O_11 
REMARK    5  A    between atoms: C_13  and  C_12 
REMARK    6  A    between atoms: C_15  and  C_13 
REMARK    7  A    between atoms: C_14  and  C_15 
ROOT
ATOM      1  C   UNL d   1       0.284   0.977  -0.699  0.00  0.00     0.033 A 
ATOM      2  C   UNL d   1       0.588   1.244  -2.044  0.00  0.00     0.020 A 
ATOM      3  C   UNL d   1      -0.767   1.667  -0.090  0.00  0.00     0.020 A 
ATOM      4  C   UNL d   1      -1.205   2.882  -2.150  0.00  0.00     0.068 A 
ATOM      5  C   UNL d   1      -0.154   2.197  -2.761  0.00  0.00     0.038 A 
ATOM      6  C   UNL d   1      -1.505   2.614  -0.812  0.00  0.00     0.038 A 
ENDROOT
BRANCH   1   7
ATOM      7  C   UNL d   1       1.098   0.026   0.124  0.00  0.00     0.265 C 
ATOM      8  O   UNL d   1       1.275   0.217   1.322  0.00  0.00    -0.266 OA
ATOM      9  N   UNL d   1       1.633  -1.057  -0.579  0.00  0.00    -0.290 N 
ATOM     10  H   UNL d   1       1.211  -1.325  -1.465  0.00  0.00     0.183 HD
BRANCH   9  11
ATOM     11  N   UNL d   1       2.378  -2.038   0.119  0.00  0.00    -0.247 NA
ATOM     12  H   UNL d   1       2.447  -1.726   1.098  0.00  0.00     0.143 HD
ATOM     13  H   UNL d   1       3.342  -2.014  -0.225  0.00  0.00     0.143 HD
ENDBRANCH   9  11
ENDBRANCH   1   7
BRANCH   4  14
ATOM     14  O   UNL d   1      -1.955   3.868  -2.736  0.00  0.00    -0.351 OA
BRANCH  14  15
ATOM     15  C   UNL d   1      -2.118   3.767  -4.152  0.00  0.00     0.175 C 
BRANCH  15  16
ATOM     16  C   UNL d   1      -3.001   4.917  -4.641  0.00  0.00     0.027 C 
BRANCH  16  17
ATOM     17  C   UNL d   1      -3.215   4.829  -6.153  0.00  0.00     0.002 C 
BRANCH  17  18
ATOM     18  C   UNL d   1      -4.082   5.970  -6.680  0.00  0.00    -0.004 C 
ATOM     19  C   UNL d   1      -4.282   5.861  -8.185  0.00  0.00     0.005 C 
ENDBRANCH  17  18
ENDBRANCH  16  17
ENDBRANCH  15  16
ENDBRANCH  14  15
ENDBRANCH   4  14
TORSDOF 7
