REMARK  7 active torsions:
REMARK  status: ('A' for Active; 'I' for Inactive)
REMARK    1  A    between atoms: N_6  and  C_1 
REMARK    2  A    between atoms: C_2  and  N_7 
REMARK    3  A    between atoms: N_8  and  C_2 
REMARK    4  A    between atoms: C_4  and  N_3 
REMARK    5  A    between atoms: N_7  and  N_6 
REMARK    6  A    between atoms: C_18  and  N_8 
REMARK    7  A    between atoms: C_20  and  C_13 
ROOT
ATOM      1  N   UNL d   1      -1.260  -0.373   0.941  0.00  0.00    -0.274 N 
ATOM      2  H   UNL d   1      -1.554   0.520   0.545  0.00  0.00     0.189 HD
ENDROOT
BRANCH   1   3
ATOM      3  C   UNL d   1      -1.771  -0.694   2.172  0.00  0.00     0.191 C 
ATOM      4  S   UNL d   1      -2.768   0.368   2.980  0.00  0.00    -0.039 SA
BRANCH   3   5
ATOM      5  N   UNL d   1      -1.357  -1.857   2.763  0.00  0.00    -0.332 N 
ATOM      6  H   UNL d   1      -1.490  -1.892   3.768  0.00  0.00     0.168 HD
BRANCH   5   7
ATOM      7  C   UNL d   1      -1.264  -3.124   2.143  0.00  0.00     0.034 A 
ATOM      8  C   UNL d   1      -0.685  -4.165   2.869  0.00  0.00     0.030 A 
ATOM      9  C   UNL d   1      -0.681  -5.466   2.361  0.00  0.00     0.010 A 
ATOM     10  C   UNL d   1      -1.293  -5.760   1.131  0.00  0.00    -0.055 A 
ATOM     11  C   UNL d   1      -1.841  -4.703   0.393  0.00  0.00     0.010 A 
ATOM     12  C   UNL d   1      -1.818  -3.400   0.886  0.00  0.00     0.030 A 
BRANCH  10  13
ATOM     13  C   UNL d   1      -1.433  -7.185   0.633  0.00  0.00     0.010 C 
ATOM     14  C   UNL d   1      -0.077  -7.840   0.368  0.00  0.00     0.015 C 
ATOM     15  C   UNL d   1      -2.264  -8.023   1.613  0.00  0.00     0.015 C 
ENDBRANCH  10  13
ENDBRANCH   5   7
ENDBRANCH   3   5
ENDBRANCH   1   3
BRANCH   1  16
ATOM     16  N   UNL d   1       0.094  -0.702   0.683  0.00  0.00    -0.274 N 
ATOM     17  H   UNL d   1       0.613  -1.021   1.494  0.00  0.00     0.189 HD
BRANCH  16  18
ATOM     18  C   UNL d   1       0.757  -0.176  -0.391  0.00  0.00     0.186 C 
ATOM     19  N   UNL d   1       2.105  -0.378  -0.439  0.00  0.00    -0.361 N 
ATOM     20  H   UNL d   1       2.521  -0.036  -1.299  0.00  0.00     0.162 HD
ATOM     21  S   UNL d   1       0.040   0.660  -1.650  0.00  0.00    -0.040 SA
BRANCH  19  22
ATOM     22  C   UNL d   1       2.884  -1.333   0.334  0.00  0.00     0.088 C 
ATOM     23  C   UNL d   1       2.607  -2.804  -0.059  0.00  0.00     0.009 C 
ATOM     24  C   UNL d   1       3.864  -3.500   0.466  0.00  0.00     0.011 C 
ATOM     25  C   UNL d   1       2.772  -2.999  -1.579  0.00  0.00     0.007 C 
ATOM     26  C   UNL d   1       4.806  -2.618  -0.356  0.00  0.00    -0.012 C 
ATOM     27  C   UNL d   1       4.406  -1.204   0.109  0.00  0.00     0.030 C 
ATOM     28  C   UNL d   1       4.284  -2.837  -1.785  0.00  0.00     0.005 C 
ENDBRANCH  19  22
ENDBRANCH  16  18
ENDBRANCH   1  16
TORSDOF 7
