REMARK  5 active torsions:
REMARK  status: ('A' for Active; 'I' for Inactive)
REMARK    1  A    between atoms: C_9  and  N_1 
REMARK    2  A    between atoms: N_2  and  C_10 
REMARK    3  A    between atoms: C_13  and  C_3 
REMARK    4  A    between atoms: C_14  and  C_4 
REMARK    5  A    between atoms: C_10  and  C_9 
ROOT
ATOM      1  C   UNL d   1      -1.374  -2.236   0.214  0.00  0.00     0.147 C 
ENDROOT
BRANCH   1   2
ATOM      2  N   UNL d   1      -0.422  -1.183  -0.131  0.00  0.00    -0.332 N 
ATOM      3  C   UNL d   1      -0.247  -0.026   0.726  0.00  0.00     0.183 C 
ATOM      4  S   UNL d   1       0.831   1.128  -0.157  0.00  0.00    -0.130 SA
ATOM      5  C   UNL d   1       1.253  -0.056  -1.448  0.00  0.00     0.179 C 
ATOM      6  C   UNL d   1       0.329  -1.238  -1.290  0.00  0.00     0.230 C 
ATOM      7  O   UNL d   1       0.283  -2.158  -2.099  0.00  0.00    -0.273 OA
BRANCH   3   8
ATOM      8  C   UNL d   1      -1.547   0.630   1.160  0.00  0.00    -0.025 A 
ATOM      9  C   UNL d   1      -1.819   0.791   2.530  0.00  0.00     0.012 A 
ATOM     10  C   UNL d   1      -3.031   1.335   2.962  0.00  0.00     0.024 A 
ATOM     11  C   UNL d   1      -3.983   1.733   2.029  0.00  0.00     0.034 A 
ATOM     12  C   UNL d   1      -3.730   1.600   0.666  0.00  0.00     0.024 A 
ATOM     13 CL   UNL d   1      -5.485   2.382   2.563  0.00  0.00    -0.084 Cl
ATOM     14  C   UNL d   1      -2.518   1.052   0.232  0.00  0.00     0.012 A 
ENDBRANCH   3   8
ENDBRANCH   1   2
BRANCH   1  15
ATOM     15  C   UNL d   1      -0.764  -3.637   0.409  0.00  0.00     0.147 C 
BRANCH  15  16
ATOM     16  N   UNL d   1      -1.804  -4.648   0.618  0.00  0.00    -0.332 N 
ATOM     17  C   UNL d   1      -1.803  -5.887  -0.135  0.00  0.00     0.183 C 
ATOM     18  S   UNL d   1      -3.287  -6.791   0.366  0.00  0.00    -0.130 SA
ATOM     19  C   UNL d   1      -3.515  -5.813   1.863  0.00  0.00     0.179 C 
ATOM     20  C   UNL d   1      -2.563  -4.645   1.779  0.00  0.00     0.230 C 
ATOM     21  O   UNL d   1      -2.482  -3.784   2.650  0.00  0.00    -0.273 OA
BRANCH  17  22
ATOM     22  C   UNL d   1      -1.722  -5.712  -1.637  0.00  0.00    -0.025 A 
ATOM     23  C   UNL d   1      -0.745  -6.410  -2.369  0.00  0.00     0.012 A 
ATOM     24  C   UNL d   1      -0.624  -6.231  -3.750  0.00  0.00     0.024 A 
ATOM     25  C   UNL d   1      -1.484  -5.357  -4.413  0.00  0.00     0.034 A 
ATOM     26  C   UNL d   1      -2.466  -4.669  -3.710  0.00  0.00     0.024 A 
ATOM     27 CL   UNL d   1      -1.321  -5.126  -6.111  0.00  0.00    -0.084 Cl
ATOM     28  C   UNL d   1      -2.590  -4.848  -2.329  0.00  0.00     0.012 A 
ENDBRANCH  17  22
ENDBRANCH  15  16
ENDBRANCH   1  15
TORSDOF 5
