REMARK  5 active torsions:
REMARK  status: ('A' for Active; 'I' for Inactive)
REMARK    1  A    between atoms: C_8  and  C_3 
REMARK    2  A    between atoms: N_9  and  C_4 
REMARK    3  A    between atoms: C_15  and  N_9 
REMARK    4  A    between atoms: O_12  and  C_16 
REMARK    5  A    between atoms: C_16  and  C_15 
ROOT
ATOM      1  N   UNL d   1      -1.220   1.345  -0.015  0.00  0.00    -0.355 N 
ATOM      2  HN  UNL d   1      -1.243   2.364  -0.028  1.00  0.00     0.166 HD
ATOM      3  C   UNL d   1      -2.368   0.631  -0.018  0.00  0.00     0.044 A 
ATOM      4  C   UNL d   1      -1.161  -1.467  -0.040  0.00  0.00     0.023 A 
ATOM      5  C   UNL d   1      -2.364  -0.760  -0.033  0.00  0.00     0.054 A 
ATOM      6  C   UNL d   1      -0.049   0.687   0.005  0.00  0.00     0.044 A 
ATOM      7  C   UNL d   1       0.043  -0.723   0.008  0.00  0.00     0.012 A 
ATOM      8  C   UNL d   1       1.326  -1.319   0.030  0.00  0.00     0.015 A 
ATOM      9  C   UNL d   1       1.119   1.437   0.020  0.00  0.00     0.030 A 
ATOM     10  C   UNL d   1       2.486  -0.544   0.044  0.00  0.00     0.001 A 
ATOM     11  C   UNL d   1       2.382   0.840   0.038  0.00  0.00     0.002 A 
ENDROOT
BRANCH   3  12
ATOM     12  C   UNL d   1      -3.626   1.408  -0.028  0.00  0.00    -0.009 A 
ATOM     13  C   UNL d   1      -3.705   2.641  -0.698  0.00  0.00     0.013 A 
ATOM     14  C   UNL d   1      -4.904   3.357  -0.764  0.00  0.00     0.001 A 
ATOM     15  C   UNL d   1      -6.051   2.857  -0.154  0.00  0.00     0.000 A 
ATOM     16  C   UNL d   1      -5.996   1.652   0.538  0.00  0.00     0.001 A 
ATOM     17  C   UNL d   1      -4.795   0.940   0.605  0.00  0.00     0.013 A 
ENDBRANCH   3  12
BRANCH   4  18
ATOM     18  N   UNL d   1      -1.124  -2.882   0.037  0.00  0.00    -0.290 NA
ATOM     19  H   UNL d   1      -0.960  -3.151   1.012  0.00  0.00     0.127 HD
BRANCH  18  20
ATOM     20  C   UNL d   1      -2.276  -3.635  -0.484  0.00  0.00     0.118 C 
BRANCH  20  21
ATOM     21  C   UNL d   1      -2.123  -5.130  -0.185  0.00  0.00     0.181 C 
BRANCH  21  22
ATOM     22  O   UNL d   1      -2.250  -5.324   1.230  0.00  0.00    -0.395 OA
ATOM     23  C   UNL d   1      -2.301  -6.703   1.567  0.00  0.00     0.201 C 
ENDBRANCH  21  22
ENDBRANCH  20  21
ENDBRANCH  18  20
ENDBRANCH   4  18
TORSDOF 5
