REMARK  7 active torsions:
REMARK  status: ('A' for Active; 'I' for Inactive)
REMARK    1  A    between atoms: C_9  and  C_1 
REMARK    2  A    between atoms: C_11  and  N_2 
REMARK    3  A    between atoms: C_8  and  C_5 
REMARK    4  A    between atoms: C_17  and  C_6 
REMARK    5  A    between atoms: N_7  and  C_14 
REMARK    6  A    between atoms: O_26  and  C_9 
REMARK    7  A    between atoms: C_29  and  O_26 
ROOT
ATOM      1  C   UNL d   1      -1.319  -0.018  -0.203  0.00  0.00     0.241 C 
ATOM      2  N   UNL d   1      -0.387   1.093   0.153  0.00  0.00    -0.257 N 
ATOM      3  N   UNL d   1       0.922   0.697   0.169  0.00  0.00    -0.298 N 
ATOM      4  HN  UNL d   1       1.734   1.308   0.251  1.00  0.00     0.187 HD
ATOM      5  C   UNL d   1       0.946  -0.597   0.062  0.00  0.00     0.055 C 
ATOM      6  C   UNL d   1      -0.419  -1.262   0.080  0.00  0.00     0.126 C 
ATOM      7  C   UNL d   1      -1.754   0.043  -1.635  0.00  0.00     0.105 C 
ATOM      8  N   UNL d   1      -2.101   0.051  -2.740  0.00  0.00    -0.194 NA
ENDROOT
BRANCH   1   9
ATOM      9  C   UNL d   1      -2.572  -0.016   0.693  0.00  0.00     0.305 C 
ATOM     10  O   UNL d   1      -3.723  -0.075   0.261  0.00  0.00    -0.261 OA
BRANCH   9  11
ATOM     11  O   UNL d   1      -2.303   0.114   2.031  0.00  0.00    -0.319 OA
BRANCH  11  12
ATOM     12  C   UNL d   1      -3.417   0.559   2.836  0.00  0.00     0.174 C 
ATOM     13  C   UNL d   1      -4.075  -0.577   3.600  0.00  0.00     0.034 C 
ENDBRANCH  11  12
ENDBRANCH   9  11
ENDBRANCH   1   9
BRANCH   2  14
ATOM     14  C   UNL d   1      -0.681   2.420   0.455  0.00  0.00     0.053 A 
ATOM     15  C   UNL d   1       0.196   3.169   1.272  0.00  0.00     0.034 A 
ATOM     16  C   UNL d   1      -0.053   4.502   1.615  0.00  0.00     0.038 A 
ATOM     17  C   UNL d   1      -1.193   5.130   1.115  0.00  0.00     0.103 A 
ATOM     18  C   UNL d   1      -2.079   4.423   0.293  0.00  0.00     0.038 A 
ATOM     19  C   UNL d   1      -1.824   3.079  -0.021  0.00  0.00     0.034 A 
BRANCH  17  20
ATOM     20  N   UNL d   1      -1.460   6.534   1.450  0.00  0.00    -0.116 N 
ATOM     21  O   UNL d   1      -2.461   7.065   0.948  0.00  0.00    -0.532 OA
ATOM     22  O   UNL d   1      -0.675   7.103   2.222  0.00  0.00    -0.532 OA
ENDBRANCH  17  20
ENDBRANCH   2  14
BRANCH   6  23
ATOM     23  C   UNL d   1      -0.594  -2.452  -0.848  0.00  0.00    -0.044 A 
ATOM     24  C   UNL d   1      -1.444  -3.500  -0.468  0.00  0.00     0.008 A 
ATOM     25  C   UNL d   1      -1.649  -4.589  -1.321  0.00  0.00     0.001 A 
ATOM     26  C   UNL d   1      -1.013  -4.644  -2.560  0.00  0.00     0.000 A 
ATOM     27  C   UNL d   1      -0.176  -3.606  -2.953  0.00  0.00     0.001 A 
ATOM     28  C   UNL d   1       0.030  -2.518  -2.108  0.00  0.00     0.008 A 
ENDBRANCH   6  23
BRANCH   5  29
ATOM     29  C   UNL d   1       2.191  -1.333  -0.011  0.00  0.00     0.029 A 
ATOM     30  S   UNL d   1       3.519  -0.653  -0.863  0.00  0.00    -0.100 SA
ATOM     31  C   UNL d   1       4.465  -2.061  -0.655  0.00  0.00     0.050 A 
ATOM     32  C   UNL d   1       3.809  -3.014   0.089  0.00  0.00     0.008 A 
ATOM     33  C   UNL d   1       2.495  -2.596   0.459  0.00  0.00     0.021 A 
ENDBRANCH   5  29
TORSDOF 7
