REMARK  5 active torsions:
REMARK  status: ('A' for Active; 'I' for Inactive)
REMARK    1  A    between atoms: C_7  and  C_1 
REMARK    2  A    between atoms: C_10  and  C_2 
REMARK    3  A    between atoms: N_8  and  C_3 
REMARK    4  A    between atoms: C_9  and  C_7 
REMARK    5  A    between atoms: C_14  and  N_8 
ROOT
ATOM      1  C   UNL d   1       0.007   1.272   0.027  0.00  0.00     0.086 C 
ATOM      2  C   UNL d   1       1.320   0.834  -0.029  0.00  0.00     0.066 C 
ATOM      3  C   UNL d   1       0.308  -1.153   0.051  0.00  0.00     0.150 C 
ATOM      4  N   UNL d   1       1.463  -0.544  -0.048  0.00  0.00    -0.335 N 
ATOM      5  HN  UNL d   1       2.359  -1.025  -0.130  1.00  0.00     0.168 HD
ATOM      6  S   UNL d   1      -1.025  -0.089   0.271  0.00  0.00    -0.048 SA
ENDROOT
BRANCH   1   7
ATOM      7  C   UNL d   1      -0.532   2.617   0.046  0.00  0.00     0.201 C 
ATOM      8  O   UNL d   1      -0.041   3.517   0.725  0.00  0.00    -0.286 OA
BRANCH   7   9
ATOM      9  C   UNL d   1      -1.710   2.978  -0.812  0.00  0.00     0.016 A 
ATOM     10  C   UNL d   1      -2.102   2.222  -1.930  0.00  0.00     0.018 A 
ATOM     11  C   UNL d   1      -3.223   2.597  -2.677  0.00  0.00     0.043 A 
ATOM     12  C   UNL d   1      -3.931   3.742  -2.332  0.00  0.00     0.116 A 
ATOM     13  C   UNL d   1      -3.534   4.529  -1.258  0.00  0.00     0.043 A 
ATOM     14  F   UNL d   1      -5.004   4.096  -3.050  0.00  0.00    -0.206 F 
ATOM     15  C   UNL d   1      -2.425   4.148  -0.499  0.00  0.00     0.018 A 
ENDBRANCH   7   9
ENDBRANCH   1   7
BRANCH   2  16
ATOM     16  C   UNL d   1       2.524   1.658  -0.092  0.00  0.00    -0.008 A 
ATOM     17  C   UNL d   1       3.666   1.236   0.608  0.00  0.00     0.014 A 
ATOM     18  C   UNL d   1       4.852   1.972   0.556  0.00  0.00     0.001 A 
ATOM     19  C   UNL d   1       4.911   3.137  -0.203  0.00  0.00     0.000 A 
ATOM     20  C   UNL d   1       3.788   3.562  -0.911  0.00  0.00     0.001 A 
ATOM     21  C   UNL d   1       2.601   2.825  -0.863  0.00  0.00     0.014 A 
ENDBRANCH   2  16
BRANCH   3  22
ATOM     22  N   UNL d   1       0.121  -2.493   0.020  0.00  0.00    -0.337 N 
ATOM     23  H   UNL d   1      -0.791  -2.860   0.258  0.00  0.00     0.168 HD
BRANCH  22  24
ATOM     24  C   UNL d   1       0.978  -3.425  -0.598  0.00  0.00     0.034 A 
ATOM     25  C   UNL d   1       1.007  -4.744  -0.119  0.00  0.00     0.032 A 
ATOM     26  C   UNL d   1       1.881  -5.686  -0.669  0.00  0.00     0.044 A 
ATOM     27  C   UNL d   1       2.726  -5.315  -1.707  0.00  0.00     0.116 A 
ATOM     28  C   UNL d   1       2.724  -4.017  -2.195  0.00  0.00     0.044 A 
ATOM     29  F   UNL d   1       3.558  -6.220  -2.239  0.00  0.00    -0.206 F 
ATOM     30  C   UNL d   1       1.863  -3.074  -1.630  0.00  0.00     0.032 A 
ENDBRANCH  22  24
ENDBRANCH   3  22
TORSDOF 5
