REMARK  3 active torsions:
REMARK  status: ('A' for Active; 'I' for Inactive)
REMARK    1  A    between atoms: C_7  and  N_1 
REMARK    2  A    between atoms: C_8  and  C_2 
REMARK    3  A    between atoms: C_13  and  C_8 
ROOT
ATOM      1  N   UNL d   1       0.870  -0.809   0.100  0.00  0.00    -0.275 N 
ATOM      2  C   UNL d   1       0.912   0.554   0.068  0.00  0.00     0.109 A 
ATOM      3  C   UNL d   1      -0.489  -1.107   0.102  0.00  0.00     0.199 A 
ATOM      4  N   UNL d   1      -0.260   1.134   0.037  0.00  0.00    -0.286 N 
ATOM      5  HN  UNL d   1      -0.461   2.134   0.013  1.00  0.00     0.188 HD
ATOM      6  N   UNL d   1      -1.148   0.112   0.043  0.00  0.00    -0.274 N 
ATOM      7  S   UNL d   1      -1.343  -2.527   0.240  0.00  0.00    -0.039 SA
ATOM      8  H   UNL d   1      -2.150   0.262   0.055  0.00  0.00     0.189 HD
ENDROOT
BRANCH   1   9
ATOM      9  C   UNL d   1       1.952  -1.734   0.110  0.00  0.00     0.043 A 
ATOM     10  C   UNL d   1       3.136  -1.474   0.813  0.00  0.00     0.032 A 
ATOM     11  C   UNL d   1       4.218  -2.363   0.789  0.00  0.00     0.026 A 
ATOM     12  C   UNL d   1       4.121  -3.553   0.080  0.00  0.00     0.034 A 
ATOM     13  C   UNL d   1       2.949  -3.856  -0.601  0.00  0.00     0.026 A 
ATOM     14 CL   UNL d   1       5.445  -4.647   0.050  0.00  0.00    -0.084 Cl
ATOM     15  C   UNL d   1       1.880  -2.949  -0.591  0.00  0.00     0.032 A 
ENDBRANCH   1   9
BRANCH   2  16
ATOM     16  C   UNL d   1       2.158   1.409  -0.006  0.00  0.00     0.117 C 
BRANCH  16  17
ATOM     17  C   UNL d   1       2.724   1.851   1.329  0.00  0.00    -0.051 A 
ATOM     18  C   UNL d   1       4.096   2.139   1.419  0.00  0.00     0.007 A 
ATOM     19  C   UNL d   1       4.670   2.503   2.639  0.00  0.00     0.001 A 
ATOM     20  C   UNL d   1       3.878   2.605   3.778  0.00  0.00     0.000 A 
ATOM     21  C   UNL d   1       2.508   2.363   3.695  0.00  0.00     0.001 A 
ATOM     22  C   UNL d   1       1.931   2.001   2.476  0.00  0.00     0.007 A 
ENDBRANCH  16  17
ENDBRANCH   2  16
TORSDOF 3
