REMARK  7 active torsions:
REMARK  status: ('A' for Active; 'I' for Inactive)
REMARK    1  A    between atoms: C_2  and  C_1 
REMARK    2  A    between atoms: C_6  and  C_2 
REMARK    3  A    between atoms: O_16  and  C_2 
REMARK    4  A    between atoms: C_5  and  N_3 
REMARK    5  A    between atoms: N_4  and  C_6 
REMARK    6  A    between atoms: C_12  and  C_5 
REMARK    7  A    between atoms: C_13  and  C_5 
ROOT
ATOM      1  N   UNL d   1       0.661   0.761  -2.486  0.00  0.00     0.105 N 
ATOM      2  N   UNL d   1      -1.567   1.369  -0.485  0.00  0.00     0.094 N 
ATOM      3  C   UNL d   1       0.484   2.073  -1.814  0.00  0.00     0.304 C 
ATOM      4  C   UNL d   1      -0.087  -0.281  -1.738  0.00  0.00     0.304 C 
ATOM      5  C   UNL d   1      -0.954   2.398  -1.351  0.00  0.00     0.302 C 
ATOM      6  C   UNL d   1      -1.507   0.101  -1.252  0.00  0.00     0.302 C 
ENDROOT
BRANCH   1   7
ATOM      7  C   UNL d   1       0.347   0.782  -3.946  0.00  0.00     0.289 C 
BRANCH   7   8
ATOM      8  C   UNL d   1       1.128   1.874  -4.694  0.00  0.00    -0.021 A 
ATOM      9  C   UNL d   1       2.533   1.906  -4.686  0.00  0.00     0.010 A 
ATOM     10  C   UNL d   1       3.233   2.936  -5.317  0.00  0.00     0.001 A 
ATOM     11  C   UNL d   1       2.540   3.958  -5.962  0.00  0.00     0.000 A 
ATOM     12  C   UNL d   1       1.146   3.944  -5.986  0.00  0.00     0.001 A 
ATOM     13  C   UNL d   1       0.442   2.909  -5.361  0.00  0.00     0.010 A 
ENDBRANCH   7   8
BRANCH   7  14
ATOM     14  C   UNL d   1       0.581  -0.579  -4.631  0.00  0.00    -0.021 A 
ATOM     15  C   UNL d   1      -0.265  -1.000  -5.669  0.00  0.00     0.010 A 
ATOM     16  C   UNL d   1      -0.104  -2.260  -6.253  0.00  0.00     0.001 A 
ATOM     17  C   UNL d   1       0.908  -3.115  -5.811  0.00  0.00     0.000 A 
ATOM     18  C   UNL d   1       1.775  -2.702  -4.810  0.00  0.00     0.001 A 
ATOM     19  C   UNL d   1       1.625  -1.438  -4.236  0.00  0.00     0.010 A 
ENDBRANCH   7  14
ENDBRANCH   1   7
BRANCH   2  20
ATOM     20  C   UNL d   1      -0.900   1.192   0.832  0.00  0.00     0.313 C 
BRANCH  20  21
ATOM     21  C   UNL d   1      -0.871   2.373   1.823  0.00  0.00     0.253 C 
BRANCH  21  22
ATOM     22  C   UNL d   1      -2.238   2.717   2.429  0.00  0.00     0.414 C 
ATOM     23  F   UNL d   1      -3.291   2.299   1.705  0.00  0.00    -0.168 F 
ATOM     24  F   UNL d   1      -2.349   4.064   2.562  0.00  0.00    -0.168 F 
ATOM     25  F   UNL d   1      -2.357   2.187   3.670  0.00  0.00    -0.168 F 
ENDBRANCH  21  22
BRANCH  21  26
ATOM     26  O   UNL d   1      -0.149   3.497   1.276  0.00  0.00    -0.385 OA
ATOM     27  H   UNL d   1      -0.756   4.264   1.300  0.00  0.00     0.210 HD
ENDBRANCH  21  26
ENDBRANCH  20  21
ENDBRANCH   2  20
TORSDOF 7
