REMARK  5 active torsions:
REMARK  status: ('A' for Active; 'I' for Inactive)
REMARK       I    between atoms: N_2  and  C_1 
REMARK    1  A    between atoms: C_10  and  C_1 
REMARK    2  A    between atoms: C_6  and  N_2 
REMARK    3  A    between atoms: O_14  and  C_3 
REMARK    4  A    between atoms: O_16  and  C_4 
REMARK    5  A    between atoms: C_8  and  C_10 
ROOT
ATOM      1  C   UNL d   1       1.221  -0.370  -0.427  0.00  0.00     0.226 C 
ATOM      2  N   UNL d   1       0.720   0.238  -1.563  0.00  0.00    -0.327 N 
ATOM      3  O   UNL d   1       0.632  -1.247   0.215  0.00  0.00    -0.273 OA
ATOM      4  H   UNL d   1       1.345   0.839  -2.085  0.00  0.00     0.169 HD
ENDROOT
BRANCH   1   5
ATOM      5  C   UNL d   1       2.615   0.028   0.037  0.00  0.00     0.141 C 
BRANCH   5   6
ATOM      6  C   UNL d   1       3.303   1.164  -0.678  0.00  0.00    -0.047 A 
ATOM      7  C   UNL d   1       4.184   0.905  -1.743  0.00  0.00     0.047 A 
ATOM      8  C   UNL d   1       4.801   1.950  -2.442  0.00  0.00     0.102 A 
ATOM      9  C   UNL d   1       4.504   3.275  -2.076  0.00  0.00     0.101 A 
ATOM     10  C   UNL d   1       3.680   3.531  -0.975  0.00  0.00     0.040 A 
ATOM     11  C   UNL d   1       3.073   2.485  -0.284  0.00  0.00     0.010 A 
BRANCH   8  12
ATOM     12  O   UNL d   1       5.692   1.767  -3.465  0.00  0.00    -0.353 OA
ATOM     13  C   UNL d   1       6.084   0.440  -3.787  0.00  0.00     0.210 C 
ENDBRANCH   8  12
BRANCH   9  14
ATOM     14  O   UNL d   1       4.988   4.406  -2.683  0.00  0.00    -0.353 OA
ATOM     15  C   UNL d   1       5.049   4.348  -4.106  0.00  0.00     0.210 C 
ENDBRANCH   9  14
ENDBRANCH   5   6
ENDBRANCH   1   5
BRANCH   2  16
ATOM     16  C   UNL d   1      -0.551  -0.001  -2.147  0.00  0.00     0.036 A 
ATOM     17  C   UNL d   1      -1.589  -0.672  -1.494  0.00  0.00     0.053 A 
ATOM     18  C   UNL d   1      -2.800  -0.912  -2.147  0.00  0.00     0.036 A 
ATOM     19 CL   UNL d   1      -4.064  -1.744  -1.327  0.00  0.00    -0.084 Cl
ATOM     20  C   UNL d   1      -2.997  -0.485  -3.457  0.00  0.00     0.024 A 
ATOM     21  C   UNL d   1      -1.980   0.212  -4.108  0.00  0.00     0.004 A 
ATOM     22  C   UNL d   1      -0.770   0.465  -3.452  0.00  0.00     0.029 A 
ENDBRANCH   2  16
TORSDOF 5
