REMARK  3 active torsions:
REMARK  status: ('A' for Active; 'I' for Inactive)
REMARK    1  A    between atoms: C_30  and  N_1 
REMARK    2  A    between atoms: S_13  and  C_2 
REMARK    3  A    between atoms: C_14  and  S_13 
ROOT
ATOM      1  C   UNL d   1       2.853  -7.010  -0.140  0.00  0.00     0.068 A 
ATOM      2  C   UNL d   1       2.735  -9.405  -0.739  0.00  0.00     0.088 A 
ATOM      3  C   UNL d   1       3.394  -9.236   0.474  0.00  0.00     0.032 A 
ATOM      4  S   UNL d   1       2.298  -7.937  -1.475  0.00  0.00    -0.066 SA
ATOM      5  C   UNL d   1       3.377  -7.841   0.850  0.00  0.00     0.067 A 
ATOM      6  C   UNL d   1       2.877  -5.628   0.071  0.00  0.00     0.098 A 
ATOM      7  N   UNL d   1       2.459 -10.570  -1.357  0.00  0.00    -0.354 N 
ATOM      8  HN  UNL d   1       1.969 -10.614  -2.250  1.00  0.00     0.166 HD
ATOM      9  C   UNL d   1       3.918 -10.409   1.084  0.00  0.00    -0.045 A 
ATOM     10  N   UNL d   1       3.344  -5.149   1.245  0.00  0.00    -0.345 N 
ATOM     11  HN  UNL d   1       3.374  -4.146   1.428  1.00  0.00     0.167 HD
ATOM     12  N   UNL d   1       3.843  -7.351   2.030  0.00  0.00    -0.350 N 
ATOM     13  HN  UNL d   1       4.223  -7.951   2.762  1.00  0.00     0.166 HD
ATOM     14  C   UNL d   1       3.766  -6.027   2.159  0.00  0.00     0.181 A 
ATOM     15  C   UNL d   1       3.619 -11.637   0.470  0.00  0.00     0.032 A 
ATOM     16  C   UNL d   1       2.878 -11.671  -0.706  0.00  0.00     0.006 A 
ATOM     17  C   UNL d   1       4.755 -10.428   2.334  0.00  0.00     0.049 C 
ATOM     18  C   UNL d   1       2.521 -12.996  -1.314  0.00  0.00     0.068 C 
ENDROOT
BRANCH   6  19
ATOM     19  S   UNL d   1       2.623  -4.458  -1.232  0.00  0.00    -0.033 SA
BRANCH  19  20
ATOM     20  C   UNL d   1       0.930  -4.147  -1.096  0.00  0.00     0.169 A 
ATOM     21  N   UNL d   1       0.349  -2.979  -1.532  0.00  0.00    -0.310 N 
ATOM     22  C   UNL d   1      -1.013  -3.194  -1.468  0.00  0.00     0.141 A 
ATOM     23  N   UNL d   1      -1.218  -4.387  -0.939  0.00  0.00    -0.282 N 
ATOM     24  C   UNL d   1      -2.064  -2.334  -1.947  0.00  0.00     0.050 A 
ATOM     25  N   UNL d   1       0.001  -4.981  -0.700  0.00  0.00    -0.278 N 
ATOM     26  HN  UNL d   1      -2.130  -4.800  -0.741  1.00  0.00     0.188 HD
ATOM     27  HN  UNL d   1       0.152  -5.902  -0.289  1.00  0.00     0.189 HD
ATOM     28  S   UNL d   1      -3.438  -3.010  -2.731  0.00  0.00    -0.098 SA
ATOM     29  C   UNL d   1      -2.169  -0.955  -1.886  0.00  0.00     0.023 A 
ATOM     30  C   UNL d   1      -4.124  -1.474  -3.025  0.00  0.00     0.050 A 
ATOM     31  C   UNL d   1      -3.346  -0.458  -2.522  0.00  0.00     0.009 A 
BRANCH  21  32
ATOM     32  C   UNL d   1       1.027  -1.793  -2.014  0.00  0.00     0.128 C 
ATOM     33  C   UNL d   1       1.386  -0.838  -0.885  0.00  0.00     0.027 C 
ENDBRANCH  21  32
ENDBRANCH  19  20
ENDBRANCH   6  19
TORSDOF 3
