REMARK  5 active torsions:
REMARK  status: ('A' for Active; 'I' for Inactive)
REMARK    1  A    between atoms: C_13  and  N_3 
REMARK    2  A    between atoms: C_23  and  N_7 
REMARK    3  A    between atoms: C_10  and  C_22 
REMARK    4  A    between atoms: C_16  and  C_13 
REMARK       I    between atoms: N_24  and  C_16 
REMARK    5  A    between atoms: N_19  and  N_24 
ROOT
ATOM      1  C   UNL d   1      -5.466   0.690   0.174  0.00  0.00     0.256 C 
ATOM      2  N   UNL d   1      -5.491  -0.631   0.594  0.00  0.00    -0.269 N 
ATOM      3  O   UNL d   1      -4.441   1.367   0.071  0.00  0.00    -0.270 OA
ATOM      4  H   UNL d   1      -6.370  -1.143   0.525  0.00  0.00     0.190 HD
ENDROOT
BRANCH   1   5
ATOM      5  C   UNL d   1      -6.807   1.237  -0.312  0.00  0.00     0.258 C 
BRANCH   5   6
ATOM      6  N   UNL d   1      -8.003   0.537   0.129  0.00  0.00    -0.232 N 
ATOM      7  C   UNL d   1      -9.152   1.187   0.629  0.00  0.00     0.350 A 
ATOM      8  N   UNL d   1     -10.162   0.247   0.540  0.00  0.00    -0.248 N 
ATOM      9  O   UNL d   1      -9.202   2.346   1.005  0.00  0.00    -0.244 OA
ATOM     10  C   UNL d   1      -9.607  -0.818  -0.084  0.00  0.00     0.117 A 
ATOM     11  C   UNL d   1     -11.521   0.355   0.923  0.00  0.00     0.062 A 
ATOM     12  N   UNL d   1      -8.334  -0.709  -0.354  0.00  0.00    -0.281 N 
ATOM     13  C   UNL d   1     -10.439  -1.967  -0.564  0.00  0.00     0.158 C 
ATOM     14  HN  UNL d   1      -7.728  -1.387  -0.815  1.00  0.00     0.188 HD
ATOM     15  S   UNL d   1     -11.666  -2.437   0.665  0.00  0.00    -0.120 SA
ATOM     16  C   UNL d   1     -12.328  -0.803   0.977  0.00  0.00     0.028 A 
ATOM     17  C   UNL d   1     -13.679  -0.717   1.338  0.00  0.00     0.021 A 
ATOM     18  C   UNL d   1     -14.248   0.517   1.640  0.00  0.00     0.002 A 
ATOM     19  C   UNL d   1     -13.460   1.663   1.609  0.00  0.00     0.002 A 
ATOM     20  C   UNL d   1     -12.104   1.583   1.265  0.00  0.00     0.031 A 
ENDBRANCH   5   6
ENDBRANCH   1   5
BRANCH   2  21
ATOM     21  N   UNL d   1      -4.311  -1.282   0.859  0.00  0.00    -0.308 N 
ATOM     22  C   UNL d   1      -4.415  -2.516   1.228  0.00  0.00     0.122 C 
ATOM     23  HN  UNL d   1      -3.407  -0.818   0.771  1.00  0.00     0.186 HD
BRANCH  22  24
ATOM     24  C   UNL d   1      -3.224  -3.314   1.434  0.00  0.00     0.022 C 
ATOM     25  C   UNL d   1      -1.904  -2.920   1.310  0.00  0.00     0.131 C 
ATOM     26  N   UNL d   1      -1.125  -4.054   1.404  0.00  0.00    -0.267 N 
ATOM     27  N   UNL d   1      -1.873  -5.124   1.778  0.00  0.00    -0.298 N 
ATOM     28  C   UNL d   1      -3.137  -4.691   1.755  0.00  0.00     0.035 C 
ATOM     29  HN  UNL d   1      -1.542  -6.057   2.024  1.00  0.00     0.187 HD
ATOM     30  C   UNL d   1      -4.244  -5.647   2.007  0.00  0.00     0.070 C 
BRANCH  26  31
ATOM     31  C   UNL d   1       0.253  -4.212   1.073  0.00  0.00     0.056 A 
ATOM     32  C   UNL d   1       1.031  -3.125   0.654  0.00  0.00     0.031 A 
ATOM     33  C   UNL d   1       2.346  -3.331   0.223  0.00  0.00     0.002 A 
ATOM     34  C   UNL d   1       2.893  -4.614   0.212  0.00  0.00     0.000 A 
ATOM     35  C   UNL d   1       2.135  -5.695   0.654  0.00  0.00     0.002 A 
ATOM     36  C   UNL d   1       0.823  -5.497   1.091  0.00  0.00     0.031 A 
ENDBRANCH  26  31
ENDBRANCH  22  24
ENDBRANCH   2  21
TORSDOF 5
