REMARK  2 active torsions:
REMARK  status: ('A' for Active; 'I' for Inactive)
REMARK    1  A    between atoms: C_10  and  C_2 
REMARK    2  A    between atoms: C_11  and  C_5 
ROOT
ATOM      1  C   UNL d   1      -0.708   1.225  -0.046  0.00  0.00     0.127 A 
ATOM      2  C   UNL d   1      -1.443   0.093  -0.071  0.00  0.00     0.029 A 
ATOM      3  N   UNL d   1       0.626  -1.262  -0.066  0.00  0.00    -0.296 N 
ATOM      4  HN  UNL d   1       1.111  -2.160  -0.061  1.00  0.00     0.187 HD
ATOM      5  C   UNL d   1      -0.674  -1.204  -0.076  0.00  0.00     0.071 A 
ATOM      6  C   UNL d   1       0.770   1.156  -0.043  0.00  0.00     0.281 A 
ATOM      7  N   UNL d   1       1.315  -0.098  -0.061  0.00  0.00    -0.265 N 
ATOM      8  C   UNL d   1      -1.288   2.527  -0.003  0.00  0.00     0.106 C 
ATOM      9  N   UNL d   1      -1.795   3.570   0.027  0.00  0.00    -0.191 NA
ATOM     10  O   UNL d   1       1.474   2.158  -0.020  0.00  0.00    -0.265 OA
ATOM     11  H   UNL d   1       2.328  -0.165  -0.048  0.00  0.00     0.190 HD
ENDROOT
BRANCH   2  12
ATOM     12  C   UNL d   1      -2.914   0.172  -0.025  0.00  0.00    -0.022 A 
ATOM     13  C   UNL d   1      -3.643   0.418  -1.199  0.00  0.00     0.012 A 
ATOM     14  C   UNL d   1      -5.037   0.463  -1.165  0.00  0.00     0.001 A 
ATOM     15  C   UNL d   1      -5.708   0.299   0.045  0.00  0.00     0.000 A 
ATOM     16  C   UNL d   1      -4.989   0.089   1.222  0.00  0.00     0.001 A 
ATOM     17  C   UNL d   1      -3.595   0.023   1.189  0.00  0.00     0.012 A 
ENDBRANCH   2  12
BRANCH   5  18
ATOM     18  C   UNL d   1      -1.401  -2.518  -0.037  0.00  0.00    -0.007 A 
ATOM     19  C   UNL d   1      -2.547  -2.788  -0.792  0.00  0.00     0.014 A 
ATOM     20  C   UNL d   1      -3.208  -4.013  -0.667  0.00  0.00     0.001 A 
ATOM     21  C   UNL d   1      -2.696  -5.004   0.166  0.00  0.00     0.000 A 
ATOM     22  C   UNL d   1      -1.513  -4.776   0.865  0.00  0.00     0.001 A 
ATOM     23  C   UNL d   1      -0.870  -3.539   0.766  0.00  0.00     0.014 A 
ENDBRANCH   5  18
TORSDOF 2
