REMARK  3 active torsions:
REMARK  status: ('A' for Active; 'I' for Inactive)
REMARK    1  A    between atoms: C_9  and  C_6 
REMARK    2  A    between atoms: C_13  and  C_7 
REMARK    3  A    between atoms: C_8  and  C_12 
ROOT
ATOM      1  O   UNL d   1      -1.092   0.015   0.019  0.00  0.00    -0.273 OA
ATOM      2  N   UNL d   1       1.019  -0.721  -0.068  0.00  0.00    -0.277 N 
ATOM      3  HN  UNL d   1       1.822  -1.348  -0.101  1.00  0.00     0.189 HD
ATOM      4  N   UNL d   1       1.049   0.657  -0.072  0.00  0.00    -0.277 N 
ATOM      5  HN  UNL d   1       1.879   1.249  -0.112  1.00  0.00     0.189 HD
ATOM      6  C   UNL d   1      -0.251  -1.068  -0.015  0.00  0.00     0.174 A 
ATOM      7  C   UNL d   1      -0.204   1.061  -0.012  0.00  0.00     0.174 A 
ENDROOT
BRANCH   6   8
ATOM      8  C   UNL d   1      -0.847  -2.395   0.043  0.00  0.00     0.019 A 
ATOM      9  C   UNL d   1      -2.232  -2.595  -0.028  0.00  0.00     0.047 A 
ATOM     10  C   UNL d   1      -2.794  -3.866   0.041  0.00  0.00     0.059 A 
ATOM     11  N   UNL d   1      -4.133  -4.003  -0.028  0.00  0.00    -0.363 N 
ATOM     12  C   UNL d   1      -1.947  -4.994   0.187  0.00  0.00     0.059 A 
ATOM     13  C   UNL d   1      -4.613  -5.263   0.051  0.00  0.00     0.105 A 
ATOM     14  HN  UNL d   1      -4.750  -3.198  -0.135  1.00  0.00     0.165 HD
ATOM     15  C   UNL d   1      -3.788  -6.359   0.197  0.00  0.00     0.105 A 
ATOM     16  N   UNL d   1      -2.444  -6.243   0.266  0.00  0.00    -0.363 N 
ATOM     17  HN  UNL d   1      -1.839  -7.057   0.371  1.00  0.00     0.165 HD
ATOM     18  C   UNL d   1      -0.576  -4.798   0.251  0.00  0.00     0.033 A 
ATOM     19  C   UNL d   1      -0.023  -3.517   0.178  0.00  0.00     0.018 A 
ENDBRANCH   6   8
BRANCH   7  20
ATOM     20  C   UNL d   1      -0.741   2.415   0.050  0.00  0.00     0.017 A 
ATOM     21  C   UNL d   1       0.142   3.505   0.018  0.00  0.00     0.017 A 
ATOM     22  C   UNL d   1      -0.329   4.819   0.105  0.00  0.00     0.017 A 
ATOM     23  C   UNL d   1      -1.701   5.074   0.228  0.00  0.00     0.048 A 
ATOM     24  C   UNL d   1      -2.589   3.988   0.248  0.00  0.00     0.017 A 
ATOM     25  C   UNL d   1      -2.114   2.673   0.160  0.00  0.00     0.017 A 
BRANCH  23  26
ATOM     26  C   UNL d   1      -2.225   6.485   0.346  0.00  0.00     0.417 C 
ATOM     27  F   UNL d   1      -1.248   7.434   0.322  0.00  0.00    -0.166 F 
ATOM     28  F   UNL d   1      -3.085   6.808  -0.659  0.00  0.00    -0.166 F 
ATOM     29  F   UNL d   1      -2.912   6.688   1.505  0.00  0.00    -0.166 F 
ENDBRANCH  23  26
ENDBRANCH   7  20
TORSDOF 3
