REMARK  5 active torsions:
REMARK  status: ('A' for Active; 'I' for Inactive)
REMARK    1  A    between atoms: N_8  and  S_1 
REMARK    2  A    between atoms: C_13  and  S_1 
REMARK    3  A    between atoms: C_7  and  C_2 
REMARK    4  A    between atoms: C_6  and  C_14 
REMARK    5  A    between atoms: C_14  and  N_8 
ROOT
ATOM      1  C   UNL d   1       0.936   0.069  -2.648  0.00  0.00     0.189 C 
ENDROOT
BRANCH   1   2
ATOM      2  C   UNL d   1       0.400  -0.645  -3.856  0.00  0.00     0.035 A 
ATOM      3  N   UNL d   1       1.280  -1.071  -4.848  0.00  0.00    -0.351 N 
ATOM      4  C   UNL d   1       0.625  -1.614  -5.859  0.00  0.00     0.091 A 
ATOM      5  HN  UNL d   1       2.294  -0.975  -4.800  1.00  0.00     0.166 HD
ATOM      6  S   UNL d   1      -1.085  -1.665  -5.652  0.00  0.00    -0.081 SA
ATOM      7  C   UNL d   1      -0.932  -0.884  -4.140  0.00  0.00     0.078 A 
BRANCH   4   8
ATOM      8  C   UNL d   1       1.310  -2.099  -7.039  0.00  0.00     0.038 A 
ATOM      9  S   UNL d   1       0.495  -2.715  -8.424  0.00  0.00    -0.099 SA
ATOM     10  C   UNL d   1       1.955  -2.995  -9.262  0.00  0.00     0.050 A 
ATOM     11  C   UNL d   1       3.053  -2.640  -8.514  0.00  0.00     0.008 A 
ATOM     12  C   UNL d   1       2.681  -2.125  -7.235  0.00  0.00     0.022 A 
ENDBRANCH   4   8
ENDBRANCH   1   2
BRANCH   1  13
ATOM     13  N   UNL d   1       0.554  -0.650  -1.431  0.00  0.00    -0.310 N 
ATOM     14  H   UNL d   1      -0.348  -1.115  -1.399  0.00  0.00     0.172 HD
BRANCH  13  15
ATOM     15  S   UNL d   1       1.031  -0.004   0.040  0.00  0.00     0.259 S 
ATOM     16  O   UNL d   1       2.405   0.426  -0.070  0.00  0.00    -0.201 OA
ATOM     17  O   UNL d   1       0.599  -0.936   1.057  0.00  0.00    -0.201 OA
BRANCH  15  18
ATOM     18  C   UNL d   1       0.011   1.447   0.180  0.00  0.00     0.079 A 
ATOM     19  C   UNL d   1      -1.232   1.354   0.818  0.00  0.00     0.025 A 
ATOM     20  C   UNL d   1      -2.017   2.497   0.966  0.00  0.00     0.002 A 
ATOM     21  C   UNL d   1      -1.560   3.725   0.484  0.00  0.00     0.000 A 
ATOM     22  C   UNL d   1      -0.314   3.817  -0.138  0.00  0.00     0.002 A 
ATOM     23  C   UNL d   1       0.482   2.680  -0.282  0.00  0.00     0.025 A 
ENDBRANCH  15  18
ENDBRANCH  13  15
ENDBRANCH   1  13
TORSDOF 5
