REMARK  4 active torsions:
REMARK  status: ('A' for Active; 'I' for Inactive)
REMARK    1  A    between atoms: C_2  and  C_1 
REMARK    2  A    between atoms: C_4  and  C_2 
REMARK    3  A    between atoms: O_10  and  C_3 
REMARK    4  A    between atoms: C_11  and  O_10 
ROOT
ATOM      1  C   UNL d   1       1.127  -0.026   0.114  0.00  0.00     0.080 C 
ATOM      2  C   UNL d   1       2.457   0.007  -0.010  0.00  0.00     0.146 C 
ENDROOT
BRANCH   1   3
ATOM      3  C   UNL d   1       0.426  -1.315  -0.109  0.00  0.00     0.183 C 
ATOM      4  O   UNL d   1       0.938  -2.226  -0.749  0.00  0.00    -0.288 OA
BRANCH   3   5
ATOM      5  C   UNL d   1      -0.948  -1.463   0.436  0.00  0.00     0.014 A 
ATOM      6  C   UNL d   1      -1.837  -2.330  -0.216  0.00  0.00     0.017 A 
ATOM      7  C   UNL d   1      -3.118  -2.543   0.300  0.00  0.00     0.020 A 
ATOM      8  C   UNL d   1      -3.505  -1.898   1.474  0.00  0.00     0.011 A 
ATOM      9  C   UNL d   1      -2.628  -1.034   2.130  0.00  0.00     0.020 A 
ATOM     10 BR   UNL d   1      -5.221  -2.214   2.199  0.00  0.00    -0.051 Br
ATOM     11  C   UNL d   1      -1.348  -0.816   1.612  0.00  0.00     0.017 A 
ENDBRANCH   3   5
ENDBRANCH   1   3
BRANCH   2  12
ATOM     12  O   UNL d   1       3.181   1.171   0.106  0.00  0.00    -0.323 OA
BRANCH  12  13
ATOM     13  C   UNL d   1       4.341   1.270  -0.630  0.00  0.00     0.074 A 
ATOM     14  C   UNL d   1       4.499   0.678  -1.890  0.00  0.00     0.039 A 
ATOM     15  C   UNL d   1       5.689   0.842  -2.597  0.00  0.00     0.026 A 
ATOM     16  C   UNL d   1       6.716   1.615  -2.056  0.00  0.00     0.034 A 
ATOM     17  C   UNL d   1       6.556   2.229  -0.815  0.00  0.00     0.026 A 
ATOM     18 CL   UNL d   1       8.182   1.817  -2.932  0.00  0.00    -0.084 Cl
ATOM     19  C   UNL d   1       5.365   2.060  -0.102  0.00  0.00     0.039 A 
ENDBRANCH  12  13
ENDBRANCH   2  12
TORSDOF 4
