REMARK  4 active torsions:
REMARK  status: ('A' for Active; 'I' for Inactive)
REMARK    1  A    between atoms: C_2  and  N_1 
REMARK    2  A    between atoms: N_4  and  C_3 
REMARK    3  A    between atoms: C_5  and  C_12 
REMARK    4  A    between atoms: C_14  and  C_5 
ROOT
ATOM      1  N   UNL d   1      -1.456  -0.732   1.455  0.00  0.00    -0.267 NA
ATOM      2  C   UNL d   1      -2.261  -0.988   0.256  0.00  0.00     0.098 C 
ATOM      3  C   UNL d   1      -0.619  -1.883   1.833  0.00  0.00     0.098 C 
ATOM      4  C   UNL d   1      -2.519  -3.397   0.995  0.00  0.00     0.063 C 
ATOM      5  C   UNL d   1      -3.241  -2.111   0.572  0.00  0.00     0.027 C 
ATOM      6  C   UNL d   1      -1.538  -3.075   2.147  0.00  0.00     0.027 C 
ENDROOT
BRANCH   1   7
ATOM      7  C   UNL d   1      -0.782   0.497   1.398  0.00  0.00     0.116 A 
ATOM      8  C   UNL d   1      -0.397   1.208   2.537  0.00  0.00     0.141 A 
ATOM      9  C   UNL d   1       0.186   2.480   2.438  0.00  0.00     0.041 A 
ATOM     10  C   UNL d   1       0.380   3.026   1.179  0.00  0.00     0.020 A 
ATOM     11  C   UNL d   1      -0.005   2.277   0.085  0.00  0.00     0.089 A 
ATOM     12  N   UNL d   1      -0.572   1.051   0.174  0.00  0.00    -0.355 N 
ATOM     13  HN  UNL d   1      -0.838   0.546  -0.671  1.00  0.00     0.166 HD
BRANCH   8  14
ATOM     14  N   UNL d   1      -0.640   0.686   3.858  0.00  0.00    -0.112 N 
ATOM     15  O   UNL d   1      -1.811   0.521   4.216  0.00  0.00    -0.532 OA
ATOM     16  O   UNL d   1       0.362   0.502   4.570  0.00  0.00    -0.532 OA
ENDBRANCH   8  14
ENDBRANCH   1   7
BRANCH   4  17
ATOM     17  C   UNL d   1      -1.789  -4.097  -0.158  0.00  0.00     0.163 C 
ATOM     18  O   UNL d   1      -0.567  -4.254  -0.138  0.00  0.00    -0.292 OA
BRANCH  17  19
ATOM     19  C   UNL d   1      -2.546  -4.644  -1.330  0.00  0.00     0.010 A 
ATOM     20  C   UNL d   1      -3.943  -4.655  -1.409  0.00  0.00     0.015 A 
ATOM     21  C   UNL d   1      -4.581  -5.135  -2.558  0.00  0.00     0.001 A 
ATOM     22  C   UNL d   1      -3.833  -5.645  -3.617  0.00  0.00     0.000 A 
ATOM     23  C   UNL d   1      -2.443  -5.675  -3.533  0.00  0.00     0.001 A 
ATOM     24  C   UNL d   1      -1.804  -5.171  -2.399  0.00  0.00     0.015 A 
ENDBRANCH  17  19
ENDBRANCH   4  17
TORSDOF 4
