REMARK  6 active torsions:
REMARK  status: ('A' for Active; 'I' for Inactive)
REMARK    1  A    between atoms: C_12  and  C_1 
REMARK    2  A    between atoms: N_25  and  C_2 
REMARK    3  A    between atoms: C_16  and  C_8 
REMARK    4  A    between atoms: C_9  and  C_20 
REMARK    5  A    between atoms: C_23  and  N_10 
REMARK       I    between atoms: N_24  and  C_12 
REMARK    6  A    between atoms: N_18  and  N_24 
ROOT
ATOM      1  N   UNL d   1       3.936  -2.421  -0.260  0.00  0.00    -0.308 N 
ATOM      2  HN  UNL d   1       2.936  -2.403  -0.459  1.00  0.00     0.186 HD
ATOM      3  C   UNL d   1       4.600  -3.527  -0.139  0.00  0.00     0.122 C 
ENDROOT
BRANCH   1   4
ATOM      4  N   UNL d   1       4.681  -1.266  -0.097  0.00  0.00    -0.266 N 
ATOM      5  C   UNL d   1       5.622  -1.086   0.923  0.00  0.00     0.279 C 
ATOM      6  O   UNL d   1       5.927  -1.997   1.700  0.00  0.00    -0.265 OA
ATOM      7  H   UNL d   1       4.284  -0.435  -0.526  0.00  0.00     0.190 HD
BRANCH   5   8
ATOM      8  C   UNL d   1       6.216   0.243   1.034  0.00  0.00     0.103 A 
ATOM      9  C   UNL d   1       7.220   0.636   1.906  0.00  0.00     0.062 A 
ATOM     10  C   UNL d   1       7.568   2.035   1.802  0.00  0.00     0.032 A 
ATOM     11  C   UNL d   1       8.493   2.899   2.460  0.00  0.00    -0.045 A 
ATOM     12  C   UNL d   1       6.793   2.618   0.797  0.00  0.00     0.088 A 
ATOM     13  C   UNL d   1       8.533   4.242   2.029  0.00  0.00     0.032 A 
ATOM     14  C   UNL d   1       9.441   2.537   3.572  0.00  0.00     0.049 C 
ATOM     15  C   UNL d   1       7.704   4.684   1.008  0.00  0.00     0.006 A 
ATOM     16  N   UNL d   1       6.820   3.898   0.375  0.00  0.00    -0.354 N 
ATOM     17  C   UNL d   1       7.780   6.116   0.565  0.00  0.00     0.068 C 
ATOM     18  HN  UNL d   1       6.215   4.242  -0.370  1.00  0.00     0.166 HD
ATOM     19  S   UNL d   1       5.707   1.542   0.054  0.00  0.00    -0.064 SA
BRANCH   9  20
ATOM     20  N   UNL d   1       7.792  -0.255   2.752  0.00  0.00    -0.397 N 
ATOM     21  H   UNL d   1       7.400  -1.201   2.824  0.00  0.00     0.156 HD
ATOM     22  H   UNL d   1       8.309   0.002   3.580  0.00  0.00     0.156 HD
ENDBRANCH   9  20
ENDBRANCH   5   8
ENDBRANCH   1   4
BRANCH   3  23
ATOM     23  C   UNL d   1       3.929  -4.802  -0.186  0.00  0.00     0.028 A 
ATOM     24  C   UNL d   1       4.471  -6.084  -0.462  0.00  0.00     0.078 A 
ATOM     25  N   UNL d   1       3.573  -7.052  -0.249  0.00  0.00    -0.292 N 
ATOM     26  N   UNL d   1       2.423  -6.410   0.087  0.00  0.00    -0.266 N 
ATOM     27  HN  UNL d   1       3.721  -8.059  -0.323  1.00  0.00     0.187 HD
ATOM     28  C   UNL d   1       2.611  -5.048   0.135  0.00  0.00     0.132 A 
BRANCH  24  29
ATOM     29  C   UNL d   1       5.867  -6.407  -0.934  0.00  0.00     0.034 A 
ATOM     30  S   UNL d   1       6.912  -5.313  -1.734  0.00  0.00    -0.100 SA
ATOM     31  C   UNL d   1       8.164  -6.466  -1.842  0.00  0.00     0.050 A 
ATOM     32  C   UNL d   1       7.794  -7.675  -1.297  0.00  0.00     0.008 A 
ATOM     33  C   UNL d   1       6.455  -7.650  -0.801  0.00  0.00     0.021 A 
ENDBRANCH  24  29
BRANCH  26  34
ATOM     34  C   UNL d   1       1.227  -7.137   0.354  0.00  0.00     0.056 A 
ATOM     35  C   UNL d   1       0.060  -6.487   0.783  0.00  0.00     0.031 A 
ATOM     36  C   UNL d   1      -1.101  -7.224   1.036  0.00  0.00     0.002 A 
ATOM     37  C   UNL d   1      -1.109  -8.606   0.859  0.00  0.00     0.000 A 
ATOM     38  C   UNL d   1       0.045  -9.259   0.431  0.00  0.00     0.002 A 
ATOM     39  C   UNL d   1       1.211  -8.530   0.182  0.00  0.00     0.031 A 
ENDBRANCH  26  34
ENDBRANCH   3  23
TORSDOF 6
