REMARK  3 active torsions:
REMARK  status: ('A' for Active; 'I' for Inactive)
REMARK    1  A    between atoms: C_8  and  C_3 
REMARK    2  A    between atoms: C_10  and  C_7 
REMARK    3  A    between atoms: O_16  and  C_11 
ROOT
ATOM      1  N   UNL d   1      -0.793   0.033   0.006  0.00  0.00    -0.331 N 
ATOM      2  HN  UNL d   1      -1.779  -0.228   0.006  1.00  0.00     0.168 HD
ATOM      3  C   UNL d   1      -0.271   1.217  -0.021  0.00  0.00     0.162 A 
ATOM      4  C   UNL d   1       0.307  -0.780   0.034  0.00  0.00     0.111 A 
ATOM      5  O   UNL d   1       1.081   1.308  -0.032  0.00  0.00    -0.256 OA
ATOM      6  C   UNL d   1       1.552   0.030   0.009  0.00  0.00     0.316 A 
ATOM      7  C   UNL d   1       0.323  -2.117   0.073  0.00  0.00     0.047 C 
ATOM      8  O   UNL d   1       2.711  -0.331   0.013  0.00  0.00    -0.257 OA
ENDROOT
BRANCH   7   9
ATOM      9  C   UNL d   1      -0.905  -2.910   0.026  0.00  0.00    -0.034 A 
ATOM     10  C   UNL d   1      -1.438  -3.273  -1.214  0.00  0.00     0.014 A 
ATOM     11  C   UNL d   1      -2.630  -3.999  -1.290  0.00  0.00     0.037 A 
ATOM     12  C   UNL d   1      -3.304  -4.362  -0.125  0.00  0.00     0.068 A 
ATOM     13  C   UNL d   1      -2.770  -3.999   1.115  0.00  0.00     0.037 A 
ATOM     14  C   UNL d   1      -1.577  -3.274   1.196  0.00  0.00     0.014 A 
BRANCH  12  15
ATOM     15  O   UNL d   1      -4.482  -5.055  -0.065  0.00  0.00    -0.356 OA
ATOM     16  C   UNL d   1      -5.060  -5.438  -1.307  0.00  0.00     0.210 C 
ENDBRANCH  12  15
ENDBRANCH   7   9
BRANCH   3  17
ATOM     17  C   UNL d   1      -1.001   2.492  -0.005  0.00  0.00     0.015 A 
ATOM     18  C   UNL d   1      -2.400   2.466   0.076  0.00  0.00     0.016 A 
ATOM     19  C   UNL d   1      -3.117   3.659   0.168  0.00  0.00     0.001 A 
ATOM     20  C   UNL d   1      -2.442   4.879   0.173  0.00  0.00     0.000 A 
ATOM     21  C   UNL d   1      -1.051   4.910   0.070  0.00  0.00     0.001 A 
ATOM     22  C   UNL d   1      -0.328   3.719  -0.022  0.00  0.00     0.016 A 
ENDBRANCH   3  17
TORSDOF 3
