REMARK  2 active torsions:
REMARK  status: ('A' for Active; 'I' for Inactive)
REMARK    1  A    between atoms: C_9  and  N_8 
REMARK    2  A    between atoms: O_15  and  N_12 
ROOT
ATOM      1  C   UNL d   1      -1.065   0.296   0.035  0.00  0.00     0.058 A 
ATOM      2  N   UNL d   1      -1.927   1.369  -0.107  0.00  0.00    -0.335 N 
ATOM      3  HN  UNL d   1      -1.638   2.336  -0.255  1.00  0.00     0.168 HD
ATOM      4  C   UNL d   1      -3.181   0.959  -0.024  0.00  0.00     0.150 A 
ATOM      5  C   UNL d   1      -1.677  -0.921   0.248  0.00  0.00     0.014 A 
ATOM      6  S   UNL d   1      -3.354  -0.745   0.274  0.00  0.00    -0.056 SA
ATOM      7  C   UNL d   1       0.392   0.339  -0.018  0.00  0.00    -0.002 A 
ATOM      8  N   UNL d   1      -4.245   1.786  -0.158  0.00  0.00    -0.331 N 
ATOM      9  C   UNL d   1      -0.971  -2.213   0.448  0.00  0.00     0.053 C 
ATOM     10  C   UNL d   1       1.102  -0.883  -0.145  0.00  0.00    -0.045 A 
ATOM     11  C   UNL d   1       0.347  -2.188  -0.336  0.00  0.00     0.044 C 
ATOM     12  C   UNL d   1       1.099   1.538   0.096  0.00  0.00     0.014 A 
ATOM     13  C   UNL d   1       2.502  -0.879  -0.161  0.00  0.00     0.008 A 
ATOM     14  C   UNL d   1       2.498   1.525   0.098  0.00  0.00     0.001 A 
ATOM     15  C   UNL d   1       3.196   0.321  -0.027  0.00  0.00     0.001 A 
ATOM     16  H   UNL d   1      -4.033   2.760  -0.336  0.00  0.00     0.168 HD
ENDROOT
BRANCH   8  17
ATOM     17  C   UNL d   1      -5.574   1.483  -0.115  0.00  0.00     0.206 C 
ATOM     18  N   UNL d   1      -6.549   2.322  -0.271  0.00  0.00    -0.265 N 
ATOM     19  HN  UNL d   1      -6.455   3.323  -0.447  1.00  0.00     0.194 HD
BRANCH  18  20
ATOM     20  O   UNL d   1      -7.756   1.615  -0.158  0.00  0.00    -0.289 OA
ATOM     21  H   UNL d   1      -8.427   2.311  -0.285  0.00  0.00     0.244 HD
ENDBRANCH  18  20
ENDBRANCH   8  17
TORSDOF 2
