REMARK  6 active torsions:
REMARK  status: ('A' for Active; 'I' for Inactive)
REMARK    1  A    between atoms: C_10  and  C_1 
REMARK    2  A    between atoms: C_6  and  N_13 
REMARK    3  A    between atoms: N_11  and  C_6 
REMARK    4  A    between atoms: N_8  and  C_10 
REMARK    5  A    between atoms: N_13  and  N_8 
REMARK    6  A    between atoms: C_14  and  N_11 
ROOT
ATOM      1  N   UNL d   1       1.321  -3.594  -1.650  0.00  0.00    -0.307 N 
ATOM      2  HN  UNL d   1       2.008  -2.962  -2.060  1.00  0.00     0.186 HD
ENDROOT
BRANCH   1   3
ATOM      3  C   UNL d   1       0.123  -3.685  -2.153  0.00  0.00     0.139 C 
BRANCH   3   4
ATOM      4  C   UNL d   1      -0.989  -4.499  -1.675  0.00  0.00     0.088 A 
ATOM      5  C   UNL d   1      -2.310  -4.504  -2.197  0.00  0.00     0.080 A 
ATOM      6  C   UNL d   1      -3.010  -5.391  -1.421  0.00  0.00     0.133 A 
ATOM      7 CL   UNL d   1      -2.908  -3.593  -3.495  0.00  0.00    -0.080 Cl
ATOM      8  N   UNL d   1      -2.122  -5.869  -0.507  0.00  0.00    -0.310 N 
ATOM      9  N   UNL d   1      -0.883  -5.365  -0.645  0.00  0.00    -0.298 N 
ATOM     10  H   UNL d   1      -2.290  -6.538   0.239  0.00  0.00     0.186 HD
ATOM     11  HN  UNL d   1      -0.052  -5.587  -0.096  1.00  0.00     0.187 HD
ENDBRANCH   3   4
ENDBRANCH   1   3
BRANCH   1  12
ATOM     12  N   UNL d   1       1.641  -4.355  -0.573  0.00  0.00    -0.277 N 
ATOM     13  H   UNL d   1       1.027  -5.151  -0.378  0.00  0.00     0.189 HD
BRANCH  12  14
ATOM     14  C   UNL d   1       2.901  -4.405  -0.077  0.00  0.00     0.187 C 
ATOM     15  S   UNL d   1       3.443  -5.809   0.656  0.00  0.00    -0.040 SA
BRANCH  14  16
ATOM     16  N   UNL d   1       3.743  -3.341  -0.116  0.00  0.00    -0.358 N 
ATOM     17  H   UNL d   1       4.653  -3.595   0.247  0.00  0.00     0.162 HD
BRANCH  16  18
ATOM     18  C   UNL d   1       3.470  -1.882  -0.131  0.00  0.00     0.021 C 
ATOM     19  C   UNL d   1       2.253  -1.520   0.738  0.00  0.00     0.037 C 
ATOM     20  C   UNL d   1       4.703  -1.190   0.499  0.00  0.00     0.037 C 
ATOM     21  C   UNL d   1       3.338  -1.311  -1.551  0.00  0.00     0.037 C 
ENDBRANCH  16  18
ENDBRANCH  14  16
ENDBRANCH  12  14
ENDBRANCH   1  12
TORSDOF 6
