REMARK  1 active torsions:
REMARK  status: ('A' for Active; 'I' for Inactive)
REMARK    1  A    between atoms: C_9  and  C_1 
ROOT
ATOM      1  C   UNL d   1      -0.683   1.166  -0.009  0.00  0.00    -0.050 A 
ATOM      2  C   UNL d   1       0.762  -1.288  -0.010  0.00  0.00     0.056 A 
ATOM      3  C   UNL d   1      -0.647  -1.292  -0.007  0.00  0.00    -0.040 A 
ATOM      4  C   UNL d   1       1.456  -0.063  -0.016  0.00  0.00    -0.040 A 
ATOM      5  N   UNL d   1       2.041  -3.550   0.001  0.00  0.00    -0.191 NA
ATOM      6  C   UNL d   1       1.474  -2.536  -0.005  0.00  0.00     0.100 C 
ATOM      7  C   UNL d   1      -1.344  -0.072  -0.006  0.00  0.00     0.016 A 
ATOM      8  C   UNL d   1       0.724   1.142  -0.018  0.00  0.00     0.016 A 
ATOM      9  C   UNL d   1      -1.433  -2.579   0.001  0.00  0.00     0.050 C 
ATOM     10  C   UNL d   1       2.960   0.033  -0.013  0.00  0.00     0.050 C 
ENDROOT
BRANCH   1  11
ATOM     11  C   UNL d   1      -1.442   2.506   0.009  0.00  0.00    -0.024 C 
ATOM     12  C   UNL d   1      -2.979   2.337   0.015  0.00  0.00     0.019 C 
ATOM     13  C   UNL d   1      -1.062   3.304   1.275  0.00  0.00     0.019 C 
ATOM     14  C   UNL d   1      -1.082   3.345  -1.235  0.00  0.00     0.019 C 
ENDBRANCH   1  11
TORSDOF 1
