REMARK  4 active torsions:
REMARK  status: ('A' for Active; 'I' for Inactive)
REMARK    1  A    between atoms: C_5  and  S_1 
REMARK    2  A    between atoms: N_11  and  S_1 
REMARK       I    between atoms: C_2  and  N_4 
REMARK    3  A    between atoms: C_3  and  C_2 
REMARK    4  A    between atoms: N_4  and  C_14 
ROOT
ATOM      1  C   UNL d   1       0.399  -1.363   0.974  0.00  0.00     0.074 A 
ATOM      2  C   UNL d   1       0.369  -2.580   0.292  0.00  0.00     0.027 A 
ATOM      3  C   UNL d   1       0.140  -1.316   2.344  0.00  0.00     0.027 A 
ATOM      4  C   UNL d   1      -0.176  -3.727   2.370  0.00  0.00     0.035 A 
ATOM      5  C   UNL d   1       0.090  -3.758   0.994  0.00  0.00     0.031 A 
ATOM      6  C   UNL d   1      -0.151  -2.497   3.035  0.00  0.00     0.031 A 
ENDROOT
BRANCH   4   7
ATOM      7  N   UNL d   1      -0.416  -4.960   3.019  0.00  0.00    -0.323 N 
ATOM      8  C   UNL d   1      -0.892  -5.136   4.310  0.00  0.00     0.261 C 
ATOM      9  O   UNL d   1      -1.308  -4.231   5.022  0.00  0.00    -0.267 OA
ATOM     10  H   UNL d   1      -0.291  -5.790   2.448  0.00  0.00     0.169 HD
BRANCH   8  11
ATOM     11  C   UNL d   1      -0.949  -6.538   4.825  0.00  0.00     0.092 A 
ATOM     12  C   UNL d   1      -1.100  -7.611   3.938  0.00  0.00     0.133 A 
ATOM     13  F   UNL d   1      -1.106  -7.410   2.610  0.00  0.00    -0.205 F 
ATOM     14  C   UNL d   1      -1.249  -8.924   4.387  0.00  0.00     0.043 A 
ATOM     15  C   UNL d   1      -1.253  -9.193   5.750  0.00  0.00     0.005 A 
ATOM     16  C   UNL d   1      -1.076  -8.148   6.653  0.00  0.00     0.025 A 
ATOM     17  C   UNL d   1      -0.913  -6.828   6.201  0.00  0.00     0.052 A 
ATOM     18 CL   UNL d   1      -0.602  -5.652   7.433  0.00  0.00    -0.083 Cl
ENDBRANCH   8  11
ENDBRANCH   4   7
BRANCH   1  19
ATOM     19  S   UNL d   1       0.810   0.128   0.121  0.00  0.00     0.239 S 
ATOM     20  O   UNL d   1       0.875  -0.135  -1.298  0.00  0.00    -0.206 OA
ATOM     21  O   UNL d   1       1.875   0.792   0.836  0.00  0.00    -0.206 OA
BRANCH  19  22
ATOM     22  N   UNL d   1      -0.561   1.071   0.337  0.00  0.00    -0.225 NA
ATOM     23  H   UNL d   1      -1.001   1.250  -0.568  0.00  0.00     0.136 HD
ATOM     24  H   UNL d   1      -0.319   1.920   0.849  0.00  0.00     0.136 HD
ENDBRANCH  19  22
ENDBRANCH   1  19
TORSDOF 4
