REMARK  6 active torsions:
REMARK  status: ('A' for Active; 'I' for Inactive)
REMARK    1  A    between atoms: C_7  and  N_1 
REMARK    2  A    between atoms: C_6  and  C_2 
REMARK    3  A    between atoms: O_16  and  C_2 
REMARK    4  A    between atoms: C_8  and  C_6 
REMARK    5  A    between atoms: N_9  and  C_7 
REMARK    6  A    between atoms: C_10  and  C_8 
ROOT
ATOM      1  N   UNL d   1      -1.713   0.257   0.486  0.00  0.00    -0.298 N 
ATOM      2  C   UNL d   1      -1.228  -1.945  -0.323  0.00  0.00     0.175 C 
ATOM      3  C   UNL d   1      -2.341  -0.934   0.097  0.00  0.00     0.265 C 
ATOM      4  C   UNL d   1       0.015  -1.222   0.128  0.00  0.00     0.014 A 
ATOM      5  C   UNL d   1      -0.312   0.084   0.511  0.00  0.00     0.049 A 
ATOM      6  C   UNL d   1       0.684   0.990   0.831  0.00  0.00     0.032 A 
ATOM      7  C   UNL d   1       1.334  -1.663   0.079  0.00  0.00     0.032 A 
ATOM      8  O   UNL d   1      -3.539  -1.175   0.080  0.00  0.00    -0.269 OA
ATOM      9  C   UNL d   1       2.334  -0.755   0.409  0.00  0.00     0.011 A 
ATOM     10  C   UNL d   1       2.018   0.561   0.777  0.00  0.00     0.021 A 
ATOM     11 BR   UNL d   1       4.144  -1.295   0.321  0.00  0.00    -0.051 Br
ENDROOT
BRANCH   2  12
ATOM     12  C   UNL d   1      -1.168  -2.077  -1.859  0.00  0.00     0.137 C 
BRANCH  12  13
ATOM     13  C   UNL d   1      -2.515  -2.283  -2.534  0.00  0.00     0.163 C 
ATOM     14  O   UNL d   1      -3.026  -1.376  -3.193  0.00  0.00    -0.292 OA
BRANCH  13  15
ATOM     15  C   UNL d   1      -3.231  -3.575  -2.373  0.00  0.00     0.011 C 
ATOM     16  C   UNL d   1      -2.562  -4.721  -1.937  0.00  0.00     0.027 C 
ATOM     17  C   UNL d   1      -3.279  -5.859  -1.555  0.00  0.00    -0.025 A 
ATOM     18  C   UNL d   1      -2.607  -6.975  -1.032  0.00  0.00     0.012 A 
ATOM     19  C   UNL d   1      -4.684  -5.863  -1.639  0.00  0.00    -0.026 A 
ATOM     20  C   UNL d   1      -3.325  -8.049  -0.515  0.00  0.00     0.001 A 
ATOM     21  C   UNL d   1      -4.717  -8.025  -0.531  0.00  0.00     0.001 A 
ATOM     22  C   UNL d   1      -5.393  -6.949  -1.111  0.00  0.00     0.012 A 
ATOM     23  C   UNL d   1      -5.336  -4.758  -2.224  0.00  0.00     0.013 C 
ATOM     24  C   UNL d   1      -4.612  -3.624  -2.585  0.00  0.00     0.016 C 
ENDBRANCH  13  15
ENDBRANCH  12  13
ENDBRANCH   2  12
BRANCH   2  25
ATOM     25  O   UNL d   1      -1.246  -3.204   0.316  0.00  0.00    -0.375 OA
ATOM     26  H   UNL d   1      -2.064  -3.246   0.847  0.00  0.00     0.211 HD
ENDBRANCH   2  25
BRANCH   1  27
ATOM     27  C   UNL d   1      -2.373   1.531   0.353  0.00  0.00     0.252 C 
BRANCH  27  28
ATOM     28  N   UNL d   1      -3.080   2.030   1.515  0.00  0.00    -0.392 N 
ATOM     29  C   UNL d   1      -2.292   2.489   2.653  0.00  0.00     0.145 C 
ATOM     30  C   UNL d   1      -2.118   1.437   3.755  0.00  0.00     0.187 C 
ATOM     31  O   UNL d   1      -3.385   0.925   4.182  0.00  0.00    -0.388 OA
ATOM     32  C   UNL d   1      -4.070   0.315   3.079  0.00  0.00     0.187 C 
ATOM     33  C   UNL d   1      -4.287   1.312   1.928  0.00  0.00     0.145 C 
ENDBRANCH  27  28
ENDBRANCH   1  27
TORSDOF 6
