REMARK  4 active torsions:
REMARK  status: ('A' for Active; 'I' for Inactive)
REMARK       I    between atoms: N_2  and  C_1 
REMARK    1  A    between atoms: C_3  and  C_1 
REMARK    2  A    between atoms: C_6  and  N_2 
REMARK    3  A    between atoms: C_8  and  N_2 
REMARK    4  A    between atoms: C_9  and  C_6 
ROOT
ATOM      1  C   UNL d   1       1.816   1.149  -0.157  0.00  0.00     0.255 C 
ATOM      2  N   UNL d   1       3.159   0.712  -0.216  0.00  0.00    -0.340 N 
ATOM      3  O   UNL d   1       1.505   2.312   0.110  0.00  0.00    -0.267 OA
ENDROOT
BRANCH   2   4
ATOM      4  C   UNL d   1       4.181   1.760  -0.057  0.00  0.00     0.165 C 
BRANCH   4   5
ATOM      5  C   UNL d   1       4.574   2.468  -1.342  0.00  0.00    -0.040 A 
ATOM      6  C   UNL d   1       3.941   3.664  -1.712  0.00  0.00     0.009 A 
ATOM      7  C   UNL d   1       4.307   4.337  -2.881  0.00  0.00     0.001 A 
ATOM      8  C   UNL d   1       5.301   3.819  -3.705  0.00  0.00     0.000 A 
ATOM      9  C   UNL d   1       5.945   2.631  -3.350  0.00  0.00     0.001 A 
ATOM     10  C   UNL d   1       5.590   1.973  -2.173  0.00  0.00     0.009 A 
ENDBRANCH   4   5
ENDBRANCH   2   4
BRANCH   2  11
ATOM     11  C   UNL d   1       3.582  -0.666  -0.561  0.00  0.00     0.079 C 
ATOM     12  C   UNL d   1       3.575  -0.951  -2.062  0.00  0.00     0.032 C 
ATOM     13  C   UNL d   1       4.906  -1.105   0.078  0.00  0.00     0.032 C 
ENDBRANCH   2  11
BRANCH   1  14
ATOM     14  C   UNL d   1       0.688   0.234  -0.498  0.00  0.00     0.038 C 
ATOM     15  C   UNL d   1       0.347  -0.928   0.224  0.00  0.00    -0.040 C 
ATOM     16  C   UNL d   1      -0.626  -1.800  -0.321  0.00  0.00    -0.055 C 
ATOM     17  C   UNL d   1       0.944  -1.213   1.578  0.00  0.00     0.050 C 
ATOM     18  C   UNL d   1      -0.881  -3.180   0.221  0.00  0.00     0.049 C 
ATOM     19  C   UNL d   1      -1.413  -1.369  -1.402  0.00  0.00     0.007 C 
ATOM     20  C   UNL d   1      -1.191  -0.132  -1.996  0.00  0.00     0.002 C 
ATOM     21  C   UNL d   1      -0.117   0.646  -1.573  0.00  0.00     0.017 C 
ENDBRANCH   1  14
TORSDOF 4
