REMARK  4 active torsions:
REMARK  status: ('A' for Active; 'I' for Inactive)
REMARK    1  A    between atoms: C_2  and  C_1 
REMARK       I    between atoms: N_9  and  C_1 
REMARK    2  A    between atoms: C_3  and  N_10 
REMARK    3  A    between atoms: O_11  and  C_6 
REMARK    4  A    between atoms: C_19  and  O_11 
ROOT
ATOM      1  C   UNL d   1       1.095  -0.093   0.250  0.00  0.00     0.258 C 
ATOM      2  N   UNL d   1       0.574   0.436   1.464  0.00  0.00    -0.345 N 
ATOM      3  N   UNL d   1      -0.827   1.672   3.768  0.00  0.00    -0.397 N 
ATOM      4  O   UNL d   1       0.463  -0.918  -0.405  0.00  0.00    -0.267 OA
ATOM      5  C   UNL d   1       1.285   1.337   2.365  0.00  0.00     0.145 C 
ATOM      6  C   UNL d   1      -0.716  -0.094   1.927  0.00  0.00     0.145 C 
ATOM      7  C   UNL d   1      -1.099   0.290   3.372  0.00  0.00     0.137 C 
ATOM      8  C   UNL d   1       0.494   2.139   3.407  0.00  0.00     0.137 C 
ENDROOT
BRANCH   1   9
ATOM      9  C   UNL d   1       2.430   0.354  -0.273  0.00  0.00     0.083 C 
ATOM     10  C   UNL d   1       2.690   0.525  -1.635  0.00  0.00     0.163 C 
ATOM     11  N   UNL d   1       3.829   1.119  -2.107  0.00  0.00    -0.346 N 
ATOM     12  C   UNL d   1       4.778   1.469  -1.222  0.00  0.00     0.090 C 
ATOM     13  HN  UNL d   1       3.954   1.292  -3.104  1.00  0.00     0.167 HD
ATOM     14  C   UNL d   1       4.676   1.207   0.124  0.00  0.00     0.018 C 
ATOM     15  C   UNL d   1       3.510   0.604   0.586  0.00  0.00     0.023 C 
BRANCH  10  16
ATOM     16  O   UNL d   1       1.800   0.071  -2.597  0.00  0.00    -0.293 OA
BRANCH  16  17
ATOM     17  C   UNL d   1       2.363  -0.418  -3.764  0.00  0.00     0.077 A 
ATOM     18  C   UNL d   1       3.402  -1.360  -3.769  0.00  0.00     0.039 A 
ATOM     19  C   UNL d   1       3.946  -1.808  -4.978  0.00  0.00     0.026 A 
ATOM     20  C   UNL d   1       3.429  -1.336  -6.184  0.00  0.00     0.034 A 
ATOM     21  C   UNL d   1       2.371  -0.428  -6.188  0.00  0.00     0.026 A 
ATOM     22 CL   UNL d   1       4.103  -1.881  -7.672  0.00  0.00    -0.084 Cl
ATOM     23  C   UNL d   1       1.832   0.026  -4.980  0.00  0.00     0.039 A 
ENDBRANCH  16  17
ENDBRANCH  10  16
ENDBRANCH   1   9
BRANCH   3  24
ATOM     24  C   UNL d   1      -1.880   2.676   3.620  0.00  0.00     0.147 A 
ATOM     25  C   UNL d   1      -2.957   2.492   4.683  0.00  0.00    -0.020 A 
ATOM     26  C   UNL d   1      -4.212   2.296   4.072  0.00  0.00    -0.017 A 
ATOM     27  C   UNL d   1      -2.805   2.500   6.062  0.00  0.00     0.010 A 
ATOM     28  C   UNL d   1      -5.331   2.060   4.851  0.00  0.00     0.013 A 
ATOM     29  C   UNL d   1      -4.051   2.383   2.634  0.00  0.00    -0.017 A 
ATOM     30  C   UNL d   1      -5.183   2.037   6.244  0.00  0.00     0.001 A 
ATOM     31  C   UNL d   1      -3.934   2.265   6.845  0.00  0.00     0.001 A 
ATOM     32  C   UNL d   1      -2.690   2.630   2.334  0.00  0.00    -0.020 A 
ATOM     33  C   UNL d   1      -4.982   2.268   1.617  0.00  0.00     0.013 A 
ATOM     34  C   UNL d   1      -2.259   2.807   1.028  0.00  0.00     0.010 A 
ATOM     35  C   UNL d   1      -3.198   2.675   0.001  0.00  0.00     0.001 A 
ATOM     36  C   UNL d   1      -4.545   2.403   0.297  0.00  0.00     0.001 A 
ENDBRANCH   3  24
TORSDOF 4
