REMARK  3 active torsions:
REMARK  status: ('A' for Active; 'I' for Inactive)
REMARK    1  A    between atoms: C_8  and  C_2 
REMARK       I    between atoms: C_5  and  N_9 
REMARK       I    between atoms: N_11  and  C_5 
REMARK    2  A    between atoms: N_9  and  C_14 
REMARK    3  A    between atoms: C_14  and  C_15 
ROOT
ATOM      1  C   UNL d   1       2.425  -1.693   0.039  0.00  0.00    -0.008 A 
ATOM      2  C   UNL d   1       2.564  -2.602  -1.019  0.00  0.00     0.014 A 
ATOM      3  C   UNL d   1       3.435  -1.635   1.010  0.00  0.00     0.014 A 
ATOM      4  C   UNL d   1       4.715  -3.340  -0.163  0.00  0.00    -0.040 A 
ATOM      5  C   UNL d   1       3.696  -3.419  -1.118  0.00  0.00     0.010 A 
ATOM      6  C   UNL d   1       4.567  -2.452   0.911  0.00  0.00     0.010 A 
ENDROOT
BRANCH   4   7
ATOM      7  C   UNL d   1       5.944  -4.205  -0.271  0.00  0.00     0.162 C 
BRANCH   7   8
ATOM      8  N   UNL d   1       5.762  -5.476   0.388  0.00  0.00    -0.339 N 
ATOM      9  C   UNL d   1       6.810  -6.360   0.407  0.00  0.00     0.315 C 
ATOM     10  O   UNL d   1       7.865  -6.177  -0.184  0.00  0.00    -0.247 OA
ATOM     11  N   UNL d   1       6.532  -7.458   1.176  0.00  0.00    -0.347 N 
ATOM     12  C   UNL d   1       7.466  -8.553   1.298  0.00  0.00     0.151 C 
ATOM     13  H   UNL d   1       5.559  -7.648   1.359  0.00  0.00     0.163 HD
ATOM     14  H   UNL d   1       5.158  -5.492   1.195  0.00  0.00     0.164 HD
ENDBRANCH   7   8
ENDBRANCH   4   7
BRANCH   1  15
ATOM     15  C   UNL d   1       1.240  -0.846   0.114  0.00  0.00     0.063 A 
ATOM     16  N   UNL d   1       0.037  -1.237  -0.468  0.00  0.00    -0.292 N 
ATOM     17  N   UNL d   1      -0.916  -0.337  -0.293  0.00  0.00    -0.061 NA
ATOM     18  HN  UNL d   1      -0.094  -2.115  -0.971  1.00  0.00     0.183 HD
ATOM     19  S   UNL d   1      -0.394   1.005   0.555  0.00  0.00    -0.010 SA
ATOM     20  C   UNL d   1       1.201   0.396   0.727  0.00  0.00     0.096 A 
ENDBRANCH   1  15
TORSDOF 3
