REMARK  4 active torsions:
REMARK  status: ('A' for Active; 'I' for Inactive)
REMARK    1  A    between atoms: N_16  and  N_9 
REMARK    2  A    between atoms: C_18  and  C_10 
REMARK    3  A    between atoms: C_24  and  C_14 
REMARK    4  A    between atoms: C_26  and  C_21 
ROOT
ATOM      1  C   UNL d   1       1.076   0.736   0.010  0.00  0.00     0.175 A 
ATOM      2  C   UNL d   1       0.767  -0.592   0.025  0.00  0.00     0.088 A 
ATOM      3  C   UNL d   1      -0.636  -0.721   0.012  0.00  0.00     0.058 A 
ATOM      4  C   UNL d   1       2.412   1.258   0.034  0.00  0.00     0.303 A 
ATOM      5  C   UNL d   1      -1.107   0.600  -0.003  0.00  0.00     0.162 A 
ATOM      6  O   UNL d   1      -0.057   1.486  -0.015  0.00  0.00    -0.285 OA
ATOM      7  N   UNL d   1       1.741  -1.593   0.058  0.00  0.00    -0.347 N 
ATOM      8  HN  UNL d   1       1.522  -2.589   0.037  1.00  0.00     0.167 HD
ATOM      9  N   UNL d   1       3.351   0.206   0.157  0.00  0.00    -0.214 N 
ATOM     10  C   UNL d   1      -1.602  -1.739   0.038  0.00  0.00     0.017 A 
ATOM     11  N   UNL d   1      -2.391   1.006   0.003  0.00  0.00    -0.335 N 
ATOM     12  HN  UNL d   1      -2.656   1.991  -0.012  1.00  0.00     0.168 HD
ATOM     13  C   UNL d   1       2.952  -1.129   0.116  0.00  0.00     0.211 A 
ATOM     14  C   UNL d   1      -3.301   0.003   0.032  0.00  0.00     0.045 A 
ATOM     15  C   UNL d   1      -2.945  -1.347   0.062  0.00  0.00     0.045 A 
ATOM     16  O   UNL d   1       2.686   2.452  -0.064  0.00  0.00    -0.263 OA
ENDROOT
BRANCH   9  17
ATOM     17  N   UNL d   1       4.727   0.385   0.215  0.00  0.00    -0.301 N 
ATOM     18  C   UNL d   1       5.184   1.454   0.782  0.00  0.00     0.119 C 
ATOM     19  HN  UNL d   1       5.361  -0.309  -0.181  1.00  0.00     0.186 HD
BRANCH  18  20
ATOM     20  C   UNL d   1       6.636   1.711   0.896  0.00  0.00    -0.019 A 
ATOM     21  C   UNL d   1       7.583   0.823   0.370  0.00  0.00     0.016 A 
ATOM     22  C   UNL d   1       8.944   1.086   0.540  0.00  0.00     0.043 A 
ATOM     23  C   UNL d   1       9.343   2.227   1.230  0.00  0.00     0.116 A 
ATOM     24  C   UNL d   1       8.409   3.117   1.749  0.00  0.00     0.043 A 
ATOM     25  F   UNL d   1      10.649   2.471   1.404  0.00  0.00    -0.206 F 
ATOM     26  C   UNL d   1       7.048   2.862   1.581  0.00  0.00     0.016 A 
ENDBRANCH  18  20
ENDBRANCH   9  17
BRANCH  10  27
ATOM     27  C   UNL d   1      -1.220  -3.139   0.062  0.00  0.00     0.086 A 
ATOM     28  O   UNL d   1      -2.070  -3.967   0.747  0.00  0.00    -0.322 OA
ATOM     29  C   UNL d   1      -1.552  -5.219   0.687  0.00  0.00     0.142 A 
ATOM     30  C   UNL d   1      -0.387  -5.226  -0.038  0.00  0.00     0.027 A 
ATOM     31  C   UNL d   1      -0.186  -3.889  -0.462  0.00  0.00     0.040 A 
ENDBRANCH  10  27
BRANCH  14  32
ATOM     32  C   UNL d   1      -4.728   0.413   0.061  0.00  0.00    -0.009 A 
ATOM     33  C   UNL d   1      -5.738  -0.378  -0.525  0.00  0.00     0.013 A 
ATOM     34  C   UNL d   1      -7.090  -0.031  -0.431  0.00  0.00     0.001 A 
ATOM     35  C   UNL d   1      -7.464   1.127   0.239  0.00  0.00     0.000 A 
ATOM     36  C   UNL d   1      -6.487   1.946   0.799  0.00  0.00     0.001 A 
ATOM     37  C   UNL d   1      -5.135   1.594   0.706  0.00  0.00     0.013 A 
ENDBRANCH  14  32
TORSDOF 4
