REMARK  4 active torsions:
REMARK  status: ('A' for Active; 'I' for Inactive)
REMARK    1  A    between atoms: N_2  and  C_1 
REMARK    2  A    between atoms: N_3  and  C_1 
REMARK    3  A    between atoms: C_6  and  N_2 
REMARK    4  A    between atoms: C_5  and  N_3 
ROOT
ATOM      1  C   UNL d   1       0.740  -0.480   0.376  0.00  0.00     0.168 C 
ATOM      2  S   UNL d   1       2.296  -1.056   0.265  0.00  0.00    -0.041 SA
ENDROOT
BRANCH   1   3
ATOM      3  N   UNL d   1       0.376   0.829   0.627  0.00  0.00    -0.363 N 
ATOM      4  H   UNL d   1      -0.549   1.054   0.291  0.00  0.00     0.162 HD
BRANCH   3   5
ATOM      5  C   UNL d   1       1.226   1.984   0.953  0.00  0.00     0.083 C 
ATOM      6  C   UNL d   1       0.344   3.115   1.513  0.00  0.00     0.025 C 
ATOM      7  C   UNL d   1      -0.531   3.772   0.440  0.00  0.00     0.002 C 
ATOM      8  C   UNL d   1       0.280   4.234  -0.767  0.00  0.00     0.000 C 
ATOM      9  C   UNL d   1       1.168   3.127  -1.324  0.00  0.00     0.002 C 
ATOM     10  C   UNL d   1       2.044   2.511  -0.236  0.00  0.00     0.025 C 
ENDBRANCH   3   5
ENDBRANCH   1   3
BRANCH   1  11
ATOM     11  N   UNL d   1      -0.408  -1.233   0.219  0.00  0.00    -0.363 N 
ATOM     12  H   UNL d   1      -1.215  -0.873   0.707  0.00  0.00     0.162 HD
BRANCH  11  13
ATOM     13  C   UNL d   1      -0.525  -2.594  -0.284  0.00  0.00     0.083 C 
ATOM     14  C   UNL d   1      -1.988  -2.956  -0.552  0.00  0.00     0.025 C 
ATOM     15  C   UNL d   1      -2.008  -4.479  -0.625  0.00  0.00     0.002 C 
ATOM     16  C   UNL d   1      -0.735  -4.948   0.079  0.00  0.00     0.002 C 
ATOM     17  C   UNL d   1      -0.110  -3.697   0.690  0.00  0.00     0.025 C 
ENDBRANCH  11  13
ENDBRANCH   1  11
TORSDOF 4
