REMARK  8 active torsions:
REMARK  status: ('A' for Active; 'I' for Inactive)
REMARK    1  A    between atoms: C_4  and  C_1 
REMARK    2  A    between atoms: O_26  and  C_2 
REMARK    3  A    between atoms: O_15  and  C_4 
REMARK    4  A    between atoms: C_6  and  C_8 
REMARK    5  A    between atoms: C_7  and  C_9 
REMARK    6  A    between atoms: C_11  and  C_12 
REMARK    7  A    between atoms: N_28  and  C_12 
REMARK    8  A    between atoms: N_13  and  O_15 
ROOT
ATOM      1  C   UNL d   1       0.738  -5.142   0.120  0.00  0.00     0.109 C 
ATOM      2  N   UNL d   1       1.306  -3.991   0.333  0.00  0.00    -0.246 N 
ATOM      3  HN  UNL d   1       2.261  -3.866   0.669  1.00  0.00     0.196 HD
ENDROOT
BRANCH   1   4
ATOM      4  C   UNL d   1       1.524  -6.393   0.388  0.00  0.00     0.005 A 
ATOM      5  C   UNL d   1       2.609  -6.373   1.272  0.00  0.00     0.031 A 
ATOM      6  C   UNL d   1       3.307  -7.556   1.575  0.00  0.00     0.049 A 
ATOM      7  C   UNL d   1       2.908  -8.759   0.965  0.00  0.00     0.032 A 
ATOM      8  C   UNL d   1       1.832  -8.793   0.065  0.00  0.00     0.049 A 
ATOM      9  C   UNL d   1       1.152  -7.598  -0.224  0.00  0.00     0.031 A 
BRANCH   6  10
ATOM     10  C   UNL d   1       4.452  -7.527   2.561  0.00  0.00     0.417 C 
ATOM     11  F   UNL d   1       5.001  -8.754   2.784  0.00  0.00    -0.166 F 
ATOM     12  F   UNL d   1       5.476  -6.728   2.155  0.00  0.00    -0.166 F 
ATOM     13  F   UNL d   1       4.070  -7.065   3.784  0.00  0.00    -0.166 F 
ENDBRANCH   6  10
BRANCH   8  14
ATOM     14  C   UNL d   1       1.386 -10.082  -0.583  0.00  0.00     0.417 C 
ATOM     15  F   UNL d   1       2.058 -11.178  -0.134  0.00  0.00    -0.166 F 
ATOM     16  F   UNL d   1       0.066 -10.337  -0.360  0.00  0.00    -0.166 F 
ATOM     17  F   UNL d   1       1.543 -10.069  -1.934  0.00  0.00    -0.166 F 
ENDBRANCH   8  14
ENDBRANCH   1   4
BRANCH   1  18
ATOM     18  N   UNL d   1      -0.561  -5.270  -0.320  0.00  0.00    -0.286 NA
ATOM     19  H   UNL d   1      -1.085  -6.044   0.074  0.00  0.00     0.125 HD
ATOM     20  H   UNL d   1      -1.076  -4.397  -0.254  0.00  0.00     0.125 HD
ENDBRANCH   1  18
BRANCH   2  21
ATOM     21  O   UNL d   1       0.412  -2.936   0.035  0.00  0.00    -0.193 OA
BRANCH  21  22
ATOM     22  C   UNL d   1       1.003  -1.700   0.210  0.00  0.00     0.325 C 
ATOM     23  O   UNL d   1       2.162  -1.518   0.577  0.00  0.00    -0.257 OA
BRANCH  22  24
ATOM     24  C   UNL d   1       0.044  -0.642  -0.100  0.00  0.00     0.116 A 
ATOM     25  C   UNL d   1       0.303   0.683  -0.433  0.00  0.00     0.109 A 
ATOM     26  C   UNL d   1      -0.911   1.414  -0.645  0.00  0.00     0.052 A 
ATOM     27 BR   UNL d   1      -1.080   3.218  -1.195  0.00  0.00    -0.048 Br
ATOM     28  C   UNL d   1      -2.036   0.647  -0.455  0.00  0.00     0.072 A 
ATOM     29  S   UNL d   1      -1.649  -0.954  -0.031  0.00  0.00    -0.092 SA
BRANCH  25  30
ATOM     30  O   UNL d   1       1.599   1.055  -0.606  0.00  0.00    -0.353 OA
ATOM     31  C   UNL d   1       1.930   2.390  -0.264  0.00  0.00     0.210 C 
ENDBRANCH  25  30
ENDBRANCH  22  24
ENDBRANCH  21  22
ENDBRANCH   2  21
TORSDOF 8
