REMARK  9 active torsions:
REMARK  status: ('A' for Active; 'I' for Inactive)
REMARK       I    between atoms: N_5  and  C_1 
REMARK    1  A    between atoms: C_12  and  C_1 
REMARK    2  A    between atoms: O_11  and  C_4 
REMARK    3  A    between atoms: C_17  and  N_5 
REMARK    4  A    between atoms: C_6  and  C_14 
REMARK    5  A    between atoms: O_21  and  C_6 
REMARK    6  A    between atoms: C_7  and  C_12 
REMARK    7  A    between atoms: C_14  and  C_7 
REMARK    8  A    between atoms: C_8  and  C_9 
REMARK    9  A    between atoms: C_19  and  O_11 
ROOT
ATOM      1  N   UNL d   1       0.805  -4.407   2.574  0.00  0.00    -0.344 N 
ATOM      2  HN  UNL d   1       0.654  -5.402   2.407  1.00  0.00     0.167 HD
ATOM      3  C   UNL d   1       1.585  -3.970   3.583  0.00  0.00     0.148 A 
ATOM      4  C   UNL d   1       0.413  -2.083   1.946  0.00  0.00     0.050 A 
ATOM      5  C   UNL d   1       0.230  -3.458   1.788  0.00  0.00     0.119 A 
ATOM      6  C   UNL d   1       1.815  -2.625   3.837  0.00  0.00     0.059 A 
ATOM      7  C   UNL d   1       1.218  -1.673   3.009  0.00  0.00     0.035 A 
ENDROOT
BRANCH   4   8
ATOM      8  N   UNL d   1      -0.090  -1.095   1.069  0.00  0.00    -0.326 N 
ATOM      9  C   UNL d   1      -1.001  -1.304   0.048  0.00  0.00     0.222 C 
ATOM     10  O   UNL d   1      -1.674  -2.317  -0.086  0.00  0.00    -0.273 OA
ATOM     11  H   UNL d   1       0.229  -0.145   1.223  0.00  0.00     0.169 HD
BRANCH   9  12
ATOM     12  C   UNL d   1      -1.044  -0.157  -0.963  0.00  0.00     0.112 C 
BRANCH  12  13
ATOM     13  C   UNL d   1      -2.417   0.119  -1.636  0.00  0.00    -0.030 C 
ATOM     14  C   UNL d   1      -2.248   1.299  -2.621  0.00  0.00     0.016 C 
ATOM     15  C   UNL d   1      -2.883  -1.087  -2.485  0.00  0.00     0.016 C 
BRANCH  13  16
ATOM     16  C   UNL d   1      -3.532   0.427  -0.602  0.00  0.00     0.119 C 
BRANCH  16  17
ATOM     17  C   UNL d   1      -3.275   1.581   0.347  0.00  0.00     0.140 C 
ATOM     18  O   UNL d   1      -2.321   2.339   0.313  0.00  0.00    -0.650 OA
BRANCH  17  19
ATOM     19  O   UNL d   1      -4.244   1.692   1.286  0.00  0.00    -0.776 OA
ATOM     20  H   UNL d   1      -4.944   1.015   1.213  0.00  0.00     0.167 HD
ENDBRANCH  17  19
ENDBRANCH  16  17
ENDBRANCH  13  16
ENDBRANCH  12  13
ENDBRANCH   9  12
ENDBRANCH   4   8
BRANCH   3  21
ATOM     21  O   UNL d   1       2.311  -4.868   4.356  0.00  0.00    -0.294 OA
BRANCH  21  22
ATOM     22  C   UNL d   1       1.825  -6.140   4.548  0.00  0.00     0.077 A 
ATOM     23  C   UNL d   1       2.768  -7.165   4.614  0.00  0.00     0.038 A 
ATOM     24  C   UNL d   1       2.372  -8.475   4.916  0.00  0.00     0.011 A 
ATOM     25  C   UNL d   1       1.025  -8.792   5.178  0.00  0.00    -0.050 A 
ATOM     26  C   UNL d   1       0.096  -7.739   5.110  0.00  0.00     0.011 A 
ATOM     27  C   UNL d   1       0.489  -6.429   4.808  0.00  0.00     0.038 A 
BRANCH  25  28
ATOM     28  C   UNL d   1       0.619 -10.236   5.530  0.00  0.00    -0.024 C 
ATOM     29  C   UNL d   1      -0.892 -10.405   5.810  0.00  0.00     0.019 C 
ATOM     30  C   UNL d   1       0.976 -11.182   4.363  0.00  0.00     0.019 C 
ATOM     31  C   UNL d   1       1.369 -10.699   6.799  0.00  0.00     0.019 C 
ENDBRANCH  25  28
ENDBRANCH  21  22
ENDBRANCH   3  21
TORSDOF 9
