REMARK  6 active torsions:
REMARK  status: ('A' for Active; 'I' for Inactive)
REMARK    1  A    between atoms: C_2  and  S_1 
REMARK    2  A    between atoms: N_3  and  S_1 
REMARK    3  A    between atoms: O_20  and  C_11 
REMARK    4  A    between atoms: O_22  and  C_12 
REMARK    5  A    between atoms: O_21  and  C_13 
REMARK    6  A    between atoms: O_23  and  C_18 
ROOT
ATOM      1  N   UNL d   1       0.226   0.763  -2.314  0.00  0.00    -0.302 N 
ATOM      2  C   UNL d   1       0.119   2.290  -4.311  0.00  0.00    -0.030 A 
ATOM      3  C   UNL d   1      -0.373   1.984  -2.906  0.00  0.00     0.174 C 
ATOM      4  C   UNL d   1       0.464   1.219  -5.146  0.00  0.00    -0.046 A 
ATOM      5  C   UNL d   1       0.217   3.602  -4.807  0.00  0.00     0.049 A 
ATOM      6  C   UNL d   1       0.673   3.850  -6.117  0.00  0.00     0.102 A 
ATOM      7  C   UNL d   1       0.979   2.756  -6.952  0.00  0.00     0.102 A 
ATOM      8  C   UNL d   1       0.868   1.454  -6.458  0.00  0.00     0.047 A 
ATOM      9  C   UNL d   1       1.052  -0.105  -3.175  0.00  0.00     0.140 C 
ATOM     10  C   UNL d   1       0.440  -0.171  -4.575  0.00  0.00     0.060 C 
ENDROOT
BRANCH   1  11
ATOM     11  S   UNL d   1       0.292   0.584  -0.647  0.00  0.00     0.264 S 
ATOM     12  O   UNL d   1      -0.845   1.298  -0.109  0.00  0.00    -0.200 OA
ATOM     13  O   UNL d   1       0.499  -0.829  -0.395  0.00  0.00    -0.200 OA
BRANCH  11  14
ATOM     14  C   UNL d   1       1.734   1.446  -0.067  0.00  0.00     0.115 A 
ATOM     15  C   UNL d   1       2.402   2.343  -0.921  0.00  0.00     0.065 A 
ATOM     16  C   UNL d   1       3.534   3.034  -0.488  0.00  0.00     0.069 A 
ATOM     17  C   UNL d   1       4.004   2.828   0.806  0.00  0.00     0.039 A 
ATOM     18  C   UNL d   1       3.363   1.921   1.653  0.00  0.00     0.041 A 
ATOM     19  C   UNL d   1       2.220   1.231   1.231  0.00  0.00     0.091 A 
BRANCH  16  20
ATOM     20  O   UNL d   1       4.262   3.924  -1.229  0.00  0.00    -0.356 OA
ATOM     21  C   UNL d   1       3.885   4.100  -2.591  0.00  0.00     0.210 C 
ENDBRANCH  16  20
BRANCH  19  22
ATOM     22  O   UNL d   1       1.779   0.296   2.126  0.00  0.00    -0.354 OA
ATOM     23  C   UNL d   1       0.432   0.444   2.570  0.00  0.00     0.210 C 
ENDBRANCH  19  22
ENDBRANCH  11  14
ENDBRANCH   1  11
BRANCH   6  24
ATOM     24  O   UNL d   1       0.867   5.104  -6.627  0.00  0.00    -0.353 OA
ATOM     25  C   UNL d   1       0.579   6.235  -5.821  0.00  0.00     0.210 C 
ENDBRANCH   6  24
BRANCH   7  26
ATOM     26  O   UNL d   1       1.431   2.767  -8.246  0.00  0.00    -0.353 OA
ATOM     27  C   UNL d   1       1.318   3.962  -9.001  0.00  0.00     0.210 C 
ENDBRANCH   7  26
TORSDOF 6
