REMARK  10 active torsions:
REMARK  status: ('A' for Active; 'I' for Inactive)
REMARK    1  A    between atoms: S_4  and  C_1 
REMARK    2  A    between atoms: S_5  and  C_1 
REMARK    3  A    between atoms: C_10  and  C_1 
REMARK    4  A    between atoms: C_2  and  C_8 
REMARK    5  A    between atoms: O_12  and  C_2 
REMARK    6  A    between atoms: C_3  and  C_9 
REMARK    7  A    between atoms: O_11  and  C_3 
REMARK    8  A    between atoms: C_8  and  S_4 
REMARK    9  A    between atoms: C_9  and  S_5 
REMARK   10  A    between atoms: C_14  and  C_10 
ROOT
ATOM      1  C   UNL d   1       1.090   0.056  -0.168  0.00  0.00     0.053 C 
ATOM      2  C   UNL d   1       2.604  -0.157   0.015  0.00  0.00     0.039 C 
ENDROOT
BRANCH   1   3
ATOM      3  S   UNL d   1       0.371   0.891   1.321  0.00  0.00    -0.138 SA
BRANCH   3   4
ATOM      4  C   UNL d   1       0.781  -0.324   2.639  0.00  0.00     0.185 C 
BRANCH   4   5
ATOM      5  C   UNL d   1       0.314   0.109   4.016  0.00  0.00     0.149 C 
ATOM      6  O   UNL d   1       0.501  -0.572   5.017  0.00  0.00    -0.649 OA
BRANCH   5   7
ATOM      7  O   UNL d   1      -0.321   1.298   4.071  0.00  0.00    -0.776 OA
ATOM      8  H   UNL d   1      -0.385   1.702   3.178  0.00  0.00     0.167 HD
ENDBRANCH   5   7
ENDBRANCH   4   5
ENDBRANCH   3   4
ENDBRANCH   1   3
BRANCH   1   9
ATOM      9  S   UNL d   1       0.850   1.116  -1.673  0.00  0.00    -0.138 SA
BRANCH   9  10
ATOM     10  C   UNL d   1       1.717   2.671  -1.263  0.00  0.00     0.185 C 
BRANCH  10  11
ATOM     11  C   UNL d   1       1.598   3.675  -2.400  0.00  0.00     0.149 C 
ATOM     12  O   UNL d   1       2.120   4.784  -2.362  0.00  0.00    -0.649 OA
BRANCH  11  13
ATOM     13  O   UNL d   1       0.874   3.266  -3.467  0.00  0.00    -0.776 OA
ATOM     14  H   UNL d   1       0.534   2.355  -3.322  0.00  0.00     0.167 HD
ENDBRANCH  11  13
ENDBRANCH  10  11
ENDBRANCH   9  10
ENDBRANCH   1   9
BRANCH   1  15
ATOM     15  C   UNL d   1       0.412  -1.320  -0.457  0.00  0.00     0.035 C 
BRANCH  15  16
ATOM     16  C   UNL d   1      -1.138  -1.444  -0.525  0.00  0.00    -0.020 C 
ATOM     17  C   UNL d   1      -1.809  -0.669  -1.661  0.00  0.00     0.009 C 
ATOM     18  C   UNL d   1      -1.505  -2.928  -0.684  0.00  0.00     0.009 C 
ENDBRANCH  15  16
ENDBRANCH   1  15
TORSDOF 10
