REMARK  4 active torsions:
REMARK  status: ('A' for Active; 'I' for Inactive)
REMARK       I    between atoms: N_3  and  C_1 
REMARK       I    between atoms: N_5  and  C_1 
REMARK    1  A    between atoms: C_2  and  N_3 
REMARK    2  A    between atoms: C_13  and  N_5 
REMARK       I    between atoms: C_6  and  N_7 
REMARK    3  A    between atoms: N_7  and  C_14 
REMARK    4  A    between atoms: O_21  and  C_8 
ROOT
ATOM      1  C   UNL d   1       1.019  -0.059  -0.173  0.00  0.00     0.325 C 
ATOM      2  N   UNL d   1       2.360  -0.369  -0.002  0.00  0.00    -0.306 N 
ATOM      3  N   UNL d   1       0.220  -1.181  -0.030  0.00  0.00    -0.309 N 
ATOM      4  O   UNL d   1       0.603   1.056  -0.458  0.00  0.00    -0.247 OA
ATOM      5  H   UNL d   1       2.606  -1.339   0.097  0.00  0.00     0.171 HD
ATOM      6  H   UNL d   1       0.680  -2.046   0.202  0.00  0.00     0.170 HD
ENDROOT
BRANCH   2   7
ATOM      7  C   UNL d   1       3.448   0.527  -0.145  0.00  0.00     0.071 A 
ATOM      8  C   UNL d   1       3.281   1.916  -0.078  0.00  0.00     0.056 A 
ATOM      9  C   UNL d   1       4.373   2.775  -0.205  0.00  0.00     0.036 A 
ATOM     10 CL   UNL d   1       4.143   4.476  -0.066  0.00  0.00    -0.084 Cl
ATOM     11  C   UNL d   1       5.650   2.267  -0.417  0.00  0.00     0.026 A 
ATOM     12  C   UNL d   1       5.838   0.884  -0.467  0.00  0.00     0.041 A 
ATOM     13  C   UNL d   1       4.748   0.016  -0.328  0.00  0.00     0.095 A 
BRANCH  13  14
ATOM     14  O   UNL d   1       5.055  -1.320  -0.262  0.00  0.00    -0.354 OA
ATOM     15  C   UNL d   1       4.520  -2.109  -1.323  0.00  0.00     0.210 C 
ENDBRANCH  13  14
ENDBRANCH   2   7
BRANCH   3  16
ATOM     16  C   UNL d   1      -1.186  -1.243  -0.164  0.00  0.00     0.036 A 
ATOM     17  C   UNL d   1      -1.998  -0.141  -0.425  0.00  0.00     0.032 A 
ATOM     18  C   UNL d   1      -3.389  -0.281  -0.516  0.00  0.00     0.032 A 
ATOM     19  C   UNL d   1      -3.996  -1.528  -0.349  0.00  0.00     0.034 A 
ATOM     20  C   UNL d   1      -3.186  -2.636  -0.110  0.00  0.00     0.032 A 
ATOM     21  C   UNL d   1      -1.793  -2.494  -0.017  0.00  0.00     0.032 A 
BRANCH  19  22
ATOM     22  N   UNL d   1      -5.404  -1.571  -0.420  0.00  0.00    -0.328 N 
ATOM     23  C   UNL d   1      -6.218  -2.673  -0.263  0.00  0.00     0.218 C 
ATOM     24  O   UNL d   1      -5.863  -3.831  -0.066  0.00  0.00    -0.274 OA
ATOM     25  C   UNL d   1      -7.691  -2.337  -0.340  0.00  0.00     0.117 C 
ATOM     26  H   UNL d   1      -5.859  -0.682  -0.586  0.00  0.00     0.169 HD
ENDBRANCH  19  22
ENDBRANCH   3  16
TORSDOF 4
