REMARK  3 active torsions:
REMARK  status: ('A' for Active; 'I' for Inactive)
REMARK    1  A    between atoms: C_13  and  C_2 
REMARK    2  A    between atoms: C_10  and  C_15 
REMARK    3  A    between atoms: O_23  and  C_11 
ROOT
ATOM      1  N   UNL d   1       0.138   0.655  -0.015  0.00  0.00    -0.218 N 
ATOM      2  C   UNL d   1       1.439   1.125  -0.018  0.00  0.00     0.154 A 
ATOM      3  N   UNL d   1       2.256   0.086  -0.106  0.00  0.00    -0.282 N 
ATOM      4  HN  UNL d   1       3.273   0.133  -0.160  1.00  0.00     0.188 HD
ATOM      5  C   UNL d   1       0.242  -0.723  -0.054  0.00  0.00     0.143 A 
ATOM      6  N   UNL d   1      -1.020   1.389   0.004  0.00  0.00    -0.270 N 
ATOM      7  HN  UNL d   1      -1.047   2.409   0.013  1.00  0.00     0.190 HD
ATOM      8  N   UNL d   1       1.507  -1.071  -0.113  0.00  0.00    -0.282 N 
ATOM      9  HN  UNL d   1       1.869  -2.023  -0.156  1.00  0.00     0.188 HD
ATOM     10  C   UNL d   1      -2.072   0.643   0.007  0.00  0.00     0.157 A 
ATOM     11  C   UNL d   1      -0.955  -1.474  -0.033  0.00  0.00     0.056 A 
ATOM     12  C   UNL d   1      -2.130  -0.832  -0.001  0.00  0.00     0.061 A 
ENDROOT
BRANCH   2  13
ATOM     13  C   UNL d   1       1.842   2.533   0.035  0.00  0.00     0.011 A 
ATOM     14  C   UNL d   1       1.072   3.511   0.681  0.00  0.00     0.016 A 
ATOM     15  C   UNL d   1       1.482   4.846   0.713  0.00  0.00     0.017 A 
ATOM     16  C   UNL d   1       2.684   5.237   0.107  0.00  0.00     0.048 A 
ATOM     17  C   UNL d   1       3.466   4.262  -0.527  0.00  0.00     0.017 A 
ATOM     18  C   UNL d   1       3.050   2.926  -0.558  0.00  0.00     0.016 A 
BRANCH  16  19
ATOM     19  C   UNL d   1       3.112   6.683   0.151  0.00  0.00     0.417 C 
ATOM     20  F   UNL d   1       4.298   6.921  -0.474  0.00  0.00    -0.166 F 
ATOM     21  F   UNL d   1       2.206   7.511  -0.440  0.00  0.00    -0.166 F 
ATOM     22  F   UNL d   1       3.261   7.142   1.425  0.00  0.00    -0.166 F 
ENDBRANCH  16  19
ENDBRANCH   2  13
BRANCH  10  23
ATOM     23  O   UNL d   1      -3.330   1.142   0.024  0.00  0.00    -0.340 OA
ATOM     24  C   UNL d   1      -3.433   2.572   0.026  0.00  0.00     0.211 C 
ENDBRANCH  10  23
TORSDOF 3
