REMARK  1 active torsions:
REMARK  status: ('A' for Active; 'I' for Inactive)
REMARK    1  A    between atoms: C_17  and  C_9 
ROOT
ATOM      1  C   UNL d   1       2.302  -0.710   0.112  0.00  0.00     0.167 A 
ATOM      2  C   UNL d   1       3.577  -1.333  -0.131  0.00  0.00     0.076 A 
ATOM      3  N   UNL d   1       2.259   0.437   0.707  0.00  0.00    -0.335 N 
ATOM      4  HN  UNL d   1       3.111   0.921   0.990  1.00  0.00     0.168 HD
ATOM      5  O   UNL d   1       1.242  -1.431  -0.318  0.00  0.00    -0.256 OA
ATOM      6  N   UNL d   1       5.261  -2.595  -0.996  0.00  0.00    -0.259 N 
ATOM      7  HN  UNL d   1       5.797  -3.232  -1.586  1.00  0.00     0.195 HD
ATOM      8  C   UNL d   1      -0.006  -0.944  -0.160  0.00  0.00     0.302 A 
ATOM      9  C   UNL d   1       4.008  -2.161  -1.215  0.00  0.00     0.082 A 
ATOM     10  C   UNL d   1      -0.154   0.326   0.558  0.00  0.00     0.066 A 
ATOM     11  C   UNL d   1       1.004   0.984   0.946  0.00  0.00     0.052 A 
ATOM     12  O   UNL d   1       5.680  -2.012   0.178  0.00  0.00    -0.241 OA
ATOM     13  C   UNL d   1       4.686  -1.245   0.686  0.00  0.00     0.089 A 
ATOM     14  C   UNL d   1       0.903   2.207   1.612  0.00  0.00     0.054 A 
ATOM     15  C   UNL d   1      -1.417   0.851   0.850  0.00  0.00     0.022 A 
ATOM     16  O   UNL d   1      -0.992  -1.532  -0.591  0.00  0.00    -0.259 OA
ATOM     17  C   UNL d   1      -0.353   2.735   1.914  0.00  0.00     0.036 A 
ATOM     18  C   UNL d   1      -1.515   2.059   1.541  0.00  0.00     0.025 A 
ATOM     19 CL   UNL d   1      -0.470   4.224   2.765  0.00  0.00    -0.084 Cl
ATOM     20  C   UNL d   1       4.981  -0.545   1.952  0.00  0.00     0.080 C 
ENDROOT
BRANCH   9  21
ATOM     21  C   UNL d   1       3.307  -2.514  -2.452  0.00  0.00    -0.006 A 
ATOM     22  C   UNL d   1       3.503  -3.768  -3.050  0.00  0.00     0.014 A 
ATOM     23  C   UNL d   1       2.859  -4.095  -4.246  0.00  0.00     0.001 A 
ATOM     24  C   UNL d   1       2.004  -3.177  -4.853  0.00  0.00     0.000 A 
ATOM     25  C   UNL d   1       1.800  -1.929  -4.273  0.00  0.00     0.001 A 
ATOM     26  C   UNL d   1       2.460  -1.593  -3.089  0.00  0.00     0.014 A 
ENDBRANCH   9  21
TORSDOF 1
