REMARK  7 active torsions:
REMARK  status: ('A' for Active; 'I' for Inactive)
REMARK    1  A    between atoms: C_9  and  C_1 
REMARK    2  A    between atoms: C_2  and  N_7 
REMARK    3  A    between atoms: N_11  and  C_5 
REMARK    4  A    between atoms: C_6  and  C_10 
REMARK       I    between atoms: C_8  and  N_12 
REMARK    5  A    between atoms: C_18  and  C_8 
REMARK    6  A    between atoms: O_31  and  C_9 
REMARK    7  A    between atoms: N_12  and  C_17 
ROOT
ATOM      1  C   UNL d   1      -2.583   2.794   0.268  0.00  0.00     0.226 C 
ATOM      2  N   UNL d   1      -1.256   2.371   0.197  0.00  0.00    -0.327 N 
ATOM      3  O   UNL d   1      -2.964   3.958   0.256  0.00  0.00    -0.273 OA
ATOM      4  H   UNL d   1      -1.111   1.368   0.164  0.00  0.00     0.169 HD
ENDROOT
BRANCH   1   5
ATOM      5  C   UNL d   1      -3.556   1.608   0.426  0.00  0.00     0.081 C 
ATOM      6  C   UNL d   1      -3.630   0.734  -0.836  0.00  0.00     0.034 C 
ATOM      7  C   UNL d   1      -4.759   1.133  -1.781  0.00  0.00     0.142 C 
ATOM      8  N   UNL d   1      -5.997   1.126  -1.018  0.00  0.00    -0.218 N 
ATOM      9  C   UNL d   1      -6.080   2.171  -0.009  0.00  0.00     0.142 C 
ATOM     10  C   UNL d   1      -4.936   1.994   1.001  0.00  0.00     0.034 C 
BRANCH   8  11
ATOM     11  C   UNL d   1      -7.141   0.797  -1.731  0.00  0.00     0.680 A 
ATOM     12  N   UNL d   1      -8.305   1.417  -1.470  0.00  0.00    -0.186 N 
ATOM     13  C   UNL d   1      -9.422   1.018  -2.133  0.00  0.00     0.133 A 
ATOM     14  HN  UNL d   1      -8.349   2.173  -0.787  1.00  0.00     0.184 HD
ATOM     15  C   UNL d   1      -9.403  -0.030  -3.038  0.00  0.00     0.052 A 
ATOM     16  C   UNL d   1      -8.181  -0.607  -3.245  0.00  0.00     0.108 A 
ATOM     17  N   UNL d   1      -7.057  -0.207  -2.622  0.00  0.00    -0.202 N 
ATOM     18  HN  UNL d   1      -6.163  -0.654  -2.821  1.00  0.00     0.183 HD
BRANCH  13  19
ATOM     19  C   UNL d   1     -10.745   1.723  -1.887  0.00  0.00     0.433 C 
ATOM     20  F   UNL d   1     -10.680   2.767  -1.014  0.00  0.00    -0.165 F 
ATOM     21  F   UNL d   1     -11.281   2.232  -3.036  0.00  0.00    -0.165 F 
ATOM     22  F   UNL d   1     -11.701   0.881  -1.390  0.00  0.00    -0.165 F 
ENDBRANCH  13  19
ENDBRANCH   8  11
ENDBRANCH   1   5
BRANCH   2  23
ATOM     23  C   UNL d   1      -0.073   3.145   0.236  0.00  0.00     0.035 A 
ATOM     24  C   UNL d   1      -0.031   4.533   0.349  0.00  0.00     0.050 A 
ATOM     25  C   UNL d   1       1.208   5.220   0.443  0.00  0.00     0.066 A 
ATOM     26  C   UNL d   1       2.443   4.528   0.367  0.00  0.00     0.047 A 
ATOM     27  C   UNL d   1       2.369   3.133   0.239  0.00  0.00     0.033 A 
ATOM     28  C   UNL d   1       1.142   2.454   0.186  0.00  0.00     0.032 A 
BRANCH  25  29
ATOM     29  C   UNL d   1       1.172   6.710   0.551  0.00  0.00     0.178 C 
ATOM     30  O   UNL d   1       1.912   7.478  -0.038  0.00  0.00    -0.646 OA
BRANCH  29  31
ATOM     31  O   UNL d   1       0.236   7.149   1.428  0.00  0.00    -0.773 OA
ATOM     32  H   UNL d   1      -0.265   6.454   1.893  0.00  0.00     0.167 HD
ENDBRANCH  29  31
ENDBRANCH  25  29
BRANCH  26  33
ATOM     33  N   UNL d   1       3.676   5.179   0.388  0.00  0.00    -0.376 N 
ATOM     34  C   UNL d   1       4.798   4.659  -0.419  0.00  0.00     0.149 C 
ATOM     35  C   UNL d   1       5.855   5.764  -0.592  0.00  0.00     0.187 C 
ATOM     36  O   UNL d   1       6.327   6.232   0.684  0.00  0.00    -0.388 OA
ATOM     37  C   UNL d   1       5.230   6.783   1.438  0.00  0.00     0.187 C 
ATOM     38  C   UNL d   1       4.130   5.731   1.683  0.00  0.00     0.149 C 
ENDBRANCH  26  33
ENDBRANCH   2  23
TORSDOF 7
