REMARK  3 active torsions:
REMARK  status: ('A' for Active; 'I' for Inactive)
REMARK    1  A    between atoms: C_6  and  N_2 
REMARK    2  A    between atoms: C_9  and  C_6 
REMARK    3  A    between atoms: C_12  and  C_9 
ROOT
ATOM      1  S   UNL d   1       0.909  -0.242   1.241  0.00  0.00     0.269 S 
ATOM      2  N   UNL d   1       1.170  -1.293  -0.032  0.00  0.00    -0.230 N 
ATOM      3  C   UNL d   1       0.155  -1.280  -1.012  0.00  0.00     0.269 A 
ATOM      4  C   UNL d   1      -0.912  -0.354  -0.580  0.00  0.00     0.056 A 
ATOM      5  C   UNL d   1      -0.623   0.290   0.616  0.00  0.00     0.095 A 
ATOM      6  O   UNL d   1       0.695  -0.994   2.454  0.00  0.00    -0.200 OA
ATOM      7  O   UNL d   1       1.855   0.846   1.142  0.00  0.00    -0.200 OA
ATOM      8  O   UNL d   1       0.179  -1.875  -2.072  0.00  0.00    -0.266 OA
ATOM      9  C   UNL d   1      -2.089  -0.078  -1.258  0.00  0.00     0.018 A 
ATOM     10  C   UNL d   1      -1.460   1.236   1.178  0.00  0.00     0.026 A 
ATOM     11  C   UNL d   1      -2.960   0.869  -0.707  0.00  0.00     0.001 A 
ATOM     12  C   UNL d   1      -2.645   1.524   0.501  0.00  0.00     0.002 A 
ENDROOT
BRANCH   2  13
ATOM     13  C   UNL d   1       2.381  -2.104  -0.040  0.00  0.00     0.229 C 
BRANCH  13  14
ATOM     14  C   UNL d   1       2.094  -3.585   0.131  0.00  0.00     0.178 C 
ATOM     15  O   UNL d   1       0.956  -4.055   0.100  0.00  0.00    -0.290 OA
BRANCH  14  16
ATOM     16  C   UNL d   1       3.254  -4.503   0.370  0.00  0.00     0.011 A 
ATOM     17  C   UNL d   1       4.583  -4.055   0.359  0.00  0.00     0.015 A 
ATOM     18  C   UNL d   1       5.625  -4.935   0.664  0.00  0.00     0.001 A 
ATOM     19  C   UNL d   1       5.352  -6.268   0.967  0.00  0.00     0.000 A 
ATOM     20  C   UNL d   1       4.038  -6.729   0.950  0.00  0.00     0.001 A 
ATOM     21  C   UNL d   1       2.993  -5.852   0.650  0.00  0.00     0.015 A 
ENDBRANCH  14  16
ENDBRANCH  13  14
ENDBRANCH   2  13
TORSDOF 3
