REMARK  5 active torsions:
REMARK  status: ('A' for Active; 'I' for Inactive)
REMARK    1  A    between atoms: N_8  and  C_2 
REMARK    2  A    between atoms: S_11  and  C_3 
REMARK    3  A    between atoms: N_12  and  C_10 
REMARK    4  A    between atoms: C_13  and  S_11 
REMARK    5  A    between atoms: C_15  and  C_13 
ROOT
ATOM      1  S   UNL d   1       1.123   0.027  -0.007  0.00  0.00    -0.026 SA
ATOM      2  C   UNL d   1      -0.128   1.225  -0.045  0.00  0.00     0.166 A 
ATOM      3  C   UNL d   1      -0.099  -1.165  -0.091  0.00  0.00     0.130 A 
ATOM      4  N   UNL d   1      -1.337   0.692  -0.100  0.00  0.00    -0.278 N 
ATOM      5  HN  UNL d   1      -2.194   1.244  -0.120  1.00  0.00     0.189 HD
ATOM      6  N   UNL d   1      -1.323  -0.689  -0.129  0.00  0.00    -0.286 N 
ATOM      7  HN  UNL d   1      -2.160  -1.268  -0.174  1.00  0.00     0.188 HD
ENDROOT
BRANCH   3   8
ATOM      8  S   UNL d   1       0.248  -2.880  -0.115  0.00  0.00    -0.099 SA
BRANCH   8   9
ATOM      9  C   UNL d   1      -1.269  -3.507  -0.890  0.00  0.00     0.120 C 
BRANCH   9  10
ATOM     10  C   UNL d   1      -1.274  -5.016  -0.976  0.00  0.00    -0.048 A 
ATOM     11  C   UNL d   1      -1.851  -5.782   0.051  0.00  0.00     0.011 A 
ATOM     12  C   UNL d   1      -1.865  -7.176  -0.028  0.00  0.00     0.043 A 
ATOM     13  C   UNL d   1      -1.296  -7.806  -1.127  0.00  0.00     0.116 A 
ATOM     14  C   UNL d   1      -0.708  -7.071  -2.148  0.00  0.00     0.043 A 
ATOM     15  F   UNL d   1      -1.314  -9.144  -1.203  0.00  0.00    -0.206 F 
ATOM     16  C   UNL d   1      -0.693  -5.675  -2.072  0.00  0.00     0.011 A 
ENDBRANCH   9  10
ENDBRANCH   8   9
ENDBRANCH   3   8
BRANCH   2  17
ATOM     17  N   UNL d   1       0.243   2.533  -0.028  0.00  0.00    -0.332 N 
ATOM     18  C   UNL d   1      -0.724   3.390  -0.020  0.00  0.00     0.179 C 
ATOM     19  HN  UNL d   1       1.222   2.820  -0.021  1.00  0.00     0.168 HD
BRANCH  18  20
ATOM     20  N   UNL d   1      -0.592   4.762  -0.012  0.00  0.00    -0.386 N 
ATOM     21  C   UNL d   1       0.708   5.413  -0.040  0.00  0.00     0.149 C 
ATOM     22  C   UNL d   1      -1.744   5.648  -0.008  0.00  0.00     0.149 C 
ENDBRANCH  18  20
ENDBRANCH   2  17
TORSDOF 5
