REMARK  2 active torsions:
REMARK  status: ('A' for Active; 'I' for Inactive)
REMARK    1  A    between atoms: C_2  and  N_1 
REMARK    2  A    between atoms: C_5  and  C_7 
ROOT
ATOM      1  C   UNL d   1      -0.020   2.329   0.057  0.00  0.00     0.068 A 
ATOM      2  C   UNL d   1       0.672   3.013  -0.959  0.00  0.00     0.048 A 
ATOM      3  C   UNL d   1       0.632   4.415  -1.053  0.00  0.00     0.050 A 
ATOM      4  C   UNL d   1      -0.714   3.078   1.024  0.00  0.00     0.061 A 
ATOM      5  C   UNL d   1      -0.070   5.139  -0.080  0.00  0.00     0.018 A 
ATOM      6  C   UNL d   1      -0.729   4.476   0.956  0.00  0.00     0.027 A 
ATOM      7 CL   UNL d   1      -1.432   2.359   2.426  0.00  0.00    -0.082 Cl
ENDROOT
BRANCH   1   8
ATOM      8  N   UNL d   1       0.003   0.916   0.074  0.00  0.00    -0.244 N 
ATOM      9  C   UNL d   1      -1.113   0.128   0.126  0.00  0.00     0.255 C 
ATOM     10  C   UNL d   1      -0.655  -1.266   0.069  0.00  0.00     0.080 C 
ATOM     11  O   UNL d   1      -2.293   0.428   0.096  0.00  0.00    -0.268 OA
ATOM     12  C   UNL d   1       0.665  -1.256  -0.108  0.00  0.00     0.080 C 
ATOM     13  C   UNL d   1       1.100   0.144  -0.166  0.00  0.00     0.255 C 
ATOM     14  O   UNL d   1       2.257   0.467  -0.378  0.00  0.00    -0.268 OA
ENDBRANCH   1   8
BRANCH   3  15
ATOM     15  C   UNL d   1       1.313   5.146  -2.187  0.00  0.00     0.417 C 
ATOM     16  F   UNL d   1       1.877   4.318  -3.109  0.00  0.00    -0.166 F 
ATOM     17  F   UNL d   1       0.451   5.940  -2.879  0.00  0.00    -0.166 F 
ATOM     18  F   UNL d   1       2.311   5.964  -1.753  0.00  0.00    -0.166 F 
ENDBRANCH   3  15
TORSDOF 2
