REMARK  5 active torsions:
REMARK  status: ('A' for Active; 'I' for Inactive)
REMARK    1  A    between atoms: C_14  and  C_3 
REMARK    2  A    between atoms: C_4  and  O_10 
REMARK    3  A    between atoms: C_5  and  C_4 
REMARK    4  A    between atoms: C_16  and  C_9 
REMARK    5  A    between atoms: O_10  and  C_16 
ROOT
ATOM      1  N   UNL d   1       1.085   0.412   0.008  0.00  0.00    -0.270 N 
ATOM      2  HN  UNL d   1       2.058   0.716  -0.039  1.00  0.00     0.194 HD
ATOM      3  C   UNL d   1       0.045   1.177  -0.067  0.00  0.00     0.045 C 
ATOM      4  O   UNL d   1       0.638  -0.916   0.168  0.00  0.00    -0.272 OA
ATOM      5  C   UNL d   1      -1.262   0.472   0.014  0.00  0.00     0.096 C 
ATOM      6  C   UNL d   1      -0.786  -0.964  -0.012  0.00  0.00     0.182 C 
ENDROOT
BRANCH   6   7
ATOM      7  C   UNL d   1      -1.404  -1.786   1.120  0.00  0.00     0.213 C 
BRANCH   7   8
ATOM      8  O   UNL d   1      -0.912  -3.137   1.140  0.00  0.00    -0.313 OA
BRANCH   8   9
ATOM      9  C   UNL d   1      -1.506  -4.011   0.280  0.00  0.00     0.317 C 
ATOM     10  O   UNL d   1      -2.389  -3.703  -0.512  0.00  0.00    -0.257 OA
BRANCH   9  11
ATOM     11  C   UNL d   1      -0.961  -5.338   0.457  0.00  0.00     0.149 A 
ATOM     12  O   UNL d   1       0.023  -5.561   1.387  0.00  0.00    -0.317 OA
ATOM     13  C   UNL d   1       0.336  -6.880   1.340  0.00  0.00     0.143 A 
ATOM     14  C   UNL d   1      -0.430  -7.524   0.398  0.00  0.00     0.027 A 
ATOM     15  C   UNL d   1      -1.265  -6.532  -0.172  0.00  0.00     0.045 A 
ENDBRANCH   9  11
ENDBRANCH   8   9
ENDBRANCH   7   8
ENDBRANCH   6   7
BRANCH   3  16
ATOM     16  C   UNL d   1       0.130   2.652  -0.192  0.00  0.00    -0.012 A 
ATOM     17  C   UNL d   1       1.389   3.262  -0.257  0.00  0.00     0.013 A 
ATOM     18  C   UNL d   1       1.494   4.649  -0.378  0.00  0.00     0.001 A 
ATOM     19  C   UNL d   1       0.342   5.433  -0.433  0.00  0.00     0.000 A 
ATOM     20  C   UNL d   1      -0.914   4.833  -0.358  0.00  0.00     0.001 A 
ATOM     21  C   UNL d   1      -1.022   3.445  -0.236  0.00  0.00     0.013 A 
ENDBRANCH   3  16
TORSDOF 5
