REMARK  3 active torsions:
REMARK  status: ('A' for Active; 'I' for Inactive)
REMARK    1  A    between atoms: C_8  and  C_1 
REMARK    2  A    between atoms: C_3  and  C_2 
REMARK    3  A    between atoms: C_15  and  C_6 
ROOT
ATOM      1  C   UNL d   1       0.429  -2.723   0.011  0.00  0.00     0.187 A 
ATOM      2  N   UNL d   1       1.253  -3.261   0.882  0.00  0.00    -0.318 N 
ATOM      3  HN  UNL d   1       1.762  -2.801   1.638  1.00  0.00     0.169 HD
ATOM      4  C   UNL d   1       1.267  -4.594   0.531  0.00  0.00     0.138 A 
ATOM      5  N   UNL d   1       0.504  -4.875  -0.535  0.00  0.00    -0.242 N 
ATOM      6  HN  UNL d   1       0.366  -5.777  -0.991  1.00  0.00     0.196 HD
ATOM      7  O   UNL d   1      -0.054  -3.649  -0.873  0.00  0.00    -0.217 OA
ENDROOT
BRANCH   1   8
ATOM      8  C   UNL d   1       0.048  -1.293   0.000  0.00  0.00     0.082 A 
ATOM      9  C   UNL d   1       0.571  -0.294   0.790  0.00  0.00     0.198 A 
ATOM     10  O   UNL d   1      -0.061   0.873   0.482  0.00  0.00    -0.232 OA
ATOM     11  N   UNL d   1      -0.996   0.656  -0.507  0.00  0.00    -0.264 N 
ATOM     12  C   UNL d   1      -0.933  -0.650  -0.797  0.00  0.00     0.046 A 
ATOM     13  HN  UNL d   1      -1.611   1.350  -0.932  1.00  0.00     0.194 HD
ATOM     14  C   UNL d   1      -1.859  -1.192  -1.821  0.00  0.00     0.071 C 
BRANCH   9  15
ATOM     15  C   UNL d   1       1.602  -0.168   1.838  0.00  0.00     0.442 C 
ATOM     16  F   UNL d   1       2.404  -1.251   1.970  0.00  0.00    -0.164 F 
ATOM     17  F   UNL d   1       2.431   0.883   1.595  0.00  0.00    -0.164 F 
ATOM     18  F   UNL d   1       1.046   0.056   3.058  0.00  0.00    -0.164 F 
ENDBRANCH   9  15
ENDBRANCH   1   8
BRANCH   4  19
ATOM     19  C   UNL d   1       2.005  -5.593   1.296  0.00  0.00     0.010 A 
ATOM     20  C   UNL d   1       2.797  -5.206   2.387  0.00  0.00     0.015 A 
ATOM     21  C   UNL d   1       3.466  -6.163   3.155  0.00  0.00     0.001 A 
ATOM     22  C   UNL d   1       3.353  -7.516   2.839  0.00  0.00     0.000 A 
ATOM     23  C   UNL d   1       2.580  -7.913   1.750  0.00  0.00     0.001 A 
ATOM     24  C   UNL d   1       1.911  -6.958   0.980  0.00  0.00     0.015 A 
ENDBRANCH   4  19
TORSDOF 3
