REMARK  1 active torsions:
REMARK  status: ('A' for Active; 'I' for Inactive)
REMARK    1  A    between atoms: C_10  and  N_1 
ROOT
ATOM      1  N   UNL d   1       3.022   1.194   0.030  0.00  0.00    -0.229 N 
ATOM      2  C   UNL d   1       0.750   0.428  -0.013  0.00  0.00     0.074 A 
ATOM      3  C   UNL d   1       1.256  -0.835  -0.082  0.00  0.00     0.094 A 
ATOM      4  C   UNL d   1       1.660   1.547   0.088  0.00  0.00     0.270 A 
ATOM      5  C   UNL d   1       3.508  -0.119  -0.098  0.00  0.00     0.335 A 
ATOM      6  N   UNL d   1       2.578  -1.133  -0.118  0.00  0.00    -0.301 N 
ATOM      7  C   UNL d   1      -0.676   0.396  -0.063  0.00  0.00    -0.026 A 
ATOM      8  C   UNL d   1      -1.147  -0.911  -0.060  0.00  0.00    -0.008 A 
ATOM      9  S   UNL d   1       0.114  -2.064  -0.118  0.00  0.00    -0.075 SA
ATOM     10  C   UNL d   1      -1.593   1.584  -0.051  0.00  0.00     0.041 C 
ATOM     11  O   UNL d   1       4.701  -0.426  -0.149  0.00  0.00    -0.246 OA
ATOM     12  O   UNL d   1       1.236   2.696   0.194  0.00  0.00    -0.266 OA
ATOM     13  C   UNL d   1      -2.596  -1.299  -0.023  0.00  0.00     0.051 C 
ATOM     14  C   UNL d   1      -3.047   1.175  -0.330  0.00  0.00     0.009 C 
ATOM     15  C   UNL d   1      -3.459  -0.100   0.440  0.00  0.00    -0.014 C 
ATOM     16  C   UNL d   1      -3.364   0.106   1.959  0.00  0.00     0.010 C 
ATOM     17  H   UNL d   1       2.901  -2.090  -0.170  0.00  0.00     0.171 HD
ENDROOT
BRANCH   1  18
ATOM     18  C   UNL d   1       3.973   2.255   0.112  0.00  0.00     0.049 A 
ATOM     19  C   UNL d   1       3.992   3.106   1.226  0.00  0.00     0.054 A 
ATOM     20  C   UNL d   1       4.960   4.105   1.315  0.00  0.00     0.036 A 
ATOM     21 CL   UNL d   1       5.040   5.092   2.724  0.00  0.00    -0.084 Cl
ATOM     22  C   UNL d   1       5.881   4.297   0.287  0.00  0.00     0.024 A 
ATOM     23  C   UNL d   1       5.846   3.473  -0.837  0.00  0.00     0.004 A 
ATOM     24  C   UNL d   1       4.906   2.444  -0.917  0.00  0.00     0.030 A 
ENDBRANCH   1  18
TORSDOF 1
