REMARK  6 active torsions:
REMARK  status: ('A' for Active; 'I' for Inactive)
REMARK    1  A    between atoms: C_3  and  S_1 
REMARK    2  A    between atoms: N_4  and  S_1 
REMARK    3  A    between atoms: S_2  and  C_6 
REMARK    4  A    between atoms: N_12  and  S_2 
REMARK    5  A    between atoms: C_18  and  N_4 
REMARK    6  A    between atoms: C_20  and  C_18 
ROOT
ATOM      1  N   UNL d   1       0.341   0.085   1.596  0.00  0.00    -0.311 N 
ATOM      2  H   UNL d   1      -0.610   0.434   1.699  0.00  0.00     0.172 HD
ENDROOT
BRANCH   1   3
ATOM      3  S   UNL d   1       0.856  -0.113   0.019  0.00  0.00     0.259 S 
ATOM      4  O   UNL d   1       0.212   0.915  -0.765  0.00  0.00    -0.201 OA
ATOM      5  O   UNL d   1       2.292  -0.288   0.025  0.00  0.00    -0.201 OA
BRANCH   3   6
ATOM      6  C   UNL d   1       0.125  -1.669  -0.441  0.00  0.00     0.082 A 
ATOM      7  C   UNL d   1      -1.143  -1.677  -1.031  0.00  0.00     0.070 A 
ATOM      8  C   UNL d   1      -1.700  -2.893  -1.409  0.00  0.00     0.156 A 
ATOM      9  F   UNL d   1      -2.916  -2.910  -1.972  0.00  0.00    -0.203 F 
ATOM     10  C   UNL d   1      -1.007  -4.084  -1.207  0.00  0.00     0.154 A 
ATOM     11  C   UNL d   1       0.263  -4.075  -0.636  0.00  0.00     0.047 A 
ATOM     12  F   UNL d   1      -1.557  -5.252  -1.565  0.00  0.00    -0.203 F 
ATOM     13  C   UNL d   1       0.842  -2.860  -0.262  0.00  0.00     0.028 A 
ENDBRANCH   3   6
ENDBRANCH   1   3
BRANCH   1  14
ATOM     14  C   UNL d   1       0.865  -0.808   2.621  0.00  0.00     0.170 C 
BRANCH  14  15
ATOM     15  C   UNL d   1       0.298  -0.493   3.983  0.00  0.00    -0.040 A 
ATOM     16  C   UNL d   1      -0.433  -1.467   4.684  0.00  0.00     0.010 A 
ATOM     17  C   UNL d   1      -0.920  -1.203   5.962  0.00  0.00     0.025 A 
ATOM     18  C   UNL d   1      -0.667   0.037   6.551  0.00  0.00     0.074 A 
ATOM     19  C   UNL d   1       0.032   1.030   5.860  0.00  0.00     0.025 A 
ATOM     20  C   UNL d   1       0.519   0.759   4.580  0.00  0.00     0.010 A 
BRANCH  18  21
ATOM     21  S   UNL d   1      -1.223   0.337   8.200  0.00  0.00     0.239 S 
ATOM     22  O   UNL d   1      -1.316   1.760   8.425  0.00  0.00    -0.206 OA
ATOM     23  O   UNL d   1      -2.299  -0.575   8.513  0.00  0.00    -0.206 OA
BRANCH  21  24
ATOM     24  N   UNL d   1       0.106  -0.192   9.080  0.00  0.00    -0.225 NA
ATOM     25  H   UNL d   1       0.509   0.582   9.608  0.00  0.00     0.136 HD
ATOM     26  H   UNL d   1      -0.142  -1.004   9.644  0.00  0.00     0.136 HD
ENDBRANCH  21  24
ENDBRANCH  18  21
ENDBRANCH  14  15
ENDBRANCH   1  14
TORSDOF 6
