REMARK  3 active torsions:
REMARK  status: ('A' for Active; 'I' for Inactive)
REMARK    1  A    between atoms: S_11  and  C_5 
REMARK    2  A    between atoms: C_9  and  N_8 
REMARK    3  A    between atoms: O_13  and  C_12 
ROOT
ATOM      1  S   UNL d   1       2.112  -2.553  -0.748  0.00  0.00    -0.027 SA
ATOM      2  C   UNL d   1       3.541  -1.577  -0.697  0.00  0.00     0.166 A 
ATOM      3  N   UNL d   1       4.589  -2.187  -1.217  0.00  0.00    -0.278 N 
ATOM      4  HN  UNL d   1       5.516  -1.764  -1.266  1.00  0.00     0.189 HD
ATOM      5  C   UNL d   1       3.048  -3.767  -1.505  0.00  0.00     0.127 A 
ATOM      6  N   UNL d   1       4.307  -3.452  -1.688  0.00  0.00    -0.286 N 
ATOM      7  HN  UNL d   1       4.994  -4.066  -2.126  1.00  0.00     0.188 HD
ATOM      8  N   UNL d   1       3.494  -0.346  -0.128  0.00  0.00    -0.335 N 
ATOM      9  H   UNL d   1       2.646  -0.077   0.350  0.00  0.00     0.168 HD
ENDROOT
BRANCH   8  10
ATOM     10  C   UNL d   1       4.532   0.607  -0.076  0.00  0.00     0.036 A 
ATOM     11  C   UNL d   1       4.555   1.527   0.990  0.00  0.00     0.066 A 
ATOM     12  C   UNL d   1       5.607   2.438   1.135  0.00  0.00     0.070 A 
ATOM     13  C   UNL d   1       6.643   2.444   0.201  0.00  0.00     0.037 A 
ATOM     14  C   UNL d   1       6.637   1.544  -0.860  0.00  0.00     0.005 A 
ATOM     15  C   UNL d   1       5.593   0.627  -0.989  0.00  0.00     0.029 A 
BRANCH  12  16
ATOM     16  O   UNL d   1       5.747   3.357   2.139  0.00  0.00    -0.356 OA
ATOM     17  C   UNL d   1       4.767   3.349   3.167  0.00  0.00     0.210 C 
ENDBRANCH  12  16
ENDBRANCH   8  10
BRANCH   5  18
ATOM     18  S   UNL d   1       2.405  -5.310  -2.003  0.00  0.00    -0.117 SA
ATOM     19  H   UNL d   1       1.135  -5.088  -1.644  0.00  0.00     0.109 HD
ENDBRANCH   5  18
TORSDOF 3
