REMARK  8 active torsions:
REMARK  status: ('A' for Active; 'I' for Inactive)
REMARK    1  A    between atoms: C_3  and  C_1 
REMARK       I    between atoms: C_2  and  N_12 
REMARK    2  A    between atoms: O_4  and  C_2 
REMARK    3  A    between atoms: C_8  and  O_4 
REMARK    4  A    between atoms: C_20  and  N_6 
REMARK    5  A    between atoms: N_12  and  C_21 
REMARK    6  A    between atoms: C_15  and  C_16 
REMARK    7  A    between atoms: C_19  and  C_20 
REMARK    8  A    between atoms: C_21  and  C_19 
ROOT
ATOM      1  N   UNL d   1      -0.002   1.808   7.867  0.00  0.00    -0.398 N 
ATOM      2  HN  UNL d   1       0.721   1.261   8.335  1.00  0.00     0.158 HD
ATOM      3  C   UNL d   1       0.059   3.095   7.790  0.00  0.00     0.094 C 
ENDROOT
BRANCH   1   4
ATOM      4  C   UNL d   1      -1.166   1.179   7.246  0.00  0.00     0.120 C 
BRANCH   4   5
ATOM      5  C   UNL d   1      -1.611   0.010   8.130  0.00  0.00     0.039 C 
BRANCH   5   6
ATOM      6  C   UNL d   1      -2.116   0.501   9.486  0.00  0.00     0.126 C 
BRANCH   6   7
ATOM      7  N   UNL d   1      -2.350  -0.582  10.419  0.00  0.00    -0.337 N 
ATOM      8  C   UNL d   1      -3.547  -1.085  10.838  0.00  0.00     0.361 C 
ATOM      9  O   UNL d   1      -3.608  -1.782  11.840  0.00  0.00    -0.238 OA
ATOM     10  H   UNL d   1      -1.581  -0.863  11.014  0.00  0.00     0.164 HD
BRANCH   8  11
ATOM     11  O   UNL d   1      -4.595  -0.732  10.050  0.00  0.00    -0.294 OA
BRANCH  11  12
ATOM     12  C   UNL d   1      -5.943  -1.143  10.423  0.00  0.00     0.061 C 
ATOM     13  C   UNL d   1      -6.355  -0.504  11.759  0.00  0.00     0.046 C 
ATOM     14  C   UNL d   1      -6.850  -0.609   9.300  0.00  0.00     0.046 C 
ATOM     15  C   UNL d   1      -6.089  -2.672  10.470  0.00  0.00     0.046 C 
ENDBRANCH  11  12
ENDBRANCH   8  11
ENDBRANCH   6   7
ENDBRANCH   5   6
ENDBRANCH   4   5
ENDBRANCH   1   4
BRANCH   3  16
ATOM     16  C   UNL d   1       1.155   3.851   8.428  0.00  0.00    -0.021 A 
ATOM     17  C   UNL d   1       2.135   3.185   9.169  0.00  0.00     0.013 A 
ATOM     18  C   UNL d   1       3.162   3.913   9.781  0.00  0.00     0.017 A 
ATOM     19  C   UNL d   1       3.216   5.312   9.654  0.00  0.00     0.048 A 
ATOM     20  C   UNL d   1       2.222   5.967   8.912  0.00  0.00     0.017 A 
ATOM     21  C   UNL d   1       1.193   5.241   8.301  0.00  0.00     0.013 A 
BRANCH  19  22
ATOM     22  C   UNL d   1       4.339   6.077  10.314  0.00  0.00     0.417 C 
ATOM     23  F   UNL d   1       4.296   7.418  10.075  0.00  0.00    -0.166 F 
ATOM     24  F   UNL d   1       5.567   5.663   9.896  0.00  0.00    -0.166 F 
ATOM     25  F   UNL d   1       4.339   5.940  11.669  0.00  0.00    -0.166 F 
ENDBRANCH  19  22
ENDBRANCH   3  16
TORSDOF 8
