REMARK  2 active torsions:
REMARK  status: ('A' for Active; 'I' for Inactive)
REMARK    1  A    between atoms: C_8  and  N_1 
REMARK    2  A    between atoms: C_7  and  C_2 
ROOT
ATOM      1  N   UNL d   1      -0.173  -1.339  -0.178  0.00  0.00    -0.239 N 
ATOM      2  C   UNL d   1       1.000  -0.691   0.003  0.00  0.00     0.149 A 
ATOM      3  N   UNL d   1       0.888   0.598   0.042  0.00  0.00    -0.238 N 
ATOM      4  HN  UNL d   1       1.631   1.279   0.200  1.00  0.00     0.196 HD
ATOM      5  C   UNL d   1      -1.106  -0.362  -0.343  0.00  0.00     0.395 A 
ATOM      6  O   UNL d   1      -0.491   0.859  -0.184  0.00  0.00    -0.179 OA
ATOM      7  O   UNL d   1      -2.304  -0.478  -0.553  0.00  0.00    -0.235 OA
ENDROOT
BRANCH   2   8
ATOM      8  C   UNL d   1       2.313  -1.351   0.051  0.00  0.00     0.026 A 
ATOM      9  C   UNL d   1       3.296  -0.859   0.898  0.00  0.00     0.102 A 
ATOM     10  N   UNL d   1       4.542  -1.387   0.989  0.00  0.00    -0.374 N 
ATOM     11  C   UNL d   1       4.825  -2.429   0.177  0.00  0.00     0.087 A 
ATOM     12  HN  UNL d   1       5.233  -1.014   1.641  1.00  0.00     0.164 HD
ATOM     13  C   UNL d   1       3.921  -2.969  -0.724  0.00  0.00     0.018 A 
ATOM     14  C   UNL d   1       2.647  -2.412  -0.796  0.00  0.00     0.018 A 
ENDBRANCH   2   8
BRANCH   1  15
ATOM     15  C   UNL d   1      -0.473  -2.714  -0.074  0.00  0.00     0.046 A 
ATOM     16  C   UNL d   1      -1.401  -3.304  -0.943  0.00  0.00     0.030 A 
ATOM     17  C   UNL d   1      -1.667  -4.674  -0.874  0.00  0.00     0.002 A 
ATOM     18  C   UNL d   1      -1.038  -5.462   0.086  0.00  0.00     0.000 A 
ATOM     19  C   UNL d   1      -0.144  -4.881   0.982  0.00  0.00     0.002 A 
ATOM     20  C   UNL d   1       0.140  -3.516   0.900  0.00  0.00     0.030 A 
ENDBRANCH   1  15
TORSDOF 2
