REMARK  1 active torsions:
REMARK  status: ('A' for Active; 'I' for Inactive)
REMARK    1  A    between atoms: C_8  and  C_1 
ROOT
ATOM      1  C   UNL d   1       3.630   3.432   1.033  0.00  0.00     0.067 A 
ATOM      2  C   UNL d   1       2.402   1.630   0.004  0.00  0.00     0.019 A 
ATOM      3  S   UNL d   1       5.335   5.086   1.454  0.00  0.00     0.068 SA
ATOM      4  C   UNL d   1       4.632   3.369  -0.088  0.00  0.00     0.067 A 
ATOM      5  C   UNL d   1       2.513   2.561   1.063  0.00  0.00     0.048 A 
ATOM      6  N   UNL d   1       3.921   4.366   1.951  0.00  0.00    -0.310 N 
ATOM      7  HN  UNL d   1       3.381   4.590   2.787  1.00  0.00     0.176 HD
ATOM      8  N   UNL d   1       5.629   4.257   0.045  0.00  0.00    -0.310 N 
ATOM      9  HN  UNL d   1       6.413   4.395  -0.593  1.00  0.00     0.176 HD
ATOM     10  C   UNL d   1       3.358   1.593  -1.055  0.00  0.00     0.018 A 
ATOM     11  C   UNL d   1       4.480   2.442  -1.142  0.00  0.00     0.033 A 
ENDROOT
BRANCH   2  12
ATOM     12  C   UNL d   1       1.307   0.663  -0.020  0.00  0.00     0.176 A 
ATOM     13  O   UNL d   1       0.432   0.665   1.036  0.00  0.00    -0.259 OA
ATOM     14  C   UNL d   1      -0.398  -0.363   0.709  0.00  0.00     0.238 A 
ATOM     15  N   UNL d   1      -1.385  -0.634   1.565  0.00  0.00    -0.364 N 
ATOM     16  N   UNL d   1      -0.091  -0.931  -0.434  0.00  0.00    -0.263 N 
ATOM     17  H   UNL d   1      -1.658   0.088   2.219  0.00  0.00     0.159 HD
ATOM     18  H   UNL d   1      -2.149  -1.202   1.216  0.00  0.00     0.159 HD
ATOM     19  N   UNL d   1       1.020  -0.266  -0.911  0.00  0.00    -0.276 N 
ATOM     20  HN  UNL d   1      -0.576  -1.709  -0.880  1.00  0.00     0.190 HD
ATOM     21  HN  UNL d   1       1.520  -0.454  -1.780  1.00  0.00     0.189 HD
ENDBRANCH   2  12
TORSDOF 1
