REMARK  5 active torsions:
REMARK  status: ('A' for Active; 'I' for Inactive)
REMARK    1  A    between atoms: N_9  and  C_2 
REMARK    2  A    between atoms: C_16  and  N_3 
REMARK    3  A    between atoms: C_7  and  C_6 
REMARK    4  A    between atoms: N_8  and  C_13 
REMARK    5  A    between atoms: C_21  and  C_11 
ROOT
ATOM      1  C   UNL d   1      -2.907  -2.736   0.132  0.00  0.00     0.120 C 
ATOM      2  C   UNL d   1      -3.901  -3.688   0.010  0.00  0.00     0.157 C 
ATOM      3  N   UNL d   1      -5.094  -2.994  -0.057  0.00  0.00    -0.237 N 
ATOM      4  N   UNL d   1      -4.877  -1.659  -0.230  0.00  0.00    -0.289 N 
ATOM      5  HN  UNL d   1      -5.565  -0.949  -0.483  1.00  0.00     0.188 HD
ATOM      6  C   UNL d   1      -3.562  -1.474   0.004  0.00  0.00     0.094 C 
ATOM      7  C   UNL d   1      -1.500  -2.982   0.184  0.00  0.00     0.106 C 
ATOM      8  N   UNL d   1      -0.361  -3.192   0.203  0.00  0.00    -0.191 NA
ENDROOT
BRANCH   2   9
ATOM      9  N   UNL d   1      -3.769  -5.076  -0.120  0.00  0.00    -0.316 N 
ATOM     10  C   UNL d   1      -4.596  -5.921  -0.840  0.00  0.00     0.098 A 
ATOM     11  C   UNL d   1      -4.177  -7.222  -0.690  0.00  0.00     0.019 A 
ATOM     12  C   UNL d   1      -3.014  -7.188   0.100  0.00  0.00     0.019 A 
ATOM     13  C   UNL d   1      -2.770  -5.868   0.412  0.00  0.00     0.098 A 
ENDBRANCH   2   9
BRANCH   6  14
ATOM     14  C   UNL d   1      -2.931  -0.163   0.025  0.00  0.00     0.075 C 
ATOM     15  C   UNL d   1      -3.397   0.896  -0.673  0.00  0.00     0.036 C 
ATOM     16  C   UNL d   1      -1.774  -0.001   0.857  0.00  0.00     0.102 C 
ATOM     17  N   UNL d   1      -0.840   0.136   1.533  0.00  0.00    -0.191 NA
BRANCH  15  18
ATOM     18  C   UNL d   1      -2.732   2.210  -0.697  0.00  0.00    -0.032 A 
ATOM     19  C   UNL d   1      -1.710   2.457  -1.625  0.00  0.00     0.047 A 
ATOM     20  C   UNL d   1      -1.004   3.667  -1.575  0.00  0.00     0.103 A 
ATOM     21  C   UNL d   1      -1.311   4.638  -0.613  0.00  0.00     0.036 A 
ATOM     22  C   UNL d   1      -2.338   4.393   0.300  0.00  0.00     0.003 A 
ATOM     23  C   UNL d   1      -3.044   3.186   0.259  0.00  0.00     0.011 A 
BRANCH  20  24
ATOM     24  N   UNL d   1       0.084   3.916  -2.531  0.00  0.00    -0.116 N 
ATOM     25  O   UNL d   1       0.305   3.048  -3.388  0.00  0.00    -0.532 OA
ATOM     26  O   UNL d   1       0.711   4.981  -2.432  0.00  0.00    -0.532 OA
ENDBRANCH  20  24
ENDBRANCH  15  18
ENDBRANCH   6  14
BRANCH   3  27
ATOM     27  C   UNL d   1      -6.419  -3.494   0.094  0.00  0.00     0.058 A 
ATOM     28  C   UNL d   1      -6.678  -4.565   0.966  0.00  0.00     0.031 A 
ATOM     29  C   UNL d   1      -7.934  -5.171   0.978  0.00  0.00     0.002 A 
ATOM     30  C   UNL d   1      -8.938  -4.700   0.137  0.00  0.00     0.000 A 
ATOM     31  C   UNL d   1      -8.703  -3.594  -0.683  0.00  0.00     0.002 A 
ATOM     32  C   UNL d   1      -7.451  -2.970  -0.691  0.00  0.00     0.031 A 
ENDBRANCH   3  27
TORSDOF 5
