REMARK  9 active torsions:
REMARK  status: ('A' for Active; 'I' for Inactive)
REMARK    1  A    between atoms: C_9  and  C_1 
REMARK    2  A    between atoms: N_18  and  C_3 
REMARK    3  A    between atoms: C_17  and  C_6 
REMARK       I    between atoms: N_13  and  C_9 
REMARK    4  A    between atoms: C_15  and  C_10 
REMARK    5  A    between atoms: C_12  and  N_14 
REMARK    6  A    between atoms: N_20  and  C_12 
REMARK    7  A    between atoms: N_14  and  N_13 
REMARK    8  A    between atoms: C_29  and  N_20 
REMARK    9  A    between atoms: C_23  and  C_29 
ROOT
ATOM      1  C   UNL d   1       2.411   0.027   0.148  0.00  0.00     0.174 A 
ATOM      2  C   UNL d   1       0.305   0.864   0.086  0.00  0.00     0.056 A 
ATOM      3  C   UNL d   1       1.686   1.201   0.207  0.00  0.00     0.081 A 
ATOM      4  C   UNL d   1       0.280  -0.533   0.065  0.00  0.00     0.162 A 
ATOM      5  O   UNL d   1       1.548  -1.035   0.101  0.00  0.00    -0.285 OA
ATOM      6  C   UNL d   1      -0.943   1.526  -0.012  0.00  0.00    -0.007 A 
ATOM      7  N   UNL d   1      -0.791  -1.339  -0.002  0.00  0.00    -0.335 N 
ATOM      8  HN  UNL d   1      -0.717  -2.357   0.006  1.00  0.00     0.168 HD
ATOM      9  C   UNL d   1      -1.974  -0.694  -0.081  0.00  0.00     0.045 A 
ATOM     10  C   UNL d   1      -2.081   0.699  -0.088  0.00  0.00     0.043 A 
ENDROOT
BRANCH   1  11
ATOM     11  C   UNL d   1       3.835  -0.216   0.092  0.00  0.00     0.296 C 
ATOM     12  N   UNL d   1       4.189  -1.553   0.142  0.00  0.00    -0.262 N 
ATOM     13  H   UNL d   1       3.478  -2.279   0.181  0.00  0.00     0.190 HD
ATOM     14  O   UNL d   1       4.682   0.669  -0.036  0.00  0.00    -0.264 OA
BRANCH  12  15
ATOM     15  N   UNL d   1       5.490  -1.927  -0.230  0.00  0.00    -0.273 N 
ATOM     16  H   UNL d   1       6.046  -1.167  -0.625  0.00  0.00     0.189 HD
BRANCH  15  17
ATOM     17  C   UNL d   1       6.191  -2.866   0.486  0.00  0.00     0.186 C 
ATOM     18  S   UNL d   1       5.660  -3.652   1.861  0.00  0.00    -0.040 SA
BRANCH  17  19
ATOM     19  N   UNL d   1       7.413  -3.202  -0.029  0.00  0.00    -0.363 N 
ATOM     20  H   UNL d   1       7.907  -3.894   0.522  0.00  0.00     0.162 HD
BRANCH  19  21
ATOM     21  C   UNL d   1       7.797  -3.105  -1.423  0.00  0.00     0.148 C 
BRANCH  21  22
ATOM     22  C   UNL d   1       9.039  -2.284  -1.516  0.00  0.00    -0.018 C 
ATOM     23  C   UNL d   1       9.128  -1.125  -2.182  0.00  0.00     0.008 C 
ENDBRANCH  21  22
ENDBRANCH  19  21
ENDBRANCH  17  19
ENDBRANCH  15  17
ENDBRANCH  12  15
ENDBRANCH   1  11
BRANCH   3  24
ATOM     24  N   UNL d   1       2.229   2.431   0.328  0.00  0.00    -0.396 N 
ATOM     25  H   UNL d   1       1.684   3.230   0.646  0.00  0.00     0.156 HD
ATOM     26  H   UNL d   1       3.234   2.546   0.477  0.00  0.00     0.156 HD
ENDBRANCH   3  24
BRANCH   6  27
ATOM     27  C   UNL d   1      -1.067   2.994  -0.073  0.00  0.00    -0.025 A 
ATOM     28  C   UNL d   1      -0.265   3.771  -0.926  0.00  0.00     0.012 A 
ATOM     29  C   UNL d   1      -0.373   5.165  -0.961  0.00  0.00     0.001 A 
ATOM     30  C   UNL d   1      -1.326   5.809  -0.179  0.00  0.00     0.000 A 
ATOM     31  C   UNL d   1      -2.168   5.060   0.637  0.00  0.00     0.001 A 
ATOM     32  C   UNL d   1      -2.033   3.670   0.695  0.00  0.00     0.012 A 
ENDBRANCH   6  27
BRANCH   9  33
ATOM     33  C   UNL d   1      -3.173  -1.563  -0.165  0.00  0.00    -0.009 A 
ATOM     34  C   UNL d   1      -3.223  -2.796   0.516  0.00  0.00     0.015 A 
ATOM     35  C   UNL d   1      -4.358  -3.616   0.463  0.00  0.00     0.024 A 
ATOM     36  C   UNL d   1      -5.464  -3.219  -0.279  0.00  0.00     0.034 A 
ATOM     37  C   UNL d   1      -5.443  -2.014  -0.974  0.00  0.00     0.024 A 
ATOM     38 CL   UNL d   1      -6.863  -4.218  -0.342  0.00  0.00    -0.084 Cl
ATOM     39  C   UNL d   1      -4.306  -1.198  -0.919  0.00  0.00     0.015 A 
ENDBRANCH   9  33
TORSDOF 9
