REMARK  5 active torsions:
REMARK  status: ('A' for Active; 'I' for Inactive)
REMARK    1  A    between atoms: N_6  and  C_1 
REMARK    2  A    between atoms: C_4  and  C_8 
REMARK    3  A    between atoms: C_5  and  C_10 
REMARK    4  A    between atoms: C_7  and  C_17 
REMARK       I    between atoms: N_9  and  C_7 
REMARK    5  A    between atoms: C_13  and  N_9 
ROOT
ATOM      1  N   UNL d   1       0.424   2.712  -0.311  0.00  0.00    -0.218 N 
ATOM      2  C   UNL d   1       0.016   5.565   0.056  0.00  0.00     0.081 C 
ATOM      3  C   UNL d   1      -0.080   3.497  -1.435  0.00  0.00     0.142 C 
ATOM      4  C   UNL d   1       0.091   3.208   1.025  0.00  0.00     0.142 C 
ATOM      5  C   UNL d   1       0.372   4.953  -1.303  0.00  0.00     0.034 C 
ATOM      6  C   UNL d   1       0.571   4.658   1.169  0.00  0.00     0.034 C 
ENDROOT
BRANCH   2   7
ATOM      7  C   UNL d   1      -1.474   5.837   0.290  0.00  0.00     0.227 C 
ATOM      8  N   UNL d   1      -2.128   6.493  -0.734  0.00  0.00    -0.313 N 
ATOM      9  H   UNL d   1      -1.761   6.424  -1.672  0.00  0.00     0.170 HD
ATOM     10  O   UNL d   1      -2.010   5.518   1.352  0.00  0.00    -0.273 OA
BRANCH   8  11
ATOM     11  C   UNL d   1      -3.518   6.658  -0.734  0.00  0.00     0.107 C 
ATOM     12  N   UNL d   1      -4.110   6.408  -1.918  0.00  0.00    -0.351 N 
ATOM     13  C   UNL d   1      -5.458   6.267  -1.908  0.00  0.00     0.106 C 
ATOM     14  HN  UNL d   1      -3.571   6.329  -2.780  1.00  0.00     0.166 HD
ATOM     15  C   UNL d   1      -6.248   6.420  -0.777  0.00  0.00     0.063 C 
ATOM     16  C   UNL d   1      -5.617   6.839   0.395  0.00  0.00     0.021 C 
ATOM     17  C   UNL d   1      -4.232   6.955   0.419  0.00  0.00     0.049 C 
BRANCH  15  18
ATOM     18  C   UNL d   1      -7.702   6.078  -0.799  0.00  0.00     0.418 C 
ATOM     19  F   UNL d   1      -8.132   5.580  -1.988  0.00  0.00    -0.166 F 
ATOM     20  F   UNL d   1      -8.023   5.137   0.135  0.00  0.00    -0.166 F 
ATOM     21  F   UNL d   1      -8.502   7.150  -0.529  0.00  0.00    -0.166 F 
ENDBRANCH  15  18
ENDBRANCH   8  11
ENDBRANCH   2   7
BRANCH   1  22
ATOM     22  C   UNL d   1       0.286   1.329  -0.470  0.00  0.00     0.680 A 
ATOM     23  N   UNL d   1       0.173   0.828  -1.710  0.00  0.00    -0.186 N 
ATOM     24  C   UNL d   1       0.095  -0.518  -1.876  0.00  0.00     0.133 A 
ATOM     25  HN  UNL d   1       0.146   1.450  -2.518  1.00  0.00     0.184 HD
ATOM     26  C   UNL d   1       0.128  -1.384  -0.802  0.00  0.00     0.052 A 
ATOM     27  C   UNL d   1       0.241  -0.796   0.429  0.00  0.00     0.108 A 
ATOM     28  N   UNL d   1       0.323   0.534   0.615  0.00  0.00    -0.202 N 
ATOM     29  HN  UNL d   1       0.410   0.929   1.552  1.00  0.00     0.183 HD
BRANCH  24  30
ATOM     30  C   UNL d   1      -0.020  -1.084  -3.278  0.00  0.00     0.433 C 
ATOM     31  F   UNL d   1      -0.059  -0.145  -4.265  0.00  0.00    -0.165 F 
ATOM     32  F   UNL d   1       1.019  -1.912  -3.593  0.00  0.00    -0.165 F 
ATOM     33  F   UNL d   1      -1.147  -1.839  -3.442  0.00  0.00    -0.165 F 
ENDBRANCH  24  30
ENDBRANCH   1  22
TORSDOF 5
