REMARK  4 active torsions:
REMARK  status: ('A' for Active; 'I' for Inactive)
REMARK    1  A    between atoms: C_2  and  C_1 
REMARK       I    between atoms: N_8  and  C_2 
REMARK    2  A    between atoms: C_12  and  C_5 
REMARK    3  A    between atoms: C_13  and  N_8 
REMARK    4  A    between atoms: C_19  and  C_14 
ROOT
ATOM      1  N   UNL d   1       0.886  -8.968   3.296  0.00  0.00    -0.197 NA
ATOM      2  C   UNL d   1       1.550  -8.897   2.348  0.00  0.00     0.063 C 
ATOM      3  C   UNL d   1       2.400  -8.801   1.141  0.00  0.00     0.162 C 
ENDROOT
BRANCH   3   4
ATOM      4  C   UNL d   1       2.367  -7.402   0.567  0.00  0.00    -0.045 C 
ATOM      5  C   UNL d   1       3.301  -6.440   0.972  0.00  0.00     0.010 C 
ATOM      6  C   UNL d   1       3.091  -5.088   0.681  0.00  0.00     0.030 C 
ATOM      7  C   UNL d   1       1.934  -4.677   0.009  0.00  0.00     0.035 C 
ATOM      8  C   UNL d   1       1.092  -5.650  -0.530  0.00  0.00     0.030 C 
ATOM      9  C   UNL d   1       1.306  -7.005  -0.255  0.00  0.00     0.010 C 
BRANCH   7  10
ATOM     10  N   UNL d   1       1.649  -3.289  -0.007  0.00  0.00    -0.323 N 
ATOM     11  C   UNL d   1       0.406  -2.714  -0.236  0.00  0.00     0.261 C 
ATOM     12  O   UNL d   1      -0.599  -3.337  -0.554  0.00  0.00    -0.267 OA
ATOM     13  H   UNL d   1       2.350  -2.702   0.423  0.00  0.00     0.169 HD
BRANCH  11  14
ATOM     14  C   UNL d   1       0.331  -1.271  -0.022  0.00  0.00     0.093 C 
ATOM     15  C   UNL d   1      -0.807  -0.503   0.417  0.00  0.00     0.083 C 
ATOM     16  N   UNL d   1      -0.541   0.810   0.320  0.00  0.00    -0.259 N 
ATOM     17  O   UNL d   1       0.781   0.917  -0.018  0.00  0.00    -0.241 OA
ATOM     18  HN  UNL d   1      -1.197   1.577   0.468  1.00  0.00     0.195 HD
ATOM     19  C   UNL d   1       1.321  -0.317  -0.160  0.00  0.00     0.090 C 
ATOM     20  C   UNL d   1       2.779  -0.316  -0.403  0.00  0.00     0.080 C 
BRANCH  15  21
ATOM     21  C   UNL d   1      -2.063  -0.927   1.049  0.00  0.00    -0.006 A 
ATOM     22  C   UNL d   1      -3.220  -0.137   0.943  0.00  0.00     0.014 A 
ATOM     23  C   UNL d   1      -4.360  -0.432   1.698  0.00  0.00     0.001 A 
ATOM     24  C   UNL d   1      -4.360  -1.522   2.565  0.00  0.00     0.000 A 
ATOM     25  C   UNL d   1      -3.228  -2.326   2.667  0.00  0.00     0.001 A 
ATOM     26  C   UNL d   1      -2.087  -2.030   1.915  0.00  0.00     0.014 A 
ENDBRANCH  15  21
ENDBRANCH  11  14
ENDBRANCH   7  10
ENDBRANCH   3   4
TORSDOF 4
