REMARK  7 active torsions:
REMARK  status: ('A' for Active; 'I' for Inactive)
REMARK    1  A    between atoms: C_14  and  N_3 
REMARK    2  A    between atoms: C_15  and  N_5 
REMARK    3  A    between atoms: O_11  and  C_8 
REMARK    4  A    between atoms: C_19  and  O_11 
REMARK    5  A    between atoms: C_17  and  C_19 
REMARK    6  A    between atoms: O_20  and  C_17 
REMARK    7  A    between atoms: C_25  and  O_20 
ROOT
ATOM      1  C   UNL d   1      -0.214   0.601  -0.115  0.00  0.00     0.103 C 
ATOM      2  C   UNL d   1       0.003  -0.755   0.011  0.00  0.00     0.102 C 
ATOM      3  N   UNL d   1       0.779   1.598  -0.049  0.00  0.00    -0.281 N 
ATOM      4  C   UNL d   1       2.143   1.175   0.112  0.00  0.00     0.194 C 
ATOM      5  N   UNL d   1       2.363  -0.239   0.069  0.00  0.00    -0.254 N 
ATOM      6  C   UNL d   1       1.362  -1.215   0.211  0.00  0.00     0.270 C 
ATOM      7  S   UNL d   1      -1.851   0.930  -0.463  0.00  0.00    -0.057 SA
ATOM      8  C   UNL d   1      -1.236  -1.508  -0.080  0.00  0.00     0.115 C 
ATOM      9  C   UNL d   1      -2.329  -0.677  -0.198  0.00  0.00     0.121 C 
ATOM     10  C   UNL d   1      -3.705  -1.073  -0.172  0.00  0.00     0.110 C 
ATOM     11  S   UNL d   1       3.417   2.258   0.480  0.00  0.00    -0.039 SA
ATOM     12  N   UNL d   1      -4.825  -1.355  -0.136  0.00  0.00    -0.191 NA
ATOM     13  O   UNL d   1       1.599  -2.389   0.485  0.00  0.00    -0.266 OA
ENDROOT
BRANCH   8  14
ATOM     14  O   UNL d   1      -1.468  -2.849  -0.013  0.00  0.00    -0.338 OA
BRANCH  14  15
ATOM     15  C   UNL d   1      -0.504  -3.667  -0.653  0.00  0.00     0.286 C 
BRANCH  15  16
ATOM     16  C   UNL d   1      -1.040  -4.968  -1.222  0.00  0.00     0.283 C 
ATOM     17  O   UNL d   1      -2.194  -5.365  -1.174  0.00  0.00    -0.263 OA
BRANCH  16  18
ATOM     18  O   UNL d   1       0.026  -5.672  -1.713  0.00  0.00    -0.320 OA
BRANCH  18  19
ATOM     19  C   UNL d   1      -0.156  -7.088  -1.825  0.00  0.00     0.174 C 
ATOM     20  C   UNL d   1       0.162  -7.713  -0.477  0.00  0.00     0.034 C 
ENDBRANCH  18  19
ENDBRANCH  16  18
ENDBRANCH  15  16
ENDBRANCH  14  15
ENDBRANCH   8  14
BRANCH   3  21
ATOM     21  C   UNL d   1       0.396   2.990  -0.161  0.00  0.00     0.042 A 
ATOM     22  C   UNL d   1      -0.656   3.537   0.597  0.00  0.00     0.030 A 
ATOM     23  C   UNL d   1      -1.087   4.854   0.400  0.00  0.00     0.002 A 
ATOM     24  C   UNL d   1      -0.419   5.679  -0.497  0.00  0.00     0.000 A 
ATOM     25  C   UNL d   1       0.676   5.186  -1.199  0.00  0.00     0.002 A 
ATOM     26  C   UNL d   1       1.063   3.850  -1.050  0.00  0.00     0.030 A 
ENDBRANCH   3  21
BRANCH   5  27
ATOM     27  C   UNL d   1       3.710  -0.758   0.053  0.00  0.00     0.045 A 
ATOM     28  C   UNL d   1       4.516  -0.600  -1.084  0.00  0.00     0.030 A 
ATOM     29  C   UNL d   1       5.813  -1.123  -1.103  0.00  0.00     0.002 A 
ATOM     30  C   UNL d   1       6.313  -1.800   0.009  0.00  0.00     0.000 A 
ATOM     31  C   UNL d   1       5.513  -1.971   1.138  0.00  0.00     0.002 A 
ATOM     32  C   UNL d   1       4.214  -1.461   1.157  0.00  0.00     0.030 A 
ENDBRANCH   5  27
TORSDOF 7
