REMARK  8 active torsions:
REMARK  status: ('A' for Active; 'I' for Inactive)
REMARK    1  A    between atoms: C_9  and  C_1 
REMARK    2  A    between atoms: N_6  and  C_2 
REMARK       I    between atoms: C_7  and  N_6 
REMARK       I    between atoms: N_11  and  C_7 
REMARK    3  A    between atoms: C_10  and  C_8 
REMARK    4  A    between atoms: O_20  and  C_9 
REMARK    5  A    between atoms: O_21  and  C_10 
REMARK    6  A    between atoms: C_15  and  N_11 
REMARK    7  A    between atoms: C_27  and  O_20 
REMARK    8  A    between atoms: C_26  and  O_21 
ROOT
ATOM      1  C   UNL d   1       1.192  -1.402  -0.282  0.00  0.00     0.076 A 
ATOM      2  C   UNL d   1       2.134  -0.417   0.037  0.00  0.00     0.075 A 
ATOM      3  C   UNL d   1      -0.130  -0.812  -0.140  0.00  0.00    -0.013 A 
ATOM      4  C   UNL d   1      -0.053   0.517   0.201  0.00  0.00    -0.007 A 
ATOM      5  S   UNL d   1       1.479   1.101   0.460  0.00  0.00    -0.081 SA
ATOM      6  C   UNL d   1      -1.583  -1.221  -0.155  0.00  0.00     0.121 C 
ATOM      7  C   UNL d   1      -2.332   0.174  -0.116  0.00  0.00     0.024 C 
ATOM      8  C   UNL d   1      -1.331   1.234   0.371  0.00  0.00     0.048 C 
ENDROOT
BRANCH   2   9
ATOM      9  N   UNL d   1       3.512  -0.428   0.225  0.00  0.00    -0.203 NA
ATOM     10  C   UNL d   1       4.320  -0.118  -0.849  0.00  0.00     0.303 C 
ATOM     11  N   UNL d   1       4.295  -1.014  -1.884  0.00  0.00    -0.313 N 
ATOM     12  O   UNL d   1       5.062   0.857  -0.749  0.00  0.00    -0.253 OA
ATOM     13  H   UNL d   1       3.921  -1.924  -1.623  0.00  0.00     0.170 HD
ATOM     14  H   UNL d   1       3.753   0.305   0.889  0.00  0.00     0.139 HD
BRANCH  11  15
ATOM     15  C   UNL d   1       5.149  -0.955  -3.004  0.00  0.00     0.037 A 
ATOM     16  C   UNL d   1       5.641   0.248  -3.523  0.00  0.00     0.053 A 
ATOM     17  C   UNL d   1       6.536   0.230  -4.593  0.00  0.00     0.036 A 
ATOM     18 CL   UNL d   1       7.135   1.711  -5.236  0.00  0.00    -0.084 Cl
ATOM     19  C   UNL d   1       6.954  -0.978  -5.148  0.00  0.00     0.024 A 
ATOM     20  C   UNL d   1       6.447  -2.177  -4.650  0.00  0.00     0.004 A 
ATOM     21  C   UNL d   1       5.530  -2.163  -3.595  0.00  0.00     0.029 A 
ENDBRANCH  11  15
ENDBRANCH   2   9
BRANCH   1  22
ATOM     22  C   UNL d   1       1.608  -2.761  -0.655  0.00  0.00     0.296 C 
ATOM     23  O   UNL d   1       2.786  -3.051  -0.882  0.00  0.00    -0.259 OA
BRANCH  22  24
ATOM     24  O   UNL d   1       0.596  -3.667  -0.798  0.00  0.00    -0.318 OA
BRANCH  24  25
ATOM     25  C   UNL d   1       0.930  -4.822  -1.599  0.00  0.00     0.174 C 
ATOM     26  C   UNL d   1       1.098  -6.087  -0.774  0.00  0.00     0.034 C 
ENDBRANCH  24  25
ENDBRANCH  22  24
ENDBRANCH   1  22
BRANCH   6  27
ATOM     27  C   UNL d   1      -2.131  -1.955  -1.358  0.00  0.00     0.267 C 
ATOM     28  O   UNL d   1      -1.505  -2.285  -2.355  0.00  0.00    -0.265 OA
BRANCH  27  29
ATOM     29  O   UNL d   1      -3.484  -2.103  -1.186  0.00  0.00    -0.321 OA
BRANCH  29  30
ATOM     30  C   UNL d   1      -4.244  -2.462  -2.345  0.00  0.00     0.174 C 
ATOM     31  C   UNL d   1      -4.619  -1.209  -3.121  0.00  0.00     0.034 C 
ENDBRANCH  29  30
ENDBRANCH  27  29
ENDBRANCH   6  27
TORSDOF 8
