REMARK  4 active torsions:
REMARK  status: ('A' for Active; 'I' for Inactive)
REMARK    1  A    between atoms: C_2  and  C_1 
REMARK    2  A    between atoms: N_7  and  C_3 
REMARK       I    between atoms: C_6  and  N_10 
REMARK    3  A    between atoms: C_11  and  C_6 
REMARK    4  A    between atoms: N_10  and  N_7 
ROOT
ATOM      1  N   UNL d   1      -0.965   5.412   0.326  0.00  0.00    -0.186 NA
ATOM      2  H   UNL d   1      -1.737   5.255   0.977  0.00  0.00     0.154 HD
ENDROOT
BRANCH   1   3
ATOM      3  C   UNL d   1      -0.225   4.231   0.073  0.00  0.00     0.120 A 
ATOM      4  N   UNL d   1       1.126   4.343  -0.072  0.00  0.00    -0.353 N 
ATOM      5  C   UNL d   1       1.820   3.231  -0.422  0.00  0.00     0.105 A 
ATOM      6  HN  UNL d   1       1.600   5.234   0.077  1.00  0.00     0.166 HD
ATOM      7  C   UNL d   1       1.242   1.992  -0.649  0.00  0.00     0.065 A 
ATOM      8  C   UNL d   1      -0.143   1.887  -0.495  0.00  0.00     0.044 A 
ATOM      9  C   UNL d   1      -0.886   3.013  -0.137  0.00  0.00     0.074 A 
ATOM     10 CL   UNL d   1      -2.594   2.856   0.044  0.00  0.00    -0.081 Cl
BRANCH   7  11
ATOM     11  C   UNL d   1       2.103   0.836  -1.056  0.00  0.00     0.418 C 
ATOM     12  F   UNL d   1       1.411  -0.323  -1.227  0.00  0.00    -0.166 F 
ATOM     13  F   UNL d   1       3.070   0.563  -0.138  0.00  0.00    -0.166 F 
ATOM     14  F   UNL d   1       2.753   1.063  -2.229  0.00  0.00    -0.166 F 
ENDBRANCH   7  11
ENDBRANCH   1   3
BRANCH   1  15
ATOM     15  N   UNL d   1      -0.140   6.481   0.721  0.00  0.00    -0.281 N 
ATOM     16  C   UNL d   1      -0.745   7.696   0.973  0.00  0.00     0.266 C 
ATOM     17  O   UNL d   1      -1.962   7.848   1.043  0.00  0.00    -0.266 OA
ATOM     18  H   UNL d   1       0.837   6.371   0.450  0.00  0.00     0.184 HD
BRANCH  16  19
ATOM     19  C   UNL d   1       0.161   8.865   1.173  0.00  0.00     0.035 A 
ATOM     20  C   UNL d   1       1.507   8.722   1.532  0.00  0.00     0.042 A 
ATOM     21  C   UNL d   1       2.300   9.855   1.754  0.00  0.00     0.056 A 
ATOM     22 CL   UNL d   1       3.951   9.598   2.201  0.00  0.00    -0.083 Cl
ATOM     23  C   UNL d   1       1.752  11.136   1.623  0.00  0.00     0.055 A 
ATOM     24  C   UNL d   1       0.411  11.281   1.264  0.00  0.00     0.026 A 
ATOM     25 CL   UNL d   1       2.671  12.572   1.904  0.00  0.00    -0.083 Cl
ATOM     26  C   UNL d   1      -0.381  10.151   1.042  0.00  0.00     0.019 A 
ENDBRANCH  16  19
ENDBRANCH   1  15
TORSDOF 4
