REMARK  4 active torsions:
REMARK  status: ('A' for Active; 'I' for Inactive)
REMARK    1  A    between atoms: N_2  and  C_1 
REMARK    2  A    between atoms: N_4  and  C_3 
REMARK    3  A    between atoms: C_17  and  C_10 
REMARK    4  A    between atoms: O_14  and  C_17 
ROOT
ATOM      1  C   UNL d   1       1.417  -0.138   0.063  0.00  0.00     0.130 A 
ATOM      2  C   UNL d   1       0.651  -1.320   0.005  0.00  0.00     0.063 A 
ATOM      3  C   UNL d   1       0.849   1.145   0.144  0.00  0.00     0.047 A 
ATOM      4  C   UNL d   1      -0.742  -1.134  -0.005  0.00  0.00     0.032 A 
ATOM      5  C   UNL d   1      -0.538   1.299   0.136  0.00  0.00    -0.032 A 
ATOM      6  C   UNL d   1      -1.326   0.144   0.063  0.00  0.00     0.012 A 
ENDROOT
BRANCH   2   7
ATOM      7  N   UNL d   1       1.211  -2.588  -0.065  0.00  0.00    -0.375 N 
ATOM      8  C   UNL d   1       0.507  -3.707  -0.718  0.00  0.00     0.149 C 
ATOM      9  C   UNL d   1       1.554  -4.730  -1.199  0.00  0.00     0.187 C 
ATOM     10  O   UNL d   1       2.386  -5.188  -0.117  0.00  0.00    -0.388 OA
ATOM     11  C   UNL d   1       3.070  -4.078   0.494  0.00  0.00     0.187 C 
ATOM     12  C   UNL d   1       2.066  -3.054   1.050  0.00  0.00     0.149 C 
ENDBRANCH   2   7
BRANCH   1  13
ATOM     13  N   UNL d   1       2.865  -0.183  -0.029  0.00  0.00    -0.113 N 
ATOM     14  O   UNL d   1       3.369  -0.639  -1.067  0.00  0.00    -0.532 OA
ATOM     15  O   UNL d   1       3.501   0.263   0.937  0.00  0.00    -0.532 OA
ENDBRANCH   1  13
BRANCH   5  16
ATOM     16  C   UNL d   1      -1.179   2.655   0.261  0.00  0.00     0.203 C 
BRANCH  16  17
ATOM     17  O   UNL d   1      -0.342   3.656  -0.302  0.00  0.00    -0.396 OA
ATOM     18  H   UNL d   1      -0.794   4.506  -0.172  0.00  0.00     0.209 HD
ENDBRANCH  16  17
ENDBRANCH   5  16
TORSDOF 4
