REMARK  5 active torsions:
REMARK  status: ('A' for Active; 'I' for Inactive)
REMARK    1  A    between atoms: C_27  and  N_1 
REMARK    2  A    between atoms: C_2  and  N_13 
REMARK    3  A    between atoms: S_17  and  C_9 
REMARK       I    between atoms: N_13  and  C_18 
REMARK    4  A    between atoms: C_26  and  S_17 
REMARK    5  A    between atoms: C_18  and  C_26 
ROOT
ATOM      1  C   UNL d   1      -6.521   0.268   0.641  0.00  0.00     0.098 C 
ATOM      2  C   UNL d   1      -7.479   0.039  -0.318  0.00  0.00     0.085 C 
ATOM      3  C   UNL d   1      -8.706   0.671   0.014  0.00  0.00    -0.021 C 
ATOM      4  C   UNL d   1      -8.485   1.706   0.898  0.00  0.00    -0.007 C 
ATOM      5  S   UNL d   1      -6.963   1.577   1.660  0.00  0.00    -0.075 SA
ATOM      6  C   UNL d   1      -7.241  -0.605  -1.572  0.00  0.00     0.103 C 
ATOM      7  N   UNL d   1      -7.052  -0.984  -2.658  0.00  0.00    -0.191 NA
ATOM      8  C   UNL d   1     -10.023   0.553  -0.668  0.00  0.00     0.042 C 
ATOM      9  C   UNL d   1      -9.472   2.821   1.097  0.00  0.00     0.051 C 
ATOM     10  C   UNL d   1     -10.344   1.918  -1.254  0.00  0.00     0.009 C 
ATOM     11  C   UNL d   1     -10.359   3.047  -0.183  0.00  0.00    -0.014 C 
ATOM     12  C   UNL d   1     -10.029   4.377  -0.877  0.00  0.00     0.010 C 
ENDROOT
BRANCH   1  13
ATOM     13  N   UNL d   1      -5.274  -0.284   0.868  0.00  0.00    -0.319 N 
ATOM     14  C   UNL d   1      -5.001  -1.580   0.468  0.00  0.00     0.232 C 
ATOM     15  O   UNL d   1      -5.858  -2.362   0.050  0.00  0.00    -0.272 OA
ATOM     16  H   UNL d   1      -4.666   0.155   1.547  0.00  0.00     0.169 HD
BRANCH  14  17
ATOM     17  C   UNL d   1      -3.552  -2.023   0.483  0.00  0.00     0.185 C 
BRANCH  17  18
ATOM     18  S   UNL d   1      -2.521  -1.178   1.708  0.00  0.00    -0.083 SA
BRANCH  18  19
ATOM     19  C   UNL d   1      -0.961  -1.726   1.179  0.00  0.00     0.163 C 
ATOM     20  N   UNL d   1       0.231  -1.235   1.650  0.00  0.00    -0.311 N 
ATOM     21  C   UNL d   1       1.192  -1.724   0.788  0.00  0.00     0.141 C 
ATOM     22  N   UNL d   1       0.609  -2.596  -0.019  0.00  0.00    -0.282 N 
ATOM     23  C   UNL d   1       2.569  -1.321   0.644  0.00  0.00     0.050 A 
ATOM     24  N   UNL d   1      -0.739  -2.593   0.224  0.00  0.00    -0.278 N 
ATOM     25  HN  UNL d   1       1.086  -3.176  -0.709  1.00  0.00     0.188 HD
ATOM     26  HN  UNL d   1      -1.440  -3.161  -0.251  1.00  0.00     0.189 HD
ATOM     27  S   UNL d   1       3.350  -1.533  -0.884  0.00  0.00    -0.098 SA
ATOM     28  C   UNL d   1       3.441  -0.735   1.544  0.00  0.00     0.023 A 
ATOM     29  C   UNL d   1       4.777  -0.761  -0.357  0.00  0.00     0.050 A 
ATOM     30  C   UNL d   1       4.699  -0.388   0.963  0.00  0.00     0.009 A 
BRANCH  20  31
ATOM     31  C   UNL d   1       0.389  -0.369   2.796  0.00  0.00     0.128 C 
ATOM     32  C   UNL d   1       0.398   1.105   2.435  0.00  0.00     0.027 C 
ENDBRANCH  20  31
ENDBRANCH  18  19
ENDBRANCH  17  18
ENDBRANCH  14  17
ENDBRANCH   1  13
TORSDOF 5
