REMARK  5 active torsions:
REMARK  status: ('A' for Active; 'I' for Inactive)
REMARK    1  A    between atoms: C_2  and  S_1 
REMARK    2  A    between atoms: O_3  and  S_1 
REMARK    3  A    between atoms: C_4  and  O_3 
REMARK    4  A    between atoms: O_18  and  C_10 
REMARK    5  A    between atoms: O_19  and  C_16 
ROOT
ATOM      1  S   UNL d   1       0.583   0.194   0.016  0.00  0.00     0.305 S 
ATOM      2  O   UNL d   1      -0.662   0.958   0.151  0.00  0.00    -0.193 OA
ATOM      3  O   UNL d   1       1.818   0.775  -0.428  0.00  0.00    -0.193 OA
ENDROOT
BRANCH   1   4
ATOM      4  C   UNL d   1       0.248  -1.105  -1.149  0.00  0.00     0.122 A 
ATOM      5  C   UNL d   1       0.748  -2.372  -0.810  0.00  0.00     0.065 A 
ATOM      6  C   UNL d   1       0.425  -3.491  -1.577  0.00  0.00     0.069 A 
ATOM      7  C   UNL d   1      -0.393  -3.325  -2.690  0.00  0.00     0.039 A 
ATOM      8  C   UNL d   1      -0.869  -2.057  -3.040  0.00  0.00     0.041 A 
ATOM      9  C   UNL d   1      -0.546  -0.920  -2.287  0.00  0.00     0.092 A 
BRANCH   6  10
ATOM     10  O   UNL d   1       0.822  -4.776  -1.336  0.00  0.00    -0.356 OA
ATOM     11  C   UNL d   1       1.712  -4.989  -0.247  0.00  0.00     0.210 C 
ENDBRANCH   6  10
BRANCH   9  12
ATOM     12  O   UNL d   1      -1.165   0.203  -2.752  0.00  0.00    -0.354 OA
ATOM     13  C   UNL d   1      -0.442   1.428  -2.799  0.00  0.00     0.210 C 
ENDBRANCH   9  12
ENDBRANCH   1   4
BRANCH   1  14
ATOM     14  O   UNL d   1       0.828  -0.579   1.422  0.00  0.00    -0.228 OA
BRANCH  14  15
ATOM     15  C   UNL d   1       1.054  -0.009   2.641  0.00  0.00     0.106 C 
ATOM     16  C   UNL d   1       1.502   1.266   2.999  0.00  0.00     0.048 C 
ATOM     17  C   UNL d   1       1.772   1.534   4.357  0.00  0.00    -0.025 C 
ATOM     18  I   UNL d   1       1.290   3.073   1.835  0.00  0.00    -0.041 I 
ATOM     19  C   UNL d   1       2.531   2.615   4.834  0.00  0.00     0.068 C 
ATOM     20  C   UNL d   1       0.940   0.910   5.262  0.00  0.00    -0.028 C 
ATOM     21  C   UNL d   1       1.861   3.543   5.616  0.00  0.00    -0.022 C 
ATOM     22  C   UNL d   1       0.726   3.119   6.283  0.00  0.00    -0.003 C 
ATOM     23  C   UNL d   1       0.356   1.763   6.226  0.00  0.00     0.011 C 
ATOM     24  C   UNL d   1       0.619  -0.426   4.994  0.00  0.00     0.015 C 
ATOM     25  C   UNL d   1       0.793  -0.909   3.694  0.00  0.00     0.040 C 
ENDBRANCH  14  15
ENDBRANCH   1  14
TORSDOF 5
