REMARK  0 active torsions:
REMARK  status: ('A' for Active; 'I' for Inactive)
ROOT
ATOM      1  N   UNL d   1      -0.914   0.505  -0.000  0.00  0.00    -0.319 N 
ATOM      2  N   UNL d   1       0.250  -2.043   0.000  0.00  0.00    -0.362 N 
ATOM      3  HN  UNL d   1       0.686  -2.965   0.000  1.00  0.00     0.165 HD
ATOM      4  C   UNL d   1      -1.679  -0.636  -0.000  0.00  0.00     0.054 A 
ATOM      5  C   UNL d   1       0.491   0.430  -0.000  0.00  0.00     0.066 A 
ATOM      6  C   UNL d   1      -1.042  -1.920  -0.000  0.00  0.00     0.118 A 
ATOM      7  C   UNL d   1       1.038  -0.868   0.001  0.00  0.00     0.059 A 
ATOM      8  C   UNL d   1      -1.748   1.597  -0.000  0.00  0.00     0.098 A 
ATOM      9  C   UNL d   1      -3.052   1.143   0.000  0.00  0.00     0.020 A 
ATOM     10  C   UNL d   1      -3.009  -0.273   0.000  0.00  0.00     0.033 A 
ATOM     11  C   UNL d   1       1.305   1.567  -0.000  0.00  0.00     0.032 A 
ATOM     12  C   UNL d   1       2.427  -1.002   0.002  0.00  0.00     0.032 A 
ATOM     13  C   UNL d   1       2.691   1.405   0.001  0.00  0.00     0.002 A 
ATOM     14  C   UNL d   1       3.251   0.126   0.002  0.00  0.00     0.002 A 
ENDROOT
TORSDOF 0
