REMARK  2 active torsions:
REMARK  status: ('A' for Active; 'I' for Inactive)
REMARK    1  A    between atoms: C_5  and  C_1 
REMARK       I    between atoms: N_9  and  C_5 
REMARK    2  A    between atoms: N_10  and  N_9 
ROOT
ATOM      1  C   UNL d   1      -1.524  -1.182   0.028  0.00  0.00     0.130 A 
ATOM      2  N   UNL d   1      -2.349  -0.111   0.039  0.00  0.00    -0.294 N 
ATOM      3  HN  UNL d   1      -3.369  -0.103   0.055  1.00  0.00     0.187 HD
ATOM      4  C   UNL d   1      -0.155  -0.781   0.021  0.00  0.00     0.026 A 
ATOM      5  N   UNL d   1      -1.512   0.941   0.025  0.00  0.00    -0.299 N 
ATOM      6  C   UNL d   1      -0.186   0.609   0.014  0.00  0.00     0.060 A 
ATOM      7  C   UNL d   1       1.096  -1.429   0.016  0.00  0.00     0.016 A 
ATOM      8  C   UNL d   1       0.965   1.403  -0.003  0.00  0.00     0.032 A 
ATOM      9  C   UNL d   1       2.263  -0.654   0.003  0.00  0.00     0.001 A 
ATOM     10  C   UNL d   1       2.196   0.739  -0.008  0.00  0.00     0.002 A 
ATOM     11  H   UNL d   1      -1.910   1.873   0.023  0.00  0.00     0.187 HD
ENDROOT
BRANCH   1  12
ATOM     12  C   UNL d   1      -2.058  -2.552   0.015  0.00  0.00     0.284 C 
ATOM     13  O   UNL d   1      -1.363  -3.565  -0.045  0.00  0.00    -0.265 OA
ATOM     14  N   UNL d   1      -3.450  -2.588   0.068  0.00  0.00    -0.288 N 
ATOM     15  H   UNL d   1      -3.929  -1.694   0.191  0.00  0.00     0.183 HD
BRANCH  14  16
ATOM     16  N   UNL d   1      -4.155  -3.811   0.115  0.00  0.00    -0.247 NA
ATOM     17  H   UNL d   1      -3.455  -4.559   0.209  0.00  0.00     0.143 HD
ATOM     18  H   UNL d   1      -4.572  -3.967  -0.806  0.00  0.00     0.143 HD
ENDBRANCH  14  16
ENDBRANCH   1  12
TORSDOF 2
