REMARK  6 active torsions:
REMARK  status: ('A' for Active; 'I' for Inactive)
REMARK       I    between atoms: N_4  and  C_1 
REMARK    1  A    between atoms: C_5  and  C_1 
REMARK    2  A    between atoms: C_2  and  N_4 
REMARK    3  A    between atoms: C_3  and  C_9 
REMARK    4  A    between atoms: N_8  and  C_6 
REMARK    5  A    between atoms: C_10  and  C_7 
REMARK    6  A    between atoms: O_19  and  C_10 
ROOT
ATOM      1  C   UNL d   1       0.818  -1.867   1.792  0.00  0.00     0.057 A 
ATOM      2  C   UNL d   1       2.073  -1.541   2.369  0.00  0.00     0.037 A 
ATOM      3  C   UNL d   1       0.939  -4.139   2.671  0.00  0.00     0.050 A 
ATOM      4  C   UNL d   1       0.269  -3.146   1.945  0.00  0.00     0.047 A 
ATOM      5  C   UNL d   1       2.721  -2.544   3.110  0.00  0.00     0.027 A 
ATOM      6  C   UNL d   1       2.165  -3.821   3.258  0.00  0.00     0.018 A 
ENDROOT
BRANCH   1   7
ATOM      7  N   UNL d   1       0.170  -0.862   1.030  0.00  0.00    -0.321 N 
ATOM      8  C   UNL d   1      -1.144  -0.859   0.641  0.00  0.00     0.257 C 
ATOM      9  O   UNL d   1      -2.007  -1.697   0.869  0.00  0.00    -0.267 OA
ATOM     10  H   UNL d   1       0.776  -0.071   0.823  0.00  0.00     0.169 HD
BRANCH   8  11
ATOM     11  C   UNL d   1      -1.567   0.272  -0.191  0.00  0.00     0.049 A 
ATOM     12  C   UNL d   1      -1.185   0.364  -1.530  0.00  0.00     0.053 A 
ATOM     13  C   UNL d   1      -1.695   1.406  -2.318  0.00  0.00     0.019 A 
ATOM     14  C   UNL d   1      -2.610   2.314  -1.778  0.00  0.00     0.001 A 
ATOM     15  C   UNL d   1      -3.010   2.196  -0.447  0.00  0.00     0.001 A 
ATOM     16  C   UNL d   1      -2.492   1.175   0.350  0.00  0.00     0.018 A 
BRANCH  12  17
ATOM     17  C   UNL d   1      -0.257  -0.587  -2.175  0.00  0.00     0.177 C 
ATOM     18  O   UNL d   1       0.658  -0.203  -2.882  0.00  0.00    -0.646 OA
BRANCH  17  19
ATOM     19  O   UNL d   1      -0.560  -1.887  -1.985  0.00  0.00    -0.773 OA
ATOM     20  H   UNL d   1      -1.342  -2.094  -1.432  0.00  0.00     0.167 HD
ENDBRANCH  17  19
ENDBRANCH  12  17
ENDBRANCH   8  11
ENDBRANCH   1   7
BRANCH   2  21
ATOM     21  N   UNL d   1       2.593  -0.235   2.228  0.00  0.00    -0.281 NA
ATOM     22  C   UNL d   1       4.045  -0.008   2.371  0.00  0.00     0.096 C 
ATOM     23  C   UNL d   1       4.181   0.910   3.580  0.00  0.00     0.016 C 
ATOM     24  C   UNL d   1       2.940   1.773   3.459  0.00  0.00     0.016 C 
ATOM     25  C   UNL d   1       1.874   0.755   3.069  0.00  0.00     0.096 C 
ENDBRANCH   2  21
BRANCH   3  26
ATOM     26  C   UNL d   1       0.347  -5.517   2.823  0.00  0.00     0.417 C 
ATOM     27  F   UNL d   1      -0.783  -5.719   2.090  0.00  0.00    -0.166 F 
ATOM     28  F   UNL d   1       1.212  -6.501   2.448  0.00  0.00    -0.166 F 
ATOM     29  F   UNL d   1       0.008  -5.793   4.113  0.00  0.00    -0.166 F 
ENDBRANCH   3  26
TORSDOF 6
