REMARK  1 active torsions:
REMARK  status: ('A' for Active; 'I' for Inactive)
REMARK       I    between atoms: C_2  and  N_3 
REMARK    1  A    between atoms: N_3  and  C_4 
ROOT
ATOM      1  C   UNL d   1       0.216   0.671   0.040  0.00  0.00    -0.050 A 
ATOM      2  C   UNL d   1      -2.180   0.660  -0.063  0.00  0.00     0.035 A 
ATOM      3  C   UNL d   1      -0.980   1.370   0.003  0.00  0.00     0.037 A 
ATOM      4  C   UNL d   1       0.246  -0.723   0.027  0.00  0.00    -0.052 A 
ATOM      5  C   UNL d   1      -0.929  -1.450  -0.017  0.00  0.00     0.010 A 
ATOM      6  C   UNL d   1      -2.144  -0.750  -0.069  0.00  0.00     0.030 A 
ATOM      7  C   UNL d   1       1.595   1.242   0.148  0.00  0.00     0.039 C 
ATOM      8  C   UNL d   1       2.442   0.040  -0.284  0.00  0.00     0.009 C 
ATOM      9  C   UNL d   1       1.655  -1.219   0.117  0.00  0.00     0.039 C 
ENDROOT
BRANCH   2  10
ATOM     10  N   UNL d   1      -3.445   1.288  -0.123  0.00  0.00    -0.328 N 
ATOM     11  C   UNL d   1      -3.696   2.648  -0.148  0.00  0.00     0.218 C 
ATOM     12  O   UNL d   1      -2.865   3.554  -0.122  0.00  0.00    -0.274 OA
ATOM     13  C   UNL d   1      -5.161   2.993  -0.218  0.00  0.00     0.117 C 
ATOM     14  H   UNL d   1      -4.244   0.666  -0.163  0.00  0.00     0.169 HD
ENDBRANCH   2  10
TORSDOF 1
