REMARK  6 active torsions:
REMARK  status: ('A' for Active; 'I' for Inactive)
REMARK    1  A    between atoms: C_4  and  C_1 
REMARK       I    between atoms: C_5  and  N_2 
REMARK    2  A    between atoms: N_3  and  C_7 
REMARK    3  A    between atoms: C_10  and  C_5 
REMARK    4  A    between atoms: C_6  and  O_13 
REMARK    5  A    between atoms: C_27  and  C_12 
REMARK    6  A    between atoms: O_13  and  C_28 
ROOT
ATOM      1  N   UNL d   1      -1.820  -2.542   7.437  0.00  0.00    -0.346 N 
ATOM      2  N   UNL d   1      -0.528  -0.978   5.402  0.00  0.00    -0.364 N 
ATOM      3  C   UNL d   1      -2.152  -2.748   8.763  0.00  0.00     0.243 C 
ATOM      4  C   UNL d   1      -0.472  -2.916   6.975  0.00  0.00     0.146 C 
ATOM      5  C   UNL d   1      -2.618  -1.895   6.381  0.00  0.00     0.146 C 
ATOM      6  C   UNL d   1      -1.894  -0.653   5.837  0.00  0.00     0.144 C 
ATOM      7  C   UNL d   1       0.299  -1.722   6.364  0.00  0.00     0.144 C 
ATOM      8  O   UNL d   1      -1.361  -3.243   9.562  0.00  0.00    -0.268 OA
ENDROOT
BRANCH   3   9
ATOM      9  C   UNL d   1      -3.521  -2.358   9.232  0.00  0.00     0.075 C 
ATOM     10  C   UNL d   1      -3.835  -2.493  10.534  0.00  0.00     0.017 C 
BRANCH  10  11
ATOM     11  C   UNL d   1      -5.140  -2.191  11.151  0.00  0.00    -0.036 A 
ATOM     12  C   UNL d   1      -6.356  -2.276  10.460  0.00  0.00     0.014 A 
ATOM     13  C   UNL d   1      -7.580  -2.066  11.118  0.00  0.00     0.038 A 
ATOM     14  C   UNL d   1      -7.608  -1.811  12.485  0.00  0.00     0.078 A 
ATOM     15  C   UNL d   1      -6.399  -1.686  13.172  0.00  0.00     0.038 A 
ATOM     16  C   UNL d   1      -5.178  -1.885  12.516  0.00  0.00     0.014 A 
BRANCH  14  17
ATOM     17  O   UNL d   1      -8.716  -1.616  13.250  0.00  0.00    -0.255 OA
BRANCH  17  18
ATOM     18  C   UNL d   1      -9.931  -2.274  12.919  0.00  0.00     0.530 C 
ATOM     19  F   UNL d   1      -9.817  -3.204  11.949  0.00  0.00    -0.144 F 
ATOM     20  F   UNL d   1     -10.400  -2.892  14.028  0.00  0.00    -0.144 F 
ATOM     21  F   UNL d   1     -10.845  -1.355  12.537  0.00  0.00    -0.144 F 
ENDBRANCH  17  18
ENDBRANCH  14  17
ENDBRANCH  10  11
ENDBRANCH   3   9
BRANCH   2  22
ATOM     22  C   UNL d   1      -0.217  -0.887   4.062  0.00  0.00     0.103 A 
ATOM     23  C   UNL d   1       1.094  -0.684   3.633  0.00  0.00     0.049 A 
ATOM     24  C   UNL d   1       1.367  -0.463   2.280  0.00  0.00     0.021 A 
ATOM     25  C   UNL d   1       0.325  -0.463   1.356  0.00  0.00     0.063 A 
ATOM     26  C   UNL d   1      -0.943  -0.709   1.849  0.00  0.00     0.106 A 
ATOM     27  N   UNL d   1      -1.224  -0.910   3.160  0.00  0.00    -0.352 N 
ATOM     28  HN  UNL d   1      -2.184  -1.077   3.463  1.00  0.00     0.166 HD
BRANCH  25  29
ATOM     29  C   UNL d   1       0.549  -0.176  -0.095  0.00  0.00     0.418 C 
ATOM     30  F   UNL d   1      -0.589  -0.209  -0.842  0.00  0.00    -0.166 F 
ATOM     31  F   UNL d   1       1.403  -1.061  -0.679  0.00  0.00    -0.166 F 
ATOM     32  F   UNL d   1       1.092   1.056  -0.303  0.00  0.00    -0.166 F 
ENDBRANCH  25  29
ENDBRANCH   2  22
TORSDOF 6
