REMARK  3 active torsions:
REMARK  status: ('A' for Active; 'I' for Inactive)
REMARK    1  A    between atoms: C_7  and  C_1 
REMARK       I    between atoms: N_11  and  C_7 
REMARK    2  A    between atoms: C_18  and  N_11 
REMARK    3  A    between atoms: C_13  and  C_18 
ROOT
ATOM      1  C   UNL d   1      -1.294  -2.771   0.056  0.00  0.00     0.254 C 
ATOM      2  N   UNL d   1      -0.316  -3.744   0.104  0.00  0.00    -0.352 N 
ATOM      3  O   UNL d   1      -1.014  -1.572   0.048  0.00  0.00    -0.268 OA
ATOM      4  H   UNL d   1      -0.574  -4.724   0.093  0.00  0.00     0.163 HD
ENDROOT
BRANCH   1   5
ATOM      5  C   UNL d   1      -2.724  -3.133  -0.004  0.00  0.00     0.061 A 
ATOM      6  C   UNL d   1      -3.248  -4.449   0.007  0.00  0.00     0.082 A 
ATOM      7  N   UNL d   1      -2.571  -5.612   0.078  0.00  0.00    -0.310 N 
ATOM      8  C   UNL d   1      -4.755  -4.663  -0.069  0.00  0.00     0.068 A 
ATOM      9  S   UNL d   1      -3.705  -6.829   0.058  0.00  0.00     0.068 SA
ATOM     10  HN  UNL d   1      -1.559  -5.725   0.134  1.00  0.00     0.176 HD
ATOM     11  N   UNL d   1      -5.109  -5.955  -0.049  0.00  0.00    -0.310 N 
ATOM     12  HN  UNL d   1      -6.058  -6.328  -0.092  1.00  0.00     0.176 HD
ATOM     13  C   UNL d   1      -5.655  -3.572  -0.152  0.00  0.00     0.032 A 
ATOM     14  C   UNL d   1      -5.082  -2.295  -0.156  0.00  0.00     0.003 A 
ATOM     15  C   UNL d   1      -3.686  -2.089  -0.084  0.00  0.00     0.019 A 
ENDBRANCH   1   5
BRANCH   2  16
ATOM     16  C   UNL d   1       1.065  -3.293   0.115  0.00  0.00     0.164 C 
BRANCH  16  17
ATOM     17  C   UNL d   1       2.185  -4.306   0.165  0.00  0.00    -0.004 A 
ATOM     18  C   UNL d   1       3.514  -3.819   0.188  0.00  0.00     0.110 A 
ATOM     19  C   UNL d   1       4.606  -4.696   0.236  0.00  0.00     0.102 A 
ATOM     20  O   UNL d   1       3.685  -2.451   0.170  0.00  0.00    -0.346 OA
ATOM     21  O   UNL d   1       5.915  -4.286   0.284  0.00  0.00    -0.346 OA
ATOM     22  C   UNL d   1       4.393  -6.069   0.223  0.00  0.00     0.040 A 
ATOM     23  C   UNL d   1       6.025  -2.900   0.622  0.00  0.00     0.202 C 
ATOM     24  C   UNL d   1       5.024  -2.077  -0.168  0.00  0.00     0.202 C 
ATOM     25  C   UNL d   1       3.090  -6.566   0.190  0.00  0.00     0.003 A 
ATOM     26  C   UNL d   1       1.993  -5.693   0.166  0.00  0.00     0.012 A 
ENDBRANCH  16  17
ENDBRANCH   2  16
TORSDOF 3
