REMARK  5 active torsions:
REMARK  status: ('A' for Active; 'I' for Inactive)
REMARK    1  A    between atoms: C_4  and  C_1 
REMARK    2  A    between atoms: C_3  and  C_2 
REMARK       I    between atoms: N_9  and  C_4 
REMARK    3  A    between atoms: C_13  and  N_9 
REMARK    4  A    between atoms: C_10  and  C_13 
REMARK    5  A    between atoms: O_21  and  C_11 
ROOT
ATOM      1  C   UNL d   1       0.631   1.231   0.013  0.00  0.00     0.062 A 
ATOM      2  C   UNL d   1      -0.610   0.807   0.508  0.00  0.00     0.069 A 
ATOM      3  C   UNL d   1       1.453   0.261  -0.571  0.00  0.00     0.108 A 
ATOM      4  N   UNL d   1       1.127  -1.045  -0.727  0.00  0.00    -0.346 N 
ATOM      5  HN  UNL d   1       1.762  -1.705  -1.176  1.00  0.00     0.167 HD
ATOM      6  C   UNL d   1      -0.072  -1.426  -0.262  0.00  0.00     0.142 A 
ATOM      7  C   UNL d   1      -0.955  -0.553   0.350  0.00  0.00     0.073 A 
ENDROOT
BRANCH   1   8
ATOM      8  C   UNL d   1       1.228   2.589   0.069  0.00  0.00     0.254 C 
ATOM      9  N   UNL d   1       0.415   3.677  -0.158  0.00  0.00    -0.353 N 
ATOM     10  H   UNL d   1      -0.589   3.578  -0.156  0.00  0.00     0.163 HD
ATOM     11  O   UNL d   1       2.434   2.687   0.258  0.00  0.00    -0.268 OA
BRANCH   9  12
ATOM     12  C   UNL d   1       0.912   5.033   0.022  0.00  0.00     0.163 C 
BRANCH  12  13
ATOM     13  C   UNL d   1       0.536   5.991  -1.090  0.00  0.00    -0.017 A 
ATOM     14  C   UNL d   1       0.900   7.355  -1.008  0.00  0.00     0.063 A 
ATOM     15  C   UNL d   1       0.575   8.240  -2.051  0.00  0.00     0.056 A 
ATOM     16 CL   UNL d   1       1.758   7.936   0.389  0.00  0.00    -0.082 Cl
ATOM     17 CL   UNL d   1       0.999   9.917  -2.019  0.00  0.00    -0.083 Cl
ATOM     18  C   UNL d   1      -0.116   7.779  -3.173  0.00  0.00     0.026 A 
ATOM     19  C   UNL d   1      -0.480   6.440  -3.265  0.00  0.00     0.002 A 
ATOM     20  C   UNL d   1      -0.153   5.554  -2.237  0.00  0.00     0.011 A 
ENDBRANCH  12  13
ENDBRANCH   9  12
ENDBRANCH   1   8
BRANCH   2  21
ATOM     21  C   UNL d   1      -1.617   1.662   1.218  0.00  0.00     0.418 C 
ATOM     22  F   UNL d   1      -1.220   2.925   1.511  0.00  0.00    -0.166 F 
ATOM     23  F   UNL d   1      -2.751   1.808   0.476  0.00  0.00    -0.166 F 
ATOM     24  F   UNL d   1      -2.015   1.123   2.402  0.00  0.00    -0.166 F 
ENDBRANCH   2  21
BRANCH   6  25
ATOM     25  O   UNL d   1      -0.476  -2.739  -0.372  0.00  0.00    -0.341 OA
ATOM     26  C   UNL d   1       0.487  -3.564  -1.021  0.00  0.00     0.211 C 
ENDBRANCH   6  25
TORSDOF 5
