REMARK  4 active torsions:
REMARK  status: ('A' for Active; 'I' for Inactive)
REMARK    1  A    between atoms: C_5  and  C_1 
REMARK    2  A    between atoms: C_6  and  C_13 
REMARK    3  A    between atoms: N_7  and  C_15 
REMARK    4  A    between atoms: O_19  and  C_11 
ROOT
ATOM      1  C   UNL d   1      -3.948  -3.024   4.016  0.00  0.00     0.035 A 
ATOM      2  C   UNL d   1      -4.508  -1.994   3.213  0.00  0.00     0.046 A 
ATOM      3  C   UNL d   1      -4.698  -3.568   5.076  0.00  0.00     0.017 A 
ATOM      4  C   UNL d   1      -5.858  -1.668   3.418  0.00  0.00     0.030 A 
ATOM      5  C   UNL d   1      -6.014  -3.177   5.299  0.00  0.00     0.001 A 
ATOM      6  C   UNL d   1      -6.601  -2.244   4.455  0.00  0.00     0.002 A 
ENDROOT
BRANCH   2   7
ATOM      7  N   UNL d   1      -3.748  -1.450   2.160  0.00  0.00    -0.364 N 
ATOM      8  C   UNL d   1      -3.812  -0.261   1.637  0.00  0.00     0.102 C 
ATOM      9  HN  UNL d   1      -3.052  -2.074   1.751  1.00  0.00     0.165 HD
BRANCH   8  10
ATOM     10  C   UNL d   1      -4.611   0.954   1.919  0.00  0.00     0.016 A 
ATOM     11  C   UNL d   1      -5.009   1.732   0.819  0.00  0.00     0.099 A 
ATOM     12  C   UNL d   1      -5.683   2.942   1.009  0.00  0.00     0.069 A 
ATOM     13 CL   UNL d   1      -6.157   3.900  -0.347  0.00  0.00    -0.081 Cl
ATOM     14  C   UNL d   1      -5.966   3.393   2.292  0.00  0.00     0.050 A 
ATOM     15  C   UNL d   1      -5.566   2.622   3.386  0.00  0.00     0.036 A 
ATOM     16  C   UNL d   1      -4.882   1.412   3.212  0.00  0.00     0.039 A 
ATOM     17 CL   UNL d   1      -5.910   3.190   4.974  0.00  0.00    -0.084 Cl
BRANCH  11  18
ATOM     18  O   UNL d   1      -4.734   1.290  -0.452  0.00  0.00    -0.358 OA
ATOM     19  H   UNL d   1      -5.108   1.934  -1.085  0.00  0.00     0.217 HD
ENDBRANCH  11  18
ENDBRANCH   8  10
ENDBRANCH   2   7
BRANCH   1  20
ATOM     20  C   UNL d   1      -2.663  -3.687   3.716  0.00  0.00     0.118 C 
ATOM     21  N   UNL d   1      -2.016  -4.536   4.497  0.00  0.00    -0.340 N 
ATOM     22  C   UNL d   1      -1.074  -5.144   3.703  0.00  0.00     0.060 A 
ATOM     23  HN  UNL d   1      -2.183  -4.705   5.489  1.00  0.00     0.167 HD
ATOM     24  C   UNL d   1      -0.185  -6.187   4.003  0.00  0.00     0.032 A 
ATOM     25  C   UNL d   1      -1.103  -4.622   2.416  0.00  0.00     0.060 A 
ATOM     26  C   UNL d   1       0.627  -6.694   2.981  0.00  0.00     0.002 A 
ATOM     27  C   UNL d   1       0.566  -6.163   1.691  0.00  0.00     0.002 A 
ATOM     28  C   UNL d   1      -0.298  -5.101   1.379  0.00  0.00     0.032 A 
ATOM     29  N   UNL d   1      -2.062  -3.646   2.474  0.00  0.00    -0.340 N 
ATOM     30  H   UNL d   1      -2.392  -3.061   1.718  0.00  0.00     0.167 HD
ENDBRANCH   1  20
TORSDOF 4
