REMARK  4 active torsions:
REMARK  status: ('A' for Active; 'I' for Inactive)
REMARK    1  A    between atoms: N_9  and  C_3 
REMARK    2  A    between atoms: C_10  and  C_4 
REMARK    3  A    between atoms: C_14  and  N_9 
REMARK    4  A    between atoms: C_15  and  C_14 
ROOT
ATOM      1  N   UNL d   1      -1.729   1.245  -0.103  0.00  0.00    -0.330 N 
ATOM      2  HN  UNL d   1      -2.303   2.087  -0.155  1.00  0.00     0.168 HD
ATOM      3  C   UNL d   1      -0.384   1.325  -0.091  0.00  0.00     0.106 A 
ATOM      4  C   UNL d   1      -2.299   0.022  -0.045  0.00  0.00     0.134 A 
ATOM      5  N   UNL d   1      -1.597  -1.127  -0.006  0.00  0.00    -0.343 N 
ATOM      6  HN  UNL d   1      -2.067  -2.032   0.014  1.00  0.00     0.167 HD
ATOM      7  C   UNL d   1       0.410   0.180  -0.013  0.00  0.00     0.094 A 
ATOM      8  C   UNL d   1      -0.249  -1.040   0.004  0.00  0.00     0.032 A 
ATOM      9 CL   UNL d   1       2.135   0.288  -0.005  0.00  0.00    -0.079 Cl
ATOM     10  C   UNL d   1       0.484  -2.348   0.020  0.00  0.00     0.070 C 
ENDROOT
BRANCH   3  11
ATOM     11  N   UNL d   1       0.203   2.602  -0.026  0.00  0.00    -0.273 NA
ATOM     12  H   UNL d   1       1.169   2.578  -0.341  0.00  0.00     0.129 HD
BRANCH  11  13
ATOM     13  C   UNL d   1      -0.545   3.671  -0.678  0.00  0.00     0.132 C 
BRANCH  13  14
ATOM     14  C   UNL d   1      -0.184   4.999  -0.058  0.00  0.00    -0.045 A 
ATOM     15  C   UNL d   1       0.339   6.047  -0.828  0.00  0.00     0.008 A 
ATOM     16  C   UNL d   1       0.602   7.289  -0.246  0.00  0.00     0.001 A 
ATOM     17  C   UNL d   1       0.340   7.499   1.107  0.00  0.00     0.000 A 
ATOM     18  C   UNL d   1      -0.177   6.466   1.884  0.00  0.00     0.001 A 
ATOM     19  C   UNL d   1      -0.438   5.225   1.306  0.00  0.00     0.008 A 
ENDBRANCH  13  14
ENDBRANCH  11  13
ENDBRANCH   3  11
BRANCH   4  20
ATOM     20  C   UNL d   1      -3.784  -0.049  -0.023  0.00  0.00     0.076 A 
ATOM     21  N   UNL d   1      -4.354  -1.286   0.059  0.00  0.00    -0.363 N 
ATOM     22  C   UNL d   1      -5.701  -1.370   0.071  0.00  0.00     0.088 A 
ATOM     23  HN  UNL d   1      -3.777  -2.125   0.111  1.00  0.00     0.165 HD
ATOM     24  C   UNL d   1      -6.542  -0.275   0.000  0.00  0.00     0.017 A 
ATOM     25  C   UNL d   1      -5.967   0.985  -0.079  0.00  0.00     0.004 A 
ATOM     26  C   UNL d   1      -4.577   1.102  -0.087  0.00  0.00     0.033 A 
ENDBRANCH   4  20
TORSDOF 4
