REMARK  5 active torsions:
REMARK  status: ('A' for Active; 'I' for Inactive)
REMARK    1  A    between atoms: C_5  and  C_1 
REMARK    2  A    between atoms: C_12  and  C_6 
REMARK    3  A    between atoms: O_16  and  C_8 
REMARK    4  A    between atoms: O_20  and  C_15 
REMARK    5  A    between atoms: O_19  and  C_18 
ROOT
ATOM      1  C   UNL d   1      -1.587   1.718  -0.165  0.00  0.00     0.024 C 
ATOM      2  N   UNL d   1      -0.473   1.601  -0.827  0.00  0.00    -0.358 N 
ATOM      3  HN  UNL d   1      -0.320   2.161  -1.665  1.00  0.00     0.166 HD
ATOM      4  S   UNL d   1      -1.219  -1.489  -0.574  0.00  0.00    -0.118 SA
ATOM      5  C   UNL d   1      -2.362  -0.600   0.569  0.00  0.00     0.091 C 
ATOM      6  C   UNL d   1      -1.963   0.823   1.007  0.00  0.00     0.078 C 
ATOM      7  C   UNL d   1       0.523   0.704  -0.394  0.00  0.00     0.049 A 
ATOM      8  C   UNL d   1       0.335  -0.681  -0.226  0.00  0.00     0.028 A 
ATOM      9  C   UNL d   1       1.790   1.251  -0.146  0.00  0.00     0.031 A 
ATOM     10  C   UNL d   1       1.410  -1.482   0.187  0.00  0.00     0.021 A 
ATOM     11  C   UNL d   1       2.661  -0.917   0.444  0.00  0.00     0.002 A 
ATOM     12  C   UNL d   1       2.853   0.451   0.275  0.00  0.00     0.002 A 
ENDROOT
BRANCH   1  13
ATOM     13  C   UNL d   1      -2.536   2.785  -0.611  0.00  0.00     0.020 A 
ATOM     14  C   UNL d   1      -2.638   3.111  -1.973  0.00  0.00     0.080 A 
ATOM     15  C   UNL d   1      -3.484   4.135  -2.398  0.00  0.00     0.074 A 
ATOM     16  C   UNL d   1      -4.227   4.867  -1.469  0.00  0.00     0.070 A 
ATOM     17  C   UNL d   1      -4.139   4.538  -0.114  0.00  0.00     0.038 A 
ATOM     18  C   UNL d   1      -3.295   3.506   0.313  0.00  0.00     0.019 A 
BRANCH  14  19
ATOM     19  O   UNL d   1      -1.945   2.442  -2.945  0.00  0.00    -0.360 OA
ATOM     20  H   UNL d   1      -1.206   1.970  -2.498  0.00  0.00     0.217 HD
ENDBRANCH  14  19
BRANCH  16  21
ATOM     21  O   UNL d   1      -4.982   5.876  -1.998  0.00  0.00    -0.356 OA
ATOM     22  C   UNL d   1      -5.684   6.703  -1.078  0.00  0.00     0.210 C 
ENDBRANCH  16  21
ENDBRANCH   1  13
BRANCH   5  23
ATOM     23  C   UNL d   1      -3.790  -0.625   0.031  0.00  0.00    -0.041 A 
ATOM     24  C   UNL d   1      -4.107  -0.106  -1.236  0.00  0.00     0.044 A 
ATOM     25  C   UNL d   1      -5.431  -0.021  -1.654  0.00  0.00     0.066 A 
ATOM     26  C   UNL d   1      -6.459  -0.499  -0.856  0.00  0.00     0.036 A 
ATOM     27  C   UNL d   1      -6.161  -1.058   0.385  0.00  0.00     0.003 A 
ATOM     28  C   UNL d   1      -4.837  -1.112   0.832  0.00  0.00     0.008 A 
BRANCH  25  29
ATOM     29  O   UNL d   1      -5.754   0.553  -2.848  0.00  0.00    -0.361 OA
ATOM     30  H   UNL d   1      -4.956   0.976  -3.212  0.00  0.00     0.217 HD
ENDBRANCH  25  29
ENDBRANCH   5  23
TORSDOF 5
