REMARK  6 active torsions:
REMARK  status: ('A' for Active; 'I' for Inactive)
REMARK    1  A    between atoms: C_3  and  C_1 
REMARK    2  A    between atoms: C_16  and  C_2 
REMARK    3  A    between atoms: C_7  and  C_13 
REMARK    4  A    between atoms: C_14  and  C_8 
REMARK    5  A    between atoms: C_10  and  N_15 
REMARK    6  A    between atoms: N_15  and  N_11 
ROOT
ATOM      1  N   UNL d   1       0.711  -3.589  -0.126  0.00  0.00    -0.307 N 
ATOM      2  HN  UNL d   1       1.589  -3.350  -0.586  1.00  0.00     0.186 HD
ATOM      3  C   UNL d   1      -0.147  -2.671   0.187  0.00  0.00     0.126 C 
ENDROOT
BRANCH   3   4
ATOM      4  C   UNL d   1       0.211  -1.278   0.036  0.00  0.00     0.023 A 
ATOM      5  S   UNL d   1      -0.930  -0.064   0.350  0.00  0.00    -0.084 SA
ATOM      6  C   UNL d   1       0.211   1.212   0.076  0.00  0.00     0.100 A 
ATOM      7  C   UNL d   1       1.475   0.703  -0.218  0.00  0.00    -0.003 A 
ATOM      8  C   UNL d   1       1.435  -0.738  -0.291  0.00  0.00     0.034 A 
BRANCH   6   9
ATOM      9  C   UNL d   1      -0.319   2.607   0.221  0.00  0.00     0.424 C 
ATOM     10  F   UNL d   1       0.506   3.573  -0.255  0.00  0.00    -0.166 F 
ATOM     11  F   UNL d   1      -1.501   2.779  -0.433  0.00  0.00    -0.166 F 
ATOM     12  F   UNL d   1      -0.554   2.911   1.526  0.00  0.00    -0.166 F 
ENDBRANCH   6   9
BRANCH   7  13
ATOM     13  C   UNL d   1       2.694   1.497  -0.439  0.00  0.00    -0.025 A 
ATOM     14  C   UNL d   1       3.003   2.631   0.324  0.00  0.00     0.012 A 
ATOM     15  C   UNL d   1       4.179   3.353   0.093  0.00  0.00     0.001 A 
ATOM     16  C   UNL d   1       5.093   2.922  -0.865  0.00  0.00     0.000 A 
ATOM     17  C   UNL d   1       4.827   1.770  -1.599  0.00  0.00     0.001 A 
ATOM     18  C   UNL d   1       3.634   1.070  -1.394  0.00  0.00     0.012 A 
ENDBRANCH   7  13
ENDBRANCH   3   4
BRANCH   1  19
ATOM     19  N   UNL d   1       0.408  -4.895   0.179  0.00  0.00    -0.281 N 
ATOM     20  C   UNL d   1       1.540  -5.796  -0.066  0.00  0.00     0.179 C 
BRANCH  19  21
ATOM     21  C   UNL d   1      -0.869  -5.475  -0.080  0.00  0.00     0.122 A 
ATOM     22  N   UNL d   1      -1.765  -4.873  -0.898  0.00  0.00    -0.337 N 
ATOM     23  C   UNL d   1      -2.994  -5.449  -1.084  0.00  0.00     0.118 A 
ATOM     24  HN  UNL d   1      -1.528  -4.001  -1.371  1.00  0.00     0.167 HD
ATOM     25  C   UNL d   1      -3.366  -6.628  -0.440  0.00  0.00     0.034 A 
ATOM     26  C   UNL d   1      -2.465  -7.229   0.422  0.00  0.00     0.006 A 
ATOM     27  C   UNL d   1      -1.216  -6.643   0.605  0.00  0.00     0.050 A 
BRANCH  23  28
ATOM     28  C   UNL d   1      -4.010  -4.790  -2.005  0.00  0.00     0.432 C 
ATOM     29  F   UNL d   1      -3.587  -3.628  -2.584  0.00  0.00    -0.165 F 
ATOM     30  F   UNL d   1      -4.388  -5.601  -3.036  0.00  0.00    -0.165 F 
ATOM     31  F   UNL d   1      -5.169  -4.472  -1.353  0.00  0.00    -0.165 F 
ENDBRANCH  23  28
ENDBRANCH  19  21
ENDBRANCH   1  19
TORSDOF 6
