REMARK  3 active torsions:
REMARK  status: ('A' for Active; 'I' for Inactive)
REMARK    1  A    between atoms: C_6  and  C_1 
REMARK    2  A    between atoms: C_7  and  C_2 
REMARK    3  A    between atoms: O_13  and  N_8 
ROOT
ATOM      1  C   UNL d   1      -2.401  -0.214  -0.092  0.00  0.00     0.055 A 
ATOM      2  C   UNL d   1      -1.536  -1.309  -0.055  0.00  0.00     0.021 A 
ATOM      3  N   UNL d   1      -1.605   0.912  -0.037  0.00  0.00    -0.354 N 
ATOM      4  C   UNL d   1      -0.194  -0.804  -0.006  0.00  0.00     0.004 A 
ATOM      5  C   UNL d   1      -0.269   0.585  -0.017  0.00  0.00     0.043 A 
ATOM      6  C   UNL d   1       1.085  -1.403   0.014  0.00  0.00     0.014 A 
ATOM      7  C   UNL d   1       0.864   1.409  -0.010  0.00  0.00     0.030 A 
ATOM      8  C   UNL d   1       2.230  -0.598   0.015  0.00  0.00     0.001 A 
ATOM      9  C   UNL d   1       2.117   0.790   0.003  0.00  0.00     0.002 A 
ATOM     10  H   UNL d   1      -1.949   1.861  -0.015  0.00  0.00     0.166 HD
ENDROOT
BRANCH   1  11
ATOM     11  C   UNL d   1      -3.868  -0.124  -0.148  0.00  0.00    -0.008 A 
ATOM     12  C   UNL d   1      -4.676  -1.078   0.491  0.00  0.00     0.015 A 
ATOM     13  C   UNL d   1      -6.069  -1.040   0.372  0.00  0.00     0.024 A 
ATOM     14  C   UNL d   1      -6.673  -0.022  -0.357  0.00  0.00     0.034 A 
ATOM     15  C   UNL d   1      -5.895   0.961  -0.963  0.00  0.00     0.024 A 
ATOM     16 CL   UNL d   1      -8.384   0.019  -0.517  0.00  0.00    -0.084 Cl
ATOM     17  C   UNL d   1      -4.500   0.907  -0.862  0.00  0.00     0.015 A 
ENDBRANCH   1  11
BRANCH   2  18
ATOM     18  C   UNL d   1      -1.950  -2.699  -0.099  0.00  0.00     0.128 C 
ATOM     19  N   UNL d   1      -1.221  -3.609   0.460  0.00  0.00    -0.280 N 
ATOM     20  HN  UNL d   1      -0.325  -3.450   0.921  1.00  0.00     0.193 HD
BRANCH  19  21
ATOM     21  O   UNL d   1      -1.861  -4.849   0.332  0.00  0.00    -0.290 OA
ATOM     22  H   UNL d   1      -1.267  -5.441   0.831  0.00  0.00     0.244 HD
ENDBRANCH  19  21
ENDBRANCH   2  18
TORSDOF 3
