REMARK  7 active torsions:
REMARK  status: ('A' for Active; 'I' for Inactive)
REMARK    1  A    between atoms: C_7  and  C_1 
REMARK    2  A    between atoms: C_2  and  C_8 
REMARK       I    between atoms: C_3  and  N_4 
REMARK    3  A    between atoms: C_9  and  C_3 
REMARK    4  A    between atoms: N_4  and  C_5 
REMARK    5  A    between atoms: C_6  and  C_16 
REMARK    6  A    between atoms: O_13  and  C_12 
REMARK    7  A    between atoms: C_16  and  O_13 
ROOT
ATOM      1  C   UNL d   1       0.297   3.307  -1.937  0.00  0.00     0.069 A 
ATOM      2  C   UNL d   1       0.129   0.939  -1.280  0.00  0.00     0.050 A 
ATOM      3  C   UNL d   1       0.486   2.268  -1.003  0.00  0.00     0.048 A 
ATOM      4  C   UNL d   1      -0.286   2.998  -3.179  0.00  0.00     0.095 A 
ATOM      5  C   UNL d   1      -0.442   0.648  -2.521  0.00  0.00     0.019 A 
ATOM      6  C   UNL d   1      -0.633   1.665  -3.458  0.00  0.00     0.040 A 
ENDROOT
BRANCH   1   7
ATOM      7  N   UNL d   1       0.703   4.611  -1.572  0.00  0.00    -0.320 N 
ATOM      8  C   UNL d   1       1.901   4.874  -0.930  0.00  0.00     0.256 C 
ATOM      9  O   UNL d   1       2.788   4.054  -0.712  0.00  0.00    -0.267 OA
ATOM     10  H   UNL d   1       0.245   5.404  -1.989  0.00  0.00     0.169 HD
BRANCH   8  11
ATOM     11  C   UNL d   1       2.132   6.288  -0.536  0.00  0.00     0.033 A 
ATOM     12  C   UNL d   1       3.429   6.812  -0.634  0.00  0.00     0.033 A 
ATOM     13  C   UNL d   1       3.718   8.097  -0.149  0.00  0.00     0.048 A 
ATOM     14  C   UNL d   1       2.683   8.849   0.430  0.00  0.00     0.016 A 
ATOM     15  C   UNL d   1       1.388   8.334   0.515  0.00  0.00     0.002 A 
ATOM     16  C   UNL d   1       1.108   7.054   0.032  0.00  0.00     0.017 A 
BRANCH  13  17
ATOM     17  C   UNL d   1       5.120   8.659  -0.196  0.00  0.00     0.417 C 
ATOM     18  F   UNL d   1       6.005   7.868  -0.863  0.00  0.00    -0.166 F 
ATOM     19  F   UNL d   1       5.169   9.874  -0.809  0.00  0.00    -0.166 F 
ATOM     20  F   UNL d   1       5.644   8.846   1.046  0.00  0.00    -0.166 F 
ENDBRANCH  13  17
ENDBRANCH   8  11
ENDBRANCH   1   7
BRANCH   4  21
ATOM     21  O   UNL d   1      -0.422   3.792  -4.282  0.00  0.00    -0.340 OA
BRANCH  21  22
ATOM     22  C   UNL d   1      -0.781   5.161  -4.133  0.00  0.00     0.293 C 
BRANCH  22  23
ATOM     23  C   UNL d   1      -1.491   5.683  -5.381  0.00  0.00     0.408 C 
ATOM     24  F   UNL d   1      -1.834   4.703  -6.243  0.00  0.00    -0.169 F 
ATOM     25  F   UNL d   1      -2.627   6.335  -5.035  0.00  0.00    -0.169 F 
ATOM     26  F   UNL d   1      -0.711   6.565  -6.048  0.00  0.00    -0.169 F 
ENDBRANCH  22  23
ENDBRANCH  21  22
ENDBRANCH   4  21
BRANCH   2  27
ATOM     27  C   UNL d   1       0.362  -0.166  -0.282  0.00  0.00     0.417 C 
ATOM     28  F   UNL d   1       0.915   0.254   0.889  0.00  0.00    -0.166 F 
ATOM     29  F   UNL d   1       1.188  -1.135  -0.763  0.00  0.00    -0.166 F 
ATOM     30  F   UNL d   1      -0.793  -0.800   0.064  0.00  0.00    -0.166 F 
ENDBRANCH   2  27
TORSDOF 7
