REMARK  3 active torsions:
REMARK  status: ('A' for Active; 'I' for Inactive)
REMARK    1  A    between atoms: C_2  and  C_1 
REMARK       I    between atoms: N_9  and  C_2 
REMARK    2  A    between atoms: C_13  and  N_9 
REMARK    3  A    between atoms: N_12  and  C_11 
ROOT
ATOM      1  C   UNL d   1       0.299  -4.491  -0.934  0.00  0.00     0.266 C 
ATOM      2  N   UNL d   1       0.819  -3.466  -0.155  0.00  0.00    -0.322 N 
ATOM      3  O   UNL d   1       0.998  -5.340  -1.484  0.00  0.00    -0.267 OA
ATOM      4  H   UNL d   1       0.161  -2.920   0.383  0.00  0.00     0.169 HD
ENDROOT
BRANCH   2   5
ATOM      5  C   UNL d   1       2.179  -3.109  -0.023  0.00  0.00     0.035 A 
ATOM      6  C   UNL d   1       3.201  -3.638  -0.807  0.00  0.00     0.032 A 
ATOM      7  C   UNL d   1       4.527  -3.209  -0.647  0.00  0.00     0.031 A 
ATOM      8  C   UNL d   1       4.884  -2.240   0.295  0.00  0.00     0.029 A 
ATOM      9  C   UNL d   1       3.842  -1.728   1.085  0.00  0.00     0.031 A 
ATOM     10  C   UNL d   1       2.510  -2.143   0.927  0.00  0.00     0.032 A 
BRANCH   8  11
ATOM     11  N   UNL d   1       6.201  -1.827   0.502  0.00  0.00    -0.390 N 
ATOM     12  C   UNL d   1       7.299  -2.604  -0.070  0.00  0.00     0.149 C 
ATOM     13  C   UNL d   1       6.454  -0.388   0.585  0.00  0.00     0.149 C 
ENDBRANCH   8  11
ENDBRANCH   2   5
BRANCH   1  14
ATOM     14  C   UNL d   1      -1.145  -4.524  -1.063  0.00  0.00     0.114 A 
ATOM     15  C   UNL d   1      -1.964  -5.448  -1.704  0.00  0.00     0.046 A 
ATOM     16  N   UNL d   1      -3.322  -5.138  -1.669  0.00  0.00    -0.298 N 
ATOM     17  C   UNL d   1      -1.583  -6.697  -2.417  0.00  0.00     0.071 C 
ATOM     18  N   UNL d   1      -3.559  -4.011  -1.025  0.00  0.00    -0.269 N 
ATOM     19  HN  UNL d   1      -4.049  -5.715  -2.093  1.00  0.00     0.187 HD
ATOM     20  S   UNL d   1      -2.171  -3.298  -0.443  0.00  0.00     0.009 SA
ATOM     21  HN  UNL d   1      -4.492  -3.618  -0.897  1.00  0.00     0.195 HD
ENDBRANCH   1  14
TORSDOF 3
