REMARK  6 active torsions:
REMARK  status: ('A' for Active; 'I' for Inactive)
REMARK    1  A    between atoms: C_2  and  S_1 
REMARK    2  A    between atoms: O_9  and  S_1 
REMARK    3  A    between atoms: C_7  and  O_9 
REMARK    4  A    between atoms: C_8  and  C_7 
REMARK    5  A    between atoms: C_12  and  C_7 
REMARK    6  A    between atoms: C_18  and  C_12 
ROOT
ATOM      1  C   UNL d   1       1.045   0.148  -2.557  0.00  0.00     0.254 C 
ENDROOT
BRANCH   1   2
ATOM      2  O   UNL d   1       0.649  -0.691  -1.459  0.00  0.00    -0.257 OA
BRANCH   2   3
ATOM      3  S   UNL d   1       0.842  -0.114   0.053  0.00  0.00     0.305 S 
ATOM      4  O   UNL d   1       2.214  -0.297   0.462  0.00  0.00    -0.193 OA
ATOM      5  O   UNL d   1       0.147   1.140   0.182  0.00  0.00    -0.193 OA
BRANCH   3   6
ATOM      6  C   UNL d   1      -0.084  -1.320   0.976  0.00  0.00     0.130 A 
ATOM      7  S   UNL d   1      -1.777  -1.345   0.707  0.00  0.00    -0.062 SA
ATOM      8  C   UNL d   1      -1.984  -2.619   1.805  0.00  0.00     0.097 A 
ATOM      9 CL   UNL d   1      -3.571  -3.227   2.079  0.00  0.00    -0.074 Cl
ATOM     10  C   UNL d   1      -0.809  -3.045   2.370  0.00  0.00     0.064 A 
ATOM     11  C   UNL d   1       0.299  -2.288   1.888  0.00  0.00     0.059 A 
ATOM     12 CL   UNL d   1      -0.621  -4.312   3.503  0.00  0.00    -0.082 Cl
ENDBRANCH   3   6
ENDBRANCH   2   3
ENDBRANCH   1   2
BRANCH   1  13
ATOM     13  C   UNL d   1       2.576   0.204  -2.704  0.00  0.00     0.414 C 
ATOM     14  F   UNL d   1       3.189  -0.780  -2.013  0.00  0.00    -0.168 F 
ATOM     15  F   UNL d   1       2.973   0.077  -3.991  0.00  0.00    -0.168 F 
ATOM     16  F   UNL d   1       3.053   1.386  -2.256  0.00  0.00    -0.168 F 
ENDBRANCH   1  13
BRANCH   1  17
ATOM     17  C   UNL d   1       0.416  -0.429  -3.832  0.00  0.00     0.081 C 
BRANCH  17  18
ATOM     18  C   UNL d   1      -1.090  -0.298  -3.890  0.00  0.00    -0.055 A 
ATOM     19  C   UNL d   1      -1.687   0.855  -4.419  0.00  0.00     0.007 A 
ATOM     20  C   UNL d   1      -3.076   0.945  -4.538  0.00  0.00     0.001 A 
ATOM     21  C   UNL d   1      -3.880  -0.112  -4.120  0.00  0.00     0.000 A 
ATOM     22  C   UNL d   1      -3.299  -1.253  -3.570  0.00  0.00     0.001 A 
ATOM     23  C   UNL d   1      -1.910  -1.346  -3.453  0.00  0.00     0.007 A 
ENDBRANCH  17  18
ENDBRANCH   1  17
TORSDOF 6
