REMARK  1 active torsions:
REMARK  status: ('A' for Active; 'I' for Inactive)
REMARK    1  A    between atoms: C_4  and  C_3 
ROOT
ATOM      1  C   UNL d   1       1.470  -2.195   0.021  0.00  0.00     0.001 A 
ATOM      2  C   UNL d   1       1.420  -3.148  -1.006  0.00  0.00     0.038 A 
ATOM      3  C   UNL d   1       2.277  -4.250  -0.993  0.00  0.00     0.035 A 
ATOM      4 CL   UNL d   1       2.193  -5.409  -2.263  0.00  0.00    -0.084 Cl
ATOM      5  C   UNL d   1       2.407  -2.376   1.052  0.00  0.00     0.014 A 
ATOM      6  C   UNL d   1       3.263  -3.481   1.063  0.00  0.00     0.003 A 
ATOM      7  C   UNL d   1       3.197  -4.422   0.038  0.00  0.00     0.024 A 
ENDROOT
BRANCH   1   8
ATOM      8  C   UNL d   1       0.563  -1.054   0.014  0.00  0.00     0.102 A 
ATOM      9  C   UNL d   1      -0.475  -0.623  -0.785  0.00  0.00     0.127 A 
ATOM     10  N   UNL d   1      -0.995   0.553  -0.305  0.00  0.00    -0.354 N 
ATOM     11  C   UNL d   1      -0.263   0.794   0.757  0.00  0.00     0.233 A 
ATOM     12  HN  UNL d   1      -1.764   1.106  -0.683  1.00  0.00     0.166 HD
ATOM     13  O   UNL d   1       0.702  -0.130   1.019  0.00  0.00    -0.304 OA
ENDBRANCH   1   8
TORSDOF 1
