REMARK  1 active torsions:
REMARK  status: ('A' for Active; 'I' for Inactive)
REMARK    1  A    between atoms: C_4  and  N_5 
ROOT
ATOM      1  C   UNL d   1       1.267  -3.199   0.306  0.00  0.00     0.037 A 
ATOM      2  C   UNL d   1       1.673  -4.202  -0.585  0.00  0.00     0.053 A 
ATOM      3  C   UNL d   1       2.182  -2.784   1.286  0.00  0.00     0.053 A 
ATOM      4  C   UNL d   1       3.461  -3.343   1.355  0.00  0.00     0.037 A 
ATOM      5  C   UNL d   1       2.957  -4.747  -0.516  0.00  0.00     0.037 A 
ATOM      6  C   UNL d   1       3.858  -4.323   0.453  0.00  0.00     0.048 A 
ATOM      7 CL   UNL d   1       4.554  -2.818   2.577  0.00  0.00    -0.084 Cl
ATOM      8 CL   UNL d   1       3.432  -5.955  -1.647  0.00  0.00    -0.084 Cl
ENDROOT
BRANCH   1   9
ATOM      9  N   UNL d   1      -0.025  -2.651   0.314  0.00  0.00    -0.337 N 
ATOM     10  C   UNL d   1      -1.153  -3.127  -0.283  0.00  0.00     0.140 C 
ATOM     11  N   UNL d   1      -1.366  -4.269  -0.842  0.00  0.00    -0.370 N 
ATOM     12  S   UNL d   1      -2.517  -2.024  -0.222  0.00  0.00    -0.093 SA
ATOM     13  C   UNL d   1      -2.734  -4.337  -1.382  0.00  0.00     0.132 C 
ATOM     14  HN  UNL d   1      -0.681  -5.022  -0.902  1.00  0.00     0.161 HD
ATOM     15  C   UNL d   1      -3.636  -3.372  -0.635  0.00  0.00     0.102 C 
ATOM     16  H   UNL d   1      -0.126  -1.754   0.769  0.00  0.00     0.168 HD
ENDBRANCH   1   9
TORSDOF 1
