REMARK  6 active torsions:
REMARK  status: ('A' for Active; 'I' for Inactive)
REMARK    1  A    between atoms: N_2  and  S_1 
REMARK    2  A    between atoms: C_4  and  S_1 
REMARK    3  A    between atoms: C_3  and  N_2 
REMARK    4  A    between atoms: C_7  and  O_11 
REMARK    5  A    between atoms: N_8  and  C_15 
REMARK    6  A    between atoms: O_11  and  N_8 
ROOT
ATOM      1  S   UNL d   1       0.812  -0.131  -0.056  0.00  0.00     0.263 S 
ATOM      2  O   UNL d   1       0.006  -0.976   0.801  0.00  0.00    -0.200 OA
ATOM      3  O   UNL d   1       2.257  -0.234  -0.051  0.00  0.00    -0.200 OA
ENDROOT
BRANCH   1   4
ATOM      4  N   UNL d   1       0.467   1.480   0.225  0.00  0.00    -0.280 N 
ATOM      5  H   UNL d   1       1.253   2.118   0.311  0.00  0.00     0.179 HD
BRANCH   4   6
ATOM      6  C   UNL d   1      -0.858   1.954   0.413  0.00  0.00     0.054 A 
ATOM      7  C   UNL d   1      -1.480   1.834   1.671  0.00  0.00    -0.034 A 
ATOM      8  C   UNL d   1      -2.785   2.328   1.838  0.00  0.00     0.009 A 
ATOM      9  C   UNL d   1      -0.826   1.186   2.862  0.00  0.00     0.050 C 
ATOM     10  C   UNL d   1      -3.442   2.971   0.795  0.00  0.00     0.001 A 
ATOM     11  C   UNL d   1      -2.800   3.137  -0.429  0.00  0.00     0.009 A 
ATOM     12  C   UNL d   1      -1.499   2.647  -0.632  0.00  0.00    -0.034 A 
ATOM     13  C   UNL d   1      -0.865   2.909  -1.970  0.00  0.00     0.050 C 
ENDBRANCH   4   6
ENDBRANCH   1   4
BRANCH   1  14
ATOM     14  C   UNL d   1       0.275  -0.379  -1.731  0.00  0.00     0.080 A 
ATOM     15  C   UNL d   1       1.159  -0.121  -2.782  0.00  0.00     0.027 A 
ATOM     16  C   UNL d   1       0.746  -0.334  -4.099  0.00  0.00     0.027 A 
ATOM     17  C   UNL d   1      -0.543  -0.808  -4.380  0.00  0.00     0.034 A 
ATOM     18  C   UNL d   1      -1.395  -1.117  -3.310  0.00  0.00     0.027 A 
ATOM     19  C   UNL d   1      -0.997  -0.893  -1.988  0.00  0.00     0.027 A 
BRANCH  17  20
ATOM     20  N   UNL d   1      -0.944  -1.085  -5.702  0.00  0.00    -0.162 NA
ATOM     21  H   UNL d   1      -1.958  -1.191  -5.804  0.00  0.00     0.161 HD
BRANCH  20  22
ATOM     22  O   UNL d   1      -0.398  -0.311  -6.746  0.00  0.00    -0.222 OA
BRANCH  22  23
ATOM     23  C   UNL d   1      -1.313  -0.079  -7.740  0.00  0.00     0.272 C 
ATOM     24  O   UNL d   1      -2.463  -0.508  -7.738  0.00  0.00    -0.264 OA
ATOM     25  C   UNL d   1      -0.735   0.788  -8.815  0.00  0.00     0.127 C 
ENDBRANCH  22  23
ENDBRANCH  20  22
ENDBRANCH  17  20
ENDBRANCH   1  14
TORSDOF 6
