REMARK  4 active torsions:
REMARK  status: ('A' for Active; 'I' for Inactive)
REMARK    1  A    between atoms: C_2  and  N_1 
REMARK    2  A    between atoms: C_3  and  C_12 
REMARK    3  A    between atoms: O_11  and  C_7 
REMARK    4  A    between atoms: C_12  and  O_11 
ROOT
ATOM      1  C   UNL d   1       0.242  -0.854   0.990  0.00  0.00     0.118 A 
ATOM      2  N   UNL d   1      -1.628  -2.237   1.614  0.00  0.00    -0.344 N 
ATOM      3  HN  UNL d   1      -2.487  -2.726   1.361  1.00  0.00     0.167 HD
ATOM      4  C   UNL d   1      -1.153  -2.276   2.876  0.00  0.00     0.142 A 
ATOM      5  C   UNL d   1      -0.929  -1.528   0.691  0.00  0.00     0.126 A 
ATOM      6  C   UNL d   1       0.728  -0.901   2.297  0.00  0.00     0.041 A 
ATOM      7  C   UNL d   1       0.019  -1.629   3.255  0.00  0.00     0.058 A 
ENDROOT
BRANCH   4   8
ATOM      8  O   UNL d   1      -1.890  -3.070   3.705  0.00  0.00    -0.327 OA
BRANCH   8   9
ATOM      9  C   UNL d   1      -1.983  -2.630   5.063  0.00  0.00     0.294 C 
BRANCH   9  10
ATOM     10  C   UNL d   1      -2.974  -3.477   5.858  0.00  0.00     0.408 C 
ATOM     11  F   UNL d   1      -3.565  -4.440   5.123  0.00  0.00    -0.169 F 
ATOM     12  F   UNL d   1      -2.347  -4.086   6.895  0.00  0.00    -0.169 F 
ATOM     13  F   UNL d   1      -3.953  -2.704   6.385  0.00  0.00    -0.169 F 
ENDBRANCH   9  10
ENDBRANCH   8   9
ENDBRANCH   4   8
BRANCH   1  14
ATOM     14  N   UNL d   1       0.952  -0.124  -0.049  0.00  0.00    -0.114 N 
ATOM     15  O   UNL d   1       0.467  -0.127  -1.190  0.00  0.00    -0.532 OA
ATOM     16  O   UNL d   1       1.997   0.458   0.271  0.00  0.00    -0.532 OA
ENDBRANCH   1  14
TORSDOF 4
