REMARK  4 active torsions:
REMARK  status: ('A' for Active; 'I' for Inactive)
REMARK    1  A    between atoms: O_2  and  S_1 
REMARK    2  A    between atoms: C_4  and  S_1 
REMARK    3  A    between atoms: C_3  and  O_2 
REMARK    4  A    between atoms: O_18  and  C_12 
ROOT
ATOM      1  S   UNL d   1       0.882   0.102   0.052  0.00  0.00     0.303 S 
ATOM      2  O   UNL d   1       0.031   1.106  -0.562  0.00  0.00    -0.193 OA
ATOM      3  O   UNL d   1       2.299   0.346   0.237  0.00  0.00    -0.193 OA
ENDROOT
BRANCH   1   4
ATOM      4  O   UNL d   1       0.682  -1.317  -0.737  0.00  0.00    -0.228 OA
BRANCH   4   5
ATOM      5  C   UNL d   1       1.127  -1.467  -2.031  0.00  0.00     0.107 A 
ATOM      6  C   UNL d   1       1.637  -2.706  -2.437  0.00  0.00     0.048 A 
ATOM      7  C   UNL d   1       2.080  -2.896  -3.755  0.00  0.00     0.058 A 
ATOM      8 BR   UNL d   1       1.752  -4.170  -1.234  0.00  0.00    -0.048 Br
ATOM      9  C   UNL d   1       2.003  -1.859  -4.686  0.00  0.00     0.069 A 
ATOM     10  C   UNL d   1       1.472  -0.635  -4.290  0.00  0.00     0.039 A 
ATOM     11  C   UNL d   1       1.031  -0.446  -2.977  0.00  0.00     0.042 A 
BRANCH   9  12
ATOM     12  O   UNL d   1       2.465  -2.153  -5.940  0.00  0.00    -0.356 OA
ATOM     13  C   UNL d   1       2.388  -1.109  -6.906  0.00  0.00     0.210 C 
ENDBRANCH   9  12
ENDBRANCH   4   5
ENDBRANCH   1   4
BRANCH   1  14
ATOM     14  C   UNL d   1       0.202  -0.196   1.671  0.00  0.00     0.086 A 
ATOM     15  C   UNL d   1       0.833  -1.097   2.530  0.00  0.00     0.026 A 
ATOM     16  C   UNL d   1       0.319  -1.287   3.816  0.00  0.00     0.008 A 
ATOM     17  C   UNL d   1      -0.817  -0.581   4.244  0.00  0.00    -0.062 A 
ATOM     18  C   UNL d   1      -1.431   0.326   3.372  0.00  0.00     0.008 A 
ATOM     19  C   UNL d   1      -1.357  -0.794   5.628  0.00  0.00     0.048 C 
ATOM     20  C   UNL d   1      -0.924   0.521   2.088  0.00  0.00     0.026 A 
ENDBRANCH   1  14
TORSDOF 4
