REMARK  1 active torsions:
REMARK  status: ('A' for Active; 'I' for Inactive)
REMARK    1  A    between atoms: O_21  and  C_17 
ROOT
ATOM      1  C   UNL d   1       1.599  -0.438  -0.118  0.00  0.00    -0.001 C 
ATOM      2  C   UNL d   1       0.223  -0.896   0.190  0.00  0.00     0.011 A 
ATOM      3  C   UNL d   1       2.758  -1.251  -0.297  0.00  0.00     0.005 A 
ATOM      4  N   UNL d   1       3.955   0.676  -1.159  0.00  0.00    -0.365 N 
ATOM      5  HN  UNL d   1       4.774   1.076  -1.616  1.00  0.00     0.165 HD
ATOM      6  C   UNL d   1       1.735   0.948  -0.289  0.00  0.00    -0.007 C 
ATOM      7  O   UNL d   1      -0.322   1.325   1.015  0.00  0.00    -0.346 OA
ATOM      8  C   UNL d   1      -0.689   0.033   0.733  0.00  0.00     0.080 A 
ATOM      9  C   UNL d   1       3.890  -0.631  -0.877  0.00  0.00     0.043 A 
ATOM     10  C   UNL d   1      -0.289  -2.157  -0.153  0.00  0.00     0.039 A 
ATOM     11  C   UNL d   1       2.891  -2.610   0.095  0.00  0.00     0.051 A 
ATOM     12  C   UNL d   1       2.907   1.446  -0.822  0.00  0.00     0.098 C 
ATOM     13  C   UNL d   1       0.591   1.861   0.043  0.00  0.00     0.216 C 
ATOM     14  C   UNL d   1      -2.018  -0.301   1.008  0.00  0.00     0.039 A 
ATOM     15  C   UNL d   1       5.012  -1.391  -1.168  0.00  0.00     0.033 A 
ATOM     16  C   UNL d   1      -1.625  -2.490   0.103  0.00  0.00     0.035 A 
ATOM     17  C   UNL d   1       4.062  -3.339  -0.135  0.00  0.00     0.069 A 
ATOM     18  C   UNL d   1      -2.489  -1.570   0.688  0.00  0.00     0.026 A 
ATOM     19  C   UNL d   1       5.107  -2.737  -0.820  0.00  0.00     0.039 A 
ATOM     20 CL   UNL d   1      -2.213  -4.048  -0.336  0.00  0.00    -0.084 Cl
ENDROOT
BRANCH  17  21
ATOM     21  O   UNL d   1       4.070  -4.618   0.347  0.00  0.00    -0.356 OA
ATOM     22  C   UNL d   1       5.357  -5.187   0.562  0.00  0.00     0.210 C 
ENDBRANCH  17  21
TORSDOF 1
