REMARK  6 active torsions:
REMARK  status: ('A' for Active; 'I' for Inactive)
REMARK    1  A    between atoms: C_6  and  C_1 
REMARK    2  A    between atoms: N_7  and  C_3 
REMARK    3  A    between atoms: S_11  and  C_5 
REMARK    4  A    between atoms: O_12  and  C_6 
REMARK    5  A    between atoms: O_13  and  N_7 
REMARK    6  A    between atoms: C_15  and  O_12 
ROOT
ATOM      1  C   UNL d   1      -0.779   1.045  -0.885  0.00  0.00     0.128 C 
ATOM      2  C   UNL d   1       0.597   0.537  -1.019  0.00  0.00     0.264 C 
ATOM      3  C   UNL d   1      -0.549  -1.004   0.101  0.00  0.00     0.146 C 
ATOM      4  N   UNL d   1       0.676  -0.608  -0.310  0.00  0.00    -0.306 N 
ATOM      5  C   UNL d   1      -1.469   0.133  -0.180  0.00  0.00     0.068 C 
ATOM      6  O   UNL d   1       1.493   1.007  -1.693  0.00  0.00    -0.267 OA
ATOM      7  H   UNL d   1       1.484  -1.206  -0.310  0.00  0.00     0.170 HD
ENDROOT
BRANCH   1   8
ATOM      8  C   UNL d   1      -1.277   2.293  -1.466  0.00  0.00     0.300 C 
ATOM      9  O   UNL d   1      -2.451   2.522  -1.712  0.00  0.00    -0.259 OA
BRANCH   8  10
ATOM     10  O   UNL d   1      -0.243   3.108  -1.784  0.00  0.00    -0.318 OA
BRANCH  10  11
ATOM     11  C   UNL d   1      -0.531   4.154  -2.723  0.00  0.00     0.174 C 
ATOM     12  C   UNL d   1      -0.286   3.624  -4.125  0.00  0.00     0.034 C 
ENDBRANCH  10  11
ENDBRANCH   8  10
ENDBRANCH   1   8
BRANCH   5  13
ATOM     13  S   UNL d   1      -3.057   0.232   0.445  0.00  0.00    -0.129 SA
ATOM     14  C   UNL d   1      -4.040  -0.208  -1.005  0.00  0.00     0.095 C 
ENDBRANCH   5  13
BRANCH   3  15
ATOM     15  N   UNL d   1      -0.651  -2.196   0.567  0.00  0.00    -0.252 N 
ATOM     16  HN  UNL d   1       0.146  -2.815   0.714  1.00  0.00     0.196 HD
BRANCH  15  17
ATOM     17  O   UNL d   1      -1.967  -2.551   0.850  0.00  0.00    -0.288 OA
ATOM     18  H   UNL d   1      -1.877  -3.467   1.174  0.00  0.00     0.244 HD
ENDBRANCH  15  17
ENDBRANCH   3  15
TORSDOF 6
