REMARK  3 active torsions:
REMARK  status: ('A' for Active; 'I' for Inactive)
REMARK    1  A    between atoms: N_2  and  C_1 
REMARK       I    between atoms: C_3  and  N_2 
REMARK    2  A    between atoms: C_7  and  C_3 
REMARK    3  A    between atoms: N_4  and  C_7 
ROOT
ATOM      1  N   UNL d   1       0.131   2.300   0.860  0.00  0.00    -0.321 N 
ATOM      2  C   UNL d   1       0.795   2.676  -0.284  0.00  0.00     0.250 C 
ATOM      3  O   UNL d   1       0.288   3.212  -1.268  0.00  0.00    -0.271 OA
ATOM      4  H   UNL d   1       0.722   2.063   1.654  0.00  0.00     0.169 HD
ENDROOT
BRANCH   1   5
ATOM      5  C   UNL d   1      -1.261   2.437   1.110  0.00  0.00     0.112 A 
ATOM      6  C   UNL d   1      -2.256   2.605   0.140  0.00  0.00     0.146 A 
ATOM      7  F   UNL d   1      -1.999   2.496  -1.169  0.00  0.00    -0.204 F 
ATOM      8  C   UNL d   1      -3.594   2.813   0.494  0.00  0.00     0.045 A 
ATOM      9  C   UNL d   1      -3.973   2.827   1.833  0.00  0.00     0.006 A 
ATOM     10  C   UNL d   1      -3.011   2.609   2.815  0.00  0.00     0.045 A 
ATOM     11  C   UNL d   1      -1.677   2.411   2.449  0.00  0.00     0.146 A 
ATOM     12  F   UNL d   1      -0.770   2.220   3.420  0.00  0.00    -0.204 F 
ENDBRANCH   1   5
BRANCH   2  13
ATOM     13  C   UNL d   1       2.320   2.553  -0.225  0.00  0.00     0.375 C 
BRANCH  13  14
ATOM     14  N   UNL d   1       2.847   1.397   0.552  0.00  0.00     0.101 N 
ATOM     15  C   UNL d   1       2.454   0.113  -0.083  0.00  0.00     0.299 C 
ATOM     16  C   UNL d   1       3.226  -1.089   0.491  0.00  0.00     0.198 C 
ATOM     17  O   UNL d   1       4.638  -0.919   0.331  0.00  0.00    -0.388 OA
ATOM     18  C   UNL d   1       5.065   0.255   1.030  0.00  0.00     0.198 C 
ATOM     19  C   UNL d   1       4.336   1.501   0.509  0.00  0.00     0.299 C 
ENDBRANCH  13  14
ENDBRANCH   2  13
TORSDOF 3
