REMARK  8 active torsions:
REMARK  status: ('A' for Active; 'I' for Inactive)
REMARK    1  A    between atoms: C_4  and  C_1 
REMARK    2  A    between atoms: S_8  and  C_1 
REMARK    3  A    between atoms: C_2  and  C_3 
REMARK       I    between atoms: N_18  and  C_4 
REMARK    4  A    between atoms: C_7  and  N_19 
REMARK    5  A    between atoms: C_21  and  S_8 
REMARK    6  A    between atoms: C_22  and  N_18 
REMARK    7  A    between atoms: N_19  and  C_23 
REMARK    8  A    between atoms: C_23  and  C_22 
ROOT
ATOM      1  C   UNL d   1       0.220   3.650   1.270  0.00  0.00     0.137 C 
ENDROOT
BRANCH   1   2
ATOM      2  N   UNL d   1       0.607   2.255   1.144  0.00  0.00    -0.354 N 
ATOM      3  C   UNL d   1      -0.222   1.303   0.552  0.00  0.00     0.301 C 
ATOM      4  O   UNL d   1      -1.361   1.585   0.180  0.00  0.00    -0.266 OA
ATOM      5  H   UNL d   1       1.584   2.004   1.275  0.00  0.00     0.162 HD
BRANCH   3   6
ATOM      6  C   UNL d   1       0.391  -0.127   0.516  0.00  0.00     0.375 C 
ATOM      7  F   UNL d   1       0.027  -0.818   1.635  0.00  0.00    -0.182 F 
ATOM      8  F   UNL d   1       1.759  -0.058   0.558  0.00  0.00    -0.182 F 
BRANCH   6   9
ATOM      9  S   UNL d   1      -0.124  -1.018  -0.984  0.00  0.00    -0.043 SA
BRANCH   9  10
ATOM     10  C   UNL d   1       0.700  -2.579  -0.738  0.00  0.00     0.006 A 
ATOM     11  C   UNL d   1       0.403  -3.409   0.350  0.00  0.00     0.018 A 
ATOM     12  C   UNL d   1       1.046  -4.639   0.500  0.00  0.00     0.001 A 
ATOM     13  C   UNL d   1       1.979  -5.059  -0.445  0.00  0.00     0.000 A 
ATOM     14  C   UNL d   1       2.265  -4.252  -1.544  0.00  0.00     0.001 A 
ATOM     15  C   UNL d   1       1.624  -3.019  -1.692  0.00  0.00     0.018 A 
ENDBRANCH   9  10
ENDBRANCH   6   9
ENDBRANCH   3   6
ENDBRANCH   1   2
BRANCH   1  16
ATOM     16  C   UNL d   1       0.729   4.278   2.576  0.00  0.00     0.113 C 
BRANCH  16  17
ATOM     17  N   UNL d   1       0.319   5.679   2.667  0.00  0.00    -0.276 NA
ATOM     18  H   UNL d   1      -0.681   5.812   2.527  0.00  0.00     0.129 HD
BRANCH  17  19
ATOM     19  C   UNL d   1       0.697   6.326   3.862  0.00  0.00     0.102 A 
ATOM     20  N   UNL d   1       1.546   5.700   4.710  0.00  0.00    -0.355 N 
ATOM     21  C   UNL d   1       1.927   6.347   5.838  0.00  0.00     0.105 A 
ATOM     22  HN  UNL d   1       1.892   4.762   4.504  1.00  0.00     0.166 HD
ATOM     23  C   UNL d   1       1.513   7.623   6.180  0.00  0.00     0.065 A 
ATOM     24  C   UNL d   1       0.649   8.275   5.299  0.00  0.00     0.044 A 
ATOM     25  C   UNL d   1       0.242   7.627   4.132  0.00  0.00     0.073 A 
ATOM     26 CL   UNL d   1      -0.840   8.453   3.067  0.00  0.00    -0.081 Cl
BRANCH  23  27
ATOM     27  C   UNL d   1       1.989   8.240   7.458  0.00  0.00     0.418 C 
ATOM     28  F   UNL d   1       1.524   9.503   7.657  0.00  0.00    -0.166 F 
ATOM     29  F   UNL d   1       1.608   7.525   8.552  0.00  0.00    -0.166 F 
ATOM     30  F   UNL d   1       3.345   8.326   7.521  0.00  0.00    -0.166 F 
ENDBRANCH  23  27
ENDBRANCH  17  19
ENDBRANCH  16  17
ENDBRANCH   1  16
TORSDOF 8
