REMARK  4 active torsions:
REMARK  status: ('A' for Active; 'I' for Inactive)
REMARK    1  A    between atoms: N_2  and  S_1 
REMARK    2  A    between atoms: C_3  and  S_1 
REMARK       I    between atoms: C_5  and  N_4 
REMARK    3  A    between atoms: O_17  and  C_5 
REMARK    4  A    between atoms: C_18  and  O_17 
ROOT
ATOM      1  N   UNL d   1       0.356   1.093  -0.706  0.00  0.00    -0.203 NA
ATOM      2  N   UNL d   1      -0.929   2.745   1.279  0.00  0.00    -0.326 N 
ATOM      3  C   UNL d   1      -1.759   3.735   1.756  0.00  0.00     0.362 C 
ATOM      4  C   UNL d   1       0.918   2.444  -0.377  0.00  0.00     0.127 C 
ATOM      5  C   UNL d   1      -1.128   1.073  -0.509  0.00  0.00     0.127 C 
ATOM      6  C   UNL d   1      -1.488   1.438   0.934  0.00  0.00     0.143 C 
ATOM      7  C   UNL d   1       0.508   2.918   1.034  0.00  0.00     0.143 C 
ATOM      8  O   UNL d   1      -2.967   3.598   1.906  0.00  0.00    -0.238 OA
ENDROOT
BRANCH   1   9
ATOM      9  S   UNL d   1       1.192  -0.245  -0.064  0.00  0.00     0.250 S 
ATOM     10  O   UNL d   1       0.303  -1.390  -0.088  0.00  0.00    -0.205 OA
ATOM     11  O   UNL d   1       1.862   0.161   1.152  0.00  0.00    -0.205 OA
BRANCH   9  12
ATOM     12  C   UNL d   1       2.514  -0.738  -1.147  0.00  0.00     0.115 A 
ATOM     13  S   UNL d   1       2.613   0.005  -2.682  0.00  0.00    -0.089 SA
ATOM     14  C   UNL d   1       3.967  -0.947  -3.126  0.00  0.00     0.051 A 
ATOM     15  C   UNL d   1       4.337  -1.817  -2.126  0.00  0.00     0.009 A 
ATOM     16  C   UNL d   1       3.502  -1.692  -0.981  0.00  0.00     0.033 A 
ENDBRANCH   9  12
ENDBRANCH   1   9
BRANCH   3  17
ATOM     17  O   UNL d   1      -1.097   4.903   1.966  0.00  0.00    -0.304 OA
BRANCH  17  18
ATOM     18  C   UNL d   1      -1.928   6.065   2.076  0.00  0.00     0.176 C 
ATOM     19  C   UNL d   1      -2.216   6.570   0.674  0.00  0.00     0.034 C 
ENDBRANCH  17  18
ENDBRANCH   3  17
TORSDOF 4
