REMARK  5 active torsions:
REMARK  status: ('A' for Active; 'I' for Inactive)
REMARK    1  A    between atoms: N_6  and  C_1 
REMARK       I    between atoms: C_8  and  N_7 
REMARK    2  A    between atoms: C_15  and  C_8 
REMARK    3  A    between atoms: C_9  and  C_17 
REMARK    4  A    between atoms: O_18  and  C_9 
REMARK    5  A    between atoms: C_17  and  C_15 
ROOT
ATOM      1  N   UNL d   1      -0.095   2.607   1.037  0.00  0.00     0.105 N 
ATOM      2  N   UNL d   1      -2.246   2.276   3.061  0.00  0.00    -0.349 N 
ATOM      3  C   UNL d   1      -3.362   2.015   3.854  0.00  0.00     0.220 C 
ATOM      4  C   UNL d   1       0.131   1.954   2.337  0.00  0.00     0.293 C 
ATOM      5  C   UNL d   1      -1.206   3.558   1.130  0.00  0.00     0.293 C 
ATOM      6  C   UNL d   1      -1.113   1.347   3.001  0.00  0.00     0.156 C 
ATOM      7  C   UNL d   1      -2.478   3.091   1.868  0.00  0.00     0.156 C 
ATOM      8  O   UNL d   1      -4.462   2.521   3.627  0.00  0.00    -0.273 OA
ENDROOT
BRANCH   1   9
ATOM      9  C   UNL d   1      -0.055   1.754  -0.164  0.00  0.00     0.290 C 
ATOM     10  C   UNL d   1       1.291   1.024  -0.261  0.00  0.00    -0.009 A 
ATOM     11  C   UNL d   1       1.096  -0.372  -0.180  0.00  0.00    -0.017 A 
ATOM     12  C   UNL d   1       2.562   1.572  -0.365  0.00  0.00     0.010 A 
ATOM     13  C   UNL d   1       2.179  -1.235  -0.213  0.00  0.00     0.013 A 
ATOM     14  C   UNL d   1      -0.324  -0.642  -0.109  0.00  0.00    -0.017 C 
ATOM     15  C   UNL d   1       3.463  -0.689  -0.320  0.00  0.00     0.001 A 
ATOM     16  C   UNL d   1       3.653   0.701  -0.394  0.00  0.00     0.001 A 
ATOM     17  C   UNL d   1      -1.027   0.579  -0.215  0.00  0.00    -0.009 C 
ATOM     18  C   UNL d   1      -1.008  -1.841   0.010  0.00  0.00     0.013 C 
ATOM     19  C   UNL d   1      -2.402   0.586  -0.381  0.00  0.00     0.010 C 
ATOM     20  C   UNL d   1      -3.095  -0.619  -0.255  0.00  0.00     0.001 C 
ATOM     21  C   UNL d   1      -2.405  -1.818  -0.030  0.00  0.00     0.001 C 
ENDBRANCH   1   9
BRANCH   3  22
ATOM     22  C   UNL d   1      -3.154   1.101   5.048  0.00  0.00     0.113 C 
BRANCH  22  23
ATOM     23  C   UNL d   1      -4.439   0.947   5.854  0.00  0.00     0.119 C 
BRANCH  23  24
ATOM     24  C   UNL d   1      -4.208   0.154   7.111  0.00  0.00     0.139 C 
ATOM     25  O   UNL d   1      -3.137  -0.328   7.454  0.00  0.00    -0.650 OA
BRANCH  24  26
ATOM     26  O   UNL d   1      -5.334   0.015   7.848  0.00  0.00    -0.776 OA
ATOM     27  H   UNL d   1      -6.112   0.453   7.452  0.00  0.00     0.167 HD
ENDBRANCH  24  26
ENDBRANCH  23  24
ENDBRANCH  22  23
ENDBRANCH   3  22
TORSDOF 5
