REMARK  6 active torsions:
REMARK  status: ('A' for Active; 'I' for Inactive)
REMARK    1  A    between atoms: C_5  and  S_1 
REMARK    2  A    between atoms: C_2  and  C_8 
REMARK    3  A    between atoms: O_3  and  C_2 
REMARK    4  A    between atoms: O_4  and  C_2 
REMARK    5  A    between atoms: C_7  and  O_3 
REMARK    6  A    between atoms: C_6  and  O_4 
ROOT
ATOM      1  C   UNL d   1       0.493  -1.097  -1.281  0.00  0.00     0.058 A 
ATOM      2  C   UNL d   1      -0.224  -2.735  -3.434  0.00  0.00    -0.003 A 
ATOM      3  C   UNL d   1       0.950  -2.415  -1.324  0.00  0.00     0.024 A 
ATOM      4  C   UNL d   1      -0.374  -0.608  -2.260  0.00  0.00     0.024 A 
ATOM      5  C   UNL d   1       0.582  -3.232  -2.394  0.00  0.00     0.013 A 
ATOM      6  C   UNL d   1      -0.730  -1.428  -3.333  0.00  0.00     0.013 A 
ENDROOT
BRANCH   2   7
ATOM      7  C   UNL d   1      -0.533  -3.567  -4.673  0.00  0.00     0.313 C 
BRANCH   7   8
ATOM      8  O   UNL d   1       0.551  -4.474  -4.942  0.00  0.00    -0.285 OA
BRANCH   8   9
ATOM      9  C   UNL d   1       1.626  -3.909  -5.549  0.00  0.00     0.257 C 
ATOM     10  O   UNL d   1       1.713  -2.745  -5.913  0.00  0.00    -0.266 OA
ATOM     11  C   UNL d   1       2.749  -4.896  -5.635  0.00  0.00     0.126 C 
ENDBRANCH   8   9
ENDBRANCH   7   8
BRANCH   7  12
ATOM     12  O   UNL d   1      -1.710  -4.339  -4.391  0.00  0.00    -0.285 OA
BRANCH  12  13
ATOM     13  C   UNL d   1      -2.769  -4.111  -5.205  0.00  0.00     0.257 C 
ATOM     14  O   UNL d   1      -2.809  -3.298  -6.117  0.00  0.00    -0.266 OA
ATOM     15  C   UNL d   1      -3.914  -5.016  -4.860  0.00  0.00     0.126 C 
ENDBRANCH  12  13
ENDBRANCH   7  12
ENDBRANCH   2   7
BRANCH   1  16
ATOM     16  S   UNL d   1       1.012  -0.035   0.046  0.00  0.00     0.171 S 
ATOM     17  O   UNL d   1       1.375  -0.881   1.166  0.00  0.00    -0.223 OA
ATOM     18  O   UNL d   1       0.012   1.005   0.192  0.00  0.00    -0.223 OA
ATOM     19  C   UNL d   1       2.496   0.709  -0.587  0.00  0.00     0.167 C 
ENDBRANCH   1  16
TORSDOF 6
