REMARK  8 active torsions:
REMARK  status: ('A' for Active; 'I' for Inactive)
REMARK    1  A    between atoms: N_2  and  C_1 
REMARK    2  A    between atoms: N_6  and  C_1 
REMARK    3  A    between atoms: C_3  and  N_2 
REMARK    4  A    between atoms: O_7  and  C_5 
REMARK    5  A    between atoms: C_10  and  N_6 
REMARK    6  A    between atoms: C_13  and  O_7 
REMARK    7  A    between atoms: O_8  and  C_12 
REMARK    8  A    between atoms: C_12  and  C_10 
ROOT
ATOM      1  N   UNL d   1       0.431  -1.244   0.193  0.00  0.00    -0.331 N 
ATOM      2  H   UNL d   1       1.054  -0.464   0.035  0.00  0.00     0.168 HD
ENDROOT
BRANCH   1   3
ATOM      3  C   UNL d   1      -0.781  -1.140  -0.442  0.00  0.00     0.172 C 
ATOM      4  S   UNL d   1      -2.288  -1.497   0.180  0.00  0.00    -0.041 SA
BRANCH   3   5
ATOM      5  N   UNL d   1      -0.722  -0.627  -1.710  0.00  0.00    -0.365 N 
ATOM      6  H   UNL d   1      -1.629  -0.612  -2.168  0.00  0.00     0.161 HD
BRANCH   5   7
ATOM      7  C   UNL d   1       0.398  -0.799  -2.635  0.00  0.00     0.148 C 
BRANCH   7   8
ATOM      8  C   UNL d   1       0.342  -2.174  -3.306  0.00  0.00     0.183 C 
BRANCH   8   9
ATOM      9  O   UNL d   1      -0.842  -2.264  -4.099  0.00  0.00    -0.399 OA
ATOM     10  H   UNL d   1      -0.904  -3.183  -4.413  0.00  0.00     0.209 HD
ENDBRANCH   8   9
ENDBRANCH   7   8
ENDBRANCH   5   7
ENDBRANCH   3   5
ENDBRANCH   1   3
BRANCH   1  11
ATOM     11  C   UNL d   1       0.777  -2.073   1.284  0.00  0.00     0.068 A 
ATOM     12  C   UNL d   1       1.724  -1.634   2.224  0.00  0.00     0.095 A 
ATOM     13  C   UNL d   1       2.197  -2.508   3.207  0.00  0.00     0.039 A 
ATOM     14  C   UNL d   1       1.712  -3.815   3.276  0.00  0.00     0.003 A 
ATOM     15  C   UNL d   1       0.761  -4.251   2.359  0.00  0.00     0.002 A 
ATOM     16  C   UNL d   1       0.297  -3.385   1.366  0.00  0.00     0.032 A 
BRANCH  12  17
ATOM     17  O   UNL d   1       2.279  -0.379   2.219  0.00  0.00    -0.349 OA
BRANCH  17  18
ATOM     18  C   UNL d   1       1.322   0.676   2.387  0.00  0.00     0.171 C 
ATOM     19  C   UNL d   1       1.776   1.582   3.520  0.00  0.00     0.034 C 
ENDBRANCH  17  18
ENDBRANCH  12  17
ENDBRANCH   1  11
TORSDOF 8
