REMARK  6 active torsions:
REMARK  status: ('A' for Active; 'I' for Inactive)
REMARK    1  A    between atoms: C_7  and  N_1 
REMARK    2  A    between atoms: C_2  and  C_8 
REMARK    3  A    between atoms: C_10  and  C_3 
REMARK    4  A    between atoms: C_4  and  N_14 
REMARK    5  A    between atoms: N_5  and  C_10 
REMARK    6  A    between atoms: N_14  and  N_5 
ROOT
ATOM      1  N   UNL d   1      -0.274  -1.157  -0.032  0.00  0.00    -0.321 N 
ATOM      2  C   UNL d   1       1.061  -0.758   0.023  0.00  0.00     0.056 A 
ATOM      3  C   UNL d   1      -1.044  -0.011  -0.158  0.00  0.00     0.097 A 
ATOM      4  C   UNL d   1      -0.238   1.097  -0.063  0.00  0.00     0.020 A 
ATOM      5  C   UNL d   1       1.081   0.630   0.068  0.00  0.00     0.033 A 
ENDROOT
BRANCH   1   6
ATOM      6  C   UNL d   1      -0.818  -2.474   0.087  0.00  0.00     0.039 A 
ATOM      7  C   UNL d   1      -0.152  -3.467   0.818  0.00  0.00     0.031 A 
ATOM      8  C   UNL d   1      -0.739  -4.726   0.994  0.00  0.00     0.018 A 
ATOM      9  C   UNL d   1      -2.001  -5.014   0.454  0.00  0.00     0.048 A 
ATOM     10  C   UNL d   1      -2.657  -4.023  -0.287  0.00  0.00     0.018 A 
ATOM     11  C   UNL d   1      -2.074  -2.764  -0.466  0.00  0.00     0.031 A 
BRANCH   9  12
ATOM     12  C   UNL d   1      -2.640  -6.360   0.699  0.00  0.00     0.417 C 
ATOM     13  F   UNL d   1      -3.874  -6.488   0.136  0.00  0.00    -0.166 F 
ATOM     14  F   UNL d   1      -1.895  -7.387   0.205  0.00  0.00    -0.166 F 
ATOM     15  F   UNL d   1      -2.807  -6.621   2.025  0.00  0.00    -0.166 F 
ENDBRANCH   9  12
ENDBRANCH   1   6
BRANCH   2  16
ATOM     16  C   UNL d   1       2.220  -1.615  -0.026  0.00  0.00     0.137 C 
BRANCH  16  17
ATOM     17  N   UNL d   1       3.344  -1.217   0.482  0.00  0.00    -0.307 N 
ATOM     18  HN  UNL d   1       3.450  -0.304   0.925  1.00  0.00     0.186 HD
BRANCH  17  19
ATOM     19  N   UNL d   1       4.378  -2.106   0.381  0.00  0.00    -0.277 N 
ATOM     20  H   UNL d   1       4.279  -2.966  -0.150  0.00  0.00     0.189 HD
BRANCH  19  21
ATOM     21  C   UNL d   1       5.581  -1.860   0.984  0.00  0.00     0.184 C 
ATOM     22  S   UNL d   1       6.857  -2.913   0.875  0.00  0.00    -0.040 SA
ATOM     23  N   UNL d   1       5.656  -0.710   1.693  0.00  0.00    -0.375 N 
ATOM     24  H   UNL d   1       4.864  -0.080   1.633  0.00  0.00     0.158 HD
ATOM     25  H   UNL d   1       6.515  -0.417   2.134  0.00  0.00     0.158 HD
ENDBRANCH  19  21
ENDBRANCH  17  19
ENDBRANCH  16  17
ENDBRANCH   2  16
TORSDOF 6
