REMARK  3 active torsions:
REMARK  status: ('A' for Active; 'I' for Inactive)
REMARK    1  A    between atoms: C_2  and  S_1 
REMARK    2  A    between atoms: N_7  and  S_1 
REMARK    3  A    between atoms: C_15  and  N_7 
ROOT
ATOM      1  N   UNL d   1       0.259  -0.487  -1.437  0.00  0.00    -0.181 NA
ATOM      2  H   UNL d   1       0.321  -1.506  -1.411  0.00  0.00     0.146 HD
ENDROOT
BRANCH   1   3
ATOM      3  S   UNL d   1       1.002   0.114  -0.040  0.00  0.00     0.250 S 
ATOM      4  O   UNL d   1       0.377  -0.564   1.075  0.00  0.00    -0.205 OA
ATOM      5  O   UNL d   1       2.436   0.070  -0.216  0.00  0.00    -0.205 OA
BRANCH   3   6
ATOM      6  C   UNL d   1       0.596   1.759   0.157  0.00  0.00     0.130 A 
ATOM      7  C   UNL d   1       1.299   2.866  -0.253  0.00  0.00     0.097 A 
ATOM      8  O   UNL d   1       0.593   3.979   0.086  0.00  0.00    -0.241 OA
ATOM      9  C   UNL d   1       2.572   3.122  -0.953  0.00  0.00     0.081 C 
ATOM     10  N   UNL d   1      -0.582   3.614   0.712  0.00  0.00    -0.264 N 
ATOM     11  C   UNL d   1      -0.577   2.275   0.755  0.00  0.00     0.054 A 
ATOM     12  HN  UNL d   1      -1.306   4.237   1.070  1.00  0.00     0.194 HD
ATOM     13  C   UNL d   1      -1.722   1.561   1.370  0.00  0.00     0.072 C 
ENDBRANCH   3   6
ENDBRANCH   1   3
BRANCH   1  14
ATOM     14  C   UNL d   1       0.676   0.064  -2.689  0.00  0.00     0.023 A 
ATOM     15  C   UNL d   1      -0.062   1.121  -3.231  0.00  0.00     0.038 A 
ATOM     16  C   UNL d   1       0.291   1.619  -4.500  0.00  0.00    -0.006 A 
ATOM     17  C   UNL d   1      -0.252   2.619  -5.352  0.00  0.00     0.030 A 
ATOM     18  C   UNL d   1       1.388   1.065  -5.162  0.00  0.00     0.042 A 
ATOM     19  C   UNL d   1       0.496   2.638  -6.507  0.00  0.00     0.089 A 
ATOM     20  N   UNL d   1       1.490   1.703  -6.379  0.00  0.00    -0.365 N 
ATOM     21  H   UNL d   1       2.186   1.494  -7.081  0.00  0.00     0.165 HD
ATOM     22  C   UNL d   1       2.169   0.045  -4.606  0.00  0.00     0.032 A 
ATOM     23  C   UNL d   1       1.791  -0.448  -3.351  0.00  0.00     0.027 A 
ENDBRANCH   1  14
TORSDOF 3
