REMARK  2 active torsions:
REMARK  status: ('A' for Active; 'I' for Inactive)
REMARK       I    between atoms: N_2  and  C_1 
REMARK       I    between atoms: N_3  and  C_1 
REMARK       I    between atoms: C_8  and  N_2 
REMARK       I    between atoms: C_9  and  N_3 
REMARK    1  A    between atoms: N_6  and  N_4 
REMARK    2  A    between atoms: C_11  and  C_10 
ROOT
ATOM      1  C   UNL d   1       1.024  -1.387   1.863  0.00  0.00     0.702 C 
ATOM      2  N   UNL d   1       0.321  -0.660   0.916  0.00  0.00    -0.159 N 
ATOM      3  N   UNL d   1       0.237  -2.121   2.729  0.00  0.00    -0.159 N 
ATOM      4  N   UNL d   1       2.303  -1.486   2.050  0.00  0.00    -0.132 N 
ATOM      5  HN  UNL d   1       2.715  -1.968   2.848  1.00  0.00     0.205 HD
ATOM      6  C   UNL d   1       0.671   0.445   0.149  0.00  0.00     0.232 C 
ATOM      7  C   UNL d   1      -1.137  -2.264   2.707  0.00  0.00     0.232 C 
ATOM      8  O   UNL d   1       1.529   1.281   0.412  0.00  0.00    -0.273 OA
ATOM      9  O   UNL d   1      -1.852  -1.808   1.812  0.00  0.00    -0.273 OA
ATOM     10  C   UNL d   1      -1.709  -3.043   3.857  0.00  0.00     0.118 C 
ATOM     11  C   UNL d   1      -0.274   0.660  -1.008  0.00  0.00     0.118 C 
ATOM     12  H   UNL d   1      -0.638  -0.976   0.804  0.00  0.00     0.187 HD
ATOM     13  H   UNL d   1       0.777  -2.596   3.438  0.00  0.00     0.187 HD
ENDROOT
BRANCH   4  14
ATOM     14  N   UNL d   1       3.053  -0.877   1.067  0.00  0.00    -0.290 N 
ATOM     15  C   UNL d   1       4.320  -0.710   1.294  0.00  0.00     0.032 C 
ATOM     16  C   UNL d   1       5.052  -1.202   2.525  0.00  0.00     0.070 C 
ATOM     17  HN  UNL d   1       2.627  -0.568   0.193  1.00  0.00     0.187 HD
BRANCH  15  18
ATOM     18  C   UNL d   1       5.114   0.006   0.244  0.00  0.00    -0.013 A 
ATOM     19  C   UNL d   1       6.309   0.676   0.534  0.00  0.00     0.015 A 
ATOM     20  C   UNL d   1       6.994   1.357  -0.480  0.00  0.00     0.020 A 
ATOM     21  C   UNL d   1       6.489   1.363  -1.780  0.00  0.00     0.011 A 
ATOM     22  C   UNL d   1       5.301   0.704  -2.079  0.00  0.00     0.020 A 
ATOM     23 BR   UNL d   1       7.417   2.280  -3.148  0.00  0.00    -0.051 Br
ATOM     24  C   UNL d   1       4.614   0.032  -1.067  0.00  0.00     0.015 A 
ENDBRANCH  15  18
ENDBRANCH   4  14
TORSDOF 2
