REMARK  6 active torsions:
REMARK  status: ('A' for Active; 'I' for Inactive)
REMARK    1  A    between atoms: N_3  and  C_1 
REMARK    2  A    between atoms: N_5  and  C_1 
REMARK    3  A    between atoms: C_6  and  C_2 
REMARK    4  A    between atoms: C_7  and  N_3 
REMARK    5  A    between atoms: C_4  and  N_5 
REMARK    6  A    between atoms: O_14  and  C_6 
ROOT
ATOM      1  C   UNL d   1       1.251   1.776   1.235  0.00  0.00     0.177 C 
ATOM      2  S   UNL d   1       2.674   1.873   0.364  0.00  0.00    -0.040 SA
ENDROOT
BRANCH   1   3
ATOM      3  N   UNL d   1       0.918   2.474   2.364  0.00  0.00    -0.319 N 
ATOM      4  H   UNL d   1       0.352   1.964   3.031  0.00  0.00     0.169 HD
BRANCH   3   5
ATOM      5  C   UNL d   1       1.315   3.706   2.877  0.00  0.00     0.107 A 
ATOM      6  N   UNL d   1       0.947   3.887   4.165  0.00  0.00    -0.351 N 
ATOM      7  C   UNL d   1       1.201   5.095   4.726  0.00  0.00     0.113 A 
ATOM      8  HN  UNL d   1       0.494   3.142   4.696  1.00  0.00     0.166 HD
ATOM      9  C   UNL d   1       1.782   6.150   4.047  0.00  0.00     0.049 A 
ATOM     10  C   UNL d   1       2.138   5.954   2.720  0.00  0.00     0.029 A 
ATOM     11 CL   UNL d   1       2.030   7.665   4.810  0.00  0.00    -0.083 Cl
ATOM     12  C   UNL d   1       1.903   4.713   2.124  0.00  0.00     0.050 A 
ENDBRANCH   3   5
ENDBRANCH   1   3
BRANCH   1  13
ATOM     13  N   UNL d   1       0.347   0.799   0.879  0.00  0.00    -0.332 N 
ATOM     14  H   UNL d   1       0.744   0.019   0.358  0.00  0.00     0.168 HD
BRANCH  13  15
ATOM     15  C   UNL d   1      -1.062   0.787   1.036  0.00  0.00     0.050 A 
ATOM     16  C   UNL d   1      -1.806  -0.407   0.925  0.00  0.00     0.066 A 
ATOM     17  C   UNL d   1      -3.214  -0.350   1.017  0.00  0.00     0.020 A 
ATOM     18  C   UNL d   1      -3.880   0.859   1.201  0.00  0.00     0.001 A 
ATOM     19  C   UNL d   1      -3.150   2.035   1.296  0.00  0.00     0.002 A 
ATOM     20  C   UNL d   1      -1.758   1.998   1.209  0.00  0.00     0.030 A 
BRANCH  16  21
ATOM     21  C   UNL d   1      -1.235  -1.780   0.782  0.00  0.00     0.295 C 
ATOM     22  O   UNL d   1      -1.931  -2.788   0.787  0.00  0.00    -0.259 OA
BRANCH  21  23
ATOM     23  O   UNL d   1       0.118  -1.777   0.677  0.00  0.00    -0.322 OA
ATOM     24  C   UNL d   1       0.702  -3.085   0.663  0.00  0.00     0.213 C 
ENDBRANCH  21  23
ENDBRANCH  16  21
ENDBRANCH  13  15
ENDBRANCH   1  13
TORSDOF 6
