REMARK  5 active torsions:
REMARK  status: ('A' for Active; 'I' for Inactive)
REMARK    1  A    between atoms: C_2  and  C_1 
REMARK    2  A    between atoms: C_3  and  C_5 
REMARK    3  A    between atoms: C_7  and  C_3 
REMARK    4  A    between atoms: C_4  and  O_6 
REMARK    5  A    between atoms: O_6  and  C_7 
ROOT
ATOM      1  C   UNL d   1       0.536  -0.042   1.326  0.00  0.00     0.048 A 
ATOM      2  C   UNL d   1      -0.232   0.342   4.009  0.00  0.00     0.012 A 
ATOM      3  C   UNL d   1       0.179  -1.135   2.131  0.00  0.00     0.017 A 
ATOM      4  C   UNL d   1       0.520   1.245   1.886  0.00  0.00     0.017 A 
ATOM      5  C   UNL d   1      -0.197  -0.946   3.465  0.00  0.00     0.016 A 
ATOM      6  C   UNL d   1       0.147   1.435   3.219  0.00  0.00     0.016 A 
ENDROOT
BRANCH   2   7
ATOM      7  C   UNL d   1      -0.634   0.594   5.420  0.00  0.00     0.183 C 
ATOM      8  O   UNL d   1      -0.123   1.541   6.021  0.00  0.00    -0.290 OA
BRANCH   7   9
ATOM      9  C   UNL d   1      -1.610  -0.359   6.111  0.00  0.00     0.262 C 
BRANCH   9  10
ATOM     10  O   UNL d   1      -2.574  -1.002   5.277  0.00  0.00    -0.314 OA
BRANCH  10  11
ATOM     11  C   UNL d   1      -3.624  -0.223   4.899  0.00  0.00     0.255 C 
ATOM     12  O   UNL d   1      -3.800   0.937   5.236  0.00  0.00    -0.266 OA
ATOM     13  C   UNL d   1      -4.558  -0.995   4.016  0.00  0.00     0.126 C 
ENDBRANCH  10  11
ENDBRANCH   9  10
ENDBRANCH   7   9
ENDBRANCH   2   7
BRANCH   1  14
ATOM     14  C   UNL d   1       0.931  -0.232  -0.120  0.00  0.00     0.417 C 
ATOM     15  F   UNL d   1       0.971  -1.538  -0.505  0.00  0.00    -0.166 F 
ATOM     16  F   UNL d   1       2.163   0.276  -0.397  0.00  0.00    -0.166 F 
ATOM     17  F   UNL d   1       0.070   0.382  -0.978  0.00  0.00    -0.166 F 
ENDBRANCH   1  14
TORSDOF 5
