REMARK  4 active torsions:
REMARK  status: ('A' for Active; 'I' for Inactive)
REMARK    1  A    between atoms: N_4  and  N_1 
REMARK       I    between atoms: C_3  and  N_4 
REMARK    2  A    between atoms: O_14  and  C_3 
REMARK    3  A    between atoms: C_6  and  C_5 
REMARK    4  A    between atoms: C_13  and  C_7 
ROOT
ATOM      1  C   UNL d   1       2.969   1.115   0.450  0.00  0.00    -0.013 A 
ATOM      2  C   UNL d   1       4.433   3.406   1.313  0.00  0.00    -0.026 A 
ATOM      3  C   UNL d   1       2.529   1.878   1.536  0.00  0.00     0.014 A 
ATOM      4  C   UNL d   1       4.131   1.510  -0.216  0.00  0.00     0.014 A 
ATOM      5  C   UNL d   1       3.247   3.007   1.953  0.00  0.00     0.013 A 
ATOM      6  C   UNL d   1       4.853   2.630   0.219  0.00  0.00     0.013 A 
ENDROOT
BRANCH   1   7
ATOM      7  C   UNL d   1       2.197  -0.113   0.044  0.00  0.00     0.032 C 
ATOM      8  N   UNL d   1       1.131  -0.410   0.729  0.00  0.00    -0.300 N 
ATOM      9  HN  UNL d   1       0.847   0.192   1.502  1.00  0.00     0.186 HD
ATOM     10  C   UNL d   1       2.735  -0.909  -1.129  0.00  0.00     0.070 C 
BRANCH   8  11
ATOM     11  N   UNL d   1       0.391  -1.506   0.430  0.00  0.00    -0.245 N 
ATOM     12  C   UNL d   1      -0.715  -1.841   1.174  0.00  0.00     0.379 C 
ATOM     13  O   UNL d   1      -1.168  -1.235   2.136  0.00  0.00    -0.237 OA
ATOM     14  H   UNL d   1       0.624  -2.127  -0.328  0.00  0.00     0.192 HD
BRANCH  12  15
ATOM     15  O   UNL d   1      -1.248  -2.987   0.667  0.00  0.00    -0.308 OA
ATOM     16  C   UNL d   1      -2.410  -3.436   1.366  0.00  0.00     0.215 C 
ENDBRANCH  12  15
ENDBRANCH   8  11
ENDBRANCH   1   7
BRANCH   2  17
ATOM     17  C   UNL d   1       5.206   4.590   1.765  0.00  0.00    -0.026 A 
ATOM     18  C   UNL d   1       5.947   5.375   0.860  0.00  0.00     0.012 A 
ATOM     19  C   UNL d   1       6.672   6.494   1.282  0.00  0.00     0.001 A 
ATOM     20  C   UNL d   1       6.663   6.866   2.621  0.00  0.00     0.000 A 
ATOM     21  C   UNL d   1       5.941   6.110   3.540  0.00  0.00     0.001 A 
ATOM     22  C   UNL d   1       5.230   4.983   3.116  0.00  0.00     0.012 A 
ENDBRANCH   2  17
TORSDOF 4
