REMARK  4 active torsions:
REMARK  status: ('A' for Active; 'I' for Inactive)
REMARK    1  A    between atoms: C_7  and  C_1 
REMARK       I    between atoms: C_2  and  N_4 
REMARK    2  A    between atoms: C_12  and  C_2 
REMARK    3  A    between atoms: C_3  and  C_11 
REMARK    4  A    between atoms: N_5  and  C_6 
ROOT
ATOM      1  C   UNL d   1       0.272   6.845   5.027  0.00  0.00     0.253 C 
ATOM      2  N   UNL d   1       0.237   5.507   4.636  0.00  0.00    -0.345 N 
ATOM      3  N   UNL d   1       0.101   2.833   3.643  0.00  0.00    -0.364 N 
ATOM      4  C   UNL d   1      -0.290   5.221   3.296  0.00  0.00     0.146 C 
ATOM      5  C   UNL d   1       1.021   4.426   5.265  0.00  0.00     0.146 C 
ATOM      6  C   UNL d   1       0.420   3.018   5.066  0.00  0.00     0.144 C 
ATOM      7  C   UNL d   1      -0.891   3.811   3.167  0.00  0.00     0.144 C 
ATOM      8  O   UNL d   1      -0.321   7.739   4.426  0.00  0.00    -0.267 OA
ENDROOT
BRANCH   1   9
ATOM      9  C   UNL d   1       1.022   7.233   6.240  0.00  0.00     0.032 A 
ATOM     10  C   UNL d   1       2.402   7.034   6.342  0.00  0.00     0.018 A 
ATOM     11  C   UNL d   1       3.075   7.424   7.503  0.00  0.00     0.017 A 
ATOM     12  C   UNL d   1       2.381   8.038   8.559  0.00  0.00     0.048 A 
ATOM     13  C   UNL d   1       1.003   8.276   8.420  0.00  0.00     0.017 A 
ATOM     14  C   UNL d   1       0.326   7.880   7.267  0.00  0.00     0.018 A 
BRANCH  12  15
ATOM     15  C   UNL d   1       3.098   8.474   9.815  0.00  0.00     0.417 C 
ATOM     16  F   UNL d   1       4.340   7.929   9.945  0.00  0.00    -0.166 F 
ATOM     17  F   UNL d   1       3.271   9.822   9.873  0.00  0.00    -0.166 F 
ATOM     18  F   UNL d   1       2.422   8.132  10.947  0.00  0.00    -0.166 F 
ENDBRANCH  12  15
ENDBRANCH   1   9
BRANCH   3  19
ATOM     19  C   UNL d   1       0.011   1.526   3.185  0.00  0.00     0.103 A 
ATOM     20  C   UNL d   1      -0.025   1.275   1.814  0.00  0.00     0.064 A 
ATOM     21  C   UNL d   1       0.020  -0.037   1.326  0.00  0.00     0.052 A 
ATOM     22  C   UNL d   1       0.091  -1.081   2.244  0.00  0.00     0.033 A 
ATOM     23  C   UNL d   1       0.118  -0.762   3.588  0.00  0.00     0.090 A 
ATOM     24  N   UNL d   1       0.086   0.503   4.062  0.00  0.00    -0.352 N 
ATOM     25  HN  UNL d   1       0.118   0.682   5.066  1.00  0.00     0.166 HD
BRANCH  21  26
ATOM     26  C   UNL d   1       0.039  -0.309  -0.151  0.00  0.00     0.417 C 
ATOM     27  F   UNL d   1      -0.090   0.811  -0.915  0.00  0.00    -0.166 F 
ATOM     28  F   UNL d   1      -0.964  -1.143  -0.541  0.00  0.00    -0.166 F 
ATOM     29  F   UNL d   1       1.197  -0.902  -0.554  0.00  0.00    -0.166 F 
ENDBRANCH  21  26
ENDBRANCH   3  19
TORSDOF 4
