REMARK  1 active torsions:
REMARK  status: ('A' for Active; 'I' for Inactive)
REMARK    1  A    between atoms: C_13  and  N_3 
ROOT
ATOM      1  C   UNL d   1       1.185   0.891  -0.018  0.00  0.00     0.103 A 
ATOM      2  C   UNL d   1       0.732  -0.403  -0.010  0.00  0.00     0.072 A 
ATOM      3  N   UNL d   1       3.457   0.153  -0.001  0.00  0.00    -0.229 N 
ATOM      4  C   UNL d   1       2.583   1.261  -0.032  0.00  0.00     0.275 A 
ATOM      5  C   UNL d   1       3.025  -1.181   0.003  0.00  0.00     0.334 A 
ATOM      6  N   UNL d   1       1.671  -1.408  -0.010  0.00  0.00    -0.306 N 
ATOM      7  S   UNL d   1      -0.070   2.023   0.004  0.00  0.00    -0.064 SA
ATOM      8  C   UNL d   1      -0.705  -0.504  -0.006  0.00  0.00     0.032 A 
ATOM      9  C   UNL d   1      -1.247   0.788  -0.000  0.00  0.00     0.088 A 
ATOM     10  N   UNL d   1      -2.548   1.128   0.005  0.00  0.00    -0.354 N 
ATOM     11  HN  UNL d   1      -2.859   2.100   0.012  1.00  0.00     0.166 HD
ATOM     12  C   UNL d   1      -1.642  -1.577  -0.007  0.00  0.00    -0.045 A 
ATOM     13  O   UNL d   1       2.956   2.432  -0.031  0.00  0.00    -0.266 OA
ATOM     14  O   UNL d   1       3.757  -2.173  -0.025  0.00  0.00    -0.246 OA
ATOM     15  C   UNL d   1      -3.008  -1.233  -0.005  0.00  0.00     0.032 A 
ATOM     16  C   UNL d   1      -3.406   0.097   0.000  0.00  0.00     0.006 A 
ATOM     17  C   UNL d   1      -1.328  -3.049  -0.007  0.00  0.00     0.049 C 
ATOM     18  C   UNL d   1      -4.870   0.430  -0.002  0.00  0.00     0.068 C 
ATOM     19  H   UNL d   1       1.404  -2.379  -0.040  0.00  0.00     0.171 HD
ENDROOT
BRANCH   3  20
ATOM     20  C   UNL d   1       4.866   0.397   0.008  0.00  0.00     0.047 A 
ATOM     21  C   UNL d   1       5.686  -0.212   0.968  0.00  0.00     0.031 A 
ATOM     22  C   UNL d   1       7.062   0.028   0.980  0.00  0.00     0.009 A 
ATOM     23  C   UNL d   1       7.646   0.852   0.012  0.00  0.00    -0.062 A 
ATOM     24  C   UNL d   1       6.832   1.448  -0.956  0.00  0.00     0.009 A 
ATOM     25  C   UNL d   1       9.128   1.082   0.021  0.00  0.00     0.048 C 
ATOM     26  C   UNL d   1       5.450   1.236  -0.948  0.00  0.00     0.031 A 
ENDBRANCH   3  20
TORSDOF 1
