REMARK  13 active torsions:
REMARK  status: ('A' for Active; 'I' for Inactive)
REMARK    1  A    between atoms: C_8  and  C_1 
REMARK    2  A    between atoms: C_2  and  C_7 
REMARK    3  A    between atoms: C_3  and  C_5 
REMARK    4  A    between atoms: C_4  and  C_6 
REMARK    5  A    between atoms: C_9  and  N_15 
REMARK    6  A    between atoms: S_36  and  C_9 
REMARK    7  A    between atoms: C_10  and  S_35 
REMARK    8  A    between atoms: N_16  and  C_10 
REMARK    9  A    between atoms: C_13  and  N_16 
REMARK   10  A    between atoms: N_15  and  C_14 
REMARK   11  A    between atoms: S_35  and  C_38 
REMARK   12  A    between atoms: C_37  and  S_36 
REMARK   13  A    between atoms: C_38  and  C_37 
ROOT
ATOM      1  C   UNL d   1       3.225  -6.719   0.012  0.00  0.00     0.092 C 
ENDROOT
BRANCH   1   2
ATOM      2  S   UNL d   1       1.922  -6.535  -1.257  0.00  0.00    -0.100 SA
BRANCH   2   3
ATOM      3  C   UNL d   1       1.479  -4.840  -1.092  0.00  0.00     0.139 C 
ATOM      4  S   UNL d   1       0.899  -4.183   0.332  0.00  0.00    -0.053 SA
BRANCH   3   5
ATOM      5  N   UNL d   1       1.712  -4.203  -2.293  0.00  0.00    -0.342 N 
ATOM      6  H   UNL d   1       2.345  -4.701  -2.909  0.00  0.00     0.167 HD
BRANCH   5   7
ATOM      7  C   UNL d   1       1.273  -2.934  -2.724  0.00  0.00     0.035 A 
ATOM      8  C   UNL d   1       2.108  -2.196  -3.567  0.00  0.00     0.045 A 
ATOM      9  C   UNL d   1       1.751  -0.898  -3.976  0.00  0.00     0.050 A 
ATOM     10  C   UNL d   1       0.494  -0.390  -3.616  0.00  0.00     0.032 A 
ATOM     11  C   UNL d   1      -0.389  -1.149  -2.833  0.00  0.00     0.050 A 
ATOM     12  C   UNL d   1       0.021  -2.415  -2.383  0.00  0.00     0.045 A 
BRANCH   9  13
ATOM     13  C   UNL d   1       2.728  -0.064  -4.772  0.00  0.00     0.417 C 
ATOM     14  F   UNL d   1       2.357   1.241  -4.889  0.00  0.00    -0.166 F 
ATOM     15  F   UNL d   1       2.893  -0.525  -6.041  0.00  0.00    -0.166 F 
ATOM     16  F   UNL d   1       3.970  -0.049  -4.213  0.00  0.00    -0.166 F 
ENDBRANCH   9  13
BRANCH  11  17
ATOM     17  C   UNL d   1      -1.766  -0.639  -2.477  0.00  0.00     0.417 C 
ATOM     18  F   UNL d   1      -2.005   0.626  -2.921  0.00  0.00    -0.166 F 
ATOM     19  F   UNL d   1      -2.755  -1.412  -3.004  0.00  0.00    -0.166 F 
ATOM     20  F   UNL d   1      -1.983  -0.610  -1.134  0.00  0.00    -0.166 F 
ENDBRANCH  11  17
ENDBRANCH   5   7
ENDBRANCH   3   5
ENDBRANCH   2   3
ENDBRANCH   1   2
BRANCH   1  21
ATOM     21  C   UNL d   1       3.595  -8.184   0.285  0.00  0.00     0.092 C 
BRANCH  21  22
ATOM     22  S   UNL d   1       4.279  -9.047  -1.175  0.00  0.00    -0.100 SA
BRANCH  22  23
ATOM     23  C   UNL d   1       4.621 -10.616  -0.491  0.00  0.00     0.139 C 
ATOM     24  S   UNL d   1       5.935 -10.877   0.518  0.00  0.00    -0.053 SA
BRANCH  23  25
ATOM     25  N   UNL d   1       3.923 -11.726  -0.913  0.00  0.00    -0.342 N 
ATOM     26  H   UNL d   1       4.439 -12.576  -0.705  0.00  0.00     0.167 HD
BRANCH  25  27
ATOM     27  C   UNL d   1       2.586 -11.937  -1.314  0.00  0.00     0.035 A 
ATOM     28  C   UNL d   1       1.592 -10.967  -1.315  0.00  0.00     0.045 A 
ATOM     29  C   UNL d   1       0.240 -11.296  -1.518  0.00  0.00     0.050 A 
ATOM     30  C   UNL d   1      -0.109 -12.628  -1.771  0.00  0.00     0.032 A 
ATOM     31  C   UNL d   1       0.876 -13.624  -1.808  0.00  0.00     0.050 A 
ATOM     32  C   UNL d   1       2.218 -13.264  -1.589  0.00  0.00     0.045 A 
BRANCH  29  33
ATOM     33  C   UNL d   1      -0.803 -10.209  -1.404  0.00  0.00     0.417 C 
ATOM     34  F   UNL d   1      -2.079 -10.687  -1.361  0.00  0.00    -0.166 F 
ATOM     35  F   UNL d   1      -0.649  -9.464  -0.277  0.00  0.00    -0.166 F 
ATOM     36  F   UNL d   1      -0.763  -9.335  -2.447  0.00  0.00    -0.166 F 
ENDBRANCH  29  33
BRANCH  31  37
ATOM     37  C   UNL d   1       0.513 -15.073  -2.035  0.00  0.00     0.417 C 
ATOM     38  F   UNL d   1      -0.831 -15.303  -2.031  0.00  0.00    -0.166 F 
ATOM     39  F   UNL d   1       0.971 -15.546  -3.224  0.00  0.00    -0.166 F 
ATOM     40  F   UNL d   1       1.033 -15.893  -1.079  0.00  0.00    -0.166 F 
ENDBRANCH  31  37
ENDBRANCH  25  27
ENDBRANCH  23  25
ENDBRANCH  22  23
ENDBRANCH  21  22
ENDBRANCH   1  21
TORSDOF 13
