REMARK  2 active torsions:
REMARK  status: ('A' for Active; 'I' for Inactive)
REMARK    1  A    between atoms: C_2  and  C_1 
REMARK       I    between atoms: N_10  and  C_2 
REMARK    2  A    between atoms: N_14  and  N_10 
ROOT
ATOM      1  C   UNL d   1      -1.548   0.291   0.095  0.00  0.00     0.043 C 
ATOM      2  C   UNL d   1      -0.779   1.037   1.218  0.00  0.00     0.024 C 
ATOM      3  C   UNL d   1      -0.995   0.764  -1.269  0.00  0.00     0.024 C 
ATOM      4  C   UNL d   1      -1.259  -1.223   0.245  0.00  0.00     0.024 C 
ATOM      5  C   UNL d   1       0.249  -1.508   0.145  0.00  0.00    -0.013 C 
ATOM      6  C   UNL d   1       0.734   0.759   1.124  0.00  0.00    -0.013 C 
ATOM      7  C   UNL d   1       0.516   0.483  -1.371  0.00  0.00    -0.013 C 
ATOM      8  C   UNL d   1       0.983  -0.751   1.263  0.00  0.00     0.009 C 
ATOM      9  C   UNL d   1       0.766  -1.026  -1.220  0.00  0.00     0.009 C 
ATOM     10  C   UNL d   1       1.250   1.231  -0.245  0.00  0.00     0.009 C 
ENDROOT
BRANCH   1  11
ATOM     11  C   UNL d   1      -3.065   0.549   0.195  0.00  0.00     0.240 C 
ATOM     12  O   UNL d   1      -3.570   1.250   1.079  0.00  0.00    -0.271 OA
ATOM     13  N   UNL d   1      -3.850  -0.100  -0.754  0.00  0.00    -0.293 N 
ATOM     14  H   UNL d   1      -3.432  -0.564  -1.557  0.00  0.00     0.183 HD
BRANCH  13  15
ATOM     15  N   UNL d   1      -5.254   0.065  -0.729  0.00  0.00    -0.247 NA
ATOM     16  H   UNL d   1      -5.472   0.618   0.114  0.00  0.00     0.143 HD
ATOM     17  H   UNL d   1      -5.684  -0.846  -0.552  0.00  0.00     0.143 HD
ENDBRANCH  13  15
ENDBRANCH   1  11
TORSDOF 2
