REMARK  3 active torsions:
REMARK  status: ('A' for Active; 'I' for Inactive)
REMARK    1  A    between atoms: C_2  and  C_1 
REMARK       I    between atoms: N_5  and  C_2 
REMARK    2  A    between atoms: C_9  and  N_5 
REMARK    3  A    between atoms: S_15  and  C_12 
ROOT
ATOM      1  C   UNL d   1      -0.125   2.333   0.365  0.00  0.00     0.240 C 
ATOM      2  N   UNL d   1      -1.149   3.261   0.197  0.00  0.00    -0.224 NA
ATOM      3  O   UNL d   1      -0.342   1.138   0.581  0.00  0.00    -0.274 OA
ATOM      4  H   UNL d   1      -0.977   3.879  -0.588  0.00  0.00     0.137 HD
ENDROOT
BRANCH   2   5
ATOM      5  C   UNL d   1      -2.487   2.788   0.286  0.00  0.00     0.033 A 
ATOM      6  C   UNL d   1      -2.993   2.435   1.544  0.00  0.00     0.049 A 
ATOM      7  C   UNL d   1      -4.296   1.940   1.649  0.00  0.00     0.035 A 
ATOM      8 CL   UNL d   1      -4.947   1.552   3.193  0.00  0.00    -0.084 Cl
ATOM      9  C   UNL d   1      -5.080   1.766   0.509  0.00  0.00     0.025 A 
ATOM     10  C   UNL d   1      -4.573   2.119  -0.744  0.00  0.00     0.022 A 
ATOM     11  C   UNL d   1      -3.280   2.651  -0.864  0.00  0.00     0.021 A 
BRANCH  11  12
ATOM     12  S   UNL d   1      -2.655   3.087  -2.484  0.00  0.00    -0.133 SA
ATOM     13  C   UNL d   1      -2.346   1.420  -3.135  0.00  0.00     0.095 C 
ENDBRANCH  11  12
ENDBRANCH   2   5
BRANCH   1  14
ATOM     14  C   UNL d   1       1.230   2.827   0.196  0.00  0.00     0.082 A 
ATOM     15  C   UNL d   1       2.326   2.007  -0.008  0.00  0.00     0.089 A 
ATOM     16  O   UNL d   1       3.453   2.753  -0.107  0.00  0.00    -0.242 OA
ATOM     17  C   UNL d   1       2.504   0.544  -0.133  0.00  0.00     0.080 C 
ATOM     18  N   UNL d   1       3.135   4.083   0.046  0.00  0.00    -0.265 N 
ATOM     19  C   UNL d   1       1.816   4.127   0.256  0.00  0.00     0.046 A 
ATOM     20  HN  UNL d   1       3.776   4.875   0.007  1.00  0.00     0.194 HD
ATOM     21  C   UNL d   1       1.201   5.452   0.535  0.00  0.00     0.071 C 
ENDBRANCH   1  14
TORSDOF 3
