REMARK  5 active torsions:
REMARK  status: ('A' for Active; 'I' for Inactive)
REMARK    1  A    between atoms: C_9  and  C_1 
REMARK    2  A    between atoms: N_14  and  C_3 
REMARK    3  A    between atoms: C_13  and  C_6 
REMARK       I    between atoms: N_16  and  C_9 
REMARK    4  A    between atoms: C_12  and  C_10 
REMARK    5  A    between atoms: N_20  and  N_16 
ROOT
ATOM      1  C   UNL d   1       2.369   0.076   0.089  0.00  0.00     0.173 A 
ATOM      2  C   UNL d   1       0.251   0.891   0.046  0.00  0.00     0.056 A 
ATOM      3  C   UNL d   1       1.632   1.243   0.157  0.00  0.00     0.081 A 
ATOM      4  C   UNL d   1       0.248  -0.505   0.029  0.00  0.00     0.162 A 
ATOM      5  O   UNL d   1       1.518  -0.992   0.043  0.00  0.00    -0.285 OA
ATOM      6  C   UNL d   1      -1.008   1.538  -0.046  0.00  0.00    -0.007 A 
ATOM      7  N   UNL d   1      -0.812  -1.329  -0.018  0.00  0.00    -0.335 N 
ATOM      8  HN  UNL d   1      -0.721  -2.344  -0.005  1.00  0.00     0.168 HD
ATOM      9  C   UNL d   1      -2.005  -0.704  -0.085  0.00  0.00     0.045 A 
ATOM     10  C   UNL d   1      -2.133   0.688  -0.097  0.00  0.00     0.043 A 
ENDROOT
BRANCH   1  11
ATOM     11  C   UNL d   1       3.796  -0.158   0.061  0.00  0.00     0.291 C 
ATOM     12  O   UNL d   1       4.646   0.740   0.085  0.00  0.00    -0.264 OA
ATOM     13  N   UNL d   1       4.157  -1.501  -0.000  0.00  0.00    -0.288 N 
ATOM     14  H   UNL d   1       3.427  -2.210   0.075  0.00  0.00     0.183 HD
BRANCH  13  15
ATOM     15  N   UNL d   1       5.520  -1.882   0.013  0.00  0.00    -0.247 NA
ATOM     16  H   UNL d   1       6.067  -1.030   0.205  0.00  0.00     0.143 HD
ATOM     17  H   UNL d   1       5.785  -2.138  -0.942  0.00  0.00     0.143 HD
ENDBRANCH  13  15
ENDBRANCH   1  11
BRANCH   3  18
ATOM     18  N   UNL d   1       2.164   2.477   0.288  0.00  0.00    -0.396 N 
ATOM     19  H   UNL d   1       1.615   3.263   0.628  0.00  0.00     0.156 HD
ATOM     20  H   UNL d   1       3.167   2.595   0.438  0.00  0.00     0.156 HD
ENDBRANCH   3  18
BRANCH   6  21
ATOM     21  C   UNL d   1      -1.159   3.003  -0.136  0.00  0.00    -0.025 A 
ATOM     22  C   UNL d   1      -0.332   3.785  -0.960  0.00  0.00     0.012 A 
ATOM     23  C   UNL d   1      -0.468   5.175  -1.031  0.00  0.00     0.001 A 
ATOM     24  C   UNL d   1      -1.481   5.812  -0.324  0.00  0.00     0.000 A 
ATOM     25  C   UNL d   1      -2.352   5.059   0.458  0.00  0.00     0.001 A 
ATOM     26  C   UNL d   1      -2.185   3.674   0.559  0.00  0.00     0.012 A 
ENDBRANCH   6  21
BRANCH   9  27
ATOM     27  C   UNL d   1      -3.183  -1.599  -0.166  0.00  0.00    -0.009 A 
ATOM     28  C   UNL d   1      -3.201  -2.836   0.509  0.00  0.00     0.015 A 
ATOM     29  C   UNL d   1      -4.307  -3.692   0.438  0.00  0.00     0.024 A 
ATOM     30  C   UNL d   1      -5.417  -3.325  -0.317  0.00  0.00     0.034 A 
ATOM     31  C   UNL d   1      -5.428  -2.115  -1.000  0.00  0.00     0.024 A 
ATOM     32 CL   UNL d   1      -6.776  -4.375  -0.412  0.00  0.00    -0.084 Cl
ATOM     33  C   UNL d   1      -4.321  -1.263  -0.927  0.00  0.00     0.015 A 
ENDBRANCH   9  27
TORSDOF 5
