REMARK  5 active torsions:
REMARK  status: ('A' for Active; 'I' for Inactive)
REMARK    1  A    between atoms: C_12  and  N_1 
REMARK    2  A    between atoms: C_11  and  C_4 
REMARK    3  A    between atoms: C_7  and  O_14 
REMARK       I    between atoms: N_10  and  C_7 
REMARK    4  A    between atoms: O_14  and  N_8 
REMARK    5  A    between atoms: C_15  and  N_10 
ROOT
ATOM      1  N   UNL d   1       3.266   0.930   0.542  0.00  0.00    -0.265 N 
ATOM      2  HN  UNL d   1       3.430   0.035   1.004  1.00  0.00     0.194 HD
ATOM      3  C   UNL d   1       2.114   1.434   0.209  0.00  0.00     0.145 C 
ENDROOT
BRANCH   1   4
ATOM      4  O   UNL d   1       4.247   1.865   0.138  0.00  0.00    -0.181 OA
BRANCH   4   5
ATOM      5  C   UNL d   1       5.553   1.501   0.422  0.00  0.00     0.387 C 
ATOM      6  N   UNL d   1       5.688   0.351   1.174  0.00  0.00    -0.301 N 
ATOM      7  H   UNL d   1       4.798  -0.068   1.414  0.00  0.00     0.171 HD
ATOM      8  O   UNL d   1       6.464   2.210   0.017  0.00  0.00    -0.236 OA
BRANCH   6   9
ATOM      9  C   UNL d   1       6.888  -0.231   1.638  0.00  0.00     0.037 A 
ATOM     10  C   UNL d   1       8.159   0.279   1.346  0.00  0.00     0.031 A 
ATOM     11  C   UNL d   1       9.317  -0.330   1.846  0.00  0.00     0.026 A 
ATOM     12  C   UNL d   1       9.213  -1.460   2.647  0.00  0.00     0.034 A 
ATOM     13  C   UNL d   1       7.960  -1.990   2.944  0.00  0.00     0.026 A 
ATOM     14 CL   UNL d   1      10.635  -2.201   3.272  0.00  0.00    -0.084 Cl
ATOM     15  C   UNL d   1       6.802  -1.378   2.439  0.00  0.00     0.031 A 
ENDBRANCH   6   9
ENDBRANCH   4   5
ENDBRANCH   1   4
BRANCH   3  16
ATOM     16  C   UNL d   1       0.882   0.708   0.465  0.00  0.00     0.067 A 
ATOM     17  N   UNL d   1      -0.316   1.261   0.207  0.00  0.00    -0.293 N 
ATOM     18  N   UNL d   1      -1.233   0.339   0.618  0.00  0.00    -0.267 N 
ATOM     19  HN  UNL d   1      -0.500   2.174  -0.208  1.00  0.00     0.187 HD
ATOM     20  C   UNL d   1      -0.611  -0.812   1.051  0.00  0.00     0.119 A 
ATOM     21  C   UNL d   1       0.741  -0.597   0.980  0.00  0.00     0.051 A 
BRANCH  18  22
ATOM     22  C   UNL d   1      -2.633   0.614   0.607  0.00  0.00     0.056 A 
ATOM     23  C   UNL d   1      -3.112   1.823   0.081  0.00  0.00     0.031 A 
ATOM     24  C   UNL d   1      -4.482   2.107   0.102  0.00  0.00     0.002 A 
ATOM     25  C   UNL d   1      -5.382   1.194   0.648  0.00  0.00     0.000 A 
ATOM     26  C   UNL d   1      -4.917  -0.011   1.167  0.00  0.00     0.002 A 
ATOM     27  C   UNL d   1      -3.550  -0.305   1.144  0.00  0.00     0.031 A 
ENDBRANCH  18  22
ENDBRANCH   3  16
TORSDOF 5
