REMARK  2 active torsions:
REMARK  status: ('A' for Active; 'I' for Inactive)
REMARK    1  A    between atoms: C_2  and  S_1 
REMARK    2  A    between atoms: N_10  and  S_1 
ROOT
ATOM      1  C   UNL d   1       0.393  -0.418  -1.521  0.00  0.00     0.084 A 
ATOM      2  C   UNL d   1      -0.046   0.549  -2.455  0.00  0.00    -0.017 A 
ATOM      3  C   UNL d   1      -0.430   0.089  -3.737  0.00  0.00     0.044 A 
ATOM      4  C   UNL d   1       0.462  -1.775  -1.871  0.00  0.00     0.067 A 
ATOM      5  C   UNL d   1      -0.361  -1.263  -4.078  0.00  0.00     0.066 A 
ATOM      6  C   UNL d   1       0.088  -2.179  -3.143  0.00  0.00     0.119 A 
ATOM      7 CL   UNL d   1      -1.017   1.171  -4.955  0.00  0.00    -0.084 Cl
ATOM      8  F   UNL d   1       0.159  -3.474  -3.471  0.00  0.00    -0.206 F 
ATOM      9  C   UNL d   1      -0.145   2.022  -2.157  0.00  0.00     0.052 C 
ENDROOT
BRANCH   1  10
ATOM     10  S   UNL d   1       0.895  -0.000   0.132  0.00  0.00     0.240 S 
ATOM     11  O   UNL d   1       1.879   1.054   0.075  0.00  0.00    -0.206 OA
ATOM     12  O   UNL d   1       1.118  -1.215   0.882  0.00  0.00    -0.206 OA
BRANCH  10  13
ATOM     13  N   UNL d   1      -0.504   0.656   0.789  0.00  0.00    -0.225 NA
ATOM     14  H   UNL d   1      -0.357   1.639   1.023  0.00  0.00     0.136 HD
ATOM     15  H   UNL d   1      -0.799   0.092   1.588  0.00  0.00     0.136 HD
ENDBRANCH  10  13
ENDBRANCH   1  10
TORSDOF 2
