REMARK  6 active torsions:
REMARK  status: ('A' for Active; 'I' for Inactive)
REMARK    1  A    between atoms: O_6  and  C_1 
REMARK       I    between atoms: C_3  and  N_16 
REMARK       I    between atoms: N_17  and  C_3 
REMARK    2  A    between atoms: C_4  and  O_19 
REMARK    3  A    between atoms: C_11  and  O_6 
REMARK    4  A    between atoms: N_16  and  C_25 
REMARK    5  A    between atoms: C_26  and  N_17 
REMARK    6  A    between atoms: O_19  and  C_28 
ROOT
ATOM      1  N   UNL d   1       3.659   2.543  -0.068  0.00  0.00    -0.344 N 
ATOM      2  HN  UNL d   1       3.506   1.672  -0.577  1.00  0.00     0.167 HD
ATOM      3  C   UNL d   1       2.714   3.066   0.744  0.00  0.00     0.149 A 
ATOM      4  C   UNL d   1       5.072   4.466   0.432  0.00  0.00     0.051 A 
ATOM      5  C   UNL d   1       4.821   3.235  -0.172  0.00  0.00     0.119 A 
ATOM      6  C   UNL d   1       2.873   4.260   1.424  0.00  0.00     0.059 A 
ATOM      7  C   UNL d   1       4.068   4.960   1.266  0.00  0.00     0.035 A 
ENDROOT
BRANCH   4   8
ATOM      8  N   UNL d   1       6.275   5.163   0.133  0.00  0.00    -0.307 N 
ATOM      9  C   UNL d   1       6.566   6.460   0.518  0.00  0.00     0.325 C 
ATOM     10  N   UNL d   1       7.719   6.949  -0.071  0.00  0.00    -0.309 N 
ATOM     11  O   UNL d   1       5.853   7.118   1.270  0.00  0.00    -0.247 OA
ATOM     12  H   UNL d   1       8.222   6.333  -0.694  0.00  0.00     0.170 HD
ATOM     13  H   UNL d   1       6.908   4.714  -0.512  0.00  0.00     0.170 HD
BRANCH  10  14
ATOM     14  C   UNL d   1       8.152   8.298  -0.042  0.00  0.00     0.036 C 
ATOM     15  C   UNL d   1       7.532   9.293   0.720  0.00  0.00     0.032 C 
ATOM     16  C   UNL d   1       7.877  10.638   0.564  0.00  0.00     0.039 C 
ATOM     17  C   UNL d   1       8.857  11.007  -0.350  0.00  0.00     0.078 C 
ATOM     18  C   UNL d   1       9.583  10.014  -1.002  0.00  0.00     0.039 C 
ATOM     19  C   UNL d   1       9.221   8.666  -0.864  0.00  0.00     0.032 C 
BRANCH  17  20
ATOM     20  O   UNL d   1       9.092  12.341  -0.476  0.00  0.00    -0.255 OA
BRANCH  20  21
ATOM     21  C   UNL d   1       9.224  12.854  -1.800  0.00  0.00     0.530 C 
ATOM     22  F   UNL d   1       9.283  11.911  -2.765  0.00  0.00    -0.144 F 
ATOM     23  F   UNL d   1       8.176  13.665  -2.071  0.00  0.00    -0.144 F 
ATOM     24  F   UNL d   1      10.353  13.593  -1.864  0.00  0.00    -0.144 F 
ENDBRANCH  20  21
ENDBRANCH  17  20
ENDBRANCH  10  14
ENDBRANCH   4   8
BRANCH   3  25
ATOM     25  O   UNL d   1       1.450   2.499   0.811  0.00  0.00    -0.276 OA
BRANCH  25  26
ATOM     26  C   UNL d   1       1.364   1.120   0.701  0.00  0.00     0.163 A 
ATOM     27  C   UNL d   1       0.201   0.594   0.126  0.00  0.00     0.042 A 
ATOM     28  C   UNL d   1       0.126  -0.804   0.151  0.00  0.00     0.049 A 
ATOM     29  C   UNL d   1      -0.858   1.349  -0.441  0.00  0.00     0.020 A 
ATOM     30  C   UNL d   1      -1.008  -1.420  -0.358  0.00  0.00     0.054 A 
ATOM     31  N   UNL d   1       1.101  -1.570   0.654  0.00  0.00    -0.351 N 
ATOM     32  C   UNL d   1      -2.057  -0.679  -0.901  0.00  0.00     0.036 A 
ATOM     33  C   UNL d   1      -1.983   0.707  -0.956  0.00  0.00     0.025 A 
ATOM     34 CL   UNL d   1      -3.453  -1.488  -1.498  0.00  0.00    -0.084 Cl
ATOM     35  C   UNL d   1       2.162  -0.943   1.179  0.00  0.00     0.182 A 
ATOM     36  HN  UNL d   1       1.038  -2.588   0.638  1.00  0.00     0.166 HD
ATOM     37  N   UNL d   1       2.328   0.375   1.274  0.00  0.00    -0.332 N 
ATOM     38  HN  UNL d   1       3.130   0.791   1.747  1.00  0.00     0.168 HD
ENDBRANCH  25  26
ENDBRANCH   3  25
TORSDOF 6
