REMARK  8 active torsions:
REMARK  status: ('A' for Active; 'I' for Inactive)
REMARK    1  A    between atoms: N_2  and  C_1 
REMARK    2  A    between atoms: C_9  and  N_2 
REMARK       I    between atoms: C_3  and  N_8 
REMARK    3  A    between atoms: C_7  and  C_3 
REMARK    4  A    between atoms: C_23  and  N_6 
REMARK    5  A    between atoms: C_10  and  C_7 
REMARK    6  A    between atoms: N_8  and  C_24 
REMARK    7  A    between atoms: O_22  and  C_12 
REMARK    8  A    between atoms: C_24  and  C_23 
ROOT
ATOM      1  C   UNL d   1       3.254   1.072   0.613  0.00  0.00     0.141 C 
ENDROOT
BRANCH   1   2
ATOM      2  N   UNL d   1       2.480  -0.063   0.124  0.00  0.00    -0.365 N 
ATOM      3  C   UNL d   1       1.743  -0.961   0.841  0.00  0.00     0.172 C 
ATOM      4  S   UNL d   1       0.649  -1.892  -0.013  0.00  0.00    -0.041 SA
ATOM      5  H   UNL d   1       2.257  -0.061  -0.867  0.00  0.00     0.161 HD
BRANCH   3   6
ATOM      6  N   UNL d   1       2.035  -1.034   2.178  0.00  0.00    -0.333 N 
ATOM      7  H   UNL d   1       3.020  -0.946   2.385  0.00  0.00     0.168 HD
BRANCH   6   8
ATOM      8  C   UNL d   1       1.230  -1.514   3.234  0.00  0.00     0.034 A 
ATOM      9  C   UNL d   1       1.871  -2.063   4.351  0.00  0.00     0.031 A 
ATOM     10  C   UNL d   1       1.132  -2.460   5.470  0.00  0.00     0.026 A 
ATOM     11  C   UNL d   1      -0.249  -2.279   5.486  0.00  0.00     0.034 A 
ATOM     12  C   UNL d   1      -0.898  -1.738   4.380  0.00  0.00     0.026 A 
ATOM     13 CL   UNL d   1      -1.150  -2.693   6.892  0.00  0.00    -0.084 Cl
ATOM     14  C   UNL d   1      -0.160  -1.362   3.253  0.00  0.00     0.031 A 
ENDBRANCH   6   8
ENDBRANCH   3   6
ENDBRANCH   1   2
BRANCH   1  15
ATOM     15  C   UNL d   1       4.763   0.833   0.540  0.00  0.00     0.142 C 
BRANCH  15  16
ATOM     16  N   UNL d   1       5.520   2.011   0.928  0.00  0.00    -0.359 N 
ATOM     17  C   UNL d   1       6.816   2.206   0.499  0.00  0.00     0.221 C 
ATOM     18  O   UNL d   1       7.384   1.455  -0.292  0.00  0.00    -0.273 OA
ATOM     19  H   UNL d   1       5.162   2.608   1.663  0.00  0.00     0.162 HD
BRANCH  17  20
ATOM     20  C   UNL d   1       7.494   3.434   1.082  0.00  0.00     0.141 C 
BRANCH  20  21
ATOM     21  C   UNL d   1       7.247   4.699   0.296  0.00  0.00    -0.049 A 
ATOM     22  C   UNL d   1       6.708   5.833   0.921  0.00  0.00     0.010 A 
ATOM     23  C   UNL d   1       6.533   7.020   0.207  0.00  0.00     0.037 A 
ATOM     24  C   UNL d   1       6.901   7.081  -1.131  0.00  0.00     0.065 A 
ATOM     25  C   UNL d   1       7.435   5.968  -1.773  0.00  0.00     0.037 A 
ATOM     26  C   UNL d   1       7.609   4.781  -1.058  0.00  0.00     0.010 A 
BRANCH  24  27
ATOM     27  O   UNL d   1       6.732   8.266  -1.784  0.00  0.00    -0.361 OA
ATOM     28  H   UNL d   1       7.075   8.171  -2.688  0.00  0.00     0.217 HD
ENDBRANCH  24  27
ENDBRANCH  20  21
ENDBRANCH  17  20
ENDBRANCH  15  16
ENDBRANCH   1  15
TORSDOF 8
