REMARK  6 active torsions:
REMARK  status: ('A' for Active; 'I' for Inactive)
REMARK    1  A    between atoms: N_4  and  C_1 
REMARK    2  A    between atoms: N_8  and  C_1 
REMARK       I    between atoms: C_2  and  N_3 
REMARK    3  A    between atoms: C_7  and  C_2 
REMARK    4  A    between atoms: N_3  and  N_4 
REMARK    5  A    between atoms: C_11  and  N_8 
REMARK    6  A    between atoms: C_9  and  C_11 
ROOT
ATOM      1  C   UNL d   1       0.049  -3.275  -1.946  0.00  0.00     0.270 C 
ATOM      2  N   UNL d   1       0.824  -2.387  -1.224  0.00  0.00    -0.264 N 
ATOM      3  O   UNL d   1      -1.137  -3.079  -2.204  0.00  0.00    -0.266 OA
ATOM      4  H   UNL d   1       1.840  -2.433  -1.242  0.00  0.00     0.190 HD
ENDROOT
BRANCH   2   5
ATOM      5  N   UNL d   1       0.280  -1.123  -0.978  0.00  0.00    -0.274 N 
ATOM      6  H   UNL d   1      -0.739  -1.082  -0.943  0.00  0.00     0.189 HD
BRANCH   5   7
ATOM      7  C   UNL d   1       1.034  -0.086  -0.503  0.00  0.00     0.186 C 
ATOM      8  S   UNL d   1       2.641  -0.192  -0.047  0.00  0.00    -0.040 SA
BRANCH   7   9
ATOM      9  N   UNL d   1       0.418   1.133  -0.461  0.00  0.00    -0.363 N 
ATOM     10  H   UNL d   1       1.024   1.869  -0.120  0.00  0.00     0.162 HD
BRANCH   9  11
ATOM     11  C   UNL d   1      -0.618   1.554  -1.383  0.00  0.00     0.148 C 
BRANCH  11  12
ATOM     12  C   UNL d   1      -1.959   1.334  -0.765  0.00  0.00    -0.018 C 
ATOM     13  C   UNL d   1      -2.922   0.578  -1.310  0.00  0.00     0.008 C 
ENDBRANCH  11  12
ENDBRANCH   9  11
ENDBRANCH   7   9
ENDBRANCH   5   7
ENDBRANCH   2   5
BRANCH   1  14
ATOM     14  C   UNL d   1       0.749  -4.485  -2.454  0.00  0.00     0.033 A 
ATOM     15  C   UNL d   1       1.836  -5.048  -1.774  0.00  0.00     0.017 A 
ATOM     16  C   UNL d   1       2.473  -6.176  -2.295  0.00  0.00     0.001 A 
ATOM     17  C   UNL d   1       2.026  -6.744  -3.488  0.00  0.00     0.000 A 
ATOM     18  C   UNL d   1       0.936  -6.193  -4.160  0.00  0.00     0.001 A 
ATOM     19  C   UNL d   1       0.293  -5.068  -3.642  0.00  0.00     0.017 A 
ENDBRANCH   1  14
TORSDOF 6
