REMARK  2 active torsions:
REMARK  status: ('A' for Active; 'I' for Inactive)
REMARK    1  A    between atoms: C_8  and  N_7 
REMARK    2  A    between atoms: C_10  and  C_8 
ROOT
ATOM      1  N   UNL d   1      -2.416   0.627   1.002  0.00  0.00    -0.245 N 
ATOM      2  HN  UNL d   1      -2.413   1.189   0.151  1.00  0.00     0.196 HD
ATOM      3  C   UNL d   1      -2.453  -1.126   2.431  0.00  0.00     0.084 A 
ATOM      4  C   UNL d   1      -2.450  -0.706   1.083  0.00  0.00     0.124 A 
ATOM      5  O   UNL d   1      -2.384   1.092   2.304  0.00  0.00    -0.241 OA
ATOM      6  C   UNL d   1      -2.408   0.037   3.158  0.00  0.00     0.076 A 
ATOM      7  N   UNL d   1      -2.470  -1.513   0.002  0.00  0.00    -0.371 N 
ATOM      8  C   UNL d   1      -2.384   0.337   4.599  0.00  0.00     0.079 C 
ATOM      9  H   UNL d   1      -2.546  -1.074  -0.908  0.00  0.00     0.161 HD
ENDROOT
BRANCH   7  10
ATOM     10  C   UNL d   1      -2.491  -2.955   0.027  0.00  0.00     0.160 C 
BRANCH  10  11
ATOM     11  C   UNL d   1      -3.903  -3.496   0.025  0.00  0.00    -0.040 A 
ATOM     12  C   UNL d   1      -4.772  -3.219  -1.044  0.00  0.00     0.010 A 
ATOM     13  C   UNL d   1      -6.062  -3.756  -1.071  0.00  0.00     0.024 A 
ATOM     14  C   UNL d   1      -6.492  -4.574  -0.030  0.00  0.00     0.034 A 
ATOM     15  C   UNL d   1      -5.646  -4.856   1.041  0.00  0.00     0.024 A 
ATOM     16 CL   UNL d   1      -8.075  -5.248  -0.070  0.00  0.00    -0.084 Cl
ATOM     17  C   UNL d   1      -4.356  -4.319   1.068  0.00  0.00     0.010 A 
ENDBRANCH  10  11
ENDBRANCH   7  10
TORSDOF 2
