REMARK  6 active torsions:
REMARK  status: ('A' for Active; 'I' for Inactive)
REMARK    1  A    between atoms: C_3  and  C_1 
REMARK    2  A    between atoms: C_12  and  N_2 
REMARK    3  A    between atoms: C_11  and  C_3 
REMARK    4  A    between atoms: N_13  and  C_10 
REMARK    5  A    between atoms: C_15  and  N_13 
REMARK    6  A    between atoms: O_21  and  C_16 
ROOT
ATOM      1  C   UNL d   1      -0.396  -2.815  -0.152  0.00  0.00     0.072 C 
ATOM      2  C   UNL d   1      -1.618  -3.381  -0.072  0.00  0.00     0.107 C 
ENDROOT
BRANCH   1   3
ATOM      3  C   UNL d   1       0.766  -3.611  -0.041  0.00  0.00     0.160 A 
ATOM      4  N   UNL d   1       1.220  -4.200   1.144  0.00  0.00    -0.222 N 
ATOM      5  N   UNL d   1       2.329  -4.922   0.825  0.00  0.00    -0.219 N 
ATOM      6  N   UNL d   1       2.556  -4.734  -0.461  0.00  0.00    -0.226 N 
ATOM      7  HN  UNL d   1       2.881  -5.500   1.460  1.00  0.00     0.210 HD
ATOM      8  N   UNL d   1       1.609  -3.927  -1.008  0.00  0.00    -0.267 N 
ATOM      9  HN  UNL d   1       3.338  -5.139  -0.975  1.00  0.00     0.210 HD
ATOM     10  HN  UNL d   1       1.559  -3.624  -1.981  1.00  0.00     0.190 HD
BRANCH   4  11
ATOM     11  C   UNL d   1       0.756  -4.187   2.493  0.00  0.00     0.060 A 
ATOM     12  C   UNL d   1       1.301  -5.120   3.396  0.00  0.00     0.031 A 
ATOM     13  C   UNL d   1       0.825  -5.212   4.705  0.00  0.00     0.002 A 
ATOM     14  C   UNL d   1      -0.188  -4.362   5.137  0.00  0.00     0.000 A 
ATOM     15  C   UNL d   1      -0.701  -3.401   4.269  0.00  0.00     0.002 A 
ATOM     16  C   UNL d   1      -0.227  -3.303   2.955  0.00  0.00     0.031 A 
ENDBRANCH   4  11
ENDBRANCH   1   3
BRANCH   1  17
ATOM     17  C   UNL d   1      -0.270  -1.358  -0.510  0.00  0.00     0.160 C 
ATOM     18  O   UNL d   1      -1.234  -0.596  -0.400  0.00  0.00    -0.293 OA
ATOM     19  C   UNL d   1       1.047  -0.850  -1.045  0.00  0.00     0.097 C 
ENDBRANCH   1  17
BRANCH   2  20
ATOM     20  N   UNL d   1      -2.834  -2.751  -0.217  0.00  0.00    -0.365 N 
ATOM     21  H   UNL d   1      -2.767  -1.742  -0.386  0.00  0.00     0.165 HD
BRANCH  20  22
ATOM     22  C   UNL d   1      -4.140  -3.256  -0.139  0.00  0.00     0.032 A 
ATOM     23  C   UNL d   1      -4.455  -4.564   0.243  0.00  0.00     0.032 A 
ATOM     24  C   UNL d   1      -5.783  -5.006   0.267  0.00  0.00     0.039 A 
ATOM     25  C   UNL d   1      -6.808  -4.145  -0.104  0.00  0.00     0.065 A 
ATOM     26  C   UNL d   1      -6.527  -2.845  -0.498  0.00  0.00     0.039 A 
ATOM     27  C   UNL d   1      -5.200  -2.409  -0.515  0.00  0.00     0.032 A 
BRANCH  25  28
ATOM     28  O   UNL d   1      -8.086  -4.618  -0.070  0.00  0.00    -0.361 OA
ATOM     29  H   UNL d   1      -8.685  -3.913  -0.364  0.00  0.00     0.217 HD
ENDBRANCH  25  28
ENDBRANCH  20  22
ENDBRANCH   2  20
TORSDOF 6
