REMARK  3 active torsions:
REMARK  status: ('A' for Active; 'I' for Inactive)
REMARK    1  A    between atoms: C_2  and  C_1 
REMARK    2  A    between atoms: O_5  and  C_2 
REMARK    3  A    between atoms: C_7  and  O_5 
ROOT
ATOM      1  C   UNL d   1       2.318  -0.801   0.220  0.00  0.00     0.042 C 
ATOM      2  C   UNL d   1       1.144  -1.415   0.421  0.00  0.00     0.029 C 
ATOM      3  C   UNL d   1      -0.068  -0.626   0.270  0.00  0.00    -0.000 A 
ATOM      4  O   UNL d   1       1.210   1.434   0.067  0.00  0.00    -0.346 OA
ATOM      5  C   UNL d   1       0.024   0.757   0.091  0.00  0.00     0.079 A 
ATOM      6  C   UNL d   1       2.414   0.661  -0.105  0.00  0.00     0.220 C 
ATOM      7  C   UNL d   1      -1.322  -1.243   0.305  0.00  0.00     0.038 A 
ATOM      8  C   UNL d   1      -1.135   1.522  -0.046  0.00  0.00     0.039 A 
ATOM      9  C   UNL d   1      -2.474  -0.475   0.142  0.00  0.00     0.035 A 
ATOM     10  C   UNL d   1      -2.387   0.904  -0.033  0.00  0.00     0.026 A 
ATOM     11 CL   UNL d   1      -4.014  -1.243   0.149  0.00  0.00    -0.084 Cl
ENDROOT
BRANCH   1  12
ATOM     12  C   UNL d   1       3.612  -1.520   0.331  0.00  0.00     0.296 C 
ATOM     13  O   UNL d   1       4.694  -1.008   0.073  0.00  0.00    -0.259 OA
BRANCH  12  14
ATOM     14  O   UNL d   1       3.399  -2.809   0.792  0.00  0.00    -0.273 OA
BRANCH  14  15
ATOM     15  C   UNL d   1       4.517  -3.426   1.361  0.00  0.00     0.101 A 
ATOM     16  C   UNL d   1       5.047  -2.990   2.583  0.00  0.00     0.069 A 
ATOM     17  C   UNL d   1       6.096  -3.695   3.169  0.00  0.00     0.050 A 
ATOM     18 CL   UNL d   1       4.391  -1.639   3.436  0.00  0.00    -0.081 Cl
ATOM     19  C   UNL d   1       6.583  -4.843   2.547  0.00  0.00     0.035 A 
ATOM     20  C   UNL d   1       6.035  -5.295   1.343  0.00  0.00     0.026 A 
ATOM     21 CL   UNL d   1       7.854  -5.735   3.291  0.00  0.00    -0.084 Cl
ATOM     22  C   UNL d   1       4.994  -4.585   0.745  0.00  0.00     0.041 A 
ENDBRANCH  14  15
ENDBRANCH  12  14
ENDBRANCH   1  12
TORSDOF 3
