REMARK  4 active torsions:
REMARK  status: ('A' for Active; 'I' for Inactive)
REMARK    1  A    between atoms: C_19  and  C_4 
REMARK    2  A    between atoms: N_17  and  N_8 
REMARK    3  A    between atoms: C_20  and  C_10 
REMARK    4  A    between atoms: C_11  and  N_17 
ROOT
ATOM      1  C   UNL d   1      -5.036   5.768   0.302  0.00  0.00     0.086 A 
ATOM      2  N   UNL d   1      -5.453   4.695   1.011  0.00  0.00    -0.295 N 
ATOM      3  HN  UNL d   1      -6.326   4.740   1.537  1.00  0.00     0.187 HD
ATOM      4  C   UNL d   1      -3.809   5.679  -0.363  0.00  0.00     0.074 A 
ATOM      5  C   UNL d   1      -3.582   3.465   0.290  0.00  0.00     0.191 A 
ATOM      6  N   UNL d   1      -3.116   4.506  -0.419  0.00  0.00    -0.328 N 
ATOM      7  HN  UNL d   1      -2.269   4.422  -0.981  1.00  0.00     0.168 HD
ATOM      8  N   UNL d   1      -4.707   3.546   1.023  0.00  0.00    -0.274 N 
ATOM      9  HN  UNL d   1      -5.004   2.751   1.589  1.00  0.00     0.189 HD
ENDROOT
BRANCH   5  10
ATOM     10  N   UNL d   1      -2.876   2.247   0.139  0.00  0.00    -0.173 NA
ATOM     11  H   UNL d   1      -3.123   1.960  -0.807  0.00  0.00     0.156 HD
BRANCH  10  12
ATOM     12  N   UNL d   1      -3.077   1.283   1.083  0.00  0.00    -0.309 N 
ATOM     13  C   UNL d   1      -2.132   0.402   1.211  0.00  0.00     0.124 A 
ATOM     14  C   UNL d   1      -2.160  -0.659   2.327  0.00  0.00     0.274 A 
ATOM     15  C   UNL d   1      -0.868   0.185   0.492  0.00  0.00     0.024 A 
ATOM     16  N   UNL d   1      -0.954  -1.319   2.233  0.00  0.00    -0.321 N 
ATOM     17  O   UNL d   1      -3.055  -0.859   3.112  0.00  0.00    -0.266 OA
ATOM     18  C   UNL d   1      -0.207  -0.843   1.164  0.00  0.00     0.047 A 
ATOM     19  H   UNL d   1      -0.693  -2.067   2.858  0.00  0.00     0.169 HD
ATOM     20  C   UNL d   1       1.031  -1.302   0.761  0.00  0.00     0.030 A 
ATOM     21  C   UNL d   1       1.599  -0.713  -0.370  0.00  0.00     0.002 A 
ATOM     22  C   UNL d   1       0.928   0.308  -1.069  0.00  0.00     0.001 A 
ATOM     23  C   UNL d   1      -0.319   0.772  -0.636  0.00  0.00     0.016 A 
ATOM     24  HN  UNL d   1      -3.921   1.256   1.655  1.00  0.00     0.181 HD
ENDBRANCH  10  12
ENDBRANCH   5  10
BRANCH   4  25
ATOM     25  C   UNL d   1      -3.144   6.784  -1.101  0.00  0.00    -0.007 A 
ATOM     26  C   UNL d   1      -2.503   6.531  -2.329  0.00  0.00     0.014 A 
ATOM     27  C   UNL d   1      -1.997   7.568  -3.117  0.00  0.00     0.001 A 
ATOM     28  C   UNL d   1      -2.118   8.887  -2.692  0.00  0.00     0.000 A 
ATOM     29  C   UNL d   1      -2.678   9.161  -1.449  0.00  0.00     0.001 A 
ATOM     30  C   UNL d   1      -3.149   8.117  -0.646  0.00  0.00     0.014 A 
ENDBRANCH   4  25
BRANCH   1  31
ATOM     31  C   UNL d   1      -5.992   6.899   0.294  0.00  0.00    -0.006 A 
ATOM     32  C   UNL d   1      -6.769   7.187   1.434  0.00  0.00     0.014 A 
ATOM     33  C   UNL d   1      -7.644   8.277   1.467  0.00  0.00     0.001 A 
ATOM     34  C   UNL d   1      -7.755   9.116   0.363  0.00  0.00     0.000 A 
ATOM     35  C   UNL d   1      -7.033   8.835  -0.790  0.00  0.00     0.001 A 
ATOM     36  C   UNL d   1      -6.193   7.718  -0.833  0.00  0.00     0.014 A 
ENDBRANCH   1  31
TORSDOF 4
