REMARK  7 active torsions:
REMARK  status: ('A' for Active; 'I' for Inactive)
REMARK    1  A    between atoms: C_11  and  N_6 
REMARK    2  A    between atoms: N_16  and  C_10 
REMARK    3  A    between atoms: C_12  and  C_11 
REMARK    4  A    between atoms: C_24  and  N_16 
REMARK    5  A    between atoms: C_21  and  C_24 
REMARK    6  A    between atoms: C_27  and  C_21 
REMARK    7  A    between atoms: O_23  and  C_27 
ROOT
ATOM      1  C   UNL d   1      -0.177  -0.915   0.120  0.00  0.00     0.160 A 
ATOM      2  C   UNL d   1      -0.494   0.405   0.234  0.00  0.00     0.165 A 
ATOM      3  N   UNL d   1      -1.275  -1.707   0.096  0.00  0.00    -0.174 N 
ATOM      4  HN  UNL d   1      -1.304  -2.725   0.041  1.00  0.00     0.186 HD
ATOM      5  N   UNL d   1       1.121  -1.350   0.025  0.00  0.00    -0.287 N 
ATOM      6  N   UNL d   1      -1.864   0.425   0.360  0.00  0.00    -0.170 N 
ATOM      7  N   UNL d   1       1.799   0.939   0.120  0.00  0.00    -0.269 N 
ATOM      8  C   UNL d   1       2.159  -0.418   0.023  0.00  0.00     0.332 A 
ATOM      9  C   UNL d   1       0.491   1.431   0.218  0.00  0.00     0.282 A 
ATOM     10  C   UNL d   1      -2.297  -0.877   0.158  0.00  0.00     0.683 C 
ATOM     11  O   UNL d   1       3.335  -0.778  -0.061  0.00  0.00    -0.246 OA
ATOM     12  O   UNL d   1       0.224   2.629   0.256  0.00  0.00    -0.265 OA
ATOM     13  C   UNL d   1       1.443  -2.760  -0.056  0.00  0.00     0.163 C 
ATOM     14  C   UNL d   1       2.857   1.931   0.074  0.00  0.00     0.164 C 
ENDROOT
BRANCH   6  15
ATOM     15  C   UNL d   1      -2.689   1.591   0.655  0.00  0.00     0.187 C 
BRANCH  15  16
ATOM     16  C   UNL d   1      -3.035   1.766   2.131  0.00  0.00    -0.028 A 
ATOM     17  C   UNL d   1      -2.880   3.001   2.826  0.00  0.00    -0.018 A 
ATOM     18  C   UNL d   1      -3.524   3.161   4.086  0.00  0.00    -0.025 A 
ATOM     19  C   UNL d   1      -2.137   4.105   2.348  0.00  0.00     0.013 A 
ATOM     20  C   UNL d   1      -3.530   4.406   4.729  0.00  0.00     0.012 A 
ATOM     21  C   UNL d   1      -4.182   2.084   4.692  0.00  0.00     0.012 A 
ATOM     22  C   UNL d   1      -2.852   5.494   4.188  0.00  0.00     0.001 A 
ATOM     23  C   UNL d   1      -2.121   5.331   3.020  0.00  0.00     0.001 A 
ATOM     24  C   UNL d   1      -4.256   0.859   4.055  0.00  0.00     0.002 A 
ATOM     25  C   UNL d   1      -3.714   0.719   2.784  0.00  0.00     0.010 A 
ENDBRANCH  15  16
ENDBRANCH   6  15
BRANCH  10  26
ATOM     26  N   UNL d   1      -3.600  -1.218   0.105  0.00  0.00    -0.226 N 
ATOM     27  H   UNL d   1      -4.292  -0.616  -0.329  0.00  0.00     0.177 HD
BRANCH  26  28
ATOM     28  C   UNL d   1      -3.989  -2.611   0.288  0.00  0.00     0.140 C 
BRANCH  28  29
ATOM     29  C   UNL d   1      -5.106  -2.694   1.326  0.00  0.00     0.046 C 
BRANCH  29  30
ATOM     30  C   UNL d   1      -5.411  -4.131   1.721  0.00  0.00     0.168 C 
BRANCH  30  31
ATOM     31  O   UNL d   1      -6.441  -4.103   2.710  0.00  0.00    -0.396 OA
ATOM     32  C   UNL d   1      -6.747  -5.404   3.191  0.00  0.00     0.201 C 
ENDBRANCH  30  31
ENDBRANCH  29  30
ENDBRANCH  28  29
ENDBRANCH  26  28
ENDBRANCH  10  26
TORSDOF 7
