REMARK  5 active torsions:
REMARK  status: ('A' for Active; 'I' for Inactive)
REMARK    1  A    between atoms: C_2  and  C_1 
REMARK       I    between atoms: N_6  and  C_1 
REMARK       I    between atoms: C_3  and  N_7 
REMARK       I    between atoms: N_5  and  C_3 
REMARK    2  A    between atoms: C_4  and  N_5 
REMARK    3  A    between atoms: C_13  and  N_6 
REMARK    4  A    between atoms: N_7  and  C_14 
REMARK    5  A    between atoms: O_16  and  C_8 
ROOT
ATOM      1  C   UNL d   1      -1.278   0.865  -0.940  0.00  0.00     0.035 A 
ATOM      2  C   UNL d   1      -4.099   1.136  -0.796  0.00  0.00     0.036 A 
ATOM      3  C   UNL d   1      -2.055  -0.067  -0.251  0.00  0.00     0.032 A 
ATOM      4  C   UNL d   1      -1.937   1.890  -1.628  0.00  0.00     0.032 A 
ATOM      5  C   UNL d   1      -3.334   2.029  -1.549  0.00  0.00     0.032 A 
ATOM      6  C   UNL d   1      -3.449   0.060  -0.189  0.00  0.00     0.032 A 
ENDROOT
BRANCH   2   7
ATOM      7  N   UNL d   1      -5.481   1.274  -0.546  0.00  0.00    -0.309 N 
ATOM      8  C   UNL d   1      -6.293   2.342  -0.885  0.00  0.00     0.325 C 
ATOM      9  N   UNL d   1      -7.509   2.266  -0.206  0.00  0.00    -0.307 N 
ATOM     10  O   UNL d   1      -5.978   3.262  -1.630  0.00  0.00    -0.247 OA
ATOM     11  H   UNL d   1      -7.401   1.886   0.727  0.00  0.00     0.170 HD
ATOM     12  H   UNL d   1      -5.920   0.538  -0.013  0.00  0.00     0.170 HD
BRANCH   9  13
ATOM     13  C   UNL d   1      -8.460   3.326  -0.266  0.00  0.00     0.064 A 
ATOM     14  C   UNL d   1      -8.927   3.867   0.950  0.00  0.00     0.061 A 
ATOM     15 CL   UNL d   1      -8.431   3.200   2.471  0.00  0.00    -0.082 Cl
ATOM     16  C   UNL d   1      -9.768   4.981   0.967  0.00  0.00     0.026 A 
ATOM     17  C   UNL d   1     -10.175   5.556  -0.232  0.00  0.00     0.002 A 
ATOM     18  C   UNL d   1      -9.778   4.987  -1.442  0.00  0.00     0.009 A 
ATOM     19  C   UNL d   1      -8.945   3.853  -1.478  0.00  0.00    -0.034 A 
ATOM     20  C   UNL d   1      -8.650   3.256  -2.827  0.00  0.00     0.050 C 
ENDBRANCH   9  13
ENDBRANCH   2   7
BRANCH   1  21
ATOM     21  N   UNL d   1       0.141   0.831  -0.984  0.00  0.00    -0.323 N 
ATOM     22  C   UNL d   1       0.956  -0.019  -0.257  0.00  0.00     0.259 C 
ATOM     23  O   UNL d   1       0.583  -0.834   0.588  0.00  0.00    -0.267 OA
ATOM     24  H   UNL d   1       0.571   1.493  -1.613  0.00  0.00     0.169 HD
BRANCH  22  25
ATOM     25  C   UNL d   1       2.424   0.008  -0.543  0.00  0.00     0.065 A 
ATOM     26  C   UNL d   1       3.182  -1.150  -0.295  0.00  0.00     0.081 A 
ATOM     27  C   UNL d   1       4.535  -1.207  -0.622  0.00  0.00     0.037 A 
ATOM     28  C   UNL d   1       5.160  -0.092  -1.173  0.00  0.00     0.003 A 
ATOM     29  C   UNL d   1       4.437   1.084  -1.371  0.00  0.00     0.001 A 
ATOM     30  C   UNL d   1       3.073   1.141  -1.054  0.00  0.00     0.020 A 
BRANCH  26  31
ATOM     31  O   UNL d   1       2.659  -2.285   0.271  0.00  0.00    -0.360 OA
ATOM     32  H   UNL d   1       1.761  -2.062   0.606  0.00  0.00     0.217 HD
ENDBRANCH  26  31
ENDBRANCH  22  25
ENDBRANCH   1  21
TORSDOF 5
