REMARK  0 active torsions:
REMARK  status: ('A' for Active; 'I' for Inactive)
ROOT
ATOM      1  N   UNL d   1      -1.570  -1.140   0.000  0.00  0.00    -0.350 N 
ATOM      2  HN  UNL d   1      -1.882  -2.112  -0.000  1.00  0.00     0.166 HD
ATOM      3  C   UNL d   1      -0.277  -0.682  -0.000  0.00  0.00     0.061 A 
ATOM      4  C   UNL d   1      -0.247   0.709   0.001  0.00  0.00     0.061 A 
ATOM      5  C   UNL d   1       0.928  -1.397  -0.001  0.00  0.00     0.057 A 
ATOM      6  C   UNL d   1       0.937   1.449   0.002  0.00  0.00     0.057 A 
ATOM      7  C   UNL d   1      -2.322  -0.064   0.001  0.00  0.00     0.181 A 
ATOM      8  C   UNL d   1       2.137   0.722   0.002  0.00  0.00     0.058 A 
ATOM      9  C   UNL d   1       2.134  -0.682  -0.001  0.00  0.00     0.058 A 
ATOM     10  N   UNL d   1      -1.569   1.077   0.001  0.00  0.00    -0.350 N 
ATOM     11 CL   UNL d   1       3.606   1.638   0.008  0.00  0.00    -0.082 Cl
ATOM     12 CL   UNL d   1       3.599  -1.603  -0.005  0.00  0.00    -0.082 Cl
ATOM     13  H   UNL d   1      -1.926   2.022   0.001  0.00  0.00     0.166 HD
ENDROOT
TORSDOF 0
