REMARK  9 active torsions:
REMARK  status: ('A' for Active; 'I' for Inactive)
REMARK    1  A    between atoms: C_17  and  C_1 
REMARK    2  A    between atoms: O_18  and  C_2 
REMARK    3  A    between atoms: O_20  and  C_3 
REMARK    4  A    between atoms: O_19  and  C_4 
REMARK    5  A    between atoms: C_5  and  C_23 
REMARK       I    between atoms: N_12  and  C_5 
REMARK    6  A    between atoms: N_6  and  N_12 
REMARK    7  A    between atoms: C_13  and  C_15 
REMARK    8  A    between atoms: S_16  and  C_17 
REMARK    9  A    between atoms: C_23  and  S_16 
ROOT
ATOM      1  N   UNL d   1      -4.139   2.603   0.261  0.00  0.00    -0.308 N 
ATOM      2  HN  UNL d   1      -3.274   2.202   0.623  1.00  0.00     0.186 HD
ATOM      3  C   UNL d   1      -5.139   1.849  -0.068  0.00  0.00     0.118 C 
ENDROOT
BRANCH   1   4
ATOM      4  N   UNL d   1      -4.278   3.946   0.108  0.00  0.00    -0.270 N 
ATOM      5  C   UNL d   1      -3.191   4.760   0.401  0.00  0.00     0.245 C 
ATOM      6  O   UNL d   1      -2.079   4.360   0.736  0.00  0.00    -0.271 OA
ATOM      7  H   UNL d   1      -5.193   4.341  -0.079  0.00  0.00     0.190 HD
BRANCH   5   8
ATOM      8  C   UNL d   1      -3.457   6.245   0.237  0.00  0.00     0.178 C 
BRANCH   8   9
ATOM      9  S   UNL d   1      -4.597   6.902   1.487  0.00  0.00    -0.155 SA
BRANCH   9  10
ATOM     10  C   UNL d   1      -3.718   6.416   3.036  0.00  0.00     0.116 C 
BRANCH  10  11
ATOM     11  C   UNL d   1      -4.438   6.922   4.275  0.00  0.00    -0.005 C 
ATOM     12  C   UNL d   1      -5.769   6.553   4.561  0.00  0.00     0.042 C 
ATOM     13 CL   UNL d   1      -6.590   5.294   3.696  0.00  0.00    -0.084 Cl
ATOM     14  C   UNL d   1      -6.484   7.146   5.611  0.00  0.00     0.024 C 
ATOM     15  C   UNL d   1      -5.864   8.058   6.456  0.00  0.00     0.003 C 
ATOM     16  C   UNL d   1      -4.515   8.339   6.277  0.00  0.00     0.024 C 
ATOM     17  C   UNL d   1      -3.807   7.777   5.204  0.00  0.00     0.042 C 
ATOM     18 CL   UNL d   1      -2.118   8.149   5.127  0.00  0.00    -0.084 Cl
ENDBRANCH  10  11
ENDBRANCH   9  10
ENDBRANCH   8   9
ENDBRANCH   5   8
ENDBRANCH   1   4
BRANCH   3  19
ATOM     19  C   UNL d   1      -5.041   0.390   0.117  0.00  0.00    -0.014 A 
ATOM     20  C   UNL d   1      -4.064  -0.145   0.940  0.00  0.00     0.052 A 
ATOM     21  C   UNL d   1      -3.991  -1.529   1.185  0.00  0.00     0.105 A 
ATOM     22  C   UNL d   1      -4.894  -2.409   0.536  0.00  0.00     0.135 A 
ATOM     23  C   UNL d   1      -5.843  -1.855  -0.348  0.00  0.00     0.105 A 
ATOM     24  C   UNL d   1      -5.924  -0.463  -0.529  0.00  0.00     0.052 A 
BRANCH  21  25
ATOM     25  O   UNL d   1      -2.997  -2.008   2.001  0.00  0.00    -0.353 OA
ATOM     26  C   UNL d   1      -2.624  -1.148   3.088  0.00  0.00     0.210 C 
ENDBRANCH  21  25
BRANCH  22  27
ATOM     27  O   UNL d   1      -4.930  -3.766   0.688  0.00  0.00    -0.351 OA
ATOM     28  C   UNL d   1      -4.263  -4.423   1.759  0.00  0.00     0.210 C 
ENDBRANCH  22  27
BRANCH  23  29
ATOM     29  O   UNL d   1      -6.780  -2.469  -1.147  0.00  0.00    -0.353 OA
ATOM     30  C   UNL d   1      -6.966  -3.873  -1.142  0.00  0.00     0.210 C 
ENDBRANCH  23  29
ENDBRANCH   3  19
TORSDOF 9
