REMARK  12 active torsions:
REMARK  status: ('A' for Active; 'I' for Inactive)
REMARK    1  A    between atoms: C_12  and  N_7 
REMARK    2  A    between atoms: N_11  and  C_10 
REMARK    3  A    between atoms: C_25  and  N_11 
REMARK    4  A    between atoms: C_18  and  C_12 
REMARK    5  A    between atoms: N_13  and  C_23 
REMARK    6  A    between atoms: C_26  and  N_13 
REMARK    7  A    between atoms: C_27  and  N_13 
REMARK    8  A    between atoms: C_16  and  C_25 
REMARK    9  A    between atoms: C_23  and  C_18 
REMARK   10  A    between atoms: O_28  and  C_18 
REMARK   11  A    between atoms: C_29  and  C_26 
REMARK   12  A    between atoms: C_30  and  C_27 
ROOT
ATOM      1  C   UNL d   1      -0.219   4.746  -0.150  0.00  0.00     0.146 C 
ATOM      2  C   UNL d   1      -1.530   4.370  -0.053  0.00  0.00     0.150 C 
ATOM      3  N   UNL d   1       0.622   3.709   0.055  0.00  0.00    -0.316 N 
ATOM      4  HN  UNL d   1       1.641   3.721   0.032  1.00  0.00     0.170 HD
ATOM      5  N   UNL d   1       0.175   6.028  -0.466  0.00  0.00    -0.287 N 
ATOM      6  N   UNL d   1      -2.131   6.605  -0.599  0.00  0.00    -0.269 N 
ATOM      7  N   UNL d   1      -1.502   3.066   0.422  0.00  0.00    -0.313 N 
ATOM      8  C   UNL d   1      -0.793   7.011  -0.671  0.00  0.00     0.332 C 
ATOM      9  C   UNL d   1      -2.567   5.280  -0.430  0.00  0.00     0.282 C 
ATOM     10  C   UNL d   1      -0.159   2.682   0.290  0.00  0.00     0.162 C 
ATOM     11  O   UNL d   1      -0.474   8.175  -0.926  0.00  0.00    -0.246 OA
ATOM     12  O   UNL d   1      -3.719   4.936  -0.676  0.00  0.00    -0.265 OA
ATOM     13  C   UNL d   1       1.569   6.414  -0.549  0.00  0.00     0.163 C 
ATOM     14  C   UNL d   1      -3.155   7.591  -0.888  0.00  0.00     0.164 C 
ENDROOT
BRANCH   7  15
ATOM     15  C   UNL d   1      -2.471   2.322   1.257  0.00  0.00     0.165 C 
BRANCH  15  16
ATOM     16  C   UNL d   1      -3.996   2.503   1.044  0.00  0.00     0.164 C 
BRANCH  16  17
ATOM     17  C   UNL d   1      -4.940   1.462   1.779  0.00  0.00     0.306 C 
BRANCH  17  18
ATOM     18  N   UNL d   1      -5.337   1.564   3.213  0.00  0.00     0.099 NA
BRANCH  18  19
ATOM     19  C   UNL d   1      -5.925   2.851   3.644  0.00  0.00     0.311 C 
BRANCH  19  20
ATOM     20  C   UNL d   1      -7.290   3.356   3.178  0.00  0.00    -0.030 A 
ATOM     21  C   UNL d   1      -7.713   4.590   3.720  0.00  0.00     0.009 A 
ATOM     22  C   UNL d   1      -8.961   5.143   3.423  0.00  0.00     0.001 A 
ATOM     23  C   UNL d   1      -9.830   4.470   2.572  0.00  0.00     0.000 A 
ATOM     24  C   UNL d   1      -9.435   3.257   2.016  0.00  0.00     0.001 A 
ATOM     25  C   UNL d   1      -8.175   2.711   2.306  0.00  0.00     0.009 A 
ENDBRANCH  19  20
ENDBRANCH  18  19
BRANCH  18  26
ATOM     26  C   UNL d   1      -6.142   0.394   3.646  0.00  0.00     0.311 C 
BRANCH  26  27
ATOM     27  C   UNL d   1      -6.427   0.254   5.137  0.00  0.00    -0.030 A 
ATOM     28  C   UNL d   1      -7.732  -0.013   5.592  0.00  0.00     0.009 A 
ATOM     29  C   UNL d   1      -7.989  -0.246   6.950  0.00  0.00     0.001 A 
ATOM     30  C   UNL d   1      -6.946  -0.210   7.871  0.00  0.00     0.000 A 
ATOM     31  C   UNL d   1      -5.650   0.063   7.439  0.00  0.00     0.001 A 
ATOM     32  C   UNL d   1      -5.390   0.288   6.081  0.00  0.00     0.009 A 
ENDBRANCH  26  27
ENDBRANCH  18  26
ENDBRANCH  17  18
ENDBRANCH  16  17
BRANCH  16  33
ATOM     33  O   UNL d   1      -4.398   3.817   1.412  0.00  0.00    -0.392 OA
ATOM     34  H   UNL d   1      -4.590   4.293   0.576  0.00  0.00     0.210 HD
ENDBRANCH  16  33
ENDBRANCH  15  16
ENDBRANCH   7  15
BRANCH  10  35
ATOM     35  N   UNL d   1       0.316   1.420   0.453  0.00  0.00    -0.258 NA
ATOM     36  H   UNL d   1       1.266   1.517   0.816  0.00  0.00     0.131 HD
BRANCH  35  37
ATOM     37  C   UNL d   1       0.482   0.663  -0.815  0.00  0.00     0.160 C 
BRANCH  37  38
ATOM     38  C   UNL d   1       1.700  -0.211  -0.932  0.00  0.00     0.065 A 
ATOM     39  O   UNL d   1       1.802  -0.928  -2.096  0.00  0.00    -0.326 OA
ATOM     40  C   UNL d   1       2.962  -1.633  -2.040  0.00  0.00     0.142 A 
ATOM     41  C   UNL d   1       3.616  -1.387  -0.857  0.00  0.00     0.027 A 
ATOM     42  C   UNL d   1       2.805  -0.469  -0.141  0.00  0.00     0.036 A 
ENDBRANCH  37  38
ENDBRANCH  35  37
ENDBRANCH  10  35
TORSDOF 12
