REMARK  6 active torsions:
REMARK  status: ('A' for Active; 'I' for Inactive)
REMARK    1  A    between atoms: C_2  and  C_1 
REMARK       I    between atoms: N_4  and  C_2 
REMARK       I    between atoms: C_3  and  N_5 
REMARK    2  A    between atoms: C_6  and  C_3 
REMARK    3  A    between atoms: N_5  and  N_4 
REMARK    4  A    between atoms: C_10  and  C_6 
REMARK    5  A    between atoms: C_13  and  C_6 
REMARK    6  A    between atoms: N_11  and  C_7 
ROOT
ATOM      1  C   UNL d   1      -1.046   1.559  -0.811  0.00  0.00     0.271 C 
ATOM      2  N   UNL d   1      -1.775   2.672  -0.426  0.00  0.00    -0.263 N 
ATOM      3  O   UNL d   1       0.169   1.645  -1.017  0.00  0.00    -0.266 OA
ATOM      4  H   UNL d   1      -2.764   2.688  -0.190  0.00  0.00     0.190 HD
ENDROOT
BRANCH   2   5
ATOM      5  N   UNL d   1      -1.090   3.899  -0.309  0.00  0.00    -0.267 N 
ATOM      6  C   UNL d   1      -1.829   5.056  -0.174  0.00  0.00     0.244 C 
ATOM      7  O   UNL d   1      -3.058   5.013  -0.059  0.00  0.00    -0.271 OA
ATOM      8  H   UNL d   1      -0.102   3.873  -0.554  0.00  0.00     0.190 HD
BRANCH   6   9
ATOM      9  C   UNL d   1      -1.058   6.387  -0.105  0.00  0.00     0.112 C 
BRANCH   9  10
ATOM     10  C   UNL d   1      -0.717   6.801   1.322  0.00  0.00    -0.045 A 
ATOM     11  C   UNL d   1       0.085   6.000   2.149  0.00  0.00     0.008 A 
ATOM     12  C   UNL d   1       0.510   6.467   3.394  0.00  0.00     0.001 A 
ATOM     13  C   UNL d   1       0.138   7.736   3.832  0.00  0.00     0.000 A 
ATOM     14  C   UNL d   1      -0.677   8.534   3.032  0.00  0.00     0.001 A 
ATOM     15  C   UNL d   1      -1.104   8.070   1.787  0.00  0.00     0.008 A 
ENDBRANCH   9  10
BRANCH   9  16
ATOM     16  C   UNL d   1       0.220   6.501  -0.961  0.00  0.00     0.014 C 
ATOM     17  C   UNL d   1      -0.040   6.459  -2.457  0.00  0.00     0.006 C 
ENDBRANCH   9  16
ENDBRANCH   6   9
ENDBRANCH   2   5
BRANCH   1  18
ATOM     18  C   UNL d   1      -1.763   0.252  -0.997  0.00  0.00     0.054 A 
ATOM     19  C   UNL d   1      -1.018  -0.948  -1.113  0.00  0.00     0.021 A 
ATOM     20  C   UNL d   1      -1.696  -2.158  -1.340  0.00  0.00     0.024 A 
ATOM     21  C   UNL d   1      -3.078  -2.186  -1.518  0.00  0.00     0.002 A 
ATOM     22  C   UNL d   1      -3.809  -1.006  -1.424  0.00  0.00     0.001 A 
ATOM     23  C   UNL d   1      -3.159   0.207  -1.162  0.00  0.00     0.019 A 
BRANCH  19  24
ATOM     24  N   UNL d   1       0.353  -1.027  -0.786  0.00  0.00    -0.302 NA
ATOM     25  H   UNL d   1       0.814  -0.114  -0.885  0.00  0.00     0.124 HD
ATOM     26  H   UNL d   1       0.855  -1.759  -1.276  0.00  0.00     0.124 HD
ENDBRANCH  19  24
ENDBRANCH   1  18
TORSDOF 6
