REMARK  6 active torsions:
REMARK  status: ('A' for Active; 'I' for Inactive)
REMARK    1  A    between atoms: C_3  and  C_1 
REMARK    2  A    between atoms: C_2  and  O_4 
REMARK       I    between atoms: N_5  and  C_2 
REMARK    3  A    between atoms: O_4  and  C_3 
REMARK    4  A    between atoms: C_7  and  C_3 
REMARK    5  A    between atoms: C_11  and  N_5 
REMARK    6  A    between atoms: C_12  and  C_7 
ROOT
ATOM      1  C   UNL d   1       0.359   0.627   1.283  0.00  0.00     0.245 C 
ENDROOT
BRANCH   1   2
ATOM      2  C   UNL d   1       0.753  -0.796   0.843  0.00  0.00     0.414 C 
ATOM      3  F   UNL d   1      -0.074  -1.289  -0.106  0.00  0.00    -0.168 F 
ATOM      4  F   UNL d   1       0.796  -1.678   1.863  0.00  0.00    -0.168 F 
ATOM      5  F   UNL d   1       1.996  -0.773   0.293  0.00  0.00    -0.168 F 
ENDBRANCH   1   2
BRANCH   1   6
ATOM      6  O   UNL d   1      -0.991   1.009   0.914  0.00  0.00    -0.289 OA
BRANCH   6   7
ATOM      7  C   UNL d   1      -2.014   0.223   1.318  0.00  0.00     0.365 C 
ATOM      8  N   UNL d   1      -3.240   0.534   0.795  0.00  0.00    -0.303 N 
ATOM      9  H   UNL d   1      -3.967  -0.038   1.206  0.00  0.00     0.171 HD
ATOM     10  O   UNL d   1      -1.883  -0.708   2.101  0.00  0.00    -0.238 OA
BRANCH   8  11
ATOM     11  C   UNL d   1      -3.642   1.447  -0.200  0.00  0.00     0.036 A 
ATOM     12  C   UNL d   1      -2.773   2.211  -0.982  0.00  0.00     0.029 A 
ATOM     13  C   UNL d   1      -3.274   3.088  -1.952  0.00  0.00     0.002 A 
ATOM     14  C   UNL d   1      -4.646   3.206  -2.153  0.00  0.00     0.000 A 
ATOM     15  C   UNL d   1      -5.522   2.438  -1.392  0.00  0.00     0.002 A 
ATOM     16  C   UNL d   1      -5.020   1.562  -0.424  0.00  0.00     0.029 A 
ENDBRANCH   8  11
ENDBRANCH   6   7
ENDBRANCH   1   6
BRANCH   1  17
ATOM     17  C   UNL d   1       0.686   0.838   2.772  0.00  0.00     0.080 C 
BRANCH  17  18
ATOM     18  C   UNL d   1       0.515   2.220   3.364  0.00  0.00    -0.055 A 
ATOM     19  C   UNL d   1       0.174   2.319   4.726  0.00  0.00     0.007 A 
ATOM     20  C   UNL d   1       0.106   3.557   5.365  0.00  0.00     0.001 A 
ATOM     21  C   UNL d   1       0.384   4.719   4.654  0.00  0.00     0.000 A 
ATOM     22  C   UNL d   1       0.721   4.641   3.304  0.00  0.00     0.001 A 
ATOM     23  C   UNL d   1       0.789   3.400   2.661  0.00  0.00     0.007 A 
ENDBRANCH  17  18
ENDBRANCH   1  17
TORSDOF 6
