REMARK  10 active torsions:
REMARK  status: ('A' for Active; 'I' for Inactive)
REMARK    1  A    between atoms: N_2  and  S_1 
REMARK    2  A    between atoms: C_4  and  S_1 
REMARK    3  A    between atoms: C_3  and  N_2 
REMARK    4  A    between atoms: O_10  and  C_9 
REMARK    5  A    between atoms: C_19  and  O_10 
REMARK    6  A    between atoms: C_14  and  C_19 
REMARK    7  A    between atoms: C_27  and  C_24 
REMARK    8  A    between atoms: C_28  and  C_27 
REMARK    9  A    between atoms: C_30  and  C_28 
REMARK   10  A    between atoms: C_29  and  C_30 
ROOT
ATOM      1  C   UNL d   1      -0.004   2.385   0.436  0.00  0.00     0.128 A 
ATOM      2  N   UNL d   1       0.775   3.268  -0.220  0.00  0.00    -0.354 N 
ATOM      3  HN  UNL d   1       1.793   3.207  -0.202  1.00  0.00     0.166 HD
ATOM      4  C   UNL d   1      -1.404   2.395   0.449  0.00  0.00     0.108 A 
ATOM      5  C   UNL d   1       0.130   4.233  -0.898  0.00  0.00     0.089 A 
ATOM      6  C   UNL d   1      -2.032   3.420  -0.246  0.00  0.00     0.041 A 
ATOM      7  C   UNL d   1      -1.249   4.356  -0.925  0.00  0.00     0.020 A 
ENDROOT
BRANCH   1   8
ATOM      8  N   UNL d   1       0.783   1.364   1.016  0.00  0.00    -0.164 NA
ATOM      9  H   UNL d   1       1.724   1.734   1.153  0.00  0.00     0.147 HD
BRANCH   8  10
ATOM     10  S   UNL d   1       0.934  -0.071   0.138  0.00  0.00     0.247 S 
ATOM     11  O   UNL d   1       0.118  -1.082   0.780  0.00  0.00    -0.205 OA
ATOM     12  O   UNL d   1       2.358  -0.281  -0.028  0.00  0.00    -0.205 OA
BRANCH  10  13
ATOM     13  C   UNL d   1       0.253   0.225  -1.480  0.00  0.00     0.074 A 
ATOM     14  C   UNL d   1       1.014   0.861  -2.462  0.00  0.00     0.025 A 
ATOM     15  C   UNL d   1       0.419   1.180  -3.685  0.00  0.00     0.009 A 
ATOM     16  C   UNL d   1      -0.925   0.861  -3.935  0.00  0.00    -0.058 A 
ATOM     17  C   UNL d   1      -1.647   0.149  -2.967  0.00  0.00     0.009 A 
ATOM     18  C   UNL d   1      -1.056  -0.179  -1.749  0.00  0.00     0.025 A 
BRANCH  16  19
ATOM     19  C   UNL d   1      -1.579   1.265  -5.235  0.00  0.00     0.038 C 
BRANCH  19  20
ATOM     20  C   UNL d   1      -2.796   2.188  -5.074  0.00  0.00     0.005 C 
BRANCH  20  21
ATOM     21  C   UNL d   1      -2.460   3.562  -4.481  0.00  0.00    -0.000 C 
BRANCH  21  22
ATOM     22  C   UNL d   1      -3.715   4.436  -4.400  0.00  0.00    -0.005 C 
ATOM     23  C   UNL d   1      -3.434   5.829  -3.859  0.00  0.00     0.005 C 
ENDBRANCH  21  22
ENDBRANCH  20  21
ENDBRANCH  19  20
ENDBRANCH  16  19
ENDBRANCH  10  13
ENDBRANCH   8  10
ENDBRANCH   1   8
BRANCH   4  24
ATOM     24  O   UNL d   1      -2.030   1.424   1.162  0.00  0.00    -0.343 OA
BRANCH  24  25
ATOM     25  C   UNL d   1      -3.393   1.120   0.865  0.00  0.00     0.214 C 
BRANCH  25  26
ATOM     26  C   UNL d   1      -3.635  -0.232   1.484  0.00  0.00    -0.028 A 
ATOM     27  C   UNL d   1      -3.523  -0.393   2.878  0.00  0.00     0.051 A 
ATOM     28  C   UNL d   1      -3.583  -1.662   3.445  0.00  0.00     0.119 A 
ATOM     29  F   UNL d   1      -3.446  -1.793   4.770  0.00  0.00    -0.206 F 
ATOM     30  C   UNL d   1      -3.760  -2.791   2.660  0.00  0.00     0.084 A 
ATOM     31  C   UNL d   1      -3.899  -2.632   1.290  0.00  0.00     0.119 A 
ATOM     32  C   UNL d   1      -3.851  -1.371   0.696  0.00  0.00     0.051 A 
ATOM     33  F   UNL d   1      -4.063  -3.713   0.515  0.00  0.00    -0.206 F 
ENDBRANCH  25  26
ENDBRANCH  24  25
ENDBRANCH   4  24
TORSDOF 10
