REMARK  7 active torsions:
REMARK  status: ('A' for Active; 'I' for Inactive)
REMARK    1  A    between atoms: C_4  and  C_1 
REMARK    2  A    between atoms: C_2  and  C_3 
REMARK       I    between atoms: N_7  and  C_4 
REMARK    3  A    between atoms: O_11  and  C_5 
REMARK    4  A    between atoms: C_6  and  C_15 
REMARK    5  A    between atoms: C_24  and  N_7 
REMARK    6  A    between atoms: C_15  and  O_11 
REMARK    7  A    between atoms: C_23  and  C_24 
ROOT
ATOM      1  C   UNL d   1       0.906   1.169  -0.119  0.00  0.00     0.098 A 
ATOM      2  C   UNL d   1       1.826   0.122   0.064  0.00  0.00     0.069 A 
ATOM      3  C   UNL d   1      -0.455   0.804  -0.226  0.00  0.00     0.159 A 
ATOM      4  N   UNL d   1      -0.920  -0.465  -0.124  0.00  0.00    -0.346 N 
ATOM      5  HN  UNL d   1      -1.916  -0.671  -0.211  1.00  0.00     0.167 HD
ATOM      6  C   UNL d   1      -0.027  -1.438   0.096  0.00  0.00     0.091 A 
ATOM      7  C   UNL d   1       1.329  -1.199   0.172  0.00  0.00     0.034 A 
ENDROOT
BRANCH   1   8
ATOM      8  C   UNL d   1       1.206   2.629  -0.039  0.00  0.00     0.257 C 
ATOM      9  N   UNL d   1       2.322   3.162  -0.663  0.00  0.00    -0.352 N 
ATOM     10  H   UNL d   1       2.932   2.600  -1.242  0.00  0.00     0.163 HD
ATOM     11  O   UNL d   1       0.441   3.345   0.603  0.00  0.00    -0.267 OA
BRANCH   9  12
ATOM     12  C   UNL d   1       2.525   4.599  -0.601  0.00  0.00     0.161 C 
BRANCH  12  13
ATOM     13  C   UNL d   1       3.912   5.138  -0.868  0.00  0.00    -0.039 A 
ATOM     14  C   UNL d   1       5.092   4.387  -0.763  0.00  0.00     0.034 A 
ATOM     15  C   UNL d   1       6.353   4.996  -0.919  0.00  0.00     0.056 A 
ATOM     16 CL   UNL d   1       7.752   3.988  -0.779  0.00  0.00    -0.083 Cl
ATOM     17  C   UNL d   1       6.447   6.366  -1.169  0.00  0.00     0.055 A 
ATOM     18  C   UNL d   1       5.287   7.128  -1.261  0.00  0.00     0.026 A 
ATOM     19 CL   UNL d   1       7.958   7.185  -1.340  0.00  0.00    -0.083 Cl
ATOM     20  C   UNL d   1       4.032   6.519  -1.115  0.00  0.00     0.010 A 
ENDBRANCH  12  13
ENDBRANCH   9  12
ENDBRANCH   1   8
BRANCH   2  21
ATOM     21  C   UNL d   1       3.318   0.235   0.197  0.00  0.00     0.418 C 
ATOM     22  F   UNL d   1       3.857   1.462   0.035  0.00  0.00    -0.166 F 
ATOM     23  F   UNL d   1       3.761  -0.213   1.402  0.00  0.00    -0.166 F 
ATOM     24  F   UNL d   1       3.947  -0.544  -0.733  0.00  0.00    -0.166 F 
ENDBRANCH   2  21
BRANCH   3  25
ATOM     25  O   UNL d   1      -1.383   1.763  -0.568  0.00  0.00    -0.326 OA
BRANCH  25  26
ATOM     26  C   UNL d   1      -2.756   1.376  -0.390  0.00  0.00     0.294 C 
BRANCH  26  27
ATOM     27  C   UNL d   1      -3.246   1.445   1.053  0.00  0.00     0.408 C 
ATOM     28  F   UNL d   1      -2.405   2.115   1.869  0.00  0.00    -0.169 F 
ATOM     29  F   UNL d   1      -4.444   2.086   1.107  0.00  0.00    -0.169 F 
ATOM     30  F   UNL d   1      -3.441   0.216   1.582  0.00  0.00    -0.169 F 
ENDBRANCH  26  27
ENDBRANCH  25  26
ENDBRANCH   3  25
TORSDOF 7
