REMARK  4 active torsions:
REMARK  status: ('A' for Active; 'I' for Inactive)
REMARK    1  A    between atoms: N_2  and  S_1 
REMARK    2  A    between atoms: C_3  and  S_1 
REMARK    3  A    between atoms: C_4  and  N_2 
REMARK    4  A    between atoms: C_8  and  C_11 
ROOT
ATOM      1  S   UNL d   1       1.026   0.016  -0.095  0.00  0.00     0.248 S 
ATOM      2  O   UNL d   1       0.290   1.262   0.014  0.00  0.00    -0.205 OA
ATOM      3  O   UNL d   1       2.468   0.045  -0.045  0.00  0.00    -0.205 OA
ENDROOT
BRANCH   1   4
ATOM      4  N   UNL d   1       0.514  -0.650  -1.562  0.00  0.00    -0.165 NA
ATOM      5  H   UNL d   1       0.219   0.115  -2.164  0.00  0.00     0.147 HD
BRANCH   4   6
ATOM      6  C   UNL d   1       1.313  -1.628  -2.135  0.00  0.00     0.117 A 
ATOM      7  N   UNL d   1       1.177  -2.921  -1.838  0.00  0.00    -0.249 N 
ATOM      8  O   UNL d   1       2.134  -3.578  -2.593  0.00  0.00    -0.241 OA
ATOM      9  HN  UNL d   1       0.508  -3.338  -1.191  1.00  0.00     0.196 HD
ATOM     10  C   UNL d   1       2.818  -2.669  -3.340  0.00  0.00     0.075 A 
ATOM     11  C   UNL d   1       2.305  -1.417  -3.111  0.00  0.00     0.079 A 
ATOM     12  C   UNL d   1       3.911  -3.196  -4.175  0.00  0.00     0.079 C 
ENDBRANCH   4   6
ENDBRANCH   1   4
BRANCH   1  13
ATOM     13  C   UNL d   1       0.347  -1.101   1.099  0.00  0.00     0.096 A 
ATOM     14  C   UNL d   1       1.054  -2.183   1.623  0.00  0.00     0.057 A 
ATOM     15  C   UNL d   1       0.415  -3.048   2.524  0.00  0.00     0.041 A 
ATOM     16 CL   UNL d   1       2.689  -2.582   1.241  0.00  0.00    -0.083 Cl
ATOM     17  C   UNL d   1      -0.917  -2.840   2.917  0.00  0.00     0.049 A 
ATOM     18  C   UNL d   1      -1.599  -1.723   2.422  0.00  0.00     0.018 A 
ATOM     19  C   UNL d   1      -0.973  -0.859   1.522  0.00  0.00     0.027 A 
BRANCH  17  20
ATOM     20  C   UNL d   1      -1.613  -3.807   3.845  0.00  0.00     0.417 C 
ATOM     21  F   UNL d   1      -0.835  -4.859   4.219  0.00  0.00    -0.166 F 
ATOM     22  F   UNL d   1      -2.026  -3.215   4.998  0.00  0.00    -0.166 F 
ATOM     23  F   UNL d   1      -2.728  -4.348   3.281  0.00  0.00    -0.166 F 
ENDBRANCH  17  20
ENDBRANCH   1  13
TORSDOF 4
