REMARK  4 active torsions:
REMARK  status: ('A' for Active; 'I' for Inactive)
REMARK    1  A    between atoms: C_7  and  N_1 
REMARK    2  A    between atoms: N_11  and  C_2 
REMARK    3  A    between atoms: C_8  and  C_4 
REMARK    4  A    between atoms: O_22  and  C_19 
ROOT
ATOM      1  N   UNL d   1      -0.004  -1.334   0.001  0.00  0.00    -0.222 N 
ATOM      2  C   UNL d   1       1.288  -0.801   0.101  0.00  0.00     0.148 C 
ATOM      3  N   UNL d   1      -0.881  -0.350  -0.317  0.00  0.00    -0.013 NA
ATOM      4  C   UNL d   1       1.084   0.567  -0.030  0.00  0.00     0.101 C 
ATOM      5  N   UNL d   1      -0.242   0.810  -0.282  0.00  0.00    -0.279 N 
ATOM      6  HN  UNL d   1      -0.665   1.728  -0.420  1.00  0.00     0.184 HD
ENDROOT
BRANCH   1   7
ATOM      7  C   UNL d   1      -0.436  -2.680   0.125  0.00  0.00     0.059 A 
ATOM      8  C   UNL d   1       0.281  -3.597   0.906  0.00  0.00     0.055 A 
ATOM      9  C   UNL d   1      -0.145  -4.922   0.983  0.00  0.00     0.037 A 
ATOM     10 CL   UNL d   1       0.738  -6.041   1.947  0.00  0.00    -0.084 Cl
ATOM     11  C   UNL d   1      -1.275  -5.350   0.292  0.00  0.00     0.048 A 
ATOM     12  C   UNL d   1      -1.996  -4.431  -0.467  0.00  0.00     0.037 A 
ATOM     13  C   UNL d   1      -1.597  -3.096  -0.542  0.00  0.00     0.055 A 
ATOM     14 CL   UNL d   1      -3.384  -4.957  -1.339  0.00  0.00    -0.084 Cl
ENDBRANCH   1   7
BRANCH   2  15
ATOM     15  N   UNL d   1       2.432  -1.548   0.172  0.00  0.00    -0.382 N 
ATOM     16  H   UNL d   1       2.425  -2.502  -0.188  0.00  0.00     0.157 HD
ATOM     17  H   UNL d   1       3.308  -1.098  -0.079  0.00  0.00     0.157 HD
ENDBRANCH   2  15
BRANCH   4  18
ATOM     18  C   UNL d   1       2.102   1.604  -0.096  0.00  0.00    -0.004 A 
ATOM     19  C   UNL d   1       1.865   2.752  -0.865  0.00  0.00     0.016 A 
ATOM     20  C   UNL d   1       2.875   3.699  -1.074  0.00  0.00     0.037 A 
ATOM     21  C   UNL d   1       4.138   3.506  -0.518  0.00  0.00     0.068 A 
ATOM     22  C   UNL d   1       4.357   2.410   0.316  0.00  0.00     0.037 A 
ATOM     23  C   UNL d   1       3.343   1.474   0.538  0.00  0.00     0.016 A 
BRANCH  21  24
ATOM     24  O   UNL d   1       5.211   4.335  -0.691  0.00  0.00    -0.356 OA
ATOM     25  C   UNL d   1       5.236   5.047  -1.925  0.00  0.00     0.210 C 
ENDBRANCH  21  24
ENDBRANCH   4  18
TORSDOF 4
