REMARK  5 active torsions:
REMARK  status: ('A' for Active; 'I' for Inactive)
REMARK    1  A    between atoms: C_13  and  C_3 
REMARK    2  A    between atoms: C_15  and  N_5 
REMARK    3  A    between atoms: C_18  and  N_9 
REMARK    4  A    between atoms: C_19  and  C_12 
REMARK    5  A    between atoms: C_14  and  C_13 
ROOT
ATOM      1  C   UNL d   1      -0.428   1.233   0.107  0.00  0.00     0.099 C 
ATOM      2  C   UNL d   1      -0.660   2.484   0.554  0.00  0.00     0.117 C 
ATOM      3  C   UNL d   1      -1.648   4.314   1.768  0.00  0.00     0.143 C 
ATOM      4  C   UNL d   1       0.925   0.658  -0.152  0.00  0.00     0.282 C 
ATOM      5  N   UNL d   1       0.237   3.456   1.050  0.00  0.00    -0.248 N 
ATOM      6  S   UNL d   1      -2.309   3.133   0.683  0.00  0.00    -0.046 SA
ATOM      7  N   UNL d   1      -0.361   4.438   1.866  0.00  0.00    -0.282 N 
ATOM      8  HN  UNL d   1       0.132   5.126   2.434  1.00  0.00     0.188 HD
ATOM      9  N   UNL d   1       0.651  -0.375  -1.061  0.00  0.00    -0.219 N 
ATOM     10  N   UNL d   1      -0.692  -0.694  -1.151  0.00  0.00    -0.289 N 
ATOM     11  HN  UNL d   1      -1.104  -1.449  -1.699  1.00  0.00     0.188 HD
ATOM     12  C   UNL d   1      -1.332   0.163  -0.398  0.00  0.00     0.077 C 
ATOM     13  O   UNL d   1       1.976   1.018   0.340  0.00  0.00    -0.265 OA
ENDROOT
BRANCH   5  14
ATOM     14  C   UNL d   1       1.435   3.899   0.411  0.00  0.00     0.057 A 
ATOM     15  C   UNL d   1       1.672   3.722  -0.962  0.00  0.00     0.032 A 
ATOM     16  C   UNL d   1       2.866   4.152  -1.551  0.00  0.00     0.009 A 
ATOM     17  C   UNL d   1       3.848   4.790  -0.787  0.00  0.00    -0.062 A 
ATOM     18  C   UNL d   1       3.612   5.002   0.573  0.00  0.00     0.009 A 
ATOM     19  C   UNL d   1       5.124   5.239  -1.433  0.00  0.00     0.048 C 
ATOM     20  C   UNL d   1       2.419   4.565   1.161  0.00  0.00     0.032 A 
ENDBRANCH   5  14
BRANCH  12  21
ATOM     21  C   UNL d   1      -2.743  -0.049  -0.043  0.00  0.00    -0.007 A 
ATOM     22  C   UNL d   1      -3.204   0.134   1.266  0.00  0.00     0.014 A 
ATOM     23  C   UNL d   1      -4.544  -0.102   1.575  0.00  0.00     0.001 A 
ATOM     24  C   UNL d   1      -5.411  -0.586   0.596  0.00  0.00     0.000 A 
ATOM     25  C   UNL d   1      -4.938  -0.841  -0.691  0.00  0.00     0.001 A 
ATOM     26  C   UNL d   1      -3.606  -0.575  -1.012  0.00  0.00     0.014 A 
ENDBRANCH  12  21
BRANCH   3  27
ATOM     27  C   UNL d   1      -2.752   4.993   2.511  0.00  0.00     0.224 C 
ATOM     28  O   UNL d   1      -3.605   4.281   3.038  0.00  0.00    -0.284 OA
BRANCH  27  29
ATOM     29  C   UNL d   1      -2.706   6.443   2.604  0.00  0.00     0.057 A 
ATOM     30  S   UNL d   1      -4.041   7.246   3.337  0.00  0.00    -0.098 SA
ATOM     31  C   UNL d   1      -3.312   8.778   3.169  0.00  0.00     0.050 A 
ATOM     32  C   UNL d   1      -2.084   8.697   2.555  0.00  0.00     0.009 A 
ATOM     33  C   UNL d   1      -1.740   7.353   2.215  0.00  0.00     0.023 A 
ENDBRANCH  27  29
ENDBRANCH   3  27
BRANCH   9  34
ATOM     34  C   UNL d   1       1.573  -1.150  -1.812  0.00  0.00     0.060 A 
ATOM     35  C   UNL d   1       2.955  -0.932  -1.749  0.00  0.00     0.031 A 
ATOM     36  C   UNL d   1       3.837  -1.684  -2.535  0.00  0.00     0.002 A 
ATOM     37  C   UNL d   1       3.350  -2.661  -3.401  0.00  0.00     0.000 A 
ATOM     38  C   UNL d   1       1.981  -2.892  -3.478  0.00  0.00     0.002 A 
ATOM     39  C   UNL d   1       1.103  -2.144  -2.688  0.00  0.00     0.031 A 
ENDBRANCH   9  34
TORSDOF 5
