REMARK  4 active torsions:
REMARK  status: ('A' for Active; 'I' for Inactive)
REMARK    1  A    between atoms: C_4  and  C_1 
REMARK    2  A    between atoms: N_6  and  C_2 
REMARK       I    between atoms: C_3  and  N_5 
REMARK       I    between atoms: N_7  and  C_3 
REMARK    3  A    between atoms: C_8  and  N_7 
REMARK    4  A    between atoms: O_26  and  C_13 
ROOT
ATOM      1  C   UNL d   1      -2.987   6.292  -0.298  0.00  0.00     0.323 C 
ATOM      2  N   UNL d   1      -2.514   4.983  -0.224  0.00  0.00    -0.332 N 
ATOM      3  N   UNL d   1      -1.037   2.529  -0.034  0.00  0.00    -0.266 NA
ATOM      4  N   UNL d   1      -3.891   6.655   0.665  0.00  0.00    -0.306 N 
ATOM      5  O   UNL d   1      -2.617   7.046  -1.199  0.00  0.00    -0.247 OA
ATOM      6  C   UNL d   1      -1.356   4.703  -1.093  0.00  0.00     0.142 C 
ATOM      7  C   UNL d   1      -2.644   4.104   0.957  0.00  0.00     0.142 C 
ATOM      8  C   UNL d   1      -2.326   2.617   0.672  0.00  0.00     0.117 C 
ATOM      9  C   UNL d   1      -1.117   3.208  -1.341  0.00  0.00     0.117 C 
ATOM     10  H   UNL d   1      -4.304   5.927   1.222  0.00  0.00     0.171 HD
ENDROOT
BRANCH   4  11
ATOM     11  C   UNL d   1      -4.519   7.917   0.798  0.00  0.00     0.071 A 
ATOM     12  C   UNL d   1      -3.976   9.091   0.262  0.00  0.00     0.056 A 
ATOM     13  C   UNL d   1      -4.618  10.314   0.453  0.00  0.00     0.036 A 
ATOM     14 CL   UNL d   1      -3.920  11.753  -0.186  0.00  0.00    -0.084 Cl
ATOM     15  C   UNL d   1      -5.806  10.388   1.176  0.00  0.00     0.026 A 
ATOM     16  C   UNL d   1      -6.352   9.228   1.726  0.00  0.00     0.041 A 
ATOM     17  C   UNL d   1      -5.716   7.997   1.532  0.00  0.00     0.095 A 
BRANCH  17  18
ATOM     18  O   UNL d   1      -6.278   6.906   2.147  0.00  0.00    -0.354 OA
ATOM     19  C   UNL d   1      -6.836   5.971   1.220  0.00  0.00     0.210 C 
ENDBRANCH  17  18
ENDBRANCH   4  11
BRANCH   3  20
ATOM     20  C   UNL d   1      -0.450   1.268  -0.071  0.00  0.00     0.097 A 
ATOM     21  C   UNL d   1       0.931   1.118  -0.219  0.00  0.00     0.086 A 
ATOM     22  C   UNL d   1       1.467  -0.184  -0.237  0.00  0.00     0.021 A 
ATOM     23  C   UNL d   1       0.639  -1.284  -0.078  0.00  0.00     0.018 A 
ATOM     24  C   UNL d   1      -0.707  -1.046   0.089  0.00  0.00     0.089 A 
ATOM     25  N   UNL d   1      -1.256   0.189   0.096  0.00  0.00    -0.356 N 
ATOM     26  HN  UNL d   1      -2.260   0.309   0.225  1.00  0.00     0.166 HD
BRANCH  21  27
ATOM     27  C   UNL d   1       1.880   2.274  -0.358  0.00  0.00     0.420 C 
ATOM     28  F   UNL d   1       1.438   3.486   0.074  0.00  0.00    -0.166 F 
ATOM     29  F   UNL d   1       3.049   2.066   0.322  0.00  0.00    -0.166 F 
ATOM     30  F   UNL d   1       2.256   2.463  -1.657  0.00  0.00    -0.166 F 
ENDBRANCH  21  27
ENDBRANCH   3  20
TORSDOF 4
