REMARK  4 active torsions:
REMARK  status: ('A' for Active; 'I' for Inactive)
REMARK    1  A    between atoms: C_4  and  C_1 
REMARK    2  A    between atoms: C_7  and  C_2 
REMARK       I    between atoms: N_10  and  C_7 
REMARK       I    between atoms: C_9  and  N_11 
REMARK    3  A    between atoms: C_14  and  C_9 
REMARK    4  A    between atoms: N_11  and  N_10 
ROOT
ATOM      1  C   UNL d   1       0.206  -2.703   0.079  0.00  0.00     0.275 C 
ATOM      2  N   UNL d   1      -0.594  -3.813   0.257  0.00  0.00    -0.263 N 
ATOM      3  O   UNL d   1      -0.291  -1.576   0.095  0.00  0.00    -0.266 OA
ATOM      4  H   UNL d   1      -0.280  -4.783   0.287  0.00  0.00     0.190 HD
ENDROOT
BRANCH   1   5
ATOM      5  C   UNL d   1       1.633  -2.911  -0.148  0.00  0.00     0.098 A 
ATOM      6  C   UNL d   1       2.383  -4.080  -0.186  0.00  0.00     0.200 A 
ATOM      7  O   UNL d   1       3.674  -3.782  -0.489  0.00  0.00    -0.232 OA
ATOM      8  N   UNL d   1       3.831  -2.428  -0.601  0.00  0.00    -0.264 N 
ATOM      9  C   UNL d   1       2.627  -1.896  -0.366  0.00  0.00     0.047 A 
ATOM     10  HN  UNL d   1       4.691  -1.926  -0.819  1.00  0.00     0.194 HD
ATOM     11  C   UNL d   1       2.531  -0.414  -0.336  0.00  0.00     0.071 C 
BRANCH   6  12
ATOM     12  C   UNL d   1       2.172  -5.521   0.034  0.00  0.00     0.442 C 
ATOM     13  F   UNL d   1       0.897  -5.809   0.394  0.00  0.00    -0.164 F 
ATOM     14  F   UNL d   1       2.433  -6.255  -1.075  0.00  0.00    -0.164 F 
ATOM     15  F   UNL d   1       2.964  -6.000   1.027  0.00  0.00    -0.164 F 
ENDBRANCH   6  12
ENDBRANCH   1   5
BRANCH   2  16
ATOM     16  N   UNL d   1      -1.980  -3.647   0.412  0.00  0.00    -0.263 N 
ATOM     17  C   UNL d   1      -2.735  -4.770   0.695  0.00  0.00     0.270 C 
ATOM     18  O   UNL d   1      -2.235  -5.888   0.817  0.00  0.00    -0.266 OA
ATOM     19  H   UNL d   1      -2.327  -2.692   0.479  0.00  0.00     0.190 HD
BRANCH  17  20
ATOM     20  C   UNL d   1      -4.203  -4.574   0.864  0.00  0.00     0.033 A 
ATOM     21  C   UNL d   1      -4.885  -3.533   0.218  0.00  0.00     0.017 A 
ATOM     22  C   UNL d   1      -6.266  -3.396   0.380  0.00  0.00     0.001 A 
ATOM     23  C   UNL d   1      -6.971  -4.297   1.178  0.00  0.00     0.000 A 
ATOM     24  C   UNL d   1      -6.300  -5.344   1.810  0.00  0.00     0.001 A 
ATOM     25  C   UNL d   1      -4.918  -5.487   1.649  0.00  0.00     0.017 A 
ENDBRANCH  17  20
ENDBRANCH   2  16
TORSDOF 4
