REMARK  5 active torsions:
REMARK  status: ('A' for Active; 'I' for Inactive)
REMARK    1  A    between atoms: C_2  and  S_1 
REMARK    2  A    between atoms: N_6  and  S_1 
REMARK    3  A    between atoms: S_3  and  C_4 
REMARK    4  A    between atoms: C_13  and  S_3 
REMARK    5  A    between atoms: C_14  and  N_6 
ROOT
ATOM      1  C   UNL d   1       0.741  -1.923  -0.676  0.00  0.00     0.121 A 
ATOM      2  C   UNL d   1       0.453  -4.379  -0.859  0.00  0.00     0.106 A 
ATOM      3  S   UNL d   1       1.308  -3.309   0.157  0.00  0.00    -0.065 SA
ATOM      4  C   UNL d   1       0.027  -2.289  -1.804  0.00  0.00     0.035 A 
ATOM      5  C   UNL d   1      -0.148  -3.703  -1.903  0.00  0.00     0.033 A 
ENDROOT
BRANCH   1   6
ATOM      6  S   UNL d   1       1.243  -0.319  -0.033  0.00  0.00     0.267 S 
ATOM      7  O   UNL d   1       0.834   0.597  -1.073  0.00  0.00    -0.200 OA
ATOM      8  O   UNL d   1       2.645  -0.488   0.290  0.00  0.00    -0.200 OA
BRANCH   6   9
ATOM      9  N   UNL d   1       0.405   0.023   1.440  0.00  0.00    -0.306 N 
ATOM     10  C   UNL d   1       0.566  -1.062   2.444  0.00  0.00     0.163 C 
BRANCH   9  11
ATOM     11  C   UNL d   1      -0.970   0.650   1.406  0.00  0.00     0.095 C 
ATOM     12  C   UNL d   1      -0.993   2.055   0.765  0.00  0.00     0.026 C 
ATOM     13  C   UNL d   1      -0.237   3.110   1.575  0.00  0.00     0.002 C 
ATOM     14  C   UNL d   1      -0.793   3.222   2.989  0.00  0.00     0.000 C 
ATOM     15  C   UNL d   1      -0.814   1.862   3.675  0.00  0.00     0.002 C 
ATOM     16  C   UNL d   1      -1.565   0.823   2.832  0.00  0.00     0.026 C 
ENDBRANCH   9  11
ENDBRANCH   6   9
ENDBRANCH   1   6
BRANCH   2  17
ATOM     17  S   UNL d   1       0.539  -6.107  -0.430  0.00  0.00     0.213 S 
ATOM     18  O   UNL d   1       0.419  -6.182   1.010  0.00  0.00    -0.217 OA
ATOM     19  O   UNL d   1      -0.420  -6.748  -1.313  0.00  0.00    -0.217 OA
BRANCH  17  20
ATOM     20  C   UNL d   1       2.168  -6.617  -0.908  0.00  0.00     0.064 A 
ATOM     21  C   UNL d   1       3.212  -6.558   0.019  0.00  0.00     0.024 A 
ATOM     22  C   UNL d   1       4.496  -6.938  -0.373  0.00  0.00     0.002 A 
ATOM     23  C   UNL d   1       4.726  -7.387  -1.675  0.00  0.00     0.000 A 
ATOM     24  C   UNL d   1       3.674  -7.466  -2.589  0.00  0.00     0.002 A 
ATOM     25  C   UNL d   1       2.389  -7.083  -2.209  0.00  0.00     0.024 A 
ENDBRANCH  17  20
ENDBRANCH   2  17
TORSDOF 5
