REMARK  4 active torsions:
REMARK  status: ('A' for Active; 'I' for Inactive)
REMARK    1  A    between atoms: C_8  and  C_1 
REMARK    2  A    between atoms: C_20  and  N_4 
REMARK    3  A    between atoms: O_15  and  C_6 
REMARK    4  A    between atoms: C_13  and  C_20 
ROOT
ATOM      1  N   UNL d   1     -11.676  -2.756  -0.073  0.00  0.00    -0.191 NA
ATOM      2  C   UNL d   1     -10.525  -2.892  -0.064  0.00  0.00     0.099 C 
ATOM      3  C   UNL d   1      -9.101  -3.072  -0.052  0.00  0.00     0.044 A 
ATOM      4  C   UNL d   1      -6.314  -3.479  -0.027  0.00  0.00    -0.041 A 
ATOM      5  C   UNL d   1      -8.392  -3.161  -1.253  0.00  0.00     0.023 A 
ATOM      6  C   UNL d   1      -8.413  -3.161   1.163  0.00  0.00     0.023 A 
ATOM      7  C   UNL d   1      -7.007  -3.356  -1.240  0.00  0.00     0.010 A 
ATOM      8  C   UNL d   1      -7.028  -3.356   1.174  0.00  0.00     0.010 A 
ENDROOT
BRANCH   4   9
ATOM      9  C   UNL d   1      -4.814  -3.688  -0.014  0.00  0.00     0.157 C 
BRANCH   9  10
ATOM     10  N   UNL d   1      -4.128  -2.396  -0.018  0.00  0.00    -0.394 N 
ATOM     11  C   UNL d   1      -2.838  -2.449  -0.018  0.00  0.00     0.097 C 
ATOM     12  HN  UNL d   1      -4.636  -1.511  -0.019  1.00  0.00     0.159 HD
BRANCH  11  13
ATOM     13  C   UNL d   1      -2.049  -1.195  -0.019  0.00  0.00     0.013 A 
ATOM     14  C   UNL d   1      -2.685   0.057  -0.019  0.00  0.00     0.077 A 
ATOM     15  C   UNL d   1      -1.940   1.232  -0.017  0.00  0.00     0.039 A 
ATOM     16  C   UNL d   1      -0.548   1.169  -0.015  0.00  0.00     0.022 A 
ATOM     17  C   UNL d   1       0.088  -0.074  -0.018  0.00  0.00     0.011 A 
ATOM     18  C   UNL d   1      -0.652  -1.262  -0.019  0.00  0.00     0.034 A 
ATOM     19 BR   UNL d   1       1.978  -0.145  -0.017  0.00  0.00    -0.051 Br
BRANCH  14  20
ATOM     20  O   UNL d   1      -4.045   0.199  -0.022  0.00  0.00    -0.360 OA
ATOM     21  H   UNL d   1      -4.432  -0.709  -0.024  0.00  0.00     0.217 HD
ENDBRANCH  14  20
ENDBRANCH  11  13
ENDBRANCH   9  10
ENDBRANCH   4   9
TORSDOF 4
