REMARK  8 active torsions:
REMARK  status: ('A' for Active; 'I' for Inactive)
REMARK    1  A    between atoms: N_2  and  C_1 
REMARK    2  A    between atoms: C_3  and  N_2 
REMARK    3  A    between atoms: N_9  and  C_3 
REMARK    4  A    between atoms: O_10  and  C_6 
REMARK    5  A    between atoms: C_7  and  C_12 
REMARK    6  A    between atoms: C_18  and  N_9 
REMARK    7  A    between atoms: C_12  and  O_10 
REMARK    8  A    between atoms: C_21  and  C_18 
ROOT
ATOM      1  C   UNL d   1      -0.968   1.280  -0.175  0.00  0.00     0.141 A 
ATOM      2  N   UNL d   1       0.368   1.139  -0.011  0.00  0.00    -0.344 N 
ATOM      3  HN  UNL d   1       0.962   1.961   0.096  1.00  0.00     0.167 HD
ATOM      4  C   UNL d   1      -1.807   0.171  -0.400  0.00  0.00     0.113 A 
ATOM      5  C   UNL d   1       0.909  -0.099   0.009  0.00  0.00     0.007 A 
ATOM      6  C   UNL d   1      -1.228  -1.101  -0.312  0.00  0.00     0.042 A 
ATOM      7  C   UNL d   1       0.140  -1.244  -0.108  0.00  0.00     0.027 A 
ATOM      8  C   UNL d   1       2.399  -0.189   0.143  0.00  0.00     0.068 C 
ENDROOT
BRANCH   1   9
ATOM      9  N   UNL d   1      -1.454   2.602  -0.171  0.00  0.00    -0.317 N 
ATOM     10  H   UNL d   1      -2.392   2.757  -0.466  0.00  0.00     0.170 HD
BRANCH   9  11
ATOM     11  C   UNL d   1      -0.980   3.704   0.524  0.00  0.00     0.173 C 
ATOM     12  S   UNL d   1      -0.004   3.692   1.880  0.00  0.00    -0.041 SA
BRANCH  11  13
ATOM     13  N   UNL d   1      -1.581   4.841  -0.008  0.00  0.00    -0.363 N 
ATOM     14  H   UNL d   1      -1.787   4.808  -0.998  0.00  0.00     0.162 HD
BRANCH  13  15
ATOM     15  C   UNL d   1      -1.661   6.163   0.595  0.00  0.00     0.160 C 
BRANCH  15  16
ATOM     16  C   UNL d   1      -0.766   7.198  -0.040  0.00  0.00    -0.041 A 
ATOM     17  C   UNL d   1      -1.177   8.542  -0.037  0.00  0.00     0.009 A 
ATOM     18  C   UNL d   1      -0.346   9.546  -0.537  0.00  0.00     0.001 A 
ATOM     19  C   UNL d   1       0.909   9.221  -1.043  0.00  0.00     0.000 A 
ATOM     20  C   UNL d   1       1.333   7.894  -1.050  0.00  0.00     0.001 A 
ATOM     21  C   UNL d   1       0.503   6.889  -0.546  0.00  0.00     0.009 A 
ENDBRANCH  15  16
ENDBRANCH  13  15
ENDBRANCH  11  13
ENDBRANCH   9  11
ENDBRANCH   1   9
BRANCH   4  22
ATOM     22  O   UNL d   1      -3.159   0.106  -0.647  0.00  0.00    -0.343 OA
BRANCH  22  23
ATOM     23  C   UNL d   1      -3.743   1.187  -1.363  0.00  0.00     0.215 C 
BRANCH  23  24
ATOM     24  C   UNL d   1      -4.980   0.857  -2.173  0.00  0.00    -0.028 A 
ATOM     25  C   UNL d   1      -5.608   1.880  -2.925  0.00  0.00    -0.054 A 
ATOM     26  C   UNL d   1      -6.748   1.572  -3.684  0.00  0.00     0.008 A 
ATOM     27  C   UNL d   1      -5.125   3.307  -2.955  0.00  0.00     0.049 C 
ATOM     28  C   UNL d   1      -7.267   0.280  -3.698  0.00  0.00     0.007 A 
ATOM     29  C   UNL d   1      -6.664  -0.733  -2.950  0.00  0.00    -0.061 A 
ATOM     30  C   UNL d   1      -5.523  -0.437  -2.189  0.00  0.00     0.016 A 
ATOM     31  C   UNL d   1      -7.245  -2.115  -2.975  0.00  0.00     0.048 C 
ENDBRANCH  23  24
ENDBRANCH  22  23
ENDBRANCH   4  22
TORSDOF 8
