REMARK  5 active torsions:
REMARK  status: ('A' for Active; 'I' for Inactive)
REMARK    1  A    between atoms: C_9  and  N_1 
REMARK    2  A    between atoms: C_11  and  C_3 
REMARK    3  A    between atoms: N_8  and  C_13 
REMARK    4  A    between atoms: C_13  and  C_9 
REMARK    5  A    between atoms: N_16  and  C_15 
ROOT
ATOM      1  N   UNL d   1       2.127  -0.139   0.260  0.00  0.00    -0.321 N 
ATOM      2  C   UNL d   1       1.190   0.830  -0.115  0.00  0.00     0.258 C 
ATOM      3  C   UNL d   1       1.812  -1.515  -0.114  0.00  0.00     0.221 C 
ATOM      4  N   UNL d   1       0.454  -1.846   0.287  0.00  0.00    -0.364 N 
ATOM      5  C   UNL d   1      -0.231   0.433  -0.123  0.00  0.00     0.058 A 
ATOM      6  C   UNL d   1      -0.541  -0.916   0.030  0.00  0.00     0.045 A 
ATOM      7  O   UNL d   1       1.469   1.992  -0.408  0.00  0.00    -0.267 OA
ATOM      8  C   UNL d   1      -1.239   1.405  -0.228  0.00  0.00     0.019 A 
ATOM      9  C   UNL d   1      -1.890  -1.286   0.091  0.00  0.00     0.030 A 
ATOM     10  C   UNL d   1      -2.576   1.021  -0.167  0.00  0.00     0.001 A 
ATOM     11  C   UNL d   1      -2.902  -0.324  -0.015  0.00  0.00     0.002 A 
ATOM     12  H   UNL d   1       0.205  -2.814   0.123  0.00  0.00     0.162 HD
ENDROOT
BRANCH   1  13
ATOM     13  C   UNL d   1       3.551   0.246   0.314  0.00  0.00     0.148 C 
BRANCH  13  14
ATOM     14  C   UNL d   1       3.868   1.616   0.943  0.00  0.00     0.147 C 
BRANCH  14  15
ATOM     15  N   UNL d   1       5.291   1.839   1.136  0.00  0.00    -0.331 N 
ATOM     16  C   UNL d   1       5.993   1.565   2.300  0.00  0.00     0.318 C 
ATOM     17  N   UNL d   1       7.327   1.876   2.061  0.00  0.00    -0.341 N 
ATOM     18  O   UNL d   1       5.554   1.152   3.358  0.00  0.00    -0.247 OA
ATOM     19  C   UNL d   1       7.457   2.578   0.812  0.00  0.00     0.144 C 
ATOM     20  H   UNL d   1       7.954   1.950   2.851  0.00  0.00     0.164 HD
ATOM     21  C   UNL d   1       6.192   2.186   0.060  0.00  0.00     0.147 C 
ENDBRANCH  14  15
ENDBRANCH  13  14
ENDBRANCH   1  13
BRANCH   3  22
ATOM     22  C   UNL d   1       2.711  -2.571   0.513  0.00  0.00    -0.016 A 
ATOM     23  C   UNL d   1       2.739  -2.745   1.900  0.00  0.00     0.013 A 
ATOM     24  C   UNL d   1       3.524  -3.742   2.487  0.00  0.00     0.030 A 
ATOM     25  C   UNL d   1       4.306  -4.622   1.724  0.00  0.00     0.029 A 
ATOM     26  C   UNL d   1       4.266  -4.431   0.332  0.00  0.00     0.030 A 
ATOM     27  C   UNL d   1       3.490  -3.425  -0.272  0.00  0.00     0.013 A 
BRANCH  25  28
ATOM     28  N   UNL d   1       5.022  -5.672   2.282  0.00  0.00    -0.390 N 
ATOM     29  C   UNL d   1       6.329  -6.039   1.742  0.00  0.00     0.149 C 
ATOM     30  C   UNL d   1       4.793  -6.095   3.664  0.00  0.00     0.149 C 
ENDBRANCH  25  28
ENDBRANCH   3  22
TORSDOF 5
