REMARK  2 active torsions:
REMARK  status: ('A' for Active; 'I' for Inactive)
REMARK    1  A    between atoms: C_2  and  C_1 
REMARK       I    between atoms: N_7  and  C_2 
REMARK    2  A    between atoms: N_9  and  C_3 
ROOT
ATOM      1  C   UNL d   1       1.693   1.306  -0.153  0.00  0.00     0.059 A 
ATOM      2  C   UNL d   1       2.459   0.125  -0.018  0.00  0.00     0.043 A 
ATOM      3  C   UNL d   1       0.281   1.232  -0.211  0.00  0.00     0.043 A 
ATOM      4  C   UNL d   1       1.743  -1.096   0.040  0.00  0.00     0.032 A 
ATOM      5  C   UNL d   1      -0.377   0.011  -0.125  0.00  0.00     0.035 A 
ATOM      6  C   UNL d   1       0.349  -1.161  -0.013  0.00  0.00     0.026 A 
ATOM      7 CL   UNL d   1      -2.095  -0.044  -0.163  0.00  0.00    -0.084 Cl
ENDROOT
BRANCH   1   8
ATOM      8  C   UNL d   1       2.264   2.665  -0.383  0.00  0.00     0.251 C 
ATOM      9  O   UNL d   1       3.236   2.871  -1.104  0.00  0.00    -0.268 OA
ATOM     10  N   UNL d   1       1.618   3.727   0.194  0.00  0.00    -0.366 N 
ATOM     11  H   UNL d   1       0.818   3.646   0.806  0.00  0.00     0.159 HD
ATOM     12  H   UNL d   1       1.985   4.650   0.001  0.00  0.00     0.159 HD
ENDBRANCH   1   8
BRANCH   2  13
ATOM     13  N   UNL d   1       3.822  -0.016   0.229  0.00  0.00    -0.393 N 
ATOM     14  C   UNL d   1       4.783   1.053   0.388  0.00  0.00     0.146 C 
ATOM     15  H   UNL d   1       4.224  -0.847  -0.197  0.00  0.00     0.159 HD
ENDBRANCH   2  13
TORSDOF 2
