REMARK  4 active torsions:
REMARK  status: ('A' for Active; 'I' for Inactive)
REMARK    1  A    between atoms: C_3  and  C_9 
REMARK    2  A    between atoms: O_11  and  C_3 
REMARK    3  A    between atoms: C_6  and  C_4 
REMARK    4  A    between atoms: C_9  and  C_6 
ROOT
ATOM      1  C   UNL d   1      -1.114   0.101   0.017  0.00  0.00     0.042 A 
ATOM      2  C   UNL d   1       0.147   0.706  -0.005  0.00  0.00     0.048 A 
ATOM      3  C   UNL d   1      -1.242  -1.300  -0.008  0.00  0.00    -0.036 A 
ATOM      4  C   UNL d   1      -0.066  -2.073  -0.035  0.00  0.00     0.010 A 
ATOM      5  C   UNL d   1       1.294  -0.081  -0.029  0.00  0.00     0.035 A 
ATOM      6 CL   UNL d   1      -2.483   1.149   0.118  0.00  0.00    -0.084 Cl
ATOM      7  C   UNL d   1       1.193  -1.468  -0.040  0.00  0.00     0.024 A 
ATOM      8 CL   UNL d   1       2.844   0.664  -0.027  0.00  0.00    -0.084 Cl
ENDROOT
BRANCH   3   9
ATOM      9  C   UNL d   1      -2.575  -2.020   0.054  0.00  0.00     0.051 C 
BRANCH   9  10
ATOM     10  C   UNL d   1      -3.449  -1.852  -1.191  0.00  0.00     0.114 C 
BRANCH  10  11
ATOM     11  C   UNL d   1      -4.690  -2.705  -1.095  0.00  0.00     0.139 C 
ATOM     12  O   UNL d   1      -4.932  -3.504  -0.202  0.00  0.00    -0.650 OA
BRANCH  11  13
ATOM     13  O   UNL d   1      -5.536  -2.510  -2.133  0.00  0.00    -0.776 OA
ATOM     14  H   UNL d   1      -5.229  -1.840  -2.773  0.00  0.00     0.167 HD
ENDBRANCH  11  13
ENDBRANCH  10  11
ENDBRANCH   9  10
ENDBRANCH   3   9
TORSDOF 4
