REMARK  3 active torsions:
REMARK  status: ('A' for Active; 'I' for Inactive)
REMARK    1  A    between atoms: N_6  and  C_1 
REMARK    2  A    between atoms: C_2  and  C_11 
REMARK    3  A    between atoms: C_13  and  C_5 
REMARK       I    between atoms: C_11  and  N_6 
ROOT
ATOM      1  C   UNL d   1      -1.545   0.193  -0.050  0.00  0.00     0.152 A 
ATOM      2  N   UNL d   1      -1.389  -1.100  -0.132  0.00  0.00    -0.335 N 
ATOM      3  HN  UNL d   1      -2.148  -1.772  -0.248  1.00  0.00     0.168 HD
ATOM      4  C   UNL d   1      -0.048  -1.429  -0.041  0.00  0.00     0.057 A 
ATOM      5  S   UNL d   1      -0.124   1.110   0.132  0.00  0.00    -0.057 SA
ATOM      6  C   UNL d   1       0.812  -0.339   0.032  0.00  0.00     0.010 A 
ATOM      7  C   UNL d   1       2.299  -0.258   0.024  0.00  0.00     0.059 C 
ENDROOT
BRANCH   1   8
ATOM      8  N   UNL d   1      -2.700   0.913  -0.094  0.00  0.00    -0.302 N 
ATOM      9  C   UNL d   1      -3.905   0.330  -0.422  0.00  0.00     0.276 C 
ATOM     10  O   UNL d   1      -4.095  -0.842  -0.730  0.00  0.00    -0.266 OA
ATOM     11  H   UNL d   1      -2.662   1.911   0.054  0.00  0.00     0.171 HD
BRANCH   9  12
ATOM     12  C   UNL d   1      -5.016   1.285  -0.436  0.00  0.00     0.125 A 
ATOM     13  N   UNL d   1      -4.888   2.554  -0.006  0.00  0.00    -0.256 N 
ATOM     14  O   UNL d   1      -6.125   3.147  -0.211  0.00  0.00    -0.242 OA
ATOM     15  HN  UNL d   1      -4.055   2.989   0.390  1.00  0.00     0.195 HD
ATOM     16  C   UNL d   1      -6.974   2.245  -0.774  0.00  0.00     0.075 A 
ATOM     17  C   UNL d   1      -6.330   1.044  -0.911  0.00  0.00     0.071 A 
ATOM     18  C   UNL d   1      -8.323   2.725  -1.120  0.00  0.00     0.079 C 
ENDBRANCH   9  12
ENDBRANCH   1   8
BRANCH   4  19
ATOM     19  C   UNL d   1       0.336  -2.837  -0.058  0.00  0.00    -0.007 A 
ATOM     20  C   UNL d   1      -0.416  -3.740  -0.823  0.00  0.00     0.038 A 
ATOM     21  C   UNL d   1      -0.121  -5.107  -0.810  0.00  0.00     0.040 A 
ATOM     22 CL   UNL d   1      -1.105  -6.158  -1.767  0.00  0.00    -0.084 Cl
ATOM     23  C   UNL d   1       0.933  -5.604  -0.031  0.00  0.00    -0.040 A 
ATOM     24  C   UNL d   1       1.677  -4.701   0.741  0.00  0.00     0.009 A 
ATOM     25  C   UNL d   1       1.267  -7.069   0.020  0.00  0.00     0.050 C 
ATOM     26  C   UNL d   1       1.375  -3.336   0.734  0.00  0.00     0.014 A 
ENDBRANCH   4  19
TORSDOF 3
