REMARK  5 active torsions:
REMARK  status: ('A' for Active; 'I' for Inactive)
REMARK    1  A    between atoms: C_5  and  C_1 
REMARK    2  A    between atoms: N_12  and  C_2 
REMARK    3  A    between atoms: C_9  and  C_17 
REMARK       I    between atoms: C_13  and  N_12 
REMARK       I    between atoms: N_16  and  C_13 
REMARK    4  A    between atoms: N_20  and  N_16 
REMARK    5  A    between atoms: C_24  and  N_20 
ROOT
ATOM      1  N   UNL d   1       0.528  -2.155   0.011  0.00  0.00    -0.304 N 
ATOM      2  C   UNL d   1       1.720  -2.796  -0.234  0.00  0.00     0.335 C 
ATOM      3  N   UNL d   1       2.797  -1.993   0.157  0.00  0.00    -0.268 N 
ATOM      4  O   UNL d   1       1.860  -3.925  -0.682  0.00  0.00    -0.246 OA
ATOM      5  H   UNL d   1       0.568  -1.409   0.689  0.00  0.00     0.171 HD
ATOM      6  H   UNL d   1       2.634  -1.190   0.754  0.00  0.00     0.185 HD
ENDROOT
BRANCH   1   7
ATOM      7  C   UNL d   1      -0.740  -2.645  -0.261  0.00  0.00     0.097 A 
ATOM      8  C   UNL d   1      -1.928  -2.369   0.497  0.00  0.00     0.097 A 
ATOM      9  N   UNL d   1      -2.992  -2.953  -0.072  0.00  0.00    -0.258 N 
ATOM     10  O   UNL d   1      -2.519  -3.614  -1.186  0.00  0.00    -0.240 OA
ATOM     11  HN  UNL d   1      -3.957  -2.916   0.254  1.00  0.00     0.195 HD
ATOM     12  C   UNL d   1      -1.179  -3.410  -1.317  0.00  0.00     0.101 A 
ATOM     13  C   UNL d   1      -0.588  -3.944  -2.559  0.00  0.00     0.081 C 
BRANCH   8  14
ATOM     14  C   UNL d   1      -2.053  -1.615   1.754  0.00  0.00     0.038 A 
ATOM     15  C   UNL d   1      -1.574  -0.294   1.869  0.00  0.00     0.048 A 
ATOM     16 CL   UNL d   1      -0.896   0.591   0.541  0.00  0.00    -0.083 Cl
ATOM     17  C   UNL d   1      -1.627   0.394   3.089  0.00  0.00     0.025 A 
ATOM     18  C   UNL d   1      -2.195  -0.202   4.208  0.00  0.00     0.003 A 
ATOM     19  C   UNL d   1      -2.703  -1.492   4.111  0.00  0.00     0.025 A 
ATOM     20  C   UNL d   1      -2.624  -2.202   2.903  0.00  0.00     0.048 A 
ATOM     21 CL   UNL d   1      -3.215  -3.831   2.948  0.00  0.00    -0.083 Cl
ENDBRANCH   8  14
ENDBRANCH   1   7
BRANCH   3  22
ATOM     22  N   UNL d   1       4.011  -2.648   0.430  0.00  0.00    -0.202 NA
ATOM     23  H   UNL d   1       3.936  -3.661   0.266  0.00  0.00     0.153 HD
BRANCH  22  24
ATOM     24  C   UNL d   1       5.133  -2.120  -0.259  0.00  0.00     0.027 A 
ATOM     25  C   UNL d   1       5.166  -0.839  -0.820  0.00  0.00     0.026 A 
ATOM     26  C   UNL d   1       6.309  -0.375  -1.484  0.00  0.00     0.015 A 
ATOM     27  C   UNL d   1       7.463  -1.164  -1.562  0.00  0.00    -0.008 A 
ATOM     28  C   UNL d   1       7.462  -2.412  -0.930  0.00  0.00     0.015 A 
ATOM     29  C   UNL d   1       6.313  -2.876  -0.278  0.00  0.00     0.026 A 
BRANCH  27  30
ATOM     30  C   UNL d   1       8.610  -0.690  -2.325  0.00  0.00     0.063 A 
ATOM     31  N   UNL d   1       8.440   0.154  -3.420  0.00  0.00    -0.292 N 
ATOM     32  N   UNL d   1       9.590   0.450  -4.001  0.00  0.00    -0.061 NA
ATOM     33  HN  UNL d   1       7.535   0.503  -3.735  1.00  0.00     0.183 HD
ATOM     34  S   UNL d   1      10.901  -0.256  -3.243  0.00  0.00    -0.010 SA
ATOM     35  C   UNL d   1       9.927  -1.021  -2.054  0.00  0.00     0.096 A 
ENDBRANCH  27  30
ENDBRANCH  22  24
ENDBRANCH   3  22
TORSDOF 5
