REMARK  2 active torsions:
REMARK  status: ('A' for Active; 'I' for Inactive)
REMARK    1  A    between atoms: S_8  and  C_5 
REMARK    2  A    between atoms: C_11  and  S_8 
ROOT
ATOM      1  N   UNL d   1       3.088  -0.143   0.062  0.00  0.00    -0.191 NA
ATOM      2  N   UNL d   1      -1.626  -1.130   0.024  0.00  0.00    -0.359 N 
ATOM      3  HN  UNL d   1      -2.157  -2.001   0.028  1.00  0.00     0.166 HD
ATOM      4  C   UNL d   1       1.931  -0.070   0.050  0.00  0.00     0.101 C 
ATOM      5  C   UNL d   1      -2.249   0.070   0.006  0.00  0.00     0.069 A 
ATOM      6  C   UNL d   1       0.505   0.017   0.036  0.00  0.00     0.060 A 
ATOM      7  C   UNL d   1      -0.271  -1.132   0.035  0.00  0.00     0.111 A 
ATOM      8  C   UNL d   1      -1.549   1.273  -0.003  0.00  0.00     0.038 A 
ATOM      9  C   UNL d   1      -0.152   1.244   0.020  0.00  0.00     0.027 A 
ENDROOT
BRANCH   5  10
ATOM     10  S   UNL d   1      -4.030   0.096  -0.060  0.00  0.00    -0.113 SA
BRANCH  10  11
ATOM     11  C   UNL d   1      -4.407  -1.492   0.751  0.00  0.00     0.076 C 
ATOM     12  C   UNL d   1      -5.909  -1.723   0.774  0.00  0.00     0.016 C 
ENDBRANCH  10  11
ENDBRANCH   5  10
TORSDOF 2
