REMARK  4 active torsions:
REMARK  status: ('A' for Active; 'I' for Inactive)
REMARK    1  A    between atoms: C_20  and  N_1 
REMARK    2  A    between atoms: C_7  and  S_10 
REMARK    3  A    between atoms: S_10  and  C_8 
REMARK    4  A    between atoms: C_24  and  C_20 
ROOT
ATOM      1  C   UNL d   1      -0.831  -3.623   1.838  0.00  0.00     0.098 A 
ATOM      2  C   UNL d   1      -1.403  -4.776   2.392  0.00  0.00     0.084 A 
ATOM      3  N   UNL d   1      -0.137  -2.725   2.585  0.00  0.00    -0.353 N 
ATOM      4  HN  UNL d   1       0.267  -1.893   2.155  1.00  0.00     0.166 HD
ATOM      5  C   UNL d   1      -1.266  -4.994   3.778  0.00  0.00    -0.037 A 
ATOM      6  C   UNL d   1      -2.100  -5.718   1.568  0.00  0.00     0.103 C 
ATOM      7  N   UNL d   1      -2.667  -6.512   0.934  0.00  0.00    -0.191 NA
ATOM      8  C   UNL d   1       0.007  -2.953   3.907  0.00  0.00     0.006 A 
ATOM      9  C   UNL d   1      -0.545  -4.061   4.535  0.00  0.00     0.033 A 
ATOM     10  C   UNL d   1      -1.841  -6.181   4.506  0.00  0.00     0.050 C 
ATOM     11  C   UNL d   1       0.812  -1.962   4.692  0.00  0.00     0.068 C 
ENDROOT
BRANCH   1  12
ATOM     12  S   UNL d   1      -0.904  -3.267   0.082  0.00  0.00    -0.051 SA
BRANCH  12  13
ATOM     13  C   UNL d   1      -0.902  -1.504   0.065  0.00  0.00     0.109 A 
ATOM     14  C   UNL d   1       0.291  -0.783   0.021  0.00  0.00     0.125 A 
ATOM     15  C   UNL d   1       0.168   0.597  -0.034  0.00  0.00     0.153 A 
ATOM     16  N   UNL d   1       1.623  -1.118   0.019  0.00  0.00    -0.278 N 
ATOM     17  N   UNL d   1       1.462   1.039  -0.049  0.00  0.00    -0.254 N 
ATOM     18  N   UNL d   1      -0.970   1.316  -0.057  0.00  0.00    -0.336 N 
ATOM     19  N   UNL d   1       2.334   0.006  -0.010  0.00  0.00    -0.018 NA
ATOM     20  C   UNL d   1      -2.051   0.511  -0.036  0.00  0.00     0.183 A 
ATOM     21  HN  UNL d   1      -1.008   2.335  -0.086  1.00  0.00     0.168 HD
ATOM     22  N   UNL d   1      -2.087  -0.836   0.021  0.00  0.00    -0.345 N 
ATOM     23  HN  UNL d   1      -2.974  -1.339   0.030  1.00  0.00     0.167 HD
ATOM     24  HN  UNL d   1       2.001  -2.065   0.036  1.00  0.00     0.184 HD
BRANCH  17  25
ATOM     25  C   UNL d   1       1.933   2.409   0.016  0.00  0.00     0.187 C 
BRANCH  25  26
ATOM     26  C   UNL d   1       2.154   2.991  -1.357  0.00  0.00    -0.039 A 
ATOM     27  C   UNL d   1       1.130   3.702  -2.002  0.00  0.00     0.009 A 
ATOM     28  C   UNL d   1       1.312   4.186  -3.298  0.00  0.00     0.001 A 
ATOM     29  C   UNL d   1       2.519   3.970  -3.962  0.00  0.00     0.000 A 
ATOM     30  C   UNL d   1       3.551   3.286  -3.323  0.00  0.00     0.001 A 
ATOM     31  C   UNL d   1       3.371   2.798  -2.028  0.00  0.00     0.009 A 
ENDBRANCH  25  26
ENDBRANCH  17  25
ENDBRANCH  12  13
ENDBRANCH   1  12
TORSDOF 4
