REMARK  3 active torsions:
REMARK  status: ('A' for Active; 'I' for Inactive)
REMARK    1  A    between atoms: N_7  and  C_1 
REMARK    2  A    between atoms: O_13  and  C_2 
REMARK    3  A    between atoms: C_11  and  N_9 
ROOT
ATOM      1  N   UNL d   1      -0.406  -2.763  -0.004  0.00  0.00    -0.294 N 
ATOM      2  HN  UNL d   1      -1.357  -3.127   0.043  1.00  0.00     0.187 HD
ATOM      3  N   UNL d   1       0.617  -3.481  -0.005  0.00  0.00    -0.299 N 
ATOM      4  HN  UNL d   1       1.564  -3.103  -0.036  1.00  0.00     0.187 HD
ENDROOT
BRANCH   1   5
ATOM      5  C   UNL d   1      -0.091  -1.396  -0.077  0.00  0.00     0.124 A 
ATOM      6  C   UNL d   1       1.099  -0.811  -0.456  0.00  0.00     0.187 A 
ATOM      7  N   UNL d   1       0.892   0.536  -0.328  0.00  0.00    -0.274 N 
ATOM      8  C   UNL d   1       1.854   1.587  -0.551  0.00  0.00     0.180 C 
ATOM      9  N   UNL d   1      -0.361   0.859   0.065  0.00  0.00    -0.299 N 
ATOM     10  C   UNL d   1      -0.968  -0.329   0.218  0.00  0.00     0.054 A 
ATOM     11  HN  UNL d   1      -0.754   1.789   0.211  1.00  0.00     0.187 HD
ATOM     12  C   UNL d   1      -2.384  -0.394   0.650  0.00  0.00     0.072 C 
BRANCH   6  13
ATOM     13  O   UNL d   1       2.259  -1.322  -0.863  0.00  0.00    -0.343 OA
ATOM     14  H   UNL d   1       2.131  -2.293  -0.859  0.00  0.00     0.219 HD
ENDBRANCH   6  13
ENDBRANCH   1   5
BRANCH   3  15
ATOM     15  C   UNL d   1       0.339  -4.864   0.040  0.00  0.00     0.059 A 
ATOM     16  C   UNL d   1       1.104  -5.697   0.899  0.00  0.00     0.002 A 
ATOM     17  C   UNL d   1       0.928  -7.101   0.838  0.00  0.00    -0.024 A 
ATOM     18  C   UNL d   1       2.052  -5.186   1.814  0.00  0.00     0.014 A 
ATOM     19  C   UNL d   1       1.699  -7.938   1.663  0.00  0.00     0.012 A 
ATOM     20  C   UNL d   1      -0.007  -7.646  -0.054  0.00  0.00     0.012 A 
ATOM     21  C   UNL d   1       2.634  -7.406   2.552  0.00  0.00     0.001 A 
ATOM     22  C   UNL d   1       2.807  -6.030   2.632  0.00  0.00     0.001 A 
ATOM     23  C   UNL d   1      -0.764  -6.824  -0.886  0.00  0.00     0.003 A 
ATOM     24  C   UNL d   1      -0.587  -5.444  -0.844  0.00  0.00     0.032 A 
ENDBRANCH   3  15
TORSDOF 3
