REMARK  3 active torsions:
REMARK  status: ('A' for Active; 'I' for Inactive)
REMARK    1  A    between atoms: C_2  and  C_1 
REMARK       I    between atoms: N_5  and  C_2 
REMARK    2  A    between atoms: N_4  and  C_8 
REMARK    3  A    between atoms: C_10  and  N_5 
ROOT
ATOM      1  C   UNL d   1       4.113   2.262   0.207  0.00  0.00     0.010 A 
ATOM      2  C   UNL d   1       3.454  -0.501   0.013  0.00  0.00     0.035 A 
ATOM      3  C   UNL d   1       4.759   1.421  -0.701  0.00  0.00     0.026 A 
ATOM      4  C   UNL d   1       3.142   1.683   1.039  0.00  0.00     0.026 A 
ATOM      5  C   UNL d   1       4.434   0.067  -0.799  0.00  0.00     0.031 A 
ATOM      6  C   UNL d   1       2.814   0.321   0.947  0.00  0.00     0.031 A 
ENDROOT
BRANCH   2   7
ATOM      7  N   UNL d   1       3.053  -1.855  -0.086  0.00  0.00    -0.323 N 
ATOM      8  C   UNL d   1       3.591  -2.808  -0.934  0.00  0.00     0.257 C 
ATOM      9  O   UNL d   1       4.585  -2.635  -1.637  0.00  0.00    -0.267 OA
ATOM     10  H   UNL d   1       2.276  -2.130   0.503  0.00  0.00     0.169 HD
BRANCH   8  11
ATOM     11  C   UNL d   1       2.952  -4.164  -1.006  0.00  0.00     0.054 A 
ATOM     12  C   UNL d   1       1.720  -4.552  -0.455  0.00  0.00     0.052 A 
ATOM     13  C   UNL d   1       1.254  -5.865  -0.625  0.00  0.00     0.067 A 
ATOM     14 CL   UNL d   1       0.673  -3.497   0.429  0.00  0.00    -0.083 Cl
ATOM     15  C   UNL d   1       2.002  -6.786  -1.349  0.00  0.00     0.118 A 
ATOM     16  C   UNL d   1       3.211  -6.428  -1.917  0.00  0.00     0.043 A 
ATOM     17  F   UNL d   1       1.544  -8.034  -1.504  0.00  0.00    -0.206 F 
ATOM     18  C   UNL d   1       3.681  -5.127  -1.745  0.00  0.00     0.022 A 
ENDBRANCH   8  11
ENDBRANCH   2   7
BRANCH   1  19
ATOM     19  N   UNL d   1       4.380   3.646   0.299  0.00  0.00    -0.283 NA
ATOM     20  C   UNL d   1       5.726   4.062  -0.135  0.00  0.00     0.095 C 
ATOM     21  C   UNL d   1       5.955   5.529   0.215  0.00  0.00     0.015 C 
ATOM     22  C   UNL d   1       4.873   6.409  -0.406  0.00  0.00     0.002 C 
ATOM     23  C   UNL d   1       3.484   5.916  -0.010  0.00  0.00     0.015 C 
ATOM     24  C   UNL d   1       3.297   4.432  -0.327  0.00  0.00     0.095 C 
ENDBRANCH   1  19
TORSDOF 3
