REMARK  3 active torsions:
REMARK  status: ('A' for Active; 'I' for Inactive)
REMARK    1  A    between atoms: N_5  and  C_1 
REMARK       I    between atoms: C_7  and  N_5 
REMARK    2  A    between atoms: C_14  and  C_7 
REMARK    3  A    between atoms: C_9  and  C_14 
ROOT
ATOM      1  N   UNL d   1      -2.030  -2.698  -1.516  0.00  0.00    -0.311 N 
ATOM      2  C   UNL d   1      -2.340  -2.958  -0.193  0.00  0.00     0.227 C 
ATOM      3  O   UNL d   1      -1.728  -2.563   0.797  0.00  0.00    -0.273 OA
ATOM      4  H   UNL d   1      -2.585  -3.110  -2.251  0.00  0.00     0.170 HD
ENDROOT
BRANCH   2   5
ATOM      5  C   UNL d   1      -3.573  -3.831  -0.021  0.00  0.00     0.141 C 
BRANCH   5   6
ATOM      6  C   UNL d   1      -3.262  -5.304   0.101  0.00  0.00    -0.044 A 
ATOM      7  C   UNL d   1      -2.368  -5.775   1.076  0.00  0.00     0.050 A 
ATOM      8  C   UNL d   1      -2.134  -7.143   1.214  0.00  0.00     0.119 A 
ATOM      9  F   UNL d   1      -1.280  -7.574   2.150  0.00  0.00    -0.206 F 
ATOM     10  C   UNL d   1      -2.779  -8.066   0.405  0.00  0.00     0.084 A 
ATOM     11  C   UNL d   1      -3.667  -7.603  -0.554  0.00  0.00     0.119 A 
ATOM     12  C   UNL d   1      -3.916  -6.239  -0.713  0.00  0.00     0.050 A 
ATOM     13  F   UNL d   1      -4.307  -8.479  -1.339  0.00  0.00    -0.206 F 
ENDBRANCH   5   6
ENDBRANCH   2   5
BRANCH   1  14
ATOM     14  C   UNL d   1      -0.970  -1.898  -1.912  0.00  0.00     0.130 A 
ATOM     15  N   UNL d   1      -0.117  -1.281  -1.090  0.00  0.00    -0.245 N 
ATOM     16  O   UNL d   1       0.773  -0.596  -1.886  0.00  0.00    -0.241 OA
ATOM     17  HN  UNL d   1      -0.124  -1.312  -0.071  1.00  0.00     0.196 HD
ATOM     18  C   UNL d   1       0.456  -0.792  -3.190  0.00  0.00     0.076 A 
ATOM     19  C   UNL d   1      -0.645  -1.612  -3.263  0.00  0.00     0.084 A 
ATOM     20  C   UNL d   1       1.321  -0.115  -4.171  0.00  0.00     0.079 C 
ENDBRANCH   1  14
TORSDOF 3
