REMARK  3 active torsions:
REMARK  status: ('A' for Active; 'I' for Inactive)
REMARK    1  A    between atoms: C_4  and  C_10 
REMARK    2  A    between atoms: C_10  and  O_16 
REMARK    3  A    between atoms: O_16  and  C_12 
ROOT
ATOM      1  C   UNL d   1      -0.033  -0.849   0.004  0.00  0.00     0.049 A 
ATOM      2  C   UNL d   1      -1.348  -1.550  -0.001  0.00  0.00     0.165 C 
ATOM      3  C   UNL d   1      -0.086   0.553   0.032  0.00  0.00     0.086 A 
ATOM      4  O   UNL d   1      -1.233   1.306  -0.006  0.00  0.00    -0.340 OA
ATOM      5  C   UNL d   1       1.217  -1.500  -0.013  0.00  0.00    -0.043 A 
ATOM      6  C   UNL d   1      -2.415   0.615  -0.431  0.00  0.00     0.067 C 
ATOM      7  C   UNL d   1      -2.540  -0.698   0.329  0.00  0.00     0.121 C 
ATOM      8  C   UNL d   1       1.080   1.312   0.077  0.00  0.00     0.074 A 
ATOM      9  C   UNL d   1       2.384  -0.701  -0.013  0.00  0.00     0.044 A 
ATOM     10  C   UNL d   1       2.319   0.694   0.011  0.00  0.00     0.072 A 
ATOM     11  O   UNL d   1      -1.480  -2.743  -0.243  0.00  0.00    -0.292 OA
ATOM     12  C   UNL d   1       1.425  -2.990  -0.067  0.00  0.00     0.049 C 
ATOM     13  C   UNL d   1      -2.409   0.437  -1.959  0.00  0.00     0.046 C 
ATOM     14  C   UNL d   1      -3.591   1.527  -0.058  0.00  0.00     0.046 C 
ENDROOT
BRANCH  10  15
ATOM     15  O   UNL d   1       3.514   1.361  -0.043  0.00  0.00    -0.346 OA
BRANCH  15  16
ATOM     16  C   UNL d   1       3.428   2.689  -0.579  0.00  0.00     0.219 C 
BRANCH  16  17
ATOM     17  C   UNL d   1       4.762   3.124  -1.118  0.00  0.00     0.026 A 
ATOM     18  C   UNL d   1       5.349   4.297  -0.631  0.00  0.00     0.126 A 
ATOM     19  F   UNL d   1       4.719   5.023   0.304  0.00  0.00    -0.205 F 
ATOM     20  C   UNL d   1       6.572   4.760  -1.110  0.00  0.00     0.043 A 
ATOM     21  C   UNL d   1       7.238   4.047  -2.102  0.00  0.00     0.005 A 
ATOM     22  C   UNL d   1       6.660   2.890  -2.623  0.00  0.00     0.024 A 
ATOM     23  C   UNL d   1       5.425   2.438  -2.146  0.00  0.00     0.045 A 
ATOM     24 CL   UNL d   1       4.740   1.047  -2.911  0.00  0.00    -0.084 Cl
ENDBRANCH  16  17
ENDBRANCH  15  16
ENDBRANCH  10  15
TORSDOF 3
