REMARK  1 active torsions:
REMARK  status: ('A' for Active; 'I' for Inactive)
REMARK       I    between atoms: C_3  and  N_1 
REMARK       I    between atoms: N_12  and  C_3 
REMARK    1  A    between atoms: C_20  and  N_12 
ROOT
ATOM      1  N   UNL d   1       0.898  -0.610  -0.142  0.00  0.00    -0.205 N 
ATOM      2  C   UNL d   1      -0.431  -0.991  -0.100  0.00  0.00     0.080 C 
ATOM      3  C   UNL d   1       2.057  -1.418  -0.214  0.00  0.00     0.346 C 
ATOM      4  C   UNL d   1      -0.911  -2.287   0.294  0.00  0.00     0.034 C 
ATOM      5  S   UNL d   1      -2.455  -2.840  -0.183  0.00  0.00    -0.087 SA
ATOM      6  C   UNL d   1      -2.425  -4.139   0.939  0.00  0.00     0.022 C 
ATOM      7  N   UNL d   1       1.031   0.756  -0.061  0.00  0.00    -0.301 N 
ATOM      8  HN  UNL d   1       1.873   1.299   0.134  1.00  0.00     0.186 HD
ATOM      9  C   UNL d   1      -3.617  -4.904   1.204  0.00  0.00     0.021 A 
ATOM     10  C   UNL d   1      -0.313  -3.187   1.160  0.00  0.00     0.023 C 
ATOM     11  C   UNL d   1      -1.183  -4.249   1.530  0.00  0.00     0.021 C 
ATOM     12  N   UNL d   1       3.064  -0.844   0.527  0.00  0.00    -0.307 N 
ATOM     13  C   UNL d   1      -1.153   0.166  -0.337  0.00  0.00     0.052 C 
ATOM     14  S   UNL d   1      -3.947  -5.521   2.773  0.00  0.00    -0.101 SA
ATOM     15  C   UNL d   1      -0.204   1.201  -0.301  0.00  0.00     0.110 C 
ATOM     16  O   UNL d   1       2.020  -2.500  -0.784  0.00  0.00    -0.245 OA
ATOM     17  C   UNL d   1      -4.661  -5.179   0.338  0.00  0.00     0.021 A 
ATOM     18  C   UNL d   1      -5.503  -6.055   2.316  0.00  0.00     0.050 A 
ATOM     19  C   UNL d   1      -5.754  -5.826   0.982  0.00  0.00     0.008 A 
ATOM     20  H   UNL d   1       2.794  -0.041   1.091  0.00  0.00     0.170 HD
ENDROOT
BRANCH  12  21
ATOM     21  C   UNL d   1       4.345  -1.381   0.704  0.00  0.00     0.036 A 
ATOM     22  C   UNL d   1       4.959  -2.180  -0.264  0.00  0.00     0.031 A 
ATOM     23  C   UNL d   1       6.271  -2.621  -0.079  0.00  0.00     0.026 A 
ATOM     24  C   UNL d   1       6.952  -2.298   1.093  0.00  0.00     0.034 A 
ATOM     25  C   UNL d   1       6.332  -1.535   2.081  0.00  0.00     0.026 A 
ATOM     26 CL   UNL d   1       8.572  -2.830   1.316  0.00  0.00    -0.084 Cl
ATOM     27  C   UNL d   1       5.035  -1.059   1.876  0.00  0.00     0.031 A 
ENDBRANCH  12  21
TORSDOF 1
