REMARK  2 active torsions:
REMARK  status: ('A' for Active; 'I' for Inactive)
REMARK    1  A    between atoms: C_7  and  C_1 
REMARK    2  A    between atoms: O_9  and  C_3 
ROOT
ATOM      1  C   UNL d   1      -1.476  -1.402   0.041  0.00  0.00     0.111 A 
ATOM      2  C   UNL d   1      -1.984  -0.002   0.122  0.00  0.00     0.264 A 
ATOM      3  C   UNL d   1      -0.146  -1.625  -0.001  0.00  0.00     0.097 A 
ATOM      4  N   UNL d   1      -1.066   1.039   0.020  0.00  0.00    -0.317 N 
ATOM      5  C   UNL d   1       0.812  -0.510  -0.016  0.00  0.00     0.025 A 
ATOM      6  C   UNL d   1       0.340   0.808  -0.014  0.00  0.00     0.050 A 
ATOM      7  O   UNL d   1      -3.186   0.201   0.292  0.00  0.00    -0.267 OA
ATOM      8  C   UNL d   1      -1.569   2.407   0.025  0.00  0.00     0.159 C 
ATOM      9  C   UNL d   1       2.199  -0.742  -0.030  0.00  0.00     0.016 A 
ATOM     10  C   UNL d   1       1.266   1.868  -0.022  0.00  0.00     0.031 A 
ATOM     11  C   UNL d   1       3.109   0.315  -0.036  0.00  0.00     0.001 A 
ATOM     12  C   UNL d   1       2.641   1.621  -0.028  0.00  0.00     0.002 A 
ENDROOT
BRANCH   1  13
ATOM     13  C   UNL d   1      -2.389  -2.592   0.018  0.00  0.00     0.164 C 
ATOM     14  O   UNL d   1      -1.937  -3.707   0.310  0.00  0.00    -0.292 OA
ATOM     15  C   UNL d   1      -3.827  -2.477  -0.408  0.00  0.00     0.097 C 
ENDBRANCH   1  13
BRANCH   3  16
ATOM     16  O   UNL d   1       0.436  -2.885  -0.029  0.00  0.00    -0.359 OA
ATOM     17  H   UNL d   1      -0.266  -3.557   0.127  0.00  0.00     0.217 HD
ENDBRANCH   3  16
TORSDOF 2
