REMARK  11 active torsions:
REMARK  status: ('A' for Active; 'I' for Inactive)
REMARK    1  A    between atoms: C_9  and  C_1 
REMARK    2  A    between atoms: C_10  and  C_1 
REMARK    3  A    between atoms: C_2  and  N_11 
REMARK    4  A    between atoms: N_11  and  C_6 
REMARK    5  A    between atoms: O_21  and  C_9 
REMARK    6  A    between atoms: O_20  and  C_10 
REMARK    7  A    between atoms: C_12  and  C_13 
REMARK    8  A    between atoms: O_22  and  C_12 
REMARK    9  A    between atoms: C_25  and  O_20 
REMARK   10  A    between atoms: C_24  and  O_21 
REMARK   11  A    between atoms: C_23  and  O_22 
ROOT
ATOM      1  C   UNL d   1       0.165   3.485   0.952  0.00  0.00     0.149 A 
ATOM      2  N   UNL d   1      -1.044   3.501   1.470  0.00  0.00    -0.335 N 
ATOM      3  HN  UNL d   1      -1.594   2.670   1.688  1.00  0.00     0.168 HD
ATOM      4  S   UNL d   1       0.843   5.032   0.634  0.00  0.00    -0.052 SA
ATOM      5  C   UNL d   1      -0.578   5.787   1.241  0.00  0.00     0.036 A 
ATOM      6  C   UNL d   1      -1.462   4.799   1.675  0.00  0.00     0.051 A 
ATOM      7  C   UNL d   1      -2.074   7.527   1.973  0.00  0.00     0.041 A 
ATOM      8  C   UNL d   1      -0.872   7.154   1.352  0.00  0.00     0.038 A 
ATOM      9  C   UNL d   1      -2.671   5.191   2.279  0.00  0.00     0.032 A 
ATOM     10  C   UNL d   1      -2.966   6.551   2.431  0.00  0.00     0.020 A 
ENDROOT
BRANCH   1  11
ATOM     11  N   UNL d   1       0.871   2.371   0.659  0.00  0.00    -0.345 N 
ATOM     12  H   UNL d   1       1.843   2.490   0.352  0.00  0.00     0.167 HD
BRANCH  11  13
ATOM     13  C   UNL d   1       0.351   1.115   0.413  0.00  0.00     0.114 C 
ATOM     14  C   UNL d   1       0.989   0.001   0.006  0.00  0.00     0.129 C 
BRANCH  14  15
ATOM     15  C   UNL d   1       0.227  -1.190  -0.447  0.00  0.00     0.300 C 
ATOM     16  O   UNL d   1       0.698  -2.055  -1.174  0.00  0.00    -0.259 OA
BRANCH  15  17
ATOM     17  O   UNL d   1      -1.076  -1.125  -0.072  0.00  0.00    -0.318 OA
BRANCH  17  18
ATOM     18  C   UNL d   1      -1.964  -2.000  -0.781  0.00  0.00     0.174 C 
ATOM     19  C   UNL d   1      -2.385  -1.332  -2.079  0.00  0.00     0.034 C 
ENDBRANCH  17  18
ENDBRANCH  15  17
ENDBRANCH  14  15
BRANCH  14  20
ATOM     20  C   UNL d   1       2.459   0.049  -0.150  0.00  0.00     0.300 C 
ATOM     21  O   UNL d   1       3.087   1.081  -0.357  0.00  0.00    -0.259 OA
BRANCH  20  22
ATOM     22  O   UNL d   1       2.992  -1.188  -0.013  0.00  0.00    -0.318 OA
BRANCH  22  23
ATOM     23  C   UNL d   1       4.357  -1.331  -0.427  0.00  0.00     0.174 C 
ATOM     24  C   UNL d   1       4.392  -1.571  -1.925  0.00  0.00     0.034 C 
ENDBRANCH  22  23
ENDBRANCH  20  22
ENDBRANCH  14  20
ENDBRANCH  11  13
ENDBRANCH   1  11
BRANCH   7  25
ATOM     25  C   UNL d   1      -2.312   8.979   2.179  0.00  0.00     0.293 C 
ATOM     26  O   UNL d   1      -1.571   9.849   1.752  0.00  0.00    -0.259 OA
BRANCH  25  27
ATOM     27  O   UNL d   1      -3.389   9.167   2.983  0.00  0.00    -0.318 OA
BRANCH  27  28
ATOM     28  C   UNL d   1      -3.538  10.489   3.521  0.00  0.00     0.174 C 
ATOM     29  C   UNL d   1      -2.782  10.563   4.835  0.00  0.00     0.034 C 
ENDBRANCH  27  28
ENDBRANCH  25  27
ENDBRANCH   7  25
TORSDOF 11
