REMARK  5 active torsions:
REMARK  status: ('A' for Active; 'I' for Inactive)
REMARK    1  A    between atoms: C_5  and  C_1 
REMARK    2  A    between atoms: N_6  and  N_2 
REMARK    3  A    between atoms: C_4  and  N_6 
REMARK    4  A    between atoms: O_10  and  C_5 
REMARK    5  A    between atoms: C_12  and  O_10 
ROOT
ATOM      1  C   UNL d   1       1.122  -0.046   0.093  0.00  0.00     0.097 C 
ATOM      2  N   UNL d   1       0.390  -0.048   1.170  0.00  0.00    -0.297 N 
ATOM      3  HN  UNL d   1      -0.628  -0.070   1.102  1.00  0.00     0.187 HD
ATOM      4  C   UNL d   1       2.624  -0.029  -0.008  0.00  0.00     0.076 C 
ENDROOT
BRANCH   2   5
ATOM      5  N   UNL d   1       0.998  -0.020   2.392  0.00  0.00    -0.276 N 
ATOM      6  H   UNL d   1       2.006  -0.008   2.492  0.00  0.00     0.189 HD
BRANCH   5   7
ATOM      7  C   UNL d   1       0.268   0.058   3.545  0.00  0.00     0.184 C 
ATOM      8  S   UNL d   1       0.987   0.143   5.037  0.00  0.00    -0.040 SA
ATOM      9  N   UNL d   1      -1.076   0.065   3.393  0.00  0.00    -0.375 N 
ATOM     10  H   UNL d   1      -1.439   0.054   2.448  0.00  0.00     0.158 HD
ATOM     11  H   UNL d   1      -1.697   0.144   4.185  0.00  0.00     0.158 HD
ENDBRANCH   5   7
ENDBRANCH   2   5
BRANCH   1  12
ATOM     12  C   UNL d   1       0.416  -0.029  -1.258  0.00  0.00     0.306 C 
ATOM     13  O   UNL d   1       0.898  -0.570  -2.240  0.00  0.00    -0.258 OA
BRANCH  12  14
ATOM     14  O   UNL d   1      -0.658   0.782  -1.205  0.00  0.00    -0.317 OA
BRANCH  14  15
ATOM     15  C   UNL d   1      -1.192   1.193  -2.469  0.00  0.00     0.175 C 
ATOM     16  C   UNL d   1      -0.566   2.528  -2.829  0.00  0.00     0.034 C 
ENDBRANCH  14  15
ENDBRANCH  12  14
ENDBRANCH   1  12
TORSDOF 5
