REMARK  7 active torsions:
REMARK  status: ('A' for Active; 'I' for Inactive)
REMARK    1  A    between atoms: C_10  and  C_3 
REMARK    2  A    between atoms: C_20  and  C_5 
REMARK    3  A    between atoms: C_6  and  O_8 
REMARK    4  A    between atoms: O_8  and  C_9 
REMARK    5  A    between atoms: C_11  and  C_14 
REMARK    6  A    between atoms: N_12  and  O_22 
REMARK    7  A    between atoms: O_22  and  C_20 
ROOT
ATOM      1  O   UNL d   1       3.733   0.502  -0.578  0.00  0.00    -0.275 OA
ENDROOT
BRANCH   1   2
ATOM      2  N   UNL d   1       4.937   1.213  -0.478  0.00  0.00    -0.277 N 
ATOM      3  C   UNL d   1       5.807   0.701  -1.288  0.00  0.00     0.128 C 
ATOM      4  HN  UNL d   1       5.101   2.011   0.136  1.00  0.00     0.193 HD
BRANCH   3   5
ATOM      5  C   UNL d   1       7.146   1.304  -1.418  0.00  0.00     0.015 A 
ATOM      6  C   UNL d   1       7.924   1.208  -2.579  0.00  0.00     0.089 A 
ATOM      7  C   UNL d   1       9.218   1.755  -2.565  0.00  0.00     0.038 A 
ATOM      8  C   UNL d   1       9.717   2.403  -1.432  0.00  0.00     0.003 A 
ATOM      9  C   UNL d   1       8.932   2.512  -0.291  0.00  0.00     0.001 A 
ATOM     10  C   UNL d   1       7.649   1.971  -0.286  0.00  0.00     0.015 A 
BRANCH   6  11
ATOM     11  O   UNL d   1       7.624   0.521  -3.717  0.00  0.00    -0.254 OA
BRANCH  11  12
ATOM     12  C   UNL d   1       6.396   0.784  -4.387  0.00  0.00     0.530 C 
ATOM     13  F   UNL d   1       5.592   1.645  -3.736  0.00  0.00    -0.144 F 
ATOM     14  F   UNL d   1       6.658   1.293  -5.611  0.00  0.00    -0.144 F 
ATOM     15  F   UNL d   1       5.744  -0.388  -4.550  0.00  0.00    -0.144 F 
ENDBRANCH  11  12
ENDBRANCH   6  11
ENDBRANCH   3   5
ENDBRANCH   1   2
BRANCH   1  16
ATOM     16  C   UNL d   1       2.663   1.386  -0.222  0.00  0.00     0.258 C 
BRANCH  16  17
ATOM     17  C   UNL d   1       1.362   0.659  -0.127  0.00  0.00     0.043 A 
ATOM     18  N   UNL d   1       0.885  -0.021  -1.239  0.00  0.00    -0.351 N 
ATOM     19  C   UNL d   1      -0.278  -0.576  -0.981  0.00  0.00     0.084 A 
ATOM     20  HN  UNL d   1       1.370  -0.080  -2.134  1.00  0.00     0.166 HD
ATOM     21  S   UNL d   1      -0.861  -0.328   0.618  0.00  0.00    -0.081 SA
ATOM     22  C   UNL d   1       0.532   0.600   0.977  0.00  0.00     0.079 A 
BRANCH  19  23
ATOM     23  C   UNL d   1      -1.023  -1.385  -1.962  0.00  0.00    -0.002 A 
ATOM     24  C   UNL d   1      -0.308  -2.155  -2.894  0.00  0.00     0.016 A 
ATOM     25  C   UNL d   1      -0.978  -2.913  -3.861  0.00  0.00     0.024 A 
ATOM     26  C   UNL d   1      -2.367  -2.899  -3.908  0.00  0.00     0.034 A 
ATOM     27  C   UNL d   1      -3.094  -2.133  -2.998  0.00  0.00     0.024 A 
ATOM     28 CL   UNL d   1      -3.194  -3.813  -5.108  0.00  0.00    -0.084 Cl
ATOM     29  C   UNL d   1      -2.426  -1.379  -2.031  0.00  0.00     0.016 A 
ENDBRANCH  19  23
ENDBRANCH  16  17
ENDBRANCH   1  16
TORSDOF 7
