REMARK  4 active torsions:
REMARK  status: ('A' for Active; 'I' for Inactive)
REMARK    1  A    between atoms: C_9  and  N_1 
REMARK    2  A    between atoms: C_7  and  C_2 
REMARK    3  A    between atoms: N_10  and  C_8 
REMARK    4  A    between atoms: C_11  and  N_10 
ROOT
ATOM      1  N   UNL d   1       3.708   0.691   0.024  0.00  0.00    -0.225 N 
ATOM      2  C   UNL d   1       3.620  -0.702   0.011  0.00  0.00     0.139 C 
ATOM      3  N   UNL d   1       5.691  -0.111   0.008  0.00  0.00    -0.007 NA
ATOM      4  N   UNL d   1       5.016   1.022  -0.110  0.00  0.00     0.001 NA
ATOM      5  N   UNL d   1       4.846  -1.184   0.097  0.00  0.00    -0.270 N 
ATOM      6  HN  UNL d   1       5.111  -2.163   0.208  1.00  0.00     0.185 HD
ENDROOT
BRANCH   2   7
ATOM      7  C   UNL d   1       2.388  -1.365  -0.213  0.00  0.00     0.068 C 
ATOM      8  C   UNL d   1       2.148  -2.635   0.130  0.00  0.00     0.092 C 
BRANCH   8   9
ATOM      9  N   UNL d   1       2.951  -3.556   0.748  0.00  0.00    -0.366 N 
ATOM     10  H   UNL d   1       3.913  -3.261   0.907  0.00  0.00     0.165 HD
BRANCH   9  11
ATOM     11  C   UNL d   1       2.651  -4.892   1.077  0.00  0.00     0.031 A 
ATOM     12  C   UNL d   1       1.434  -5.511   0.762  0.00  0.00     0.030 A 
ATOM     13  C   UNL d   1       1.158  -6.824   1.158  0.00  0.00     0.009 A 
ATOM     14  C   UNL d   1       2.094  -7.558   1.887  0.00  0.00    -0.062 A 
ATOM     15  C   UNL d   1       3.307  -6.951   2.221  0.00  0.00     0.009 A 
ATOM     16  C   UNL d   1       1.767  -8.952   2.331  0.00  0.00     0.048 C 
ATOM     17  C   UNL d   1       3.580  -5.636   1.820  0.00  0.00     0.030 A 
ENDBRANCH   9  11
ENDBRANCH   8   9
ENDBRANCH   2   7
BRANCH   1  18
ATOM     18  C   UNL d   1       2.710   1.690   0.173  0.00  0.00     0.056 A 
ATOM     19  C   UNL d   1       1.518   1.424   0.863  0.00  0.00     0.031 A 
ATOM     20  C   UNL d   1       0.539   2.413   0.980  0.00  0.00     0.002 A 
ATOM     21  C   UNL d   1       0.744   3.669   0.414  0.00  0.00     0.000 A 
ATOM     22  C   UNL d   1       1.940   3.950  -0.246  0.00  0.00     0.002 A 
ATOM     23  C   UNL d   1       2.931   2.971  -0.354  0.00  0.00     0.031 A 
ENDBRANCH   1  18
TORSDOF 4
