REMARK  8 active torsions:
REMARK  status: ('A' for Active; 'I' for Inactive)
REMARK    1  A    between atoms: C_2  and  C_1 
REMARK       I    between atoms: N_5  and  C_2 
REMARK    2  A    between atoms: C_3  and  C_4 
REMARK    3  A    between atoms: C_10  and  N_5 
REMARK    4  A    between atoms: C_25  and  N_5 
REMARK    5  A    between atoms: O_20  and  C_6 
REMARK    6  A    between atoms: C_7  and  C_10 
REMARK    7  A    between atoms: O_24  and  C_13 
REMARK    8  A    between atoms: O_23  and  C_14 
ROOT
ATOM      1  C   UNL d   1       1.083   2.790   0.150  0.00  0.00     0.259 C 
ATOM      2  N   UNL d   1       0.556   4.070   0.316  0.00  0.00    -0.344 N 
ATOM      3  O   UNL d   1       0.535   1.887  -0.473  0.00  0.00    -0.267 OA
ENDROOT
BRANCH   1   4
ATOM      4  C   UNL d   1       2.231   2.420   1.001  0.00  0.00     0.098 A 
ATOM      5  C   UNL d   1       3.576   2.557   0.652  0.00  0.00     0.069 A 
ATOM      6  C   UNL d   1       4.540   2.204   1.614  0.00  0.00     0.034 A 
ATOM      7  C   UNL d   1       4.133   1.679   2.831  0.00  0.00     0.091 A 
ATOM      8  N   UNL d   1       2.843   1.460   3.149  0.00  0.00    -0.346 N 
ATOM      9  C   UNL d   1       1.925   1.825   2.227  0.00  0.00     0.158 A 
ATOM     10  HN  UNL d   1       2.572   1.041   4.038  1.00  0.00     0.167 HD
BRANCH   5  11
ATOM     11  C   UNL d   1       4.027   3.071  -0.680  0.00  0.00     0.418 C 
ATOM     12  F   UNL d   1       3.087   3.035  -1.656  0.00  0.00    -0.166 F 
ATOM     13  F   UNL d   1       4.449   4.363  -0.613  0.00  0.00    -0.166 F 
ATOM     14  F   UNL d   1       5.089   2.367  -1.164  0.00  0.00    -0.166 F 
ENDBRANCH   5  11
BRANCH   9  15
ATOM     15  O   UNL d   1       0.616   1.643   2.599  0.00  0.00    -0.340 OA
ATOM     16  C   UNL d   1       0.236   0.292   2.323  0.00  0.00     0.211 C 
ENDBRANCH   9  15
ENDBRANCH   1   4
BRANCH   2  17
ATOM     17  C   UNL d   1       1.376   5.280   0.270  0.00  0.00     0.164 C 
BRANCH  17  18
ATOM     18  C   UNL d   1       2.118   5.648   1.526  0.00  0.00    -0.035 A 
ATOM     19  C   UNL d   1       1.705   5.259   2.807  0.00  0.00     0.045 A 
ATOM     20  C   UNL d   1       2.435   5.645   3.934  0.00  0.00     0.071 A 
ATOM     21  C   UNL d   1       3.564   6.458   3.786  0.00  0.00     0.073 A 
ATOM     22  C   UNL d   1       3.973   6.867   2.521  0.00  0.00     0.071 A 
ATOM     23  C   UNL d   1       3.240   6.481   1.402  0.00  0.00     0.045 A 
BRANCH  20  24
ATOM     24  O   UNL d   1       2.136   5.310   5.228  0.00  0.00    -0.356 OA
ATOM     25  C   UNL d   1       1.139   4.311   5.414  0.00  0.00     0.210 C 
ENDBRANCH  20  24
BRANCH  22  26
ATOM     26  O   UNL d   1       5.041   7.682   2.265  0.00  0.00    -0.356 OA
ATOM     27  C   UNL d   1       6.174   7.445   3.095  0.00  0.00     0.210 C 
ENDBRANCH  22  26
ENDBRANCH  17  18
ENDBRANCH   2  17
BRANCH   2  28
ATOM     28  C   UNL d   1      -0.899   4.217   0.302  0.00  0.00     0.122 C 
ATOM     29  C   UNL d   1      -1.459   4.948  -0.907  0.00  0.00     0.026 C 
ENDBRANCH   2  28
TORSDOF 8
