REMARK  1 active torsions:
REMARK  status: ('A' for Active; 'I' for Inactive)
REMARK    1  A    between atoms: O_12  and  N_6 
ROOT
ATOM      1  N   UNL d   1       1.306   0.813   0.772  0.00  0.00     0.089 N 
ATOM      2  C   UNL d   1       0.252   1.372  -0.082  0.00  0.00     0.228 C 
ATOM      3  C   UNL d   1      -1.164   1.289   0.520  0.00  0.00     0.090 C 
ATOM      4  C   UNL d   1      -1.874   0.025   0.085  0.00  0.00     0.012 C 
ATOM      5  C   UNL d   1       1.166  -0.618   1.048  0.00  0.00     0.277 C 
ATOM      6  N   UNL d   1      -2.983  -0.020  -0.591  0.00  0.00    -0.277 N 
ATOM      7  HN  UNL d   1      -3.452  -0.885  -0.861  1.00  0.00     0.193 HD
ATOM      8  C   UNL d   1       0.261  -1.365   0.046  0.00  0.00     0.019 C 
ATOM      9  C   UNL d   1       0.362   0.693  -1.466  0.00  0.00     0.036 C 
ATOM     10  C   UNL d   1      -1.223  -1.294   0.449  0.00  0.00     0.060 C 
ATOM     11  C   UNL d   1       0.503  -0.837  -1.376  0.00  0.00     0.009 C 
ATOM     12  C   UNL d   1       1.594   1.588   1.971  0.00  0.00     0.310 C 
ENDROOT
BRANCH   6  13
ATOM     13  O   UNL d   1      -3.458   1.258  -0.906  0.00  0.00    -0.290 OA
ATOM     14  H   UNL d   1      -4.229   1.061  -1.470  0.00  0.00     0.244 HD
ENDBRANCH   6  13
TORSDOF 1
