REMARK  5 active torsions:
REMARK  status: ('A' for Active; 'I' for Inactive)
REMARK    1  A    between atoms: N_2  and  C_1 
REMARK    2  A    between atoms: N_3  and  C_9 
REMARK    3  A    between atoms: N_17  and  C_4 
REMARK    4  A    between atoms: C_15  and  C_5 
REMARK    5  A    between atoms: C_6  and  C_18 
ROOT
ATOM      1  C   UNL d   1      -1.660   2.918   1.475  0.00  0.00     0.055 C 
ATOM      2  C   UNL d   1      -1.026   2.563   0.333  0.00  0.00     0.035 C 
ATOM      3  C   UNL d   1      -1.764   1.986   2.573  0.00  0.00     0.100 C 
ATOM      4  N   UNL d   1      -1.841   1.236   3.455  0.00  0.00    -0.191 NA
ENDROOT
BRANCH   1   5
ATOM      5  C   UNL d   1      -2.234   4.289   1.618  0.00  0.00    -0.015 A 
ATOM      6  C   UNL d   1      -2.871   4.939   0.543  0.00  0.00     0.015 A 
ATOM      7  C   UNL d   1      -3.433   6.217   0.687  0.00  0.00     0.037 A 
ATOM      8  C   UNL d   1      -3.369   6.866   1.924  0.00  0.00     0.102 A 
ATOM      9  C   UNL d   1      -2.745   6.243   3.009  0.00  0.00     0.037 A 
ATOM     10  C   UNL d   1      -2.183   4.966   2.852  0.00  0.00     0.015 A 
BRANCH   8  11
ATOM     11  N   UNL d   1      -3.964   8.201   2.082  0.00  0.00    -0.116 N 
ATOM     12  O   UNL d   1      -3.885   8.737   3.197  0.00  0.00    -0.532 OA
ATOM     13  O   UNL d   1      -4.507   8.712   1.093  0.00  0.00    -0.532 OA
ENDBRANCH   8  11
ENDBRANCH   1   5
BRANCH   2  14
ATOM     14  C   UNL d   1      -0.416   1.246   0.108  0.00  0.00    -0.032 A 
ATOM     15  C   UNL d   1       0.950   1.064   0.304  0.00  0.00     0.050 A 
ATOM     16  C   UNL d   1       1.506  -0.232   0.226  0.00  0.00     0.130 A 
ATOM     17  C   UNL d   1       0.744  -1.386  -0.039  0.00  0.00     0.062 A 
ATOM     18  C   UNL d   1      -0.622  -1.136  -0.300  0.00  0.00     0.033 A 
ATOM     19  C   UNL d   1      -1.196   0.144  -0.234  0.00  0.00     0.014 A 
BRANCH  16  20
ATOM     20  N   UNL d   1       2.920  -0.298   0.520  0.00  0.00    -0.113 N 
ATOM     21  O   UNL d   1       3.264  -0.809   1.598  0.00  0.00    -0.532 OA
ATOM     22  O   UNL d   1       3.686   0.221  -0.305  0.00  0.00    -0.532 OA
ENDBRANCH  16  20
BRANCH  17  23
ATOM     23  N   UNL d   1       1.184  -2.703  -0.082  0.00  0.00    -0.388 N 
ATOM     24  C   UNL d   1       2.539  -3.112  -0.431  0.00  0.00     0.149 C 
ATOM     25  C   UNL d   1       0.374  -3.726   0.585  0.00  0.00     0.149 C 
ENDBRANCH  17  23
ENDBRANCH   2  14
TORSDOF 5
