REMARK  4 active torsions:
REMARK  status: ('A' for Active; 'I' for Inactive)
REMARK    1  A    between atoms: N_2  and  C_1 
REMARK    2  A    between atoms: O_9  and  C_5 
REMARK    3  A    between atoms: C_6  and  C_11 
REMARK    4  A    between atoms: C_11  and  O_9 
ROOT
ATOM      1  C   UNL d   1      -1.532  -0.770  -1.767  0.00  0.00     0.207 A 
ATOM      2  N   UNL d   1      -0.636  -0.508  -2.775  0.00  0.00    -0.339 N 
ATOM      3  HN  UNL d   1      -0.157  -1.268  -3.257  1.00  0.00     0.167 HD
ATOM      4  C   UNL d   1      -2.256   0.230  -1.105  0.00  0.00     0.119 A 
ATOM      5  C   UNL d   1      -0.405   0.777  -3.114  0.00  0.00     0.007 A 
ATOM      6  C   UNL d   1      -1.952   1.550  -1.459  0.00  0.00     0.043 A 
ATOM      7  C   UNL d   1      -1.026   1.831  -2.464  0.00  0.00     0.027 A 
ATOM      8  C   UNL d   1       0.571   1.026  -4.223  0.00  0.00     0.068 C 
ENDROOT
BRANCH   4   9
ATOM      9  O   UNL d   1      -3.201   0.162  -0.119  0.00  0.00    -0.343 OA
BRANCH   9  10
ATOM     10  C   UNL d   1      -4.079  -0.961  -0.038  0.00  0.00     0.215 C 
BRANCH  10  11
ATOM     11  C   UNL d   1      -5.527  -0.520  -0.021  0.00  0.00    -0.028 A 
ATOM     12  C   UNL d   1      -6.103   0.220   1.028  0.00  0.00    -0.054 A 
ATOM     13  C   UNL d   1      -7.472   0.535   0.965  0.00  0.00     0.008 A 
ATOM     14  C   UNL d   1      -5.332   0.696   2.230  0.00  0.00     0.049 C 
ATOM     15  C   UNL d   1      -8.264   0.115  -0.106  0.00  0.00     0.007 A 
ATOM     16  C   UNL d   1      -7.704  -0.622  -1.148  0.00  0.00    -0.061 A 
ATOM     17  C   UNL d   1      -6.340  -0.924  -1.100  0.00  0.00     0.016 A 
ATOM     18  C   UNL d   1      -8.553  -1.094  -2.290  0.00  0.00     0.048 C 
ENDBRANCH  10  11
ENDBRANCH   9  10
ENDBRANCH   4   9
BRANCH   1  19
ATOM     19  N   UNL d   1      -1.673  -2.162  -1.329  0.00  0.00    -0.095 N 
ATOM     20  O   UNL d   1      -1.370  -2.432  -0.159  0.00  0.00    -0.530 OA
ATOM     21  O   UNL d   1      -2.116  -2.971  -2.161  0.00  0.00    -0.530 OA
ENDBRANCH   1  19
TORSDOF 4
