REMARK  7 active torsions:
REMARK  status: ('A' for Active; 'I' for Inactive)
REMARK    1  A    between atoms: N_2  and  S_1 
REMARK    2  A    between atoms: C_5  and  S_1 
REMARK    3  A    between atoms: C_3  and  N_2 
REMARK    4  A    between atoms: O_8  and  C_4 
REMARK    5  A    between atoms: C_13  and  O_8 
REMARK    6  A    between atoms: O_24  and  C_14 
REMARK    7  A    between atoms: O_23  and  C_15 
ROOT
ATOM      1  C   UNL d   1       0.779  -2.286  -1.417  0.00  0.00     0.094 A 
ATOM      2  C   UNL d   1      -0.273  -2.964  -2.046  0.00  0.00     0.175 A 
ATOM      3  N   UNL d   1      -0.117  -3.648  -3.210  0.00  0.00    -0.345 N 
ATOM      4  HN  UNL d   1      -0.891  -4.167  -3.625  1.00  0.00     0.167 HD
ATOM      5  C   UNL d   1       2.015  -2.262  -2.067  0.00  0.00     0.036 A 
ATOM      6  C   UNL d   1       1.094  -3.618  -3.799  0.00  0.00     0.090 A 
ATOM      7  C   UNL d   1       2.177  -2.936  -3.276  0.00  0.00     0.019 A 
ENDROOT
BRANCH   1   8
ATOM      8  N   UNL d   1       0.683  -1.687  -0.123  0.00  0.00    -0.276 N 
ATOM      9  H   UNL d   1       1.073  -0.755  -0.000  0.00  0.00     0.179 HD
BRANCH   8  10
ATOM     10  S   UNL d   1       0.958  -2.669   1.231  0.00  0.00     0.263 S 
ATOM     11  O   UNL d   1       0.036  -3.782   1.212  0.00  0.00    -0.200 OA
ATOM     12  O   UNL d   1       1.036  -1.769   2.364  0.00  0.00    -0.200 OA
BRANCH  10  13
ATOM     13  C   UNL d   1       2.603  -3.318   0.968  0.00  0.00     0.080 A 
ATOM     14  C   UNL d   1       3.719  -2.622   1.445  0.00  0.00     0.028 A 
ATOM     15  C   UNL d   1       5.007  -3.135   1.228  0.00  0.00     0.038 A 
ATOM     16  C   UNL d   1       5.176  -4.341   0.545  0.00  0.00     0.068 A 
ATOM     17  C   UNL d   1       4.050  -5.040   0.099  0.00  0.00     0.038 A 
ATOM     18  C   UNL d   1       2.764  -4.544   0.319  0.00  0.00     0.028 A 
BRANCH  16  19
ATOM     19  O   UNL d   1       6.369  -4.941   0.248  0.00  0.00    -0.356 OA
ATOM     20  C   UNL d   1       7.555  -4.302   0.704  0.00  0.00     0.210 C 
ENDBRANCH  16  19
ENDBRANCH  10  13
ENDBRANCH   8  10
ENDBRANCH   1   8
BRANCH   2  21
ATOM     21  O   UNL d   1      -1.551  -2.881  -1.499  0.00  0.00    -0.292 OA
BRANCH  21  22
ATOM     22  C   UNL d   1      -2.604  -2.907  -2.397  0.00  0.00     0.078 A 
ATOM     23  C   UNL d   1      -3.696  -3.724  -2.104  0.00  0.00     0.040 A 
ATOM     24  C   UNL d   1      -4.771  -3.817  -3.003  0.00  0.00     0.039 A 
ATOM     25  C   UNL d   1      -4.758  -3.088  -4.194  0.00  0.00     0.068 A 
ATOM     26  C   UNL d   1      -3.689  -2.227  -4.452  0.00  0.00     0.039 A 
ATOM     27  C   UNL d   1      -2.626  -2.120  -3.553  0.00  0.00     0.040 A 
BRANCH  25  28
ATOM     28  O   UNL d   1      -5.705  -3.119  -5.180  0.00  0.00    -0.356 OA
ATOM     29  C   UNL d   1      -6.781  -4.034  -5.024  0.00  0.00     0.210 C 
ENDBRANCH  25  28
ENDBRANCH  21  22
ENDBRANCH   2  21
TORSDOF 7
