REMARK  5 active torsions:
REMARK  status: ('A' for Active; 'I' for Inactive)
REMARK    1  A    between atoms: C_2  and  C_1 
REMARK       I    between atoms: N_7  and  C_2 
REMARK       I    between atoms: C_3  and  N_8 
REMARK    2  A    between atoms: C_5  and  C_3 
REMARK    3  A    between atoms: O_17  and  C_4 
REMARK    4  A    between atoms: N_8  and  N_7 
REMARK    5  A    between atoms: C_18  and  O_17 
ROOT
ATOM      1  C   UNL d   1      -0.381   2.829   0.057  0.00  0.00     0.279 C 
ATOM      2  N   UNL d   1      -1.736   3.001   0.290  0.00  0.00    -0.262 N 
ATOM      3  O   UNL d   1       0.352   3.810  -0.074  0.00  0.00    -0.265 OA
ATOM      4  H   UNL d   1      -2.389   2.220   0.289  0.00  0.00     0.190 HD
ENDROOT
BRANCH   2   5
ATOM      5  N   UNL d   1      -2.279   4.288   0.305  0.00  0.00    -0.261 N 
ATOM      6  C   UNL d   1      -3.608   4.468  -0.027  0.00  0.00     0.293 C 
ATOM      7  O   UNL d   1      -4.342   3.514  -0.293  0.00  0.00    -0.264 OA
ATOM      8  H   UNL d   1      -1.643   5.078   0.411  0.00  0.00     0.190 HD
BRANCH   6   9
ATOM      9  C   UNL d   1      -4.042   5.847  -0.024  0.00  0.00     0.144 A 
ATOM     10  O   UNL d   1      -3.172   6.826   0.383  0.00  0.00    -0.317 OA
ATOM     11  C   UNL d   1      -3.841   8.007   0.323  0.00  0.00     0.143 A 
ATOM     12  C   UNL d   1      -5.124   7.811  -0.130  0.00  0.00     0.027 A 
ATOM     13  C   UNL d   1      -5.254   6.420  -0.355  0.00  0.00     0.045 A 
ENDBRANCH   6   9
ENDBRANCH   2   5
BRANCH   1  14
ATOM     14  C   UNL d   1       0.067   1.443  -0.028  0.00  0.00     0.107 A 
ATOM     15  C   UNL d   1       1.175   0.881  -0.648  0.00  0.00     0.091 A 
ATOM     16  C   UNL d   1       1.311  -0.510  -0.358  0.00  0.00     0.045 A 
ATOM     17  C   UNL d   1       0.287  -0.992   0.423  0.00  0.00     0.053 A 
ATOM     18  S   UNL d   1      -0.836   0.226   0.808  0.00  0.00    -0.094 SA
BRANCH  15  19
ATOM     19  O   UNL d   1       2.128   1.506  -1.386  0.00  0.00    -0.350 OA
BRANCH  19  20
ATOM     20  C   UNL d   1       1.654   2.445  -2.351  0.00  0.00     0.171 C 
ATOM     21  C   UNL d   1       2.484   2.298  -3.615  0.00  0.00     0.034 C 
ENDBRANCH  19  20
ENDBRANCH  15  19
ENDBRANCH   1  14
TORSDOF 5
