REMARK  7 active torsions:
REMARK  status: ('A' for Active; 'I' for Inactive)
REMARK    1  A    between atoms: N_4  and  C_1 
REMARK    2  A    between atoms: C_7  and  C_2 
REMARK       I    between atoms: C_9  and  N_4 
REMARK    3  A    between atoms: C_6  and  C_15 
REMARK    4  A    between atoms: O_16  and  C_7 
REMARK    5  A    between atoms: C_19  and  C_9 
REMARK    6  A    between atoms: S_14  and  C_19 
REMARK    7  A    between atoms: C_15  and  S_14 
ROOT
ATOM      1  N   UNL d   1       0.606  -2.635   0.072  0.00  0.00    -0.320 N 
ATOM      2  C   UNL d   1       1.771  -3.209  -0.407  0.00  0.00     0.231 C 
ATOM      3  O   UNL d   1       2.652  -2.617  -1.026  0.00  0.00    -0.272 OA
ATOM      4  H   UNL d   1      -0.181  -3.265   0.186  0.00  0.00     0.169 HD
ENDROOT
BRANCH   2   5
ATOM      5  C   UNL d   1       1.875  -4.703  -0.087  0.00  0.00     0.177 C 
BRANCH   5   6
ATOM      6  S   UNL d   1       0.745  -5.700  -1.126  0.00  0.00    -0.155 SA
BRANCH   6   7
ATOM      7  C   UNL d   1       1.245  -7.370  -0.569  0.00  0.00     0.117 C 
BRANCH   7   8
ATOM      8  C   UNL d   1       0.456  -8.491  -1.212  0.00  0.00     0.011 A 
ATOM      9  C   UNL d   1       0.913  -9.241  -2.303  0.00  0.00     0.044 A 
ATOM     10 CL   UNL d   1       2.433  -8.927  -3.063  0.00  0.00    -0.084 Cl
ATOM     11  C   UNL d   1       0.154 -10.310  -2.815  0.00  0.00     0.024 A 
ATOM     12  C   UNL d   1      -1.074 -10.639  -2.252  0.00  0.00     0.005 A 
ATOM     13  C   UNL d   1      -1.553  -9.900  -1.175  0.00  0.00     0.043 A 
ATOM     14  C   UNL d   1      -0.791  -8.842  -0.671  0.00  0.00     0.125 A 
ATOM     15  F   UNL d   1      -1.266  -8.170   0.385  0.00  0.00    -0.205 F 
ENDBRANCH   7   8
ENDBRANCH   6   7
ENDBRANCH   5   6
ENDBRANCH   2   5
BRANCH   1  16
ATOM     16  C   UNL d   1       0.264  -1.317  -0.169  0.00  0.00     0.093 A 
ATOM     17  C   UNL d   1       0.923  -0.097  -0.222  0.00  0.00     0.079 A 
ATOM     18  C   UNL d   1      -0.013   0.961  -0.613  0.00  0.00    -0.036 A 
ATOM     19  C   UNL d   1       0.282   2.428  -0.715  0.00  0.00     0.050 C 
ATOM     20  C   UNL d   1      -1.275   0.455  -0.863  0.00  0.00     0.059 A 
ATOM     21  S   UNL d   1      -1.405  -1.195  -0.487  0.00  0.00    -0.083 SA
BRANCH  17  22
ATOM     22  C   UNL d   1       2.326   0.154   0.131  0.00  0.00     0.296 C 
ATOM     23  O   UNL d   1       2.989   1.044  -0.386  0.00  0.00    -0.259 OA
BRANCH  22  24
ATOM     24  O   UNL d   1       2.741  -0.586   1.205  0.00  0.00    -0.322 OA
ATOM     25  C   UNL d   1       4.016  -0.230   1.750  0.00  0.00     0.213 C 
ENDBRANCH  22  24
ENDBRANCH  17  22
ENDBRANCH   1  16
TORSDOF 7
