REMARK  3 active torsions:
REMARK  status: ('A' for Active; 'I' for Inactive)
REMARK       I    between atoms: N_2  and  C_1 
REMARK       I    between atoms: N_6  and  C_1 
REMARK    1  A    between atoms: C_4  and  N_2 
REMARK    2  A    between atoms: N_3  and  C_5 
REMARK    3  A    between atoms: C_7  and  N_6 
ROOT
ATOM      1  C   UNL d   1       0.782   1.039   0.569  0.00  0.00     0.303 C 
ATOM      2  N   UNL d   1       0.348   0.959  -0.760  0.00  0.00    -0.208 NA
ATOM      3  N   UNL d   1      -0.152   0.442   1.403  0.00  0.00    -0.313 N 
ATOM      4  O   UNL d   1       1.815   1.595   0.927  0.00  0.00    -0.253 OA
ATOM      5  H   UNL d   1      -0.635   1.194  -0.786  0.00  0.00     0.138 HD
ATOM      6  H   UNL d   1      -0.835  -0.133   0.934  0.00  0.00     0.170 HD
ENDROOT
BRANCH   2   7
ATOM      7  C   UNL d   1       1.099   1.645  -1.751  0.00  0.00     0.043 A 
ATOM      8  C   UNL d   1       2.213   1.071  -2.398  0.00  0.00     0.052 A 
ATOM      9  C   UNL d   1       2.901   1.883  -3.325  0.00  0.00     0.031 A 
ATOM     10  C   UNL d   1       2.506   3.191  -3.611  0.00  0.00     0.002 A 
ATOM     11  C   UNL d   1       1.394   3.726  -2.976  0.00  0.00     0.002 A 
ATOM     12  C   UNL d   1       0.687   2.954  -2.059  0.00  0.00     0.026 A 
BRANCH   8  13
ATOM     13  N   UNL d   1       2.649  -0.247  -2.278  0.00  0.00    -0.379 N 
ATOM     14  C   UNL d   1       1.721  -1.339  -2.004  0.00  0.00     0.123 C 
ATOM     15  C   UNL d   1       2.278  -2.613  -2.650  0.00  0.00     0.020 C 
ATOM     16  C   UNL d   1       3.719  -2.893  -2.215  0.00  0.00     0.003 C 
ATOM     17  C   UNL d   1       4.611  -1.663  -2.397  0.00  0.00     0.020 C 
ATOM     18  C   UNL d   1       3.995  -0.434  -1.727  0.00  0.00     0.123 C 
ENDBRANCH   8  13
ENDBRANCH   2   7
BRANCH   3  19
ATOM     19  C   UNL d   1      -0.152   0.388   2.813  0.00  0.00     0.036 A 
ATOM     20  C   UNL d   1       0.790   1.026   3.623  0.00  0.00     0.036 A 
ATOM     21  C   UNL d   1       0.757   0.882   5.020  0.00  0.00    -0.059 A 
ATOM     22  C   UNL d   1       1.796   1.533   5.888  0.00  0.00     0.048 C 
ATOM     23  C   UNL d   1      -0.245   0.101   5.607  0.00  0.00     0.013 A 
ATOM     24  C   UNL d   1      -1.224  -0.512   4.819  0.00  0.00    -0.059 A 
ATOM     25  C   UNL d   1      -1.168  -0.363   3.425  0.00  0.00     0.036 A 
ATOM     26  C   UNL d   1      -2.309  -1.317   5.470  0.00  0.00     0.048 C 
ENDBRANCH   3  19
TORSDOF 3
