REMARK  6 active torsions:
REMARK  status: ('A' for Active; 'I' for Inactive)
REMARK       I    between atoms: N_2  and  C_1 
REMARK    1  A    between atoms: C_4  and  N_2 
REMARK    2  A    between atoms: C_3  and  C_10 
REMARK    3  A    between atoms: O_8  and  C_3 
REMARK    4  A    between atoms: C_15  and  C_9 
REMARK    5  A    between atoms: C_10  and  C_11 
REMARK    6  A    between atoms: C_11  and  C_15 
ROOT
ATOM      1  C   UNL d   1       1.062   2.207  -1.058  0.00  0.00     0.035 A 
ATOM      2  C   UNL d   1       2.073   1.976  -1.992  0.00  0.00     0.036 A 
ATOM      3  C   UNL d   1       2.748   3.035  -2.615  0.00  0.00    -0.056 A 
ATOM      4  C   UNL d   1       1.325   4.589  -1.425  0.00  0.00     0.003 A 
ATOM      5  C   UNL d   1       0.663   3.523  -0.806  0.00  0.00     0.029 A 
ATOM      6  C   UNL d   1       2.375   4.347  -2.312  0.00  0.00     0.007 A 
ENDROOT
BRANCH   3   7
ATOM      7  C   UNL d   1       3.887   2.736  -3.558  0.00  0.00     0.039 C 
BRANCH   7   8
ATOM      8  C   UNL d   1       5.257   2.701  -2.874  0.00  0.00     0.015 C 
BRANCH   8   9
ATOM      9  C   UNL d   1       5.402   1.600  -1.818  0.00  0.00     0.110 C 
BRANCH   9  10
ATOM     10  C   UNL d   1       6.794   1.575  -1.230  0.00  0.00     0.139 C 
ATOM     11  O   UNL d   1       7.714   2.309  -1.554  0.00  0.00    -0.650 OA
BRANCH  10  12
ATOM     12  O   UNL d   1       6.928   0.625  -0.274  0.00  0.00    -0.776 OA
ATOM     13  H   UNL d   1       6.108   0.118  -0.115  0.00  0.00     0.167 HD
ENDBRANCH  10  12
ENDBRANCH   9  10
ENDBRANCH   8   9
ENDBRANCH   7   8
ENDBRANCH   3   7
BRANCH   1  14
ATOM     14  N   UNL d   1       0.425   1.161  -0.357  0.00  0.00    -0.328 N 
ATOM     15  C   UNL d   1       0.923  -0.124  -0.208  0.00  0.00     0.218 C 
ATOM     16  O   UNL d   1       2.023  -0.528  -0.575  0.00  0.00    -0.274 OA
ATOM     17  C   UNL d   1      -0.014  -1.051   0.521  0.00  0.00     0.117 C 
ATOM     18  H   UNL d   1      -0.381   1.417   0.198  0.00  0.00     0.169 HD
ENDBRANCH   1  14
TORSDOF 6
