REMARK  6 active torsions:
REMARK  status: ('A' for Active; 'I' for Inactive)
REMARK       I    between atoms: N_3  and  C_1 
REMARK    1  A    between atoms: C_10  and  C_1 
REMARK       I    between atoms: C_2  and  N_4 
REMARK    2  A    between atoms: C_9  and  C_2 
REMARK    3  A    between atoms: C_5  and  N_3 
REMARK    4  A    between atoms: N_4  and  C_6 
REMARK    5  A    between atoms: C_12  and  C_9 
REMARK    6  A    between atoms: C_11  and  C_10 
ROOT
ATOM      1  C   UNL d   1       0.530  -2.114   1.110  0.00  0.00     0.061 A 
ATOM      2  C   UNL d   1       1.580  -2.043   2.048  0.00  0.00     0.061 A 
ATOM      3  C   UNL d   1      -0.038  -3.359   0.809  0.00  0.00     0.032 A 
ATOM      4  C   UNL d   1       2.012  -3.212   2.688  0.00  0.00     0.032 A 
ATOM      5  C   UNL d   1       0.422  -4.521   1.433  0.00  0.00     0.002 A 
ATOM      6  C   UNL d   1       1.436  -4.446   2.381  0.00  0.00     0.002 A 
ENDROOT
BRANCH   1   7
ATOM      7  N   UNL d   1       0.163  -0.949   0.391  0.00  0.00    -0.325 N 
ATOM      8  C   UNL d   1      -1.063  -0.733  -0.211  0.00  0.00     0.226 C 
ATOM      9  O   UNL d   1      -2.085  -1.377   0.016  0.00  0.00    -0.273 OA
ATOM     10  H   UNL d   1       0.853  -0.213   0.330  0.00  0.00     0.169 HD
BRANCH   8  11
ATOM     11  C   UNL d   1      -1.050   0.389  -1.232  0.00  0.00     0.141 C 
BRANCH  11  12
ATOM     12  C   UNL d   1      -1.174   1.791  -0.686  0.00  0.00    -0.050 A 
ATOM     13  C   UNL d   1      -0.310   2.795  -1.153  0.00  0.00     0.007 A 
ATOM     14  C   UNL d   1      -0.500   4.129  -0.786  0.00  0.00     0.001 A 
ATOM     15  C   UNL d   1      -1.555   4.477   0.053  0.00  0.00     0.000 A 
ATOM     16  C   UNL d   1      -2.412   3.490   0.536  0.00  0.00     0.001 A 
ATOM     17  C   UNL d   1      -2.225   2.153   0.169  0.00  0.00     0.007 A 
ENDBRANCH  11  12
ENDBRANCH   8  11
ENDBRANCH   1   7
BRANCH   2  18
ATOM     18  N   UNL d   1       2.116  -0.775   2.377  0.00  0.00    -0.325 N 
ATOM     19  C   UNL d   1       3.385  -0.541   2.878  0.00  0.00     0.226 C 
ATOM     20  O   UNL d   1       4.262  -1.391   3.014  0.00  0.00    -0.273 OA
ATOM     21  H   UNL d   1       1.540   0.025   2.155  0.00  0.00     0.169 HD
BRANCH  19  22
ATOM     22  C   UNL d   1       3.635   0.919   3.223  0.00  0.00     0.141 C 
BRANCH  22  23
ATOM     23  C   UNL d   1       4.469   1.663   2.204  0.00  0.00    -0.050 A 
ATOM     24  C   UNL d   1       4.004   2.861   1.641  0.00  0.00     0.007 A 
ATOM     25  C   UNL d   1       4.804   3.587   0.759  0.00  0.00     0.001 A 
ATOM     26  C   UNL d   1       6.078   3.129   0.427  0.00  0.00     0.000 A 
ATOM     27  C   UNL d   1       6.549   1.935   0.978  0.00  0.00     0.001 A 
ATOM     28  C   UNL d   1       5.752   1.211   1.861  0.00  0.00     0.007 A 
ENDBRANCH  22  23
ENDBRANCH  19  22
ENDBRANCH   2  18
TORSDOF 6
