REMARK  3 active torsions:
REMARK  status: ('A' for Active; 'I' for Inactive)
REMARK    1  A    between atoms: C_3  and  C_1 
REMARK    2  A    between atoms: N_2  and  C_6 
REMARK    3  A    between atoms: N_7  and  C_4 
REMARK       I    between atoms: C_8  and  N_7 
ROOT
ATOM      1  C   UNL d   1       1.486  -0.132   0.236  0.00  0.00     0.076 A 
ATOM      2  C   UNL d   1       0.668  -1.282   0.250  0.00  0.00     0.050 A 
ATOM      3  C   UNL d   1       0.882   1.147   0.178  0.00  0.00     0.054 A 
ATOM      4  C   UNL d   1      -0.509   1.279   0.115  0.00  0.00     0.103 A 
ATOM      5  C   UNL d   1      -0.725  -1.122   0.166  0.00  0.00     0.033 A 
ATOM      6  C   UNL d   1      -1.316   0.144   0.099  0.00  0.00     0.038 A 
ENDROOT
BRANCH   2   7
ATOM      7  N   UNL d   1       1.254  -2.570   0.318  0.00  0.00    -0.327 N 
ATOM      8  C   UNL d   1       0.610  -3.763   0.606  0.00  0.00     0.218 C 
ATOM      9  O   UNL d   1      -0.555  -3.891   0.965  0.00  0.00    -0.274 OA
ATOM     10  C   UNL d   1       1.500  -4.973   0.465  0.00  0.00     0.117 C 
ATOM     11  H   UNL d   1       2.267  -2.622   0.248  0.00  0.00     0.169 HD
ENDBRANCH   2   7
BRANCH   1  12
ATOM     12  C   UNL d   1       2.993  -0.174   0.316  0.00  0.00     0.419 C 
ATOM     13  F   UNL d   1       3.517  -1.434   0.297  0.00  0.00    -0.166 F 
ATOM     14  F   UNL d   1       3.585   0.482  -0.720  0.00  0.00    -0.166 F 
ATOM     15  F   UNL d   1       3.469   0.408   1.450  0.00  0.00    -0.166 F 
ENDBRANCH   1  12
BRANCH   4  16
ATOM     16  N   UNL d   1      -1.122   2.612   0.065  0.00  0.00    -0.116 N 
ATOM     17  O   UNL d   1      -0.365   3.592   0.126  0.00  0.00    -0.532 OA
ATOM     18  O   UNL d   1      -2.354   2.679  -0.037  0.00  0.00    -0.532 OA
ENDBRANCH   4  16
TORSDOF 3
