REMARK  6 active torsions:
REMARK  status: ('A' for Active; 'I' for Inactive)
REMARK    1  A    between atoms: N_6  and  C_2 
REMARK    2  A    between atoms: C_8  and  C_5 
REMARK    3  A    between atoms: N_9  and  N_6 
REMARK    4  A    between atoms: C_11  and  C_8 
REMARK    5  A    between atoms: O_19  and  C_11 
REMARK    6  A    between atoms: C_14  and  C_12 
ROOT
ATOM      1  N   UNL d   1       3.549  -0.382   0.043  0.00  0.00    -0.280 N 
ATOM      2  HN  UNL d   1       4.379  -0.745  -0.426  1.00  0.00     0.189 HD
ENDROOT
BRANCH   1   3
ATOM      3  C   UNL d   1       2.702  -1.145   0.644  0.00  0.00     0.162 A 
ATOM      4  N   UNL d   1       2.894  -2.484   0.667  0.00  0.00    -0.305 N 
ATOM      5  C   UNL d   1       2.048  -3.254   1.409  0.00  0.00     0.238 A 
ATOM      6  H   UNL d   1       3.688  -2.890   0.199  0.00  0.00     0.171 HD
ATOM      7  C   UNL d   1       0.964  -2.433   2.076  0.00  0.00     0.157 A 
ATOM      8  O   UNL d   1       2.198  -4.460   1.558  0.00  0.00    -0.272 OA
ATOM      9  S   UNL d   1       1.272  -0.714   1.528  0.00  0.00    -0.077 SA
BRANCH   7  10
ATOM     10  C   UNL d   1       1.091  -2.569   3.589  0.00  0.00     0.135 C 
BRANCH  10  11
ATOM     11  C   UNL d   1      -0.061  -1.914   4.299  0.00  0.00     0.141 C 
ATOM     12  O   UNL d   1      -1.206  -1.892   3.877  0.00  0.00    -0.650 OA
BRANCH  11  13
ATOM     13  O   UNL d   1       0.277  -1.390   5.498  0.00  0.00    -0.776 OA
ATOM     14  H   UNL d   1       1.218  -1.478   5.738  0.00  0.00     0.167 HD
ENDBRANCH  11  13
ENDBRANCH  10  11
ENDBRANCH   7  10
ENDBRANCH   1   3
BRANCH   1  15
ATOM     15  N   UNL d   1       3.246   0.974   0.084  0.00  0.00    -0.302 N 
ATOM     16  C   UNL d   1       4.277   1.769   0.044  0.00  0.00     0.032 C 
ATOM     17  C   UNL d   1       5.715   1.280   0.023  0.00  0.00     0.070 C 
ATOM     18  HN  UNL d   1       2.288   1.321   0.140  1.00  0.00     0.186 HD
BRANCH  16  19
ATOM     19  C   UNL d   1       4.046   3.256   0.025  0.00  0.00    -0.012 A 
ATOM     20  C   UNL d   1       2.732   3.751   0.054  0.00  0.00     0.016 A 
ATOM     21  C   UNL d   1       2.491   5.128   0.022  0.00  0.00     0.043 A 
ATOM     22  C   UNL d   1       3.562   6.011  -0.038  0.00  0.00     0.116 A 
ATOM     23  C   UNL d   1       4.869   5.543  -0.067  0.00  0.00     0.043 A 
ATOM     24  F   UNL d   1       3.334   7.329  -0.070  0.00  0.00    -0.206 F 
ATOM     25  C   UNL d   1       5.113   4.166  -0.036  0.00  0.00     0.016 A 
ENDBRANCH  16  19
ENDBRANCH   1  15
TORSDOF 6
