REMARK  7 active torsions:
REMARK  status: ('A' for Active; 'I' for Inactive)
REMARK    1  A    between atoms: C_6  and  C_2 
REMARK    2  A    between atoms: C_7  and  C_18 
REMARK    3  A    between atoms: O_20  and  C_7 
REMARK    4  A    between atoms: N_10  and  C_8 
REMARK    5  A    between atoms: C_21  and  C_17 
REMARK    6  A    between atoms: C_18  and  C_21 
REMARK    7  A    between atoms: C_24  and  O_20 
ROOT
ATOM      1  N   UNL d   1       1.466   1.283   0.196  0.00  0.00    -0.260 NA
ATOM      2  C   UNL d   1       2.318   0.082   0.094  0.00  0.00     0.239 A 
ATOM      3  O   UNL d   1       1.529  -1.142   0.080  0.00  0.00    -0.324 OA
ATOM      4  C   UNL d   1       0.187   0.695   0.131  0.00  0.00     0.045 A 
ATOM      5  C   UNL d   1       0.243  -0.683   0.084  0.00  0.00     0.092 A 
ATOM      6  C   UNL d   1      -1.028   1.352   0.112  0.00  0.00     0.033 A 
ATOM      7  C   UNL d   1      -0.885  -1.470   0.008  0.00  0.00     0.039 A 
ATOM      8  C   UNL d   1      -2.207   0.588   0.032  0.00  0.00    -0.056 A 
ATOM      9  C   UNL d   1      -2.123  -0.821  -0.018  0.00  0.00     0.010 A 
ATOM     10  H   UNL d   1       1.597   1.911  -0.592  0.00  0.00     0.130 HD
ENDROOT
BRANCH   2  11
ATOM     11  C   UNL d   1       3.200   0.164  -1.140  0.00  0.00    -0.015 A 
ATOM     12  C   UNL d   1       4.460   0.766  -1.077  0.00  0.00     0.013 A 
ATOM     13  C   UNL d   1       5.280   0.840  -2.216  0.00  0.00     0.030 A 
ATOM     14  C   UNL d   1       4.888   0.325  -3.463  0.00  0.00     0.029 A 
ATOM     15  C   UNL d   1       3.608  -0.252  -3.506  0.00  0.00     0.030 A 
ATOM     16  C   UNL d   1       2.777  -0.324  -2.380  0.00  0.00     0.013 A 
BRANCH  14  17
ATOM     17  N   UNL d   1       5.715   0.334  -4.575  0.00  0.00    -0.390 N 
ATOM     18  C   UNL d   1       5.173   0.432  -5.929  0.00  0.00     0.149 C 
ATOM     19  C   UNL d   1       7.152   0.566  -4.474  0.00  0.00     0.149 C 
ENDBRANCH  14  17
ENDBRANCH   2  11
BRANCH   8  20
ATOM     20  C   UNL d   1      -3.559   1.262   0.038  0.00  0.00     0.048 C 
BRANCH  20  21
ATOM     21  C   UNL d   1      -3.752   2.211  -1.142  0.00  0.00     0.116 C 
BRANCH  21  22
ATOM     22  C   UNL d   1      -5.152   2.768  -1.159  0.00  0.00     0.259 C 
ATOM     23  O   UNL d   1      -6.033   2.502  -0.355  0.00  0.00    -0.265 OA
BRANCH  22  24
ATOM     24  O   UNL d   1      -5.301   3.552  -2.265  0.00  0.00    -0.322 OA
BRANCH  24  25
ATOM     25  C   UNL d   1      -6.658   3.826  -2.641  0.00  0.00     0.174 C 
ATOM     26  C   UNL d   1      -7.134   2.690  -3.526  0.00  0.00     0.034 C 
ENDBRANCH  24  25
ENDBRANCH  22  24
ENDBRANCH  21  22
ENDBRANCH  20  21
ENDBRANCH   8  20
TORSDOF 7
