REMARK  2 active torsions:
REMARK  status: ('A' for Active; 'I' for Inactive)
REMARK    1  A    between atoms: C_3  and  C_1 
REMARK       I    between atoms: N_8  and  C_3 
REMARK    2  A    between atoms: C_10  and  N_8 
ROOT
ATOM      1  C   UNL d   1       4.506  -2.079  -0.739  0.00  0.00     0.274 C 
ATOM      2  N   UNL d   1       3.792  -1.115  -0.049  0.00  0.00    -0.322 N 
ATOM      3  O   UNL d   1       5.554  -1.902  -1.351  0.00  0.00    -0.266 OA
ATOM      4  H   UNL d   1       3.000  -1.459   0.487  0.00  0.00     0.169 HD
ENDROOT
BRANCH   2   5
ATOM      5  C   UNL d   1       4.044   0.271  -0.011  0.00  0.00     0.035 A 
ATOM      6  C   UNL d   1       4.993   0.905  -0.819  0.00  0.00     0.031 A 
ATOM      7  C   UNL d   1       5.169   2.292  -0.756  0.00  0.00     0.026 A 
ATOM      8  C   UNL d   1       4.400   3.050   0.121  0.00  0.00     0.034 A 
ATOM      9  C   UNL d   1       3.456   2.433   0.935  0.00  0.00     0.026 A 
ATOM     10 CL   UNL d   1       4.616   4.755   0.193  0.00  0.00    -0.084 Cl
ATOM     11  C   UNL d   1       3.273   1.047   0.864  0.00  0.00     0.031 A 
ENDBRANCH   2   5
BRANCH   1  12
ATOM     12  C   UNL d   1       3.891  -3.403  -0.678  0.00  0.00     0.121 A 
ATOM     13  N   UNL d   1       2.672  -3.613  -0.032  0.00  0.00    -0.287 N 
ATOM     14  N   UNL d   1       2.277  -4.872  -0.124  0.00  0.00    -0.061 NA
ATOM     15  HN  UNL d   1       2.149  -2.884   0.453  1.00  0.00     0.183 HD
ATOM     16  S   UNL d   1       3.353  -5.832  -0.974  0.00  0.00    -0.010 SA
ATOM     17  C   UNL d   1       4.436  -4.538  -1.259  0.00  0.00     0.101 A 
ENDBRANCH   1  12
TORSDOF 2
