REMARK  4 active torsions:
REMARK  status: ('A' for Active; 'I' for Inactive)
REMARK    1  A    between atoms: S_10  and  C_3 
REMARK    2  A    between atoms: C_8  and  C_7 
REMARK    3  A    between atoms: C_14  and  C_8 
REMARK    4  A    between atoms: C_9  and  S_10 
ROOT
ATOM      1  N   UNL d   1      -4.720   5.441  -1.354  0.00  0.00    -0.335 N 
ATOM      2  HN  UNL d   1      -4.414   4.944  -2.190  1.00  0.00     0.168 HD
ATOM      3  C   UNL d   1      -5.408   4.967  -0.344  0.00  0.00     0.149 A 
ATOM      4  N   UNL d   1      -5.622   5.896   0.629  0.00  0.00    -0.335 N 
ATOM      5  C   UNL d   1      -4.505   6.761  -1.032  0.00  0.00     0.061 A 
ATOM      6  C   UNL d   1      -5.052   7.072   0.211  0.00  0.00     0.061 A 
ATOM      7  C   UNL d   1      -3.849   7.763  -1.763  0.00  0.00     0.038 A 
ATOM      8  C   UNL d   1      -4.972   8.341   0.785  0.00  0.00     0.032 A 
ATOM      9  C   UNL d   1      -3.761   9.059  -1.223  0.00  0.00    -0.060 A 
ATOM     10  C   UNL d   1      -4.316   9.329   0.037  0.00  0.00     0.009 A 
ATOM     11  C   UNL d   1      -3.102  10.162  -2.000  0.00  0.00     0.048 C 
ATOM     12  H   UNL d   1      -6.100   5.719   1.501  0.00  0.00     0.168 HD
ENDROOT
BRANCH   3  13
ATOM     13  S   UNL d   1      -6.022   3.365  -0.153  0.00  0.00    -0.066 SA
BRANCH  13  14
ATOM     14  C   UNL d   1      -4.497   2.567   0.003  0.00  0.00     0.057 C 
ATOM     15  C   UNL d   1      -3.677   2.582   1.066  0.00  0.00     0.063 C 
BRANCH  15  16
ATOM     16  C   UNL d   1      -3.915   3.314   2.344  0.00  0.00     0.182 C 
ATOM     17  O   UNL d   1      -5.050   3.543   2.754  0.00  0.00    -0.288 OA
BRANCH  16  18
ATOM     18  C   UNL d   1      -2.740   3.810   3.127  0.00  0.00     0.014 A 
ATOM     19  C   UNL d   1      -3.007   4.588   4.265  0.00  0.00     0.015 A 
ATOM     20  C   UNL d   1      -1.968   5.158   5.003  0.00  0.00     0.001 A 
ATOM     21  C   UNL d   1      -0.647   4.947   4.619  0.00  0.00     0.000 A 
ATOM     22  C   UNL d   1      -0.365   4.157   3.506  0.00  0.00     0.001 A 
ATOM     23  C   UNL d   1      -1.405   3.592   2.759  0.00  0.00     0.015 A 
ENDBRANCH  16  18
ENDBRANCH  15  16
ENDBRANCH  13  14
ENDBRANCH   3  13
TORSDOF 4
