REMARK  6 active torsions:
REMARK  status: ('A' for Active; 'I' for Inactive)
REMARK    1  A    between atoms: C_16  and  N_3 
REMARK    2  A    between atoms: C_14  and  C_8 
REMARK    3  A    between atoms: O_15  and  C_11 
REMARK    4  A    between atoms: C_19  and  O_15 
REMARK    5  A    between atoms: C_17  and  C_19 
REMARK    6  A    between atoms: C_18  and  C_17 
ROOT
ATOM      1  C   UNL d   1       0.066  -0.581   0.004  0.00  0.00     0.142 A 
ATOM      2  C   UNL d   1      -0.290   0.768  -0.029  0.00  0.00     0.046 A 
ATOM      3  N   UNL d   1      -1.102  -1.332  -0.065  0.00  0.00    -0.239 N 
ATOM      4  N   UNL d   1      -2.187  -0.527  -0.180  0.00  0.00    -0.296 N 
ATOM      5  HN  UNL d   1      -3.163  -0.816  -0.253  1.00  0.00     0.187 HD
ATOM      6  N   UNL d   1       1.315  -1.074   0.076  0.00  0.00    -0.320 N 
ATOM      7  HN  UNL d   1       1.495  -2.077   0.053  1.00  0.00     0.169 HD
ATOM      8  C   UNL d   1       0.770   1.721   0.071  0.00  0.00     0.015 A 
ATOM      9  C   UNL d   1      -1.715   0.723  -0.179  0.00  0.00     0.037 A 
ATOM     10  C   UNL d   1       2.089   1.188   0.233  0.00  0.00     0.107 A 
ATOM     11  C   UNL d   1       2.307  -0.190   0.178  0.00  0.00     0.166 A 
ATOM     12  C   UNL d   1       3.188   2.063   0.488  0.00  0.00     0.104 C 
ATOM     13  N   UNL d   1       4.118   2.754   0.622  0.00  0.00    -0.191 NA
ATOM     14  C   UNL d   1      -2.732   1.802  -0.306  0.00  0.00     0.070 C 
ENDROOT
BRANCH  11  15
ATOM     15  O   UNL d   1       3.511  -0.830   0.308  0.00  0.00    -0.327 OA
BRANCH  15  16
ATOM     16  C   UNL d   1       4.606  -0.323  -0.441  0.00  0.00     0.261 C 
BRANCH  16  17
ATOM     17  C   UNL d   1       5.570  -1.386  -0.967  0.00  0.00     0.183 C 
ATOM     18  O   UNL d   1       5.354  -2.594  -0.882  0.00  0.00    -0.290 OA
BRANCH  17  19
ATOM     19  C   UNL d   1       6.835  -0.911  -1.625  0.00  0.00     0.012 A 
ATOM     20  C   UNL d   1       7.140   0.453  -1.759  0.00  0.00     0.017 A 
ATOM     21  C   UNL d   1       8.328   0.856  -2.381  0.00  0.00     0.025 A 
ATOM     22  C   UNL d   1       9.215  -0.098  -2.872  0.00  0.00     0.034 A 
ATOM     23  C   UNL d   1       8.928  -1.455  -2.745  0.00  0.00     0.025 A 
ATOM     24 CL   UNL d   1      10.669   0.405  -3.639  0.00  0.00    -0.084 Cl
ATOM     25  C   UNL d   1       7.740  -1.861  -2.122  0.00  0.00     0.017 A 
ENDBRANCH  17  19
ENDBRANCH  16  17
ENDBRANCH  15  16
ENDBRANCH  11  15
BRANCH   8  26
ATOM     26  C   UNL d   1       0.506   3.181  -0.008  0.00  0.00    -0.023 A 
ATOM     27  C   UNL d   1      -0.495   3.801   0.758  0.00  0.00     0.014 A 
ATOM     28  C   UNL d   1      -0.790   5.164   0.613  0.00  0.00     0.024 A 
ATOM     29  C   UNL d   1      -0.023   5.956  -0.234  0.00  0.00     0.034 A 
ATOM     30  C   UNL d   1       1.027   5.393  -0.946  0.00  0.00     0.024 A 
ATOM     31 CL   UNL d   1      -0.378   7.629  -0.407  0.00  0.00    -0.084 Cl
ATOM     32  C   UNL d   1       1.265   4.016  -0.856  0.00  0.00     0.014 A 
ENDBRANCH   8  26
BRANCH   3  33
ATOM     33  C   UNL d   1      -1.264  -2.752  -0.047  0.00  0.00     0.058 A 
ATOM     34  C   UNL d   1      -0.178  -3.619   0.136  0.00  0.00     0.031 A 
ATOM     35  C   UNL d   1      -0.360  -5.003   0.103  0.00  0.00     0.002 A 
ATOM     36  C   UNL d   1      -1.627  -5.538  -0.105  0.00  0.00     0.000 A 
ATOM     37  C   UNL d   1      -2.720  -4.689  -0.266  0.00  0.00     0.002 A 
ATOM     38  C   UNL d   1      -2.544  -3.303  -0.233  0.00  0.00     0.031 A 
ENDBRANCH   3  33
TORSDOF 6
