REMARK  2 active torsions:
REMARK  status: ('A' for Active; 'I' for Inactive)
REMARK    1  A    between atoms: N_8  and  C_1 
REMARK       I    between atoms: C_2  and  N_7 
REMARK       I    between atoms: N_9  and  C_2 
REMARK    2  A    between atoms: C_10  and  N_9 
ROOT
ATOM      1  C   UNL d   1      -3.249   2.149   3.804  0.00  0.00     0.323 C 
ATOM      2  N   UNL d   1      -2.187   2.409   2.935  0.00  0.00    -0.331 N 
ATOM      3  N   UNL d   1       0.110   2.548   1.049  0.00  0.00     0.105 N 
ATOM      4  N   UNL d   1      -4.198   3.148   3.874  0.00  0.00    -0.308 N 
ATOM      5  O   UNL d   1      -3.267   1.127   4.485  0.00  0.00    -0.247 OA
ATOM      6  C   UNL d   1      -1.176   1.353   2.876  0.00  0.00     0.158 C 
ATOM      7  C   UNL d   1      -2.283   3.242   1.730  0.00  0.00     0.158 C 
ATOM      8  C   UNL d   1      -0.916   3.597   1.085  0.00  0.00     0.293 C 
ATOM      9  C   UNL d   1       0.166   1.863   2.353  0.00  0.00     0.293 C 
ATOM     10  H   UNL d   1      -3.907   4.027   3.491  0.00  0.00     0.170 HD
ENDROOT
BRANCH   3  11
ATOM     11  C   UNL d   1       0.150   1.704  -0.163  0.00  0.00     0.290 C 
ATOM     12  C   UNL d   1       1.246   0.636  -0.063  0.00  0.00    -0.009 A 
ATOM     13  C   UNL d   1       0.667  -0.653  -0.033  0.00  0.00    -0.017 A 
ATOM     14  C   UNL d   1       2.616   0.818   0.057  0.00  0.00     0.010 A 
ATOM     15  C   UNL d   1       1.460  -1.774   0.137  0.00  0.00     0.013 A 
ATOM     16  C   UNL d   1      -0.757  -0.529  -0.259  0.00  0.00    -0.017 C 
ATOM     17  C   UNL d   1       2.842  -1.597   0.268  0.00  0.00     0.001 A 
ATOM     18  C   UNL d   1       3.415  -0.315   0.221  0.00  0.00     0.001 A 
ATOM     19  C   UNL d   1      -1.069   0.834  -0.456  0.00  0.00    -0.009 C 
ATOM     20  C   UNL d   1      -1.739  -1.500  -0.364  0.00  0.00     0.013 C 
ATOM     21  C   UNL d   1      -2.314   1.209  -0.941  0.00  0.00     0.010 C 
ATOM     22  C   UNL d   1      -3.299   0.229  -1.074  0.00  0.00     0.001 C 
ATOM     23  C   UNL d   1      -3.023  -1.109  -0.753  0.00  0.00     0.001 C 
ENDBRANCH   3  11
BRANCH   4  24
ATOM     24  C   UNL d   1      -5.269   3.208   4.805  0.00  0.00     0.045 C 
ATOM     25  C   UNL d   1      -5.697   2.080   5.516  0.00  0.00     0.072 C 
ATOM     26  C   UNL d   1      -6.598   2.210   6.570  0.00  0.00     0.118 C 
ATOM     27  F   UNL d   1      -6.965   1.123   7.260  0.00  0.00    -0.206 F 
ATOM     28  C   UNL d   1      -7.107   3.445   6.923  0.00  0.00     0.043 C 
ATOM     29  C   UNL d   1      -6.762   4.563   6.165  0.00  0.00     0.012 C 
ATOM     30  C   UNL d   1      -5.882   4.453   5.072  0.00  0.00    -0.035 C 
ATOM     31  C   UNL d   1      -5.597   5.707   4.288  0.00  0.00     0.050 C 
ENDBRANCH   4  24
TORSDOF 2
