REMARK  2 active torsions:
REMARK  status: ('A' for Active; 'I' for Inactive)
REMARK    1  A    between atoms: C_8  and  C_1 
REMARK    2  A    between atoms: O_11  and  C_2 
ROOT
ATOM      1  C   UNL d   1       2.409   0.768  -0.051  0.00  0.00     0.076 A 
ATOM      2  C   UNL d   1       1.237   1.439  -0.047  0.00  0.00     0.094 A 
ATOM      3  C   UNL d   1       2.405  -0.732  -0.011  0.00  0.00     0.259 A 
ATOM      4  N   UNL d   1       1.191  -1.357   0.046  0.00  0.00    -0.322 N 
ATOM      5  C   UNL d   1      -0.047   0.715  -0.010  0.00  0.00     0.025 A 
ATOM      6  C   UNL d   1      -0.033  -0.683   0.041  0.00  0.00     0.048 A 
ATOM      7  C   UNL d   1      -1.284   1.369  -0.036  0.00  0.00     0.017 A 
ATOM      8  O   UNL d   1       3.443  -1.390  -0.029  0.00  0.00    -0.267 OA
ATOM      9  C   UNL d   1      -1.220  -1.420   0.071  0.00  0.00     0.037 A 
ATOM     10  C   UNL d   1      -2.477   0.637  -0.015  0.00  0.00     0.008 A 
ATOM     11  C   UNL d   1      -2.454  -0.761   0.043  0.00  0.00    -0.060 A 
ATOM     12  C   UNL d   1      -3.741  -1.532   0.038  0.00  0.00     0.048 C 
ATOM     13  H   UNL d   1       1.220  -2.367   0.071  0.00  0.00     0.169 HD
ENDROOT
BRANCH   1  14
ATOM     14  C   UNL d   1       3.698   1.479  -0.099  0.00  0.00    -0.018 A 
ATOM     15  C   UNL d   1       4.350   1.841   1.086  0.00  0.00     0.012 A 
ATOM     16  C   UNL d   1       5.559   2.537   1.037  0.00  0.00     0.001 A 
ATOM     17  C   UNL d   1       6.120   2.877  -0.193  0.00  0.00     0.000 A 
ATOM     18  C   UNL d   1       5.475   2.522  -1.377  0.00  0.00     0.001 A 
ATOM     19  C   UNL d   1       4.266   1.825  -1.332  0.00  0.00     0.012 A 
ENDBRANCH   1  14
BRANCH   2  20
ATOM     20  O   UNL d   1       1.130   2.819  -0.079  0.00  0.00    -0.359 OA
ATOM     21  H   UNL d   1       2.023   3.204  -0.106  0.00  0.00     0.217 HD
ENDBRANCH   2  20
TORSDOF 2
