REMARK  4 active torsions:
REMARK  status: ('A' for Active; 'I' for Inactive)
REMARK    1  A    between atoms: C_3  and  C_1 
REMARK    2  A    between atoms: C_11  and  C_2 
REMARK    3  A    between atoms: C_8  and  C_3 
REMARK    4  A    between atoms: O_17  and  C_14 
ROOT
ATOM      1  C   UNL d   1      -2.357  -0.798   0.116  0.00  0.00     0.042 A 
ATOM      2  C   UNL d   1      -1.141  -1.493  -0.076  0.00  0.00     0.002 A 
ATOM      3  C   UNL d   1      -2.318   0.576   0.310  0.00  0.00     0.104 A 
ATOM      4  N   UNL d   1      -1.197   1.320   0.289  0.00  0.00    -0.364 N 
ATOM      5  HN  UNL d   1      -1.234   2.330   0.424  1.00  0.00     0.165 HD
ATOM      6  C   UNL d   1       0.069  -0.704  -0.129  0.00  0.00     0.003 A 
ATOM      7  C   UNL d   1      -0.036   0.694   0.084  0.00  0.00     0.043 A 
ATOM      8  C   UNL d   1       1.373  -1.215  -0.382  0.00  0.00     0.014 A 
ATOM      9  C   UNL d   1       1.106   1.482   0.095  0.00  0.00     0.030 A 
ATOM     10  C   UNL d   1       2.511  -0.407  -0.350  0.00  0.00     0.001 A 
ATOM     11  C   UNL d   1       2.377   0.948  -0.102  0.00  0.00     0.002 A 
ENDROOT
BRANCH   1  12
ATOM     12  C   UNL d   1      -3.691  -1.435   0.224  0.00  0.00     0.194 C 
ATOM     13  O   UNL d   1      -3.840  -2.380   0.999  0.00  0.00    -0.287 OA
BRANCH  12  14
ATOM     14  C   UNL d   1      -4.874  -0.905  -0.518  0.00  0.00     0.015 A 
ATOM     15  C   UNL d   1      -6.155  -1.193  -0.024  0.00  0.00     0.018 A 
ATOM     16  C   UNL d   1      -7.298  -0.691  -0.658  0.00  0.00     0.037 A 
ATOM     17  C   UNL d   1      -7.171   0.096  -1.804  0.00  0.00     0.068 A 
ATOM     18  C   UNL d   1      -5.898   0.392  -2.293  0.00  0.00     0.037 A 
ATOM     19  C   UNL d   1      -4.752  -0.116  -1.671  0.00  0.00     0.018 A 
BRANCH  17  20
ATOM     20  O   UNL d   1      -8.211   0.651  -2.495  0.00  0.00    -0.356 OA
ATOM     21  C   UNL d   1      -9.437  -0.070  -2.447  0.00  0.00     0.210 C 
ENDBRANCH  17  20
ENDBRANCH  12  14
ENDBRANCH   1  12
BRANCH   2  22
ATOM     22  C   UNL d   1      -1.086  -2.979  -0.200  0.00  0.00    -0.024 A 
ATOM     23  C   UNL d   1      -1.871  -3.682  -1.130  0.00  0.00     0.012 A 
ATOM     24  C   UNL d   1      -1.776  -5.075  -1.258  0.00  0.00     0.001 A 
ATOM     25  C   UNL d   1      -0.871  -5.793  -0.482  0.00  0.00     0.000 A 
ATOM     26  C   UNL d   1      -0.090  -5.126   0.454  0.00  0.00     0.001 A 
ATOM     27  C   UNL d   1      -0.221  -3.742   0.613  0.00  0.00     0.012 A 
ENDBRANCH   2  22
TORSDOF 4
