REMARK  2 active torsions:
REMARK  status: ('A' for Active; 'I' for Inactive)
REMARK       I    between atoms: C_2  and  N_1 
REMARK       I    between atoms: N_7  and  C_2 
REMARK    1  A    between atoms: C_11  and  C_4 
REMARK    2  A    between atoms: C_20  and  N_7 
ROOT
ATOM      1  N   UNL d   1      -2.555   0.353  -0.290  0.00  0.00    -0.321 N 
ATOM      2  C   UNL d   1      -3.491   0.570  -1.286  0.00  0.00     0.319 C 
ATOM      3  C   UNL d   1      -0.199   0.794   0.204  0.00  0.00    -0.017 A 
ATOM      4  C   UNL d   1      -1.606   1.345   0.267  0.00  0.00     0.156 C 
ATOM      5  C   UNL d   1       0.066  -0.552   0.024  0.00  0.00    -0.007 A 
ATOM      6  C   UNL d   1      -2.373  -1.035   0.185  0.00  0.00     0.134 C 
ATOM      7  N   UNL d   1      -3.601   1.848  -1.766  0.00  0.00    -0.339 N 
ATOM      8  S   UNL d   1       1.727  -0.906  -0.040  0.00  0.00    -0.106 SA
ATOM      9  C   UNL d   1      -0.984  -1.603  -0.158  0.00  0.00     0.067 C 
ATOM     10  C   UNL d   1       1.022   1.547   0.254  0.00  0.00     0.018 A 
ATOM     11  C   UNL d   1       2.137   0.747   0.123  0.00  0.00     0.051 A 
ATOM     12  O   UNL d   1      -4.178  -0.340  -1.751  0.00  0.00    -0.247 OA
ATOM     13  H   UNL d   1      -3.266   2.599  -1.189  0.00  0.00     0.164 HD
ENDROOT
BRANCH   4  14
ATOM     14  C   UNL d   1      -1.930   1.714   1.718  0.00  0.00    -0.031 A 
ATOM     15  C   UNL d   1      -2.850   2.754   1.954  0.00  0.00     0.011 A 
ATOM     16  C   UNL d   1      -3.238   3.107   3.251  0.00  0.00     0.024 A 
ATOM     17  C   UNL d   1      -2.716   2.418   4.343  0.00  0.00     0.034 A 
ATOM     18  C   UNL d   1      -1.803   1.391   4.146  0.00  0.00     0.024 A 
ATOM     19 CL   UNL d   1      -3.217   2.833   5.936  0.00  0.00    -0.084 Cl
ATOM     20  C   UNL d   1      -1.414   1.037   2.848  0.00  0.00     0.011 A 
ENDBRANCH   4  14
BRANCH   7  21
ATOM     21  C   UNL d   1      -4.511   2.259  -2.838  0.00  0.00     0.078 C 
ATOM     22  C   UNL d   1      -4.266   1.523  -4.154  0.00  0.00     0.032 C 
ATOM     23  C   UNL d   1      -5.985   2.183  -2.439  0.00  0.00     0.032 C 
ENDBRANCH   7  21
TORSDOF 2
