REMARK  1 active torsions:
REMARK  status: ('A' for Active; 'I' for Inactive)
REMARK    1  A    between atoms: C_4  and  N_2 
ROOT
ATOM      1  C   UNL d   1       1.957  -2.670   0.046  0.00  0.00     0.055 A 
ATOM      2  C   UNL d   1       2.771  -2.069   1.022  0.00  0.00     0.060 A 
ATOM      3 CL   UNL d   1       2.135  -0.889   2.117  0.00  0.00    -0.082 Cl
ATOM      4  C   UNL d   1       2.526  -3.651  -0.778  0.00  0.00     0.031 A 
ATOM      5  C   UNL d   1       4.122  -2.413   1.143  0.00  0.00     0.026 A 
ATOM      6  C   UNL d   1       3.880  -3.982  -0.672  0.00  0.00     0.002 A 
ATOM      7  C   UNL d   1       4.678  -3.363   0.287  0.00  0.00     0.002 A 
ENDROOT
BRANCH   1   8
ATOM      8  N   UNL d   1       0.588  -2.358  -0.050  0.00  0.00    -0.344 N 
ATOM      9  C   UNL d   1       0.096  -1.745  -1.077  0.00  0.00     0.108 C 
ATOM     10  S   UNL d   1       0.928  -1.262  -2.538  0.00  0.00    -0.104 SA
ATOM     11  S   UNL d   1      -1.611  -1.341  -1.059  0.00  0.00    -0.104 SA
ATOM     12  C   UNL d   1      -0.457  -0.367  -3.283  0.00  0.00     0.092 C 
ATOM     13  C   UNL d   1      -1.746  -1.020  -2.831  0.00  0.00     0.092 C 
ATOM     14  HN  UNL d   1      -0.034  -2.624   0.714  1.00  0.00     0.167 HD
ENDBRANCH   1   8
TORSDOF 1
