REMARK  7 active torsions:
REMARK  status: ('A' for Active; 'I' for Inactive)
REMARK    1  A    between atoms: C_4  and  S_1 
REMARK    2  A    between atoms: C_5  and  S_1 
REMARK    3  A    between atoms: S_2  and  C_3 
REMARK    4  A    between atoms: C_11  and  S_2 
REMARK    5  A    between atoms: C_3  and  C_6 
REMARK    6  A    between atoms: C_6  and  C_4 
REMARK    7  A    between atoms: O_17  and  C_6 
ROOT
ATOM      1  C   UNL d   1       0.951  -1.469   2.326  0.00  0.00     0.146 C 
ENDROOT
BRANCH   1   2
ATOM      2  C   UNL d   1       2.478  -1.431   2.220  0.00  0.00     0.178 C 
BRANCH   2   3
ATOM      3  S   UNL d   1       3.296  -3.000   2.422  0.00  0.00     0.177 S 
ATOM      4  O   UNL d   1       4.706  -2.782   2.153  0.00  0.00    -0.223 OA
ATOM      5  O   UNL d   1       2.888  -3.580   3.687  0.00  0.00    -0.223 OA
BRANCH   3   6
ATOM      6  C   UNL d   1       2.670  -4.026   1.113  0.00  0.00     0.059 A 
ATOM      7  C   UNL d   1       3.345  -4.082  -0.111  0.00  0.00     0.023 A 
ATOM      8  C   UNL d   1       2.835  -4.878  -1.137  0.00  0.00     0.002 A 
ATOM      9  C   UNL d   1       1.666  -5.613  -0.937  0.00  0.00     0.000 A 
ATOM     10  C   UNL d   1       1.015  -5.577   0.297  0.00  0.00     0.002 A 
ATOM     11  C   UNL d   1       1.525  -4.796   1.333  0.00  0.00     0.023 A 
ENDBRANCH   3   6
ENDBRANCH   2   3
ENDBRANCH   1   2
BRANCH   1  12
ATOM     12  C   UNL d   1       0.257  -0.179   1.861  0.00  0.00     0.178 C 
BRANCH  12  13
ATOM     13  S   UNL d   1       0.552   0.137   0.148  0.00  0.00     0.177 S 
ATOM     14  O   UNL d   1       0.215  -1.073  -0.572  0.00  0.00    -0.223 OA
ATOM     15  O   UNL d   1       1.878   0.720   0.038  0.00  0.00    -0.223 OA
BRANCH  13  16
ATOM     16  C   UNL d   1      -0.554   1.393  -0.432  0.00  0.00     0.059 A 
ATOM     17  C   UNL d   1      -1.238   2.260   0.421  0.00  0.00     0.025 A 
ATOM     18  C   UNL d   1      -2.061   3.248  -0.138  0.00  0.00     0.025 A 
ATOM     19  C   UNL d   1      -2.190   3.358  -1.526  0.00  0.00     0.034 A 
ATOM     20  C   UNL d   1      -1.504   2.490  -2.370  0.00  0.00     0.025 A 
ATOM     21 CL   UNL d   1      -3.198   4.577  -2.200  0.00  0.00    -0.084 Cl
ATOM     22  C   UNL d   1      -0.686   1.505  -1.823  0.00  0.00     0.025 A 
ENDBRANCH  13  16
ENDBRANCH  12  13
ENDBRANCH   1  12
BRANCH   1  23
ATOM     23  O   UNL d   1       0.520  -1.688   3.675  0.00  0.00    -0.394 OA
ATOM     24  H   UNL d   1       1.091  -1.205   4.300  0.00  0.00     0.210 HD
ENDBRANCH   1  23
TORSDOF 7
