REMARK  1 active torsions:
REMARK  status: ('A' for Active; 'I' for Inactive)
REMARK    1  A    between atoms: C_5  and  C_2 
ROOT
ATOM      1  C   UNL d   1      -2.396   0.557  -0.366  0.00  0.00     0.018 C 
ATOM      2  C   UNL d   1      -3.344   0.997  -1.210  0.00  0.00     0.029 C 
ATOM      3  C   UNL d   1      -1.228   1.438  -0.123  0.00  0.00     0.193 C 
ATOM      4  C   UNL d   1       0.046   0.709   0.032  0.00  0.00     0.051 A 
ATOM      5  O   UNL d   1      -1.095  -1.453  -0.037  0.00  0.00    -0.346 OA
ATOM      6  C   UNL d   1       0.043  -0.691   0.022  0.00  0.00     0.083 A 
ATOM      7  C   UNL d   1      -2.288  -0.754   0.337  0.00  0.00     0.218 C 
ATOM      8  C   UNL d   1       1.250   1.415   0.084  0.00  0.00     0.060 A 
ATOM      9  O   UNL d   1      -1.296   2.657  -0.095  0.00  0.00    -0.287 OA
ATOM     10  C   UNL d   1       1.251  -1.389   0.019  0.00  0.00     0.041 A 
ATOM     11  C   UNL d   1       2.444   0.705   0.095  0.00  0.00     0.117 A 
ATOM     12  C   UNL d   1       2.456  -0.687   0.053  0.00  0.00     0.045 A 
ATOM     13  F   UNL d   1       3.606   1.370   0.120  0.00  0.00    -0.206 F 
ENDROOT
BRANCH   2  14
ATOM     14  C   UNL d   1      -4.475   0.183  -1.671  0.00  0.00     0.025 A 
ATOM     15  C   UNL d   1      -5.691   0.234  -0.981  0.00  0.00     0.128 A 
ATOM     16  F   UNL d   1      -5.815   1.006   0.109  0.00  0.00    -0.205 F 
ATOM     17  C   UNL d   1      -6.794  -0.511  -1.394  0.00  0.00     0.043 A 
ATOM     18  C   UNL d   1      -6.697  -1.331  -2.516  0.00  0.00     0.005 A 
ATOM     19  C   UNL d   1      -5.491  -1.406  -3.214  0.00  0.00     0.025 A 
ATOM     20  C   UNL d   1      -4.386  -0.656  -2.795  0.00  0.00     0.047 A 
ATOM     21 CL   UNL d   1      -2.922  -0.807  -3.706  0.00  0.00    -0.083 Cl
ENDBRANCH   2  14
TORSDOF 1
