REMARK  5 active torsions:
REMARK  status: ('A' for Active; 'I' for Inactive)
REMARK    1  A    between atoms: C_4  and  C_1 
REMARK       I    between atoms: C_2  and  N_3 
REMARK    2  A    between atoms: C_10  and  C_2 
REMARK    3  A    between atoms: N_3  and  C_16 
REMARK    4  A    between atoms: C_7  and  O_11 
REMARK    5  A    between atoms: O_11  and  C_12 
ROOT
ATOM      1  N   UNL d   1       4.209  -4.880  -0.484  0.00  0.00    -0.344 N 
ATOM      2  HN  UNL d   1       4.134  -5.334  -1.394  1.00  0.00     0.167 HD
ATOM      3  C   UNL d   1       3.117  -4.603   0.264  0.00  0.00     0.148 A 
ATOM      4  C   UNL d   1       5.582  -3.874   1.260  0.00  0.00     0.050 A 
ATOM      5  C   UNL d   1       5.408  -4.522   0.037  0.00  0.00     0.119 A 
ATOM      6  C   UNL d   1       3.175  -3.951   1.482  0.00  0.00     0.059 A 
ATOM      7  C   UNL d   1       4.426  -3.586   1.982  0.00  0.00     0.035 A 
ENDROOT
BRANCH   3   8
ATOM      8  O   UNL d   1       1.844  -4.935  -0.189  0.00  0.00    -0.294 OA
BRANCH   8   9
ATOM      9  C   UNL d   1       1.718  -5.954  -1.103  0.00  0.00     0.078 A 
ATOM     10  C   UNL d   1       2.468  -7.131  -1.054  0.00  0.00     0.053 A 
ATOM     11  C   UNL d   1       2.299  -8.126  -2.027  0.00  0.00     0.050 A 
ATOM     12  C   UNL d   1       1.313  -7.952  -3.010  0.00  0.00     0.016 A 
ATOM     13  C   UNL d   1       0.523  -6.800  -3.026  0.00  0.00     0.004 A 
ATOM     14  C   UNL d   1       0.727  -5.803  -2.073  0.00  0.00     0.037 A 
BRANCH  11  15
ATOM     15  C   UNL d   1       3.177  -9.350  -2.032  0.00  0.00     0.417 C 
ATOM     16  F   UNL d   1       4.123  -9.354  -1.052  0.00  0.00    -0.166 F 
ATOM     17  F   UNL d   1       3.859  -9.495  -3.203  0.00  0.00    -0.166 F 
ATOM     18  F   UNL d   1       2.469 -10.502  -1.868  0.00  0.00    -0.166 F 
ENDBRANCH  11  15
ENDBRANCH   8   9
ENDBRANCH   3   8
BRANCH   4  19
ATOM     19  N   UNL d   1       6.894  -3.542   1.682  0.00  0.00    -0.322 N 
ATOM     20  C   UNL d   1       7.229  -2.891   2.857  0.00  0.00     0.256 C 
ATOM     21  O   UNL d   1       6.443  -2.558   3.739  0.00  0.00    -0.267 OA
ATOM     22  H   UNL d   1       7.644  -3.843   1.079  0.00  0.00     0.169 HD
BRANCH  20  23
ATOM     23  C   UNL d   1       8.674  -2.583   3.074  0.00  0.00     0.032 A 
ATOM     24  C   UNL d   1       9.593  -2.418   2.031  0.00  0.00     0.017 A 
ATOM     25  C   UNL d   1      10.918  -2.071   2.317  0.00  0.00     0.001 A 
ATOM     26  C   UNL d   1      11.328  -1.879   3.637  0.00  0.00     0.000 A 
ATOM     27  C   UNL d   1      10.418  -2.037   4.679  0.00  0.00     0.001 A 
ATOM     28  C   UNL d   1       9.098  -2.387   4.399  0.00  0.00     0.017 A 
ENDBRANCH  20  23
ENDBRANCH   4  19
TORSDOF 5
