REMARK  3 active torsions:
REMARK  status: ('A' for Active; 'I' for Inactive)
REMARK    1  A    between atoms: C_5  and  N_1 
REMARK    2  A    between atoms: C_9  and  C_5 
REMARK    3  A    between atoms: C_11  and  C_9 
ROOT
ATOM      1  C   UNL d   1       0.183  -2.178   0.040  0.00  0.00     0.139 C 
ENDROOT
BRANCH   1   2
ATOM      2  N   UNL d   1       0.440  -0.743  -0.023  0.00  0.00    -0.293 N 
ATOM      3  C   UNL d   1       0.547   0.034  -1.145  0.00  0.00     0.176 A 
ATOM      4  N   UNL d   1       0.724   1.344  -0.758  0.00  0.00    -0.358 N 
ATOM      5  S   UNL d   1       0.482  -0.406  -2.742  0.00  0.00    -0.041 SA
ATOM      6  C   UNL d   1       0.719   1.489   0.671  0.00  0.00     0.225 A 
ATOM      7  H   UNL d   1       0.796   2.101  -1.428  0.00  0.00     0.162 HD
ATOM      8  C   UNL d   1       0.559   0.039   1.101  0.00  0.00     0.243 A 
ATOM      9  O   UNL d   1       0.526  -0.343   2.263  0.00  0.00    -0.271 OA
ENDBRANCH   1   2
BRANCH   1  10
ATOM     10  C   UNL d   1       1.464  -3.020  -0.041  0.00  0.00     0.059 C 
BRANCH  10  11
ATOM     11  C   UNL d   1       1.241  -4.521  -0.039  0.00  0.00    -0.057 A 
ATOM     12  C   UNL d   1       0.141  -5.117  -0.675  0.00  0.00     0.009 A 
ATOM     13  C   UNL d   1      -0.023  -6.505  -0.678  0.00  0.00     0.024 A 
ATOM     14  C   UNL d   1       0.926  -7.315  -0.065  0.00  0.00     0.034 A 
ATOM     15  C   UNL d   1       2.041  -6.749   0.546  0.00  0.00     0.024 A 
ATOM     16 CL   UNL d   1       0.725  -9.024  -0.075  0.00  0.00    -0.084 Cl
ATOM     17  C   UNL d   1       2.199  -5.359   0.556  0.00  0.00     0.009 A 
ENDBRANCH  10  11
ENDBRANCH   1  10
TORSDOF 3
