REMARK  5 active torsions:
REMARK  status: ('A' for Active; 'I' for Inactive)
REMARK    1  A    between atoms: N_5  and  C_1 
REMARK    2  A    between atoms: C_12  and  C_2 
REMARK       I    between atoms: C_6  and  N_5 
REMARK    3  A    between atoms: C_9  and  C_6 
REMARK    4  A    between atoms: C_10  and  C_11 
REMARK    5  A    between atoms: O_15  and  C_10 
ROOT
ATOM      1  C   UNL d   1      -1.512  -0.921   0.016  0.00  0.00     0.046 C 
ATOM      2  C   UNL d   1       0.966   0.595   0.125  0.00  0.00    -0.049 C 
ATOM      3  C   UNL d   1      -1.534   0.481   0.158  0.00  0.00    -0.034 C 
ATOM      4  C   UNL d   1      -0.232  -1.527  -0.152  0.00  0.00    -0.034 C 
ATOM      5  C   UNL d   1       0.961  -0.788  -0.012  0.00  0.00     0.017 C 
ATOM      6  C   UNL d   1      -0.294   1.198   0.219  0.00  0.00     0.017 C 
ATOM      7  C   UNL d   1      -2.713   1.415   0.168  0.00  0.00     0.050 C 
ATOM      8  C   UNL d   1      -0.038  -2.972  -0.560  0.00  0.00     0.050 C 
ENDROOT
BRANCH   1   9
ATOM      9  N   UNL d   1      -2.595  -1.855   0.053  0.00  0.00    -0.323 N 
ATOM     10  C   UNL d   1      -3.963  -1.758   0.141  0.00  0.00     0.245 C 
ATOM     11  O   UNL d   1      -4.682  -0.775   0.134  0.00  0.00    -0.268 OA
ATOM     12  H   UNL d   1      -2.267  -2.808   0.084  0.00  0.00     0.169 HD
BRANCH  10  13
ATOM     13  C   UNL d   1      -4.606  -3.111   0.223  0.00  0.00     0.081 C 
ATOM     14  C   UNL d   1      -5.931  -3.183   0.434  0.00  0.00     0.086 C 
BRANCH  14  15
ATOM     15  C   UNL d   1      -6.680  -4.443   0.583  0.00  0.00     0.165 C 
ATOM     16  O   UNL d   1      -7.594  -4.576   1.366  0.00  0.00    -0.647 OA
BRANCH  15  17
ATOM     17  O   UNL d   1      -6.261  -5.416  -0.257  0.00  0.00    -0.773 OA
ATOM     18  H   UNL d   1      -5.704  -5.104  -0.993  0.00  0.00     0.167 HD
ENDBRANCH  15  17
ENDBRANCH  14  15
ENDBRANCH  10  13
ENDBRANCH   1   9
BRANCH   2  19
ATOM     19  C   UNL d   1       2.274   1.407   0.080  0.00  0.00    -0.024 C 
ATOM     20  C   UNL d   1       3.429   0.617  -0.588  0.00  0.00     0.019 C 
ATOM     21  C   UNL d   1       2.101   2.701  -0.748  0.00  0.00     0.019 C 
ATOM     22  C   UNL d   1       2.722   1.785   1.504  0.00  0.00     0.019 C 
ENDBRANCH   2  19
TORSDOF 5
