REMARK  3 active torsions:
REMARK  status: ('A' for Active; 'I' for Inactive)
REMARK    1  A    between atoms: C_3  and  C_1 
REMARK       I    between atoms: N_11  and  C_3 
REMARK    2  A    between atoms: C_5  and  C_14 
REMARK    3  A    between atoms: C_17  and  N_11 
ROOT
ATOM      1  C   UNL d   1      -1.528  -2.823   0.192  0.00  0.00     0.259 C 
ATOM      2  N   UNL d   1      -0.341  -3.530   0.080  0.00  0.00    -0.323 N 
ATOM      3  O   UNL d   1      -2.647  -3.332   0.250  0.00  0.00    -0.267 OA
ATOM      4  H   UNL d   1       0.519  -3.000   0.191  0.00  0.00     0.169 HD
ENDROOT
BRANCH   2   5
ATOM      5  C   UNL d   1      -0.216  -4.906  -0.231  0.00  0.00     0.035 A 
ATOM      6  C   UNL d   1      -1.289  -5.688  -0.660  0.00  0.00     0.030 A 
ATOM      7  C   UNL d   1      -1.101  -7.015  -1.064  0.00  0.00     0.016 A 
ATOM      8  C   UNL d   1       0.169  -7.598  -1.047  0.00  0.00    -0.008 A 
ATOM      9  C   UNL d   1       1.239  -6.837  -0.557  0.00  0.00     0.016 A 
ATOM     10  C   UNL d   1       1.050  -5.497  -0.165  0.00  0.00     0.030 A 
BRANCH   8  11
ATOM     11  C   UNL d   1       0.381  -8.949  -1.551  0.00  0.00     0.063 A 
ATOM     12  N   UNL d   1       1.413  -9.756  -1.084  0.00  0.00    -0.292 N 
ATOM     13  N   UNL d   1       1.430 -10.936  -1.688  0.00  0.00    -0.061 NA
ATOM     14  HN  UNL d   1       2.078  -9.474  -0.364  1.00  0.00     0.183 HD
ATOM     15  S   UNL d   1       0.231 -11.098  -2.838  0.00  0.00    -0.010 SA
ATOM     16  C   UNL d   1      -0.385  -9.523  -2.556  0.00  0.00     0.096 A 
ENDBRANCH   8  11
ENDBRANCH   2   5
BRANCH   1  17
ATOM     17  C   UNL d   1      -1.449  -1.333   0.243  0.00  0.00     0.066 A 
ATOM     18  C   UNL d   1      -0.282  -0.588   0.128  0.00  0.00     0.092 A 
ATOM     19  O   UNL d   1       0.988  -1.097   0.023  0.00  0.00    -0.339 OA
ATOM     20  C   UNL d   1      -0.313   0.802   0.118  0.00  0.00    -0.021 A 
ATOM     21  C   UNL d   1       1.879   0.055  -0.058  0.00  0.00     0.064 A 
ATOM     22  C   UNL d   1       2.609  -0.011  -1.402  0.00  0.00     0.046 C 
ATOM     23  C   UNL d   1       2.876  -0.068   1.096  0.00  0.00     0.046 C 
ATOM     24  C   UNL d   1       1.057   1.355   0.059  0.00  0.00     0.079 A 
ATOM     25  C   UNL d   1      -1.504   1.506   0.199  0.00  0.00     0.010 A 
ATOM     26  C   UNL d   1      -2.685   0.785   0.340  0.00  0.00     0.002 A 
ATOM     27  C   UNL d   1      -2.655  -0.617   0.372  0.00  0.00     0.020 A 
ENDBRANCH   1  17
TORSDOF 3
