REMARK  6 active torsions:
REMARK  status: ('A' for Active; 'I' for Inactive)
REMARK    1  A    between atoms: N_4  and  N_1 
REMARK    2  A    between atoms: C_7  and  C_2 
REMARK    3  A    between atoms: S_3  and  N_4 
REMARK    4  A    between atoms: C_11  and  S_3 
REMARK    5  A    between atoms: O_19  and  C_10 
REMARK    6  A    between atoms: O_24  and  C_15 
ROOT
ATOM      1  N   UNL d   1       2.087  -0.146   0.152  0.00  0.00    -0.236 N 
ATOM      2  C   UNL d   1       1.814  -1.539  -0.202  0.00  0.00     0.242 C 
ATOM      3  C   UNL d   1       1.139   0.863   0.129  0.00  0.00     0.273 C 
ATOM      4  N   UNL d   1       0.451  -1.864   0.231  0.00  0.00    -0.363 N 
ATOM      5  C   UNL d   1      -0.266   0.441  -0.053  0.00  0.00     0.059 A 
ATOM      6  C   UNL d   1      -0.554  -0.927   0.001  0.00  0.00     0.045 A 
ATOM      7  O   UNL d   1       1.425   2.047   0.306  0.00  0.00    -0.266 OA
ATOM      8  C   UNL d   1      -1.290   1.391  -0.153  0.00  0.00     0.019 A 
ATOM      9  C   UNL d   1      -1.896  -1.324   0.022  0.00  0.00     0.030 A 
ATOM     10  C   UNL d   1      -2.620   0.973  -0.171  0.00  0.00     0.001 A 
ATOM     11  C   UNL d   1      -2.925  -0.382  -0.070  0.00  0.00     0.002 A 
ATOM     12  H   UNL d   1       0.191  -2.821   0.003  0.00  0.00     0.162 HD
ENDROOT
BRANCH   1  13
ATOM     13  N   UNL d   1       3.469   0.256   0.512  0.00  0.00    -0.118 NA
ATOM     14  H   UNL d   1       3.505   1.156   1.006  0.00  0.00     0.166 HD
BRANCH  13  15
ATOM     15  S   UNL d   1       4.699   0.235  -0.665  0.00  0.00     0.258 S 
ATOM     16  O   UNL d   1       5.864   0.867  -0.076  0.00  0.00    -0.204 OA
ATOM     17  O   UNL d   1       4.774  -1.080  -1.268  0.00  0.00    -0.204 OA
BRANCH  15  18
ATOM     18  C   UNL d   1       4.099   1.336  -1.919  0.00  0.00     0.076 A 
ATOM     19  C   UNL d   1       3.950   2.692  -1.633  0.00  0.00     0.025 A 
ATOM     20  C   UNL d   1       3.534   3.562  -2.641  0.00  0.00     0.008 A 
ATOM     21  C   UNL d   1       3.296   3.086  -3.939  0.00  0.00    -0.062 A 
ATOM     22  C   UNL d   1       3.466   1.724  -4.214  0.00  0.00     0.008 A 
ATOM     23  C   UNL d   1       2.897   4.041  -5.024  0.00  0.00     0.048 C 
ATOM     24  C   UNL d   1       3.866   0.847  -3.208  0.00  0.00     0.025 A 
ENDBRANCH  15  18
ENDBRANCH  13  15
ENDBRANCH   1  13
BRANCH   2  25
ATOM     25  C   UNL d   1       2.696  -2.558   0.498  0.00  0.00     0.021 A 
ATOM     26  C   UNL d   1       2.742  -2.681   1.906  0.00  0.00     0.109 A 
ATOM     27  C   UNL d   1       3.575  -3.628   2.519  0.00  0.00     0.102 A 
ATOM     28  C   UNL d   1       4.380  -4.442   1.714  0.00  0.00     0.039 A 
ATOM     29  C   UNL d   1       4.342  -4.344   0.325  0.00  0.00     0.004 A 
ATOM     30  C   UNL d   1       3.486  -3.429  -0.278  0.00  0.00     0.014 A 
BRANCH  26  31
ATOM     31  O   UNL d   1       1.953  -1.867   2.679  0.00  0.00    -0.357 OA
ATOM     32  H   UNL d   1       1.325  -1.395   2.104  0.00  0.00     0.217 HD
ENDBRANCH  26  31
BRANCH  27  33
ATOM     33  O   UNL d   1       3.722  -3.892   3.855  0.00  0.00    -0.353 OA
ATOM     34  C   UNL d   1       2.924  -3.160   4.774  0.00  0.00     0.210 C 
ENDBRANCH  27  33
ENDBRANCH   2  25
TORSDOF 6
