REMARK  5 active torsions:
REMARK  status: ('A' for Active; 'I' for Inactive)
REMARK    1  A    between atoms: N_7  and  C_2 
REMARK    2  A    between atoms: C_4  and  N_6 
REMARK    3  A    between atoms: N_13  and  C_4 
REMARK    4  A    between atoms: C_8  and  C_17 
REMARK    5  A    between atoms: C_26  and  N_13 
ROOT
ATOM      1  N   UNL d   1       2.222  -5.459  -0.577  0.00  0.00    -0.356 N 
ATOM      2  N   UNL d   1       1.501  -2.736  -0.035  0.00  0.00    -0.265 NA
ATOM      3  C   UNL d   1       0.870  -4.963  -0.878  0.00  0.00     0.140 C 
ATOM      4  C   UNL d   1       2.906  -4.692   0.483  0.00  0.00     0.140 C 
ATOM      5  C   UNL d   1       2.888  -3.178   0.225  0.00  0.00     0.117 C 
ATOM      6  C   UNL d   1       0.901  -3.453  -1.183  0.00  0.00     0.117 C 
ENDROOT
BRANCH   1   7
ATOM      7  C   UNL d   1       2.577  -6.790  -0.723  0.00  0.00     0.174 C 
ATOM      8  S   UNL d   1       1.548  -8.095  -0.534  0.00  0.00    -0.041 SA
BRANCH   7   9
ATOM      9  N   UNL d   1       3.909  -7.023  -0.963  0.00  0.00    -0.333 N 
ATOM     10  H   UNL d   1       4.229  -7.953  -0.711  0.00  0.00     0.168 HD
BRANCH   9  11
ATOM     11  C   UNL d   1       4.708  -6.362  -1.927  0.00  0.00     0.034 A 
ATOM     12  C   UNL d   1       6.073  -6.654  -1.954  0.00  0.00     0.030 A 
ATOM     13  C   UNL d   1       6.888  -6.144  -2.970  0.00  0.00     0.018 A 
ATOM     14  C   UNL d   1       6.345  -5.356  -3.994  0.00  0.00     0.048 A 
ATOM     15  C   UNL d   1       4.980  -5.041  -3.948  0.00  0.00     0.018 A 
ATOM     16  C   UNL d   1       4.171  -5.533  -2.918  0.00  0.00     0.030 A 
BRANCH  14  17
ATOM     17  C   UNL d   1       7.186  -4.894  -5.160  0.00  0.00     0.417 C 
ATOM     18  F   UNL d   1       8.504  -5.216  -5.041  0.00  0.00    -0.166 F 
ATOM     19  F   UNL d   1       6.776  -5.439  -6.339  0.00  0.00    -0.166 F 
ATOM     20  F   UNL d   1       7.145  -3.545  -5.338  0.00  0.00    -0.166 F 
ENDBRANCH  14  17
ENDBRANCH   9  11
ENDBRANCH   7   9
ENDBRANCH   1   7
BRANCH   2  21
ATOM     21  C   UNL d   1       1.355  -1.345  -0.112  0.00  0.00     0.103 A 
ATOM     22  C   UNL d   1       0.120  -0.698   0.085  0.00  0.00     0.070 A 
ATOM     23  S   UNL d   1      -1.432  -1.360   0.442  0.00  0.00    -0.096 SA
ATOM     24  C   UNL d   1       0.058   0.694   0.035  0.00  0.00     0.060 A 
ATOM     25  C   UNL d   1      -2.167   0.174   0.473  0.00  0.00     0.059 A 
ATOM     26  C   UNL d   1      -1.270   1.199   0.260  0.00  0.00    -0.027 A 
ATOM     27  C   UNL d   1      -1.642   2.643   0.271  0.00  0.00     0.051 C 
ATOM     28  N   UNL d   1       1.150   1.463  -0.192  0.00  0.00    -0.351 N 
ATOM     29  C   UNL d   1       2.282   0.774  -0.339  0.00  0.00     0.182 A 
ATOM     30  HN  UNL d   1       1.109   2.481  -0.246  1.00  0.00     0.166 HD
ATOM     31  N   UNL d   1       2.438  -0.558  -0.307  0.00  0.00    -0.342 N 
ATOM     32  HN  UNL d   1       3.362  -0.972  -0.428  1.00  0.00     0.167 HD
ENDBRANCH   2  21
TORSDOF 5
