REMARK  8 active torsions:
REMARK  status: ('A' for Active; 'I' for Inactive)
REMARK    1  A    between atoms: C_4  and  C_1 
REMARK    2  A    between atoms: C_6  and  N_2 
REMARK    3  A    between atoms: N_3  and  C_5 
REMARK       I    between atoms: C_12  and  N_13 
REMARK    4  A    between atoms: C_28  and  C_12 
REMARK    5  A    between atoms: N_13  and  C_26 
REMARK    6  A    between atoms: C_29  and  C_28 
REMARK    7  A    between atoms: C_31  and  C_29 
REMARK    8  A    between atoms: C_30  and  C_31 
ROOT
ATOM      1  N   UNL d   1      -0.985   5.957  -5.690  0.00  0.00    -0.364 N 
ATOM      2  N   UNL d   1      -0.584   3.373  -4.647  0.00  0.00    -0.364 N 
ATOM      3  C   UNL d   1      -1.705   5.536  -4.476  0.00  0.00     0.144 C 
ATOM      4  C   UNL d   1      -1.894   3.999  -4.453  0.00  0.00     0.144 C 
ATOM      5  C   UNL d   1       0.052   3.716  -5.928  0.00  0.00     0.144 C 
ATOM      6  C   UNL d   1       0.268   5.243  -5.990  0.00  0.00     0.144 C 
ENDROOT
BRANCH   1   7
ATOM      7  C   UNL d   1      -1.305   7.089  -6.393  0.00  0.00     0.103 A 
ATOM      8  N   UNL d   1      -0.934   7.161  -7.691  0.00  0.00    -0.350 N 
ATOM      9  C   UNL d   1      -1.358   8.222  -8.424  0.00  0.00     0.119 A 
ATOM     10  HN  UNL d   1      -0.351   6.436  -8.110  1.00  0.00     0.166 HD
ATOM     11  C   UNL d   1      -2.129   9.271  -7.935  0.00  0.00     0.050 A 
ATOM     12  C   UNL d   1      -2.455   9.214  -6.592  0.00  0.00     0.035 A 
ATOM     13  C   UNL d   1      -2.040   8.123  -5.821  0.00  0.00     0.051 A 
BRANCH  11  14
ATOM     14  N   UNL d   1      -2.552  10.296  -8.808  0.00  0.00    -0.326 N 
ATOM     15  C   UNL d   1      -3.344  11.381  -8.478  0.00  0.00     0.222 C 
ATOM     16  O   UNL d   1      -3.732  11.685  -7.354  0.00  0.00    -0.273 OA
ATOM     17  H   UNL d   1      -2.264  10.208  -9.775  0.00  0.00     0.169 HD
BRANCH  15  18
ATOM     18  C   UNL d   1      -3.725  12.244  -9.667  0.00  0.00     0.103 C 
BRANCH  18  19
ATOM     19  C   UNL d   1      -4.521  11.507 -10.742  0.00  0.00     0.009 C 
BRANCH  19  20
ATOM     20  C   UNL d   1      -5.819  10.887 -10.215  0.00  0.00     0.000 C 
BRANCH  20  21
ATOM     21  C   UNL d   1      -6.575  10.173 -11.337  0.00  0.00    -0.005 C 
ATOM     22  C   UNL d   1      -7.850   9.519 -10.831  0.00  0.00     0.005 C 
ENDBRANCH  20  21
ENDBRANCH  19  20
ENDBRANCH  18  19
ENDBRANCH  15  18
ENDBRANCH  11  14
ENDBRANCH   1   7
BRANCH   2  23
ATOM     23  C   UNL d   1      -0.258   2.240  -3.946  0.00  0.00     0.103 A 
ATOM     24  C   UNL d   1       1.077   1.915  -3.727  0.00  0.00     0.049 A 
ATOM     25  C   UNL d   1       1.414   0.836  -2.917  0.00  0.00     0.021 A 
ATOM     26  C   UNL d   1       0.405   0.068  -2.339  0.00  0.00     0.063 A 
ATOM     27  C   UNL d   1      -0.899   0.444  -2.610  0.00  0.00     0.106 A 
ATOM     28  N   UNL d   1      -1.241   1.506  -3.378  0.00  0.00    -0.352 N 
ATOM     29  HN  UNL d   1      -2.221   1.747  -3.525  1.00  0.00     0.166 HD
BRANCH  26  30
ATOM     30  C   UNL d   1       0.715  -1.089  -1.447  0.00  0.00     0.418 C 
ATOM     31  F   UNL d   1      -0.387  -1.753  -1.004  0.00  0.00    -0.166 F 
ATOM     32  F   UNL d   1       1.399  -0.713  -0.331  0.00  0.00    -0.166 F 
ATOM     33  F   UNL d   1       1.493  -2.024  -2.061  0.00  0.00    -0.166 F 
ENDBRANCH  26  30
ENDBRANCH   2  23
TORSDOF 8
