REMARK  3 active torsions:
REMARK  status: ('A' for Active; 'I' for Inactive)
REMARK    1  A    between atoms: C_11  and  N_4 
REMARK    2  A    between atoms: C_13  and  C_9 
REMARK    3  A    between atoms: C_14  and  C_11 
ROOT
ATOM      1  C   UNL d   1      -0.249   0.665  -0.017  0.00  0.00     0.067 A 
ATOM      2  C   UNL d   1      -0.122  -0.702   0.056  0.00  0.00     0.091 A 
ATOM      3  C   UNL d   1       0.959   1.466  -0.025  0.00  0.00     0.261 A 
ATOM      4  N   UNL d   1       2.131   0.715   0.060  0.00  0.00    -0.305 N 
ATOM      5  N   UNL d   1       1.035  -1.403   0.145  0.00  0.00    -0.346 N 
ATOM      6  HN  UNL d   1       1.064  -2.420   0.207  1.00  0.00     0.167 HD
ATOM      7  C   UNL d   1      -1.614   1.081  -0.053  0.00  0.00     0.039 A 
ATOM      8  S   UNL d   1      -1.632  -1.479   0.022  0.00  0.00    -0.071 SA
ATOM      9  C   UNL d   1      -2.494   0.013   0.000  0.00  0.00     0.018 A 
ATOM     10  C   UNL d   1       2.098  -0.667   0.145  0.00  0.00     0.187 A 
ATOM     11  O   UNL d   1       0.927   2.692  -0.090  0.00  0.00    -0.267 OA
ENDROOT
BRANCH   4  12
ATOM     12  C   UNL d   1       3.412   1.402   0.016  0.00  0.00     0.171 C 
BRANCH  12  13
ATOM     13  C   UNL d   1       3.904   1.563  -1.407  0.00  0.00    -0.040 A 
ATOM     14  C   UNL d   1       3.561   2.707  -2.147  0.00  0.00     0.012 A 
ATOM     15  C   UNL d   1       3.909   2.810  -3.495  0.00  0.00     0.043 A 
ATOM     16  C   UNL d   1       4.602   1.772  -4.104  0.00  0.00     0.116 A 
ATOM     17  C   UNL d   1       4.982   0.647  -3.383  0.00  0.00     0.043 A 
ATOM     18  F   UNL d   1       4.899   1.852  -5.408  0.00  0.00    -0.206 F 
ATOM     19  C   UNL d   1       4.638   0.542  -2.034  0.00  0.00     0.012 A 
ENDBRANCH  12  13
ENDBRANCH   4  12
BRANCH   9  20
ATOM     20  C   UNL d   1      -3.966   0.022   0.032  0.00  0.00    -0.019 A 
ATOM     21  C   UNL d   1      -4.688   1.022  -0.634  0.00  0.00     0.013 A 
ATOM     22  C   UNL d   1      -6.085   1.057  -0.575  0.00  0.00     0.001 A 
ATOM     23  C   UNL d   1      -6.780   0.093   0.152  0.00  0.00     0.000 A 
ATOM     24  C   UNL d   1      -6.080  -0.911   0.814  0.00  0.00     0.001 A 
ATOM     25  C   UNL d   1      -4.685  -0.945   0.756  0.00  0.00     0.013 A 
ENDBRANCH   9  20
TORSDOF 3
