REMARK  2 active torsions:
REMARK  status: ('A' for Active; 'I' for Inactive)
REMARK    1  A    between atoms: C_8  and  N_2 
REMARK    2  A    between atoms: C_7  and  C_5 
ROOT
ATOM      1  C   UNL d   1      -0.440  -1.128  -0.035  0.00  0.00     0.183 A 
ATOM      2  N   UNL d   1       0.930  -0.710   0.037  0.00  0.00    -0.297 N 
ATOM      3  N   UNL d   1      -1.181   0.071  -0.030  0.00  0.00    -0.331 N 
ATOM      4  C   UNL d   1       0.923   0.679   0.117  0.00  0.00     0.130 A 
ATOM      5  C   UNL d   1      -0.334   1.143   0.055  0.00  0.00     0.060 A 
ATOM      6  S   UNL d   1      -1.181  -2.610  -0.037  0.00  0.00    -0.040 SA
ATOM      7  H   UNL d   1      -2.188   0.106  -0.092  0.00  0.00     0.168 HD
ENDROOT
BRANCH   5   8
ATOM      8  C   UNL d   1      -0.786   2.533   0.049  0.00  0.00    -0.008 A 
ATOM      9  C   UNL d   1       0.005   3.537  -0.533  0.00  0.00     0.015 A 
ATOM     10  C   UNL d   1      -0.420   4.868  -0.547  0.00  0.00     0.024 A 
ATOM     11  C   UNL d   1      -1.646   5.207   0.018  0.00  0.00     0.034 A 
ATOM     12  C   UNL d   1      -2.451   4.225   0.591  0.00  0.00     0.024 A 
ATOM     13 CL   UNL d   1      -2.168   6.845   0.007  0.00  0.00    -0.084 Cl
ATOM     14  C   UNL d   1      -2.023   2.894   0.604  0.00  0.00     0.015 A 
ENDBRANCH   5   8
BRANCH   2  15
ATOM     15  C   UNL d   1       2.104  -1.509  -0.023  0.00  0.00     0.041 A 
ATOM     16  C   UNL d   1       2.151  -2.704  -0.749  0.00  0.00     0.030 A 
ATOM     17  C   UNL d   1       3.336  -3.438  -0.853  0.00  0.00     0.002 A 
ATOM     18  C   UNL d   1       4.494  -2.992  -0.224  0.00  0.00     0.000 A 
ATOM     19  C   UNL d   1       4.469  -1.808   0.505  0.00  0.00     0.002 A 
ATOM     20  C   UNL d   1       3.286  -1.069   0.597  0.00  0.00     0.030 A 
ENDBRANCH   2  15
TORSDOF 2
