REMARK  7 active torsions:
REMARK  status: ('A' for Active; 'I' for Inactive)
REMARK    1  A    between atoms: C_11  and  N_1 
REMARK    2  A    between atoms: S_14  and  C_2 
REMARK    3  A    between atoms: O_17  and  C_3 
REMARK    4  A    between atoms: S_4  and  C_10 
REMARK    5  A    between atoms: C_9  and  S_4 
REMARK    6  A    between atoms: C_10  and  C_18 
REMARK    7  A    between atoms: C_18  and  S_14 
ROOT
ATOM      1  N   UNL d   1       4.121   0.342  -1.621  0.00  0.00    -0.255 N 
ATOM      2  C   UNL d   1       3.636  -0.937  -1.385  0.00  0.00     0.169 A 
ATOM      3  C   UNL d   1       4.917   0.171  -2.748  0.00  0.00     0.245 A 
ATOM      4  N   UNL d   1       4.069  -1.769  -2.307  0.00  0.00    -0.276 N 
ATOM      5  HN  UNL d   1       3.844  -2.762  -2.371  1.00  0.00     0.189 HD
ATOM      6  N   UNL d   1       4.872  -1.072  -3.166  0.00  0.00    -0.263 N 
ATOM      7  HN  UNL d   1       5.351  -1.449  -3.984  1.00  0.00     0.190 HD
ENDROOT
BRANCH   2   8
ATOM      8  S   UNL d   1       2.468  -1.376  -0.181  0.00  0.00    -0.091 SA
BRANCH   8   9
ATOM      9  C   UNL d   1       2.542  -3.200  -0.217  0.00  0.00     0.098 C 
BRANCH   9  10
ATOM     10  C   UNL d   1       3.891  -3.849   0.074  0.00  0.00     0.156 C 
BRANCH  10  11
ATOM     11  S   UNL d   1       4.454  -3.554   1.731  0.00  0.00     0.176 S 
ATOM     12  O   UNL d   1       4.857  -2.166   1.859  0.00  0.00    -0.223 OA
ATOM     13  O   UNL d   1       3.482  -4.128   2.645  0.00  0.00    -0.223 OA
BRANCH  11  14
ATOM     14  C   UNL d   1       5.940  -4.527   1.865  0.00  0.00     0.059 A 
ATOM     15  C   UNL d   1       7.164  -3.958   1.505  0.00  0.00     0.024 A 
ATOM     16  C   UNL d   1       8.348  -4.658   1.749  0.00  0.00     0.008 A 
ATOM     17  C   UNL d   1       8.316  -5.923   2.352  0.00  0.00    -0.062 A 
ATOM     18  C   UNL d   1       7.079  -6.490   2.689  0.00  0.00     0.008 A 
ATOM     19  C   UNL d   1       9.600  -6.613   2.710  0.00  0.00     0.048 C 
ATOM     20  C   UNL d   1       5.890  -5.796   2.449  0.00  0.00     0.024 A 
ENDBRANCH  11  14
ENDBRANCH  10  11
ENDBRANCH   9  10
ENDBRANCH   8   9
ENDBRANCH   2   8
BRANCH   1  21
ATOM     21  C   UNL d   1       3.892   1.563  -0.926  0.00  0.00     0.045 A 
ATOM     22  C   UNL d   1       3.766   1.591   0.468  0.00  0.00     0.030 A 
ATOM     23  C   UNL d   1       3.554   2.806   1.126  0.00  0.00     0.002 A 
ATOM     24  C   UNL d   1       3.470   3.995   0.404  0.00  0.00     0.000 A 
ATOM     25  C   UNL d   1       3.598   3.975  -0.982  0.00  0.00     0.002 A 
ATOM     26  C   UNL d   1       3.808   2.766  -1.649  0.00  0.00     0.030 A 
ENDBRANCH   1  21
BRANCH   3  27
ATOM     27  O   UNL d   1       5.719   1.073  -3.301  0.00  0.00    -0.331 OA
ATOM     28  H   UNL d   1       5.909   1.759  -2.640  0.00  0.00     0.221 HD
ENDBRANCH   3  27
TORSDOF 7
