REMARK  3 active torsions:
REMARK  status: ('A' for Active; 'I' for Inactive)
REMARK    1  A    between atoms: O_4  and  S_1 
REMARK    2  A    between atoms: C_6  and  S_1 
REMARK    3  A    between atoms: C_3  and  O_4 
ROOT
ATOM      1  S   UNL d   1       0.204  -1.035  -0.698  0.00  0.00     0.298 S 
ATOM      2  O   UNL d   1      -1.145  -0.634  -0.352  0.00  0.00    -0.193 OA
ATOM      3  O   UNL d   1       0.439  -2.130  -1.618  0.00  0.00    -0.193 OA
ENDROOT
BRANCH   1   4
ATOM      4  O   UNL d   1       1.031  -1.340   0.682  0.00  0.00    -0.266 OA
BRANCH   4   5
ATOM      5  C   UNL d   1       0.506  -2.353   1.522  0.00  0.00     0.149 C 
ATOM      6  C   UNL d   1       1.191  -2.382   2.913  0.00  0.00     0.050 C 
ATOM      7  C   UNL d   1       0.278  -3.165   3.867  0.00  0.00     0.177 C 
ATOM      8  C   UNL d   1       2.314  -3.410   2.745  0.00  0.00     0.014 C 
ATOM      9  C   UNL d   1       0.266  -4.571   3.256  0.00  0.00     0.042 C 
ATOM     10  F   UNL d   1      -0.961  -2.633   3.906  0.00  0.00    -0.249 F 
ATOM     11  C   UNL d   1       1.376  -4.484   2.187  0.00  0.00    -0.009 C 
ATOM     12  C   UNL d   1       0.824  -3.750   0.962  0.00  0.00     0.038 C 
ENDBRANCH   4   5
ENDBRANCH   1   4
BRANCH   1  13
ATOM     13  C   UNL d   1       1.012   0.398  -1.357  0.00  0.00     0.086 A 
ATOM     14  C   UNL d   1       1.704   0.317  -2.565  0.00  0.00     0.026 A 
ATOM     15  C   UNL d   1       2.369   1.444  -3.046  0.00  0.00     0.008 A 
ATOM     16  C   UNL d   1       2.341   2.646  -2.325  0.00  0.00    -0.062 A 
ATOM     17  C   UNL d   1       1.608   2.722  -1.133  0.00  0.00     0.008 A 
ATOM     18  C   UNL d   1       3.095   3.837  -2.838  0.00  0.00     0.048 C 
ATOM     19  C   UNL d   1       0.940   1.597  -0.644  0.00  0.00     0.026 A 
ENDBRANCH   1  13
TORSDOF 3
