REMARK  5 active torsions:
REMARK  status: ('A' for Active; 'I' for Inactive)
REMARK    1  A    between atoms: N_4  and  C_1 
REMARK    2  A    between atoms: C_12  and  C_2 
REMARK       I    between atoms: C_3  and  N_4 
REMARK       I    between atoms: N_9  and  C_3 
REMARK    3  A    between atoms: C_11  and  N_10 
REMARK    4  A    between atoms: C_18  and  C_11 
REMARK    5  A    between atoms: C_19  and  C_11 
ROOT
ATOM      1  C   UNL d   1       1.777  -2.840  -0.222  0.00  0.00     0.323 C 
ATOM      2  N   UNL d   1       1.787  -3.574  -1.385  0.00  0.00    -0.304 N 
ATOM      3  N   UNL d   1       2.796  -1.901  -0.136  0.00  0.00    -0.331 N 
ATOM      4  N   UNL d   1       4.457   0.532  -0.417  0.00  0.00     0.105 N 
ATOM      5  O   UNL d   1       0.891  -2.908   0.621  0.00  0.00    -0.247 OA
ATOM      6  C   UNL d   1       2.665  -0.809   0.825  0.00  0.00     0.158 C 
ATOM      7  C   UNL d   1       4.131  -2.010  -0.727  0.00  0.00     0.158 C 
ATOM      8  C   UNL d   1       4.610  -0.655  -1.300  0.00  0.00     0.293 C 
ATOM      9  C   UNL d   1       3.092   0.517   0.170  0.00  0.00     0.293 C 
ATOM     10  H   UNL d   1       2.148  -3.066  -2.179  0.00  0.00     0.171 HD
ENDROOT
BRANCH   2  11
ATOM     11  C   UNL d   1       0.860  -4.572  -1.693  0.00  0.00     0.097 C 
ATOM     12  C   UNL d   1       0.326  -4.752  -2.957  0.00  0.00     0.137 C 
ATOM     13  O   UNL d   1      -0.450  -5.869  -2.962  0.00  0.00    -0.235 OA
ATOM     14  N   UNL d   1      -0.514  -6.396  -1.697  0.00  0.00    -0.263 N 
ATOM     15  C   UNL d   1       0.224  -5.589  -0.916  0.00  0.00     0.058 C 
ATOM     16  HN  UNL d   1      -1.020  -7.233  -1.407  1.00  0.00     0.194 HD
ATOM     17  C   UNL d   1       0.293  -5.920   0.525  0.00  0.00     0.072 C 
BRANCH  12  18
ATOM     18  C   UNL d   1       0.248  -3.965  -4.180  0.00  0.00     0.002 A 
ATOM     19  C   UNL d   1       0.268  -4.575  -5.441  0.00  0.00     0.014 A 
ATOM     20  C   UNL d   1       0.009  -3.829  -6.593  0.00  0.00     0.001 A 
ATOM     21  C   UNL d   1      -0.271  -2.466  -6.496  0.00  0.00     0.000 A 
ATOM     22  C   UNL d   1      -0.269  -1.843  -5.251  0.00  0.00     0.001 A 
ATOM     23  C   UNL d   1      -0.005  -2.587  -4.099  0.00  0.00     0.014 A 
ENDBRANCH  12  18
ENDBRANCH   2  11
BRANCH   4  24
ATOM     24  C   UNL d   1       5.540   0.675   0.602  0.00  0.00     0.289 C 
BRANCH  24  25
ATOM     25  C   UNL d   1       6.937   0.706  -0.040  0.00  0.00    -0.021 A 
ATOM     26  C   UNL d   1       7.284   1.681  -0.994  0.00  0.00     0.010 A 
ATOM     27  C   UNL d   1       8.540   1.678  -1.602  0.00  0.00     0.001 A 
ATOM     28  C   UNL d   1       9.469   0.695  -1.273  0.00  0.00     0.000 A 
ATOM     29  C   UNL d   1       9.148  -0.276  -0.327  0.00  0.00     0.001 A 
ATOM     30  C   UNL d   1       7.894  -0.269   0.291  0.00  0.00     0.010 A 
ENDBRANCH  24  25
BRANCH  24  31
ATOM     31  C   UNL d   1       5.366   1.907   1.514  0.00  0.00    -0.021 A 
ATOM     32  C   UNL d   1       5.686   1.824   2.880  0.00  0.00     0.010 A 
ATOM     33  C   UNL d   1       5.520   2.927   3.722  0.00  0.00     0.001 A 
ATOM     34  C   UNL d   1       5.039   4.134   3.212  0.00  0.00     0.000 A 
ATOM     35  C   UNL d   1       4.734   4.242   1.859  0.00  0.00     0.001 A 
ATOM     36  C   UNL d   1       4.904   3.141   1.017  0.00  0.00     0.010 A 
ENDBRANCH  24  31
ENDBRANCH   4  24
TORSDOF 5
