REMARK  4 active torsions:
REMARK  status: ('A' for Active; 'I' for Inactive)
REMARK    1  A    between atoms: C_2  and  C_1 
REMARK       I    between atoms: N_7  and  C_2 
REMARK    2  A    between atoms: C_4  and  C_3 
REMARK    3  A    between atoms: C_12  and  N_7 
REMARK    4  A    between atoms: S_17  and  C_8 
ROOT
ATOM      1  C   UNL d   1      -4.086   0.904   1.078  0.00  0.00     0.066 A 
ATOM      2  C   UNL d   1      -2.834   1.548   1.218  0.00  0.00     0.042 A 
ATOM      3  C   UNL d   1      -2.501   2.624   0.347  0.00  0.00     0.052 A 
ATOM      4  C   UNL d   1      -5.014   1.413   0.144  0.00  0.00     0.018 A 
ATOM      5  C   UNL d   1      -3.447   3.077  -0.582  0.00  0.00     0.031 A 
ATOM      6  C   UNL d   1      -4.703   2.491  -0.670  0.00  0.00     0.003 A 
ENDROOT
BRANCH   3   7
ATOM      7  N   UNL d   1      -1.194   3.191   0.374  0.00  0.00    -0.322 N 
ATOM      8  C   UNL d   1      -0.855   4.435  -0.128  0.00  0.00     0.260 C 
ATOM      9  O   UNL d   1      -1.675   5.305  -0.417  0.00  0.00    -0.267 OA
ATOM     10  H   UNL d   1      -0.505   2.689   0.924  0.00  0.00     0.169 HD
BRANCH   8  11
ATOM     11  C   UNL d   1       0.563   4.708  -0.256  0.00  0.00     0.087 A 
ATOM     12  C   UNL d   1       1.127   5.963  -0.133  0.00  0.00     0.090 A 
ATOM     13  O   UNL d   1       2.461   5.891  -0.367  0.00  0.00    -0.242 OA
ATOM     14  C   UNL d   1       0.586   7.303   0.175  0.00  0.00     0.080 C 
ATOM     15  N   UNL d   1       2.803   4.592  -0.678  0.00  0.00    -0.265 N 
ATOM     16  C   UNL d   1       1.662   3.891  -0.641  0.00  0.00     0.047 A 
ATOM     17  HN  UNL d   1       3.735   4.237  -0.892  1.00  0.00     0.194 HD
ATOM     18  C   UNL d   1       1.693   2.467  -1.051  0.00  0.00     0.071 C 
ENDBRANCH   8  11
ENDBRANCH   3   7
BRANCH   2  19
ATOM     19  S   UNL d   1      -1.638   1.097   2.492  0.00  0.00    -0.131 SA
ATOM     20  C   UNL d   1      -2.583   1.546   3.983  0.00  0.00     0.095 C 
ENDBRANCH   2  19
BRANCH   1  21
ATOM     21  C   UNL d   1      -4.544  -0.301   1.866  0.00  0.00     0.418 C 
ATOM     22  F   UNL d   1      -3.565  -1.047   2.441  0.00  0.00    -0.166 F 
ATOM     23  F   UNL d   1      -5.394   0.046   2.874  0.00  0.00    -0.166 F 
ATOM     24  F   UNL d   1      -5.247  -1.182   1.092  0.00  0.00    -0.166 F 
ENDBRANCH   1  21
TORSDOF 4
