REMARK  3 active torsions:
REMARK  status: ('A' for Active; 'I' for Inactive)
REMARK    1  A    between atoms: C_7  and  N_1 
REMARK    2  A    between atoms: C_8  and  C_2 
REMARK    3  A    between atoms: C_13  and  C_7 
ROOT
ATOM      1  N   UNL d   1       0.869  -0.649   0.052  0.00  0.00    -0.303 N 
ATOM      2  C   UNL d   1       0.927   0.725   0.048  0.00  0.00     0.135 A 
ATOM      3  N   UNL d   1      -0.244   1.302   0.067  0.00  0.00    -0.282 N 
ATOM      4  HN  UNL d   1      -0.446   2.301   0.043  1.00  0.00     0.188 HD
ATOM      5  C   UNL d   1      -0.472  -0.938   0.158  0.00  0.00     0.194 A 
ATOM      6  N   UNL d   1      -1.135   0.277   0.125  0.00  0.00    -0.274 N 
ATOM      7  S   UNL d   1      -1.256  -2.390   0.322  0.00  0.00    -0.039 SA
ATOM      8  H   UNL d   1      -2.132   0.426   0.199  0.00  0.00     0.189 HD
ENDROOT
BRANCH   1   9
ATOM      9  C   UNL d   1       1.941  -1.650   0.010  0.00  0.00     0.171 C 
BRANCH   9  10
ATOM     10  C   UNL d   1       2.938  -1.482  -1.116  0.00  0.00    -0.040 A 
ATOM     11  C   UNL d   1       4.303  -1.717  -0.878  0.00  0.00     0.009 A 
ATOM     12  C   UNL d   1       5.244  -1.534  -1.892  0.00  0.00     0.001 A 
ATOM     13  C   UNL d   1       4.831  -1.137  -3.161  0.00  0.00     0.000 A 
ATOM     14  C   UNL d   1       3.476  -0.940  -3.421  0.00  0.00     0.001 A 
ATOM     15  C   UNL d   1       2.532  -1.122  -2.408  0.00  0.00     0.009 A 
ENDBRANCH   9  10
ENDBRANCH   1   9
BRANCH   2  16
ATOM     16  C   UNL d   1       2.173   1.522   0.003  0.00  0.00     0.010 A 
ATOM     17  C   UNL d   1       2.170   2.723  -0.722  0.00  0.00     0.017 A 
ATOM     18  C   UNL d   1       3.326   3.506  -0.802  0.00  0.00     0.025 A 
ATOM     19  C   UNL d   1       4.490   3.085  -0.163  0.00  0.00     0.034 A 
ATOM     20  C   UNL d   1       4.495   1.914   0.590  0.00  0.00     0.025 A 
ATOM     21 CL   UNL d   1       5.926   4.024  -0.284  0.00  0.00    -0.084 Cl
ATOM     22  C   UNL d   1       3.327   1.153   0.700  0.00  0.00     0.017 A 
ENDBRANCH   2  16
TORSDOF 3
