REMARK  7 active torsions:
REMARK  status: ('A' for Active; 'I' for Inactive)
REMARK    1  A    between atoms: C_6  and  C_2 
REMARK    2  A    between atoms: O_11  and  C_3 
REMARK    3  A    between atoms: C_15  and  C_7 
REMARK    4  A    between atoms: C_14  and  O_11 
REMARK    5  A    between atoms: C_12  and  C_14 
REMARK    6  A    between atoms: C_13  and  C_12 
REMARK    7  A    between atoms: O_25  and  C_22 
ROOT
ATOM      1  C   UNL d   1       0.585   0.104   0.091  0.00  0.00     0.110 A 
ATOM      2  C   UNL d   1      -0.087   1.337   0.047  0.00  0.00     0.075 A 
ATOM      3  C   UNL d   1      -0.193  -1.052   0.137  0.00  0.00     0.165 A 
ATOM      4  N   UNL d   1      -1.548  -1.039   0.098  0.00  0.00    -0.335 N 
ATOM      5  HN  UNL d   1      -2.073  -1.913   0.135  1.00  0.00     0.168 HD
ATOM      6  C   UNL d   1      -2.196   0.141   0.009  0.00  0.00     0.045 A 
ATOM      7  C   UNL d   1      -1.495   1.339   0.013  0.00  0.00     0.048 A 
ATOM      8  C   UNL d   1       2.016   0.015   0.064  0.00  0.00     0.104 C 
ATOM      9  N   UNL d   1       3.173  -0.000   0.018  0.00  0.00    -0.191 NA
ENDROOT
BRANCH   2  10
ATOM     10  C   UNL d   1       0.588   2.686   0.013  0.00  0.00     0.419 C 
ATOM     11  F   UNL d   1       1.940   2.672   0.060  0.00  0.00    -0.166 F 
ATOM     12  F   UNL d   1       0.258   3.378  -1.113  0.00  0.00    -0.166 F 
ATOM     13  F   UNL d   1       0.187   3.471   1.053  0.00  0.00    -0.166 F 
ENDBRANCH   2  10
BRANCH   3  14
ATOM     14  O   UNL d   1       0.422  -2.290   0.219  0.00  0.00    -0.327 OA
BRANCH  14  15
ATOM     15  C   UNL d   1      -0.520  -3.367   0.272  0.00  0.00     0.261 C 
BRANCH  15  16
ATOM     16  C   UNL d   1       0.116  -4.752   0.387  0.00  0.00     0.183 C 
ATOM     17  O   UNL d   1       1.332  -4.922   0.432  0.00  0.00    -0.290 OA
BRANCH  16  18
ATOM     18  C   UNL d   1      -0.797  -5.946   0.454  0.00  0.00     0.012 A 
ATOM     19  C   UNL d   1      -2.195  -5.832   0.435  0.00  0.00     0.018 A 
ATOM     20  C   UNL d   1      -3.006  -6.975   0.518  0.00  0.00     0.037 A 
ATOM     21  C   UNL d   1      -2.432  -8.242   0.621  0.00  0.00     0.068 A 
ATOM     22  C   UNL d   1      -1.043  -8.362   0.609  0.00  0.00     0.037 A 
ATOM     23  C   UNL d   1      -0.230  -7.225   0.538  0.00  0.00     0.018 A 
BRANCH  21  24
ATOM     24  O   UNL d   1      -3.127  -9.418   0.686  0.00  0.00    -0.356 OA
ATOM     25  C   UNL d   1      -4.401  -9.348   1.319  0.00  0.00     0.210 C 
ENDBRANCH  21  24
ENDBRANCH  16  18
ENDBRANCH  15  16
ENDBRANCH  14  15
ENDBRANCH   3  14
BRANCH   6  26
ATOM     26  C   UNL d   1      -3.661   0.059  -0.128  0.00  0.00    -0.009 A 
ATOM     27  C   UNL d   1      -4.379  -1.016   0.429  0.00  0.00     0.013 A 
ATOM     28  C   UNL d   1      -5.766  -1.118   0.283  0.00  0.00     0.001 A 
ATOM     29  C   UNL d   1      -6.464  -0.145  -0.427  0.00  0.00     0.000 A 
ATOM     30  C   UNL d   1      -5.778   0.924  -0.994  0.00  0.00     0.001 A 
ATOM     31  C   UNL d   1      -4.392   1.022  -0.849  0.00  0.00     0.013 A 
ENDBRANCH   6  26
TORSDOF 7
