REMARK  4 active torsions:
REMARK  status: ('A' for Active; 'I' for Inactive)
REMARK    1  A    between atoms: C_7  and  C_2 
REMARK    2  A    between atoms: O_10  and  C_7 
REMARK    3  A    between atoms: C_14  and  O_10 
REMARK    4  A    between atoms: O_21  and  C_16 
ROOT
ATOM      1  N   UNL d   1      -0.116  -0.518  -0.176  0.00  0.00    -0.293 N 
ATOM      2  C   UNL d   1       2.257  -0.354   0.220  0.00  0.00     0.123 A 
ATOM      3  C   UNL d   1       1.058  -1.208   0.030  0.00  0.00     0.267 A 
ATOM      4  C   UNL d   1      -0.157   0.847  -0.139  0.00  0.00     0.149 A 
ATOM      5  N   UNL d   1       0.847   1.611   0.097  0.00  0.00    -0.345 N 
ATOM      6  HN  UNL d   1       0.755   2.624   0.161  1.00  0.00     0.167 HD
ATOM      7  C   UNL d   1       2.055   0.975   0.259  0.00  0.00     0.113 A 
ATOM      8  S   UNL d   1      -1.750   1.449  -0.475  0.00  0.00    -0.092 SA
ATOM      9  O   UNL d   1       1.107  -2.433   0.038  0.00  0.00    -0.267 OA
ATOM     10  C   UNL d   1      -1.338  -1.177  -0.571  0.00  0.00     0.145 C 
ATOM     11  C   UNL d   1      -2.496  -0.201  -0.468  0.00  0.00     0.103 C 
ENDROOT
BRANCH   2  12
ATOM     12  C   UNL d   1       3.657  -0.827   0.266  0.00  0.00     0.305 C 
ATOM     13  O   UNL d   1       4.607  -0.067   0.418  0.00  0.00    -0.259 OA
BRANCH  12  14
ATOM     14  O   UNL d   1       3.728  -2.190   0.026  0.00  0.00    -0.275 OA
BRANCH  14  15
ATOM     15  C   UNL d   1       4.950  -2.822  -0.283  0.00  0.00     0.079 A 
ATOM     16  C   UNL d   1       6.180  -2.442   0.244  0.00  0.00     0.040 A 
ATOM     17  C   UNL d   1       7.346  -3.087  -0.182  0.00  0.00     0.039 A 
ATOM     18  C   UNL d   1       7.278  -4.126  -1.112  0.00  0.00     0.068 A 
ATOM     19  C   UNL d   1       6.030  -4.543  -1.582  0.00  0.00     0.039 A 
ATOM     20  C   UNL d   1       4.864  -3.895  -1.171  0.00  0.00     0.040 A 
BRANCH  18  21
ATOM     21  O   UNL d   1       8.347  -4.811  -1.621  0.00  0.00    -0.356 OA
ATOM     22  C   UNL d   1       9.629  -4.234  -1.400  0.00  0.00     0.210 C 
ENDBRANCH  18  21
ENDBRANCH  14  15
ENDBRANCH  12  14
ENDBRANCH   2  12
TORSDOF 4
