REMARK  2 active torsions:
REMARK  status: ('A' for Active; 'I' for Inactive)
REMARK    1  A    between atoms: C_14  and  N_6 
REMARK    2  A    between atoms: C_9  and  C_16 
ROOT
ATOM      1  C   UNL d   1       0.911  -0.899  -0.282  0.00  0.00     0.102 C 
ATOM      2  C   UNL d   1       0.483   0.413  -0.220  0.00  0.00     0.071 C 
ATOM      3  C   UNL d   1       2.218  -1.482  -0.095  0.00  0.00     0.268 C 
ATOM      4  S   UNL d   1      -0.379  -2.002  -0.464  0.00  0.00    -0.064 SA
ATOM      5  C   UNL d   1      -0.979   0.504  -0.265  0.00  0.00     0.032 C 
ATOM      6  N   UNL d   1       3.009  -0.754   0.792  0.00  0.00    -0.304 N 
ATOM      7  C   UNL d   1      -1.525  -0.779  -0.251  0.00  0.00     0.088 C 
ATOM      8  N   UNL d   1       1.310   1.521  -0.076  0.00  0.00    -0.324 N 
ATOM      9  N   UNL d   1      -2.813  -1.129  -0.096  0.00  0.00    -0.354 N 
ATOM     10  HN  UNL d   1      -3.121  -2.102  -0.106  1.00  0.00     0.166 HD
ATOM     11  C   UNL d   1      -1.931   1.571  -0.247  0.00  0.00    -0.045 C 
ATOM     12  C   UNL d   1       2.652   1.639   0.113  0.00  0.00     0.240 C 
ATOM     13  C   UNL d   1       3.600   0.450   0.250  0.00  0.00     0.235 C 
ATOM     14  O   UNL d   1       2.561  -2.577  -0.532  0.00  0.00    -0.266 OA
ATOM     15  C   UNL d   1      -3.281   1.220  -0.040  0.00  0.00     0.032 C 
ATOM     16  C   UNL d   1      -3.663  -0.110   0.071  0.00  0.00     0.006 C 
ATOM     17  O   UNL d   1       3.119   2.786   0.079  0.00  0.00    -0.271 OA
ATOM     18  C   UNL d   1      -1.654   3.046  -0.387  0.00  0.00     0.049 C 
ATOM     19  C   UNL d   1      -5.080  -0.459   0.410  0.00  0.00     0.068 C 
ATOM     20  H   UNL d   1       0.869   2.429  -0.089  0.00  0.00     0.169 HD
ENDROOT
BRANCH   6  21
ATOM     21  C   UNL d   1       3.623  -1.486   1.851  0.00  0.00     0.038 A 
ATOM     22  C   UNL d   1       2.800  -2.341   2.609  0.00  0.00     0.046 A 
ATOM     23  C   UNL d   1       3.297  -3.058   3.707  0.00  0.00     0.050 A 
ATOM     24  C   UNL d   1       4.656  -2.942   4.022  0.00  0.00     0.016 A 
ATOM     25  C   UNL d   1       5.486  -2.109   3.269  0.00  0.00     0.003 A 
ATOM     26  C   UNL d   1       4.969  -1.370   2.200  0.00  0.00     0.030 A 
BRANCH  23  27
ATOM     27  C   UNL d   1       2.384  -3.918   4.545  0.00  0.00     0.417 C 
ATOM     28  F   UNL d   1       1.082  -3.881   4.148  0.00  0.00    -0.166 F 
ATOM     29  F   UNL d   1       2.743  -5.231   4.536  0.00  0.00    -0.166 F 
ATOM     30  F   UNL d   1       2.381  -3.540   5.854  0.00  0.00    -0.166 F 
ENDBRANCH  23  27
ENDBRANCH   6  21
TORSDOF 2
