REMARK  4 active torsions:
REMARK  status: ('A' for Active; 'I' for Inactive)
REMARK    1  A    between atoms: N_15  and  C_3 
REMARK    2  A    between atoms: C_11  and  C_4 
REMARK    3  A    between atoms: O_17  and  C_11 
REMARK    4  A    between atoms: C_18  and  O_17 
ROOT
ATOM      1  N   UNL d   1       0.220  -0.639   0.085  0.00  0.00    -0.227 N 
ATOM      2  C   UNL d   1       0.163   0.758   0.026  0.00  0.00     0.150 A 
ATOM      3  C   UNL d   1      -0.957  -1.433   0.134  0.00  0.00     0.120 A 
ATOM      4  C   UNL d   1      -2.150  -0.800   0.078  0.00  0.00     0.094 A 
ATOM      5  N   UNL d   1       1.510  -1.090   0.040  0.00  0.00    -0.301 N 
ATOM      6  HN  UNL d   1       1.835  -2.057   0.033  1.00  0.00     0.186 HD
ATOM      7  N   UNL d   1      -1.025   1.431   0.011  0.00  0.00    -0.348 N 
ATOM      8  HN  UNL d   1      -1.071   2.450  -0.017  1.00  0.00     0.167 HD
ATOM      9  C   UNL d   1       1.471   1.185   0.003  0.00  0.00     0.107 A 
ATOM     10  C   UNL d   1      -2.093   0.691   0.033  0.00  0.00     0.111 A 
ATOM     11  C   UNL d   1       2.248   0.021   0.009  0.00  0.00     0.134 A 
ATOM     12  C   UNL d   1       1.930   2.531  -0.028  0.00  0.00     0.105 C 
ATOM     13  N   UNL d   1       2.345   3.614  -0.050  0.00  0.00    -0.191 NA
ENDROOT
BRANCH   3  14
ATOM     14  N   UNL d   1      -0.768  -2.811   0.214  0.00  0.00    -0.286 NA
ATOM     15  H   UNL d   1       0.141  -3.120  -0.137  0.00  0.00     0.125 HD
ATOM     16  H   UNL d   1      -1.567  -3.378  -0.080  0.00  0.00     0.125 HD
ENDBRANCH   3  14
BRANCH   4  17
ATOM     17  C   UNL d   1      -3.417  -1.557  -0.023  0.00  0.00     0.298 C 
ATOM     18  O   UNL d   1      -3.492  -2.775  -0.107  0.00  0.00    -0.259 OA
BRANCH  17  19
ATOM     19  O   UNL d   1      -4.457  -0.696  -0.153  0.00  0.00    -0.318 OA
BRANCH  19  20
ATOM     20  C   UNL d   1      -5.661  -1.264  -0.691  0.00  0.00     0.174 C 
ATOM     21  C   UNL d   1      -5.589  -1.170  -2.205  0.00  0.00     0.034 C 
ENDBRANCH  19  20
ENDBRANCH  17  19
ENDBRANCH   4  17
TORSDOF 4
