REMARK  3 active torsions:
REMARK  status: ('A' for Active; 'I' for Inactive)
REMARK    1  A    between atoms: C_7  and  N_1 
REMARK    2  A    between atoms: C_14  and  C_6 
REMARK    3  A    between atoms: C_8  and  C_10 
ROOT
ATOM      1  C   UNL d   1      -0.471  -2.624   0.102  0.00  0.00     0.133 A 
ATOM      2  C   UNL d   1       0.498  -3.487   0.613  0.00  0.00     0.066 A 
ATOM      3  C   UNL d   1       0.309  -4.874   0.547  0.00  0.00     0.052 A 
ATOM      4  N   UNL d   1      -1.607  -3.097  -0.451  0.00  0.00    -0.351 N 
ATOM      5  HN  UNL d   1      -2.324  -2.460  -0.797  1.00  0.00     0.166 HD
ATOM      6  C   UNL d   1      -1.770  -4.435  -0.536  0.00  0.00     0.090 A 
ATOM      7  C   UNL d   1      -0.850  -5.353  -0.063  0.00  0.00     0.033 A 
ENDROOT
BRANCH   1   8
ATOM      8  N   UNL d   1      -0.222  -1.241   0.115  0.00  0.00    -0.181 N 
ATOM      9  N   UNL d   1       1.043  -0.772   0.353  0.00  0.00    -0.270 N 
ATOM     10  C   UNL d   1       0.933   0.484   0.064  0.00  0.00     0.147 A 
ATOM     11  HN  UNL d   1       1.864  -1.284   0.676  1.00  0.00     0.189 HD
ATOM     12  O   UNL d   1      -0.290   0.908  -0.306  0.00  0.00    -0.245 OA
ATOM     13  C   UNL d   1      -1.061  -0.227  -0.295  0.00  0.00     0.394 A 
ATOM     14  O   UNL d   1      -2.239  -0.225  -0.602  0.00  0.00    -0.236 OA
BRANCH  10  15
ATOM     15  C   UNL d   1       2.046   1.482   0.033  0.00  0.00     0.054 C 
ATOM     16  C   UNL d   1       2.688   1.621   1.407  0.00  0.00     0.018 C 
ATOM     17  C   UNL d   1       3.070   1.037  -1.011  0.00  0.00     0.018 C 
ENDBRANCH  10  15
ENDBRANCH   1   8
BRANCH   3  18
ATOM     18  C   UNL d   1       1.326  -5.819   1.123  0.00  0.00     0.417 C 
ATOM     19  F   UNL d   1       2.387  -5.192   1.702  0.00  0.00    -0.166 F 
ATOM     20  F   UNL d   1       0.796  -6.621   2.087  0.00  0.00    -0.166 F 
ATOM     21  F   UNL d   1       1.851  -6.655   0.186  0.00  0.00    -0.166 F 
ENDBRANCH   3  18
TORSDOF 3
