REMARK  6 active torsions:
REMARK  status: ('A' for Active; 'I' for Inactive)
REMARK    1  A    between atoms: N_2  and  C_1 
REMARK    2  A    between atoms: N_3  and  C_7 
REMARK    3  A    between atoms: N_5  and  O_10 
REMARK    4  A    between atoms: C_13  and  C_8 
REMARK    5  A    between atoms: C_18  and  C_8 
REMARK    6  A    between atoms: O_10  and  C_9 
ROOT
ATOM      1  N   UNL d   1       3.155   2.012  -0.371  0.00  0.00    -0.263 N 
ATOM      2  HN  UNL d   1       3.594   1.093  -0.405  1.00  0.00     0.194 HD
ATOM      3  C   UNL d   1       3.829   3.109  -0.607  0.00  0.00     0.050 C 
ENDROOT
BRANCH   1   4
ATOM      4  O   UNL d   1       1.810   2.170  -0.071  0.00  0.00    -0.235 OA
BRANCH   4   5
ATOM      5  C   UNL d   1       1.074   1.133  -0.595  0.00  0.00     0.132 A 
ATOM      6  C   UNL d   1      -0.097   0.723   0.049  0.00  0.00     0.141 A 
ATOM      7  C   UNL d   1      -0.906  -0.301  -0.465  0.00  0.00     0.075 A 
ATOM      8  C   UNL d   1      -0.534  -0.902  -1.674  0.00  0.00     0.105 A 
ATOM      9  C   UNL d   1       0.622  -0.491  -2.349  0.00  0.00     0.039 A 
ATOM     10  C   UNL d   1       1.418   0.524  -1.809  0.00  0.00     0.044 A 
BRANCH   6  11
ATOM     11  N   UNL d   1      -0.518   1.366   1.280  0.00  0.00    -0.113 N 
ATOM     12  O   UNL d   1      -0.775   0.624   2.238  0.00  0.00    -0.532 OA
ATOM     13  O   UNL d   1      -0.654   2.596   1.266  0.00  0.00    -0.532 OA
ENDBRANCH   6  11
BRANCH   8  14
ATOM     14  N   UNL d   1      -1.374  -1.961  -2.251  0.00  0.00    -0.116 N 
ATOM     15  O   UNL d   1      -2.401  -2.277  -1.634  0.00  0.00    -0.532 OA
ATOM     16  O   UNL d   1      -1.007  -2.466  -3.320  0.00  0.00    -0.532 OA
ENDBRANCH   8  14
ENDBRANCH   4   5
ENDBRANCH   1   4
BRANCH   3  17
ATOM     17  C   UNL d   1       3.231   4.574  -0.674  0.00  0.00    -0.006 C 
ATOM     18  C   UNL d   1       1.689   4.694  -0.574  0.00  0.00     0.021 C 
ATOM     19  C   UNL d   1       3.766   5.403   0.510  0.00  0.00     0.021 C 
ATOM     20  C   UNL d   1       3.545   5.219  -2.044  0.00  0.00     0.021 C 
ENDBRANCH   3  17
BRANCH   3  21
ATOM     21  C   UNL d   1       5.333   2.862  -0.846  0.00  0.00    -0.011 A 
ATOM     22  C   UNL d   1       5.783   1.526  -0.896  0.00  0.00     0.013 A 
ATOM     23  C   UNL d   1       7.130   1.211  -1.112  0.00  0.00     0.001 A 
ATOM     24  C   UNL d   1       8.063   2.224  -1.286  0.00  0.00     0.000 A 
ATOM     25  C   UNL d   1       7.648   3.549  -1.232  0.00  0.00     0.001 A 
ATOM     26  C   UNL d   1       6.300   3.862  -1.006  0.00  0.00     0.013 A 
ENDBRANCH   3  21
TORSDOF 6
