REMARK  11 active torsions:
REMARK  status: ('A' for Active; 'I' for Inactive)
REMARK    1  A    between atoms: N_2  and  C_1 
REMARK    2  A    between atoms: C_4  and  C_1 
REMARK    3  A    between atoms: C_5  and  C_1 
REMARK    4  A    between atoms: N_8  and  C_1 
REMARK       I    between atoms: C_7  and  N_2 
REMARK    5  A    between atoms: C_3  and  C_10 
REMARK    6  A    between atoms: C_6  and  C_3 
REMARK    7  A    between atoms: C_9  and  C_3 
REMARK    8  A    between atoms: O_23  and  C_3 
REMARK    9  A    between atoms: C_11  and  C_7 
REMARK   10  A    between atoms: C_24  and  N_8 
REMARK   11  A    between atoms: O_29  and  C_9 
ROOT
ATOM      1  C   UNL d   1       0.777  -0.071  -0.021  0.00  0.00     0.306 C 
ENDROOT
BRANCH   1   2
ATOM      2  N   UNL d   1       0.519   0.958  -1.045  0.00  0.00    -0.315 N 
ATOM      3  C   UNL d   1      -0.717   1.480  -1.282  0.00  0.00     0.254 C 
ATOM      4  O   UNL d   1      -1.712   1.061  -0.710  0.00  0.00    -0.268 OA
ATOM      5  H   UNL d   1       1.308   1.198  -1.625  0.00  0.00     0.165 HD
BRANCH   3   6
ATOM      6  C   UNL d   1      -0.769   2.563  -2.308  0.00  0.00     0.032 A 
ATOM      7  C   UNL d   1      -1.907   2.676  -3.110  0.00  0.00     0.017 A 
ATOM      8  C   UNL d   1      -1.955   3.637  -4.125  0.00  0.00     0.007 A 
ATOM      9  C   UNL d   1      -0.878   4.508  -4.338  0.00  0.00    -0.062 A 
ATOM     10  C   UNL d   1       0.244   4.417  -3.507  0.00  0.00     0.007 A 
ATOM     11  C   UNL d   1      -0.913   5.486  -5.478  0.00  0.00     0.048 C 
ATOM     12  C   UNL d   1       0.299   3.454  -2.494  0.00  0.00     0.017 A 
ENDBRANCH   3   6
ENDBRANCH   1   2
BRANCH   1  13
ATOM     13  C   UNL d   1       0.147  -1.473  -0.377  0.00  0.00     0.441 C 
ATOM     14  F   UNL d   1      -0.513  -1.445  -1.565  0.00  0.00    -0.166 F 
ATOM     15  F   UNL d   1       1.157  -2.382  -0.568  0.00  0.00    -0.166 F 
ATOM     16  F   UNL d   1      -0.677  -2.032   0.523  0.00  0.00    -0.166 F 
ENDBRANCH   1  13
BRANCH   1  17
ATOM     17  C   UNL d   1       0.324   0.291   1.449  0.00  0.00     0.441 C 
ATOM     18  F   UNL d   1       0.003   1.611   1.563  0.00  0.00    -0.166 F 
ATOM     19  F   UNL d   1      -0.735  -0.387   1.935  0.00  0.00    -0.166 F 
ATOM     20  F   UNL d   1       1.334   0.088   2.340  0.00  0.00    -0.166 F 
ENDBRANCH   1  17
BRANCH   1  21
ATOM     21  N   UNL d   1       2.283  -0.156  -0.169  0.00  0.00    -0.349 N 
ATOM     22  H   UNL d   1       2.616  -1.030  -0.575  0.00  0.00     0.162 HD
BRANCH  21  23
ATOM     23  C   UNL d   1       3.214   0.836   0.062  0.00  0.00     0.030 A 
ATOM     24  C   UNL d   1       2.881   2.119   0.496  0.00  0.00     0.030 A 
ATOM     25  C   UNL d   1       3.845   3.110   0.668  0.00  0.00     0.013 A 
ATOM     26  C   UNL d   1       5.199   2.856   0.430  0.00  0.00    -0.005 A 
ATOM     27  C   UNL d   1       5.546   1.553   0.039  0.00  0.00     0.013 A 
ATOM     28  C   UNL d   1       4.568   0.565  -0.140  0.00  0.00     0.030 A 
BRANCH  26  29
ATOM     29  C   UNL d   1       6.233   3.977   0.573  0.00  0.00     0.271 C 
BRANCH  29  30
ATOM     30  C   UNL d   1       5.947   5.187  -0.361  0.00  0.00     0.432 C 
ATOM     31  F   UNL d   1       5.870   6.377   0.275  0.00  0.00    -0.167 F 
ATOM     32  F   UNL d   1       6.970   5.302  -1.260  0.00  0.00    -0.167 F 
ATOM     33  F   UNL d   1       4.819   5.062  -1.098  0.00  0.00    -0.167 F 
ENDBRANCH  29  30
BRANCH  29  34
ATOM     34  C   UNL d   1       6.227   4.585   1.991  0.00  0.00     0.307 C 
ATOM     35  O   UNL d   1       5.260   4.662   2.730  0.00  0.00    -0.261 OA
BRANCH  34  36
ATOM     36  O   UNL d   1       7.451   5.102   2.314  0.00  0.00    -0.324 OA
ATOM     37  C   UNL d   1       7.497   5.703   3.612  0.00  0.00     0.213 C 
ENDBRANCH  34  36
ENDBRANCH  29  34
BRANCH  29  38
ATOM     38  O   UNL d   1       7.529   3.388   0.272  0.00  0.00    -0.368 OA
ATOM     39  H   UNL d   1       7.905   3.886  -0.480  0.00  0.00     0.212 HD
ENDBRANCH  29  38
ENDBRANCH  26  29
ENDBRANCH  21  23
ENDBRANCH   1  21
TORSDOF 11
