REMARK  2 active torsions:
REMARK  status: ('A' for Active; 'I' for Inactive)
REMARK    1  A    between atoms: C_4  and  C_1 
REMARK    2  A    between atoms: N_10  and  C_6 
ROOT
ATOM      1  N   UNL d   1      -2.118  -3.190   1.028  0.00  0.00    -0.332 N 
ATOM      2  HN  UNL d   1      -1.508  -2.890   1.788  1.00  0.00     0.168 HD
ATOM      3  C   UNL d   1      -2.356  -2.389  -0.038  0.00  0.00     0.049 A 
ATOM      4  C   UNL d   1      -2.712  -4.387   1.050  0.00  0.00     0.155 A 
ATOM      5  N   UNL d   1      -3.495  -4.869   0.084  0.00  0.00    -0.343 N 
ATOM      6  HN  UNL d   1      -3.900  -5.804   0.136  1.00  0.00     0.167 HD
ATOM      7  C   UNL d   1      -3.181  -2.797  -1.068  0.00  0.00     0.047 A 
ATOM      8  C   UNL d   1      -3.720  -4.056  -0.960  0.00  0.00     0.093 A 
ENDROOT
BRANCH   3   9
ATOM      9  C   UNL d   1      -1.714  -1.057   0.006  0.00  0.00     0.031 A 
ATOM     10  C   UNL d   1      -1.356  -0.348  -1.154  0.00  0.00     0.150 A 
ATOM     11  C   UNL d   1      -0.789   0.928  -1.088  0.00  0.00     0.073 A 
ATOM     12  F   UNL d   1      -1.549  -0.903  -2.363  0.00  0.00    -0.203 F 
ATOM     13 CL   UNL d   1      -0.384   1.781  -2.530  0.00  0.00    -0.081 Cl
ATOM     14  C   UNL d   1      -0.551   1.529   0.145  0.00  0.00     0.027 A 
ATOM     15  C   UNL d   1      -0.873   0.844   1.313  0.00  0.00     0.003 A 
ATOM     16  C   UNL d   1      -1.444  -0.432   1.242  0.00  0.00     0.017 A 
ENDBRANCH   3   9
BRANCH   4  17
ATOM     17  N   UNL d   1      -2.478  -5.203   2.136  0.00  0.00    -0.274 NA
ATOM     18  H   UNL d   1      -1.588  -4.974   2.555  0.00  0.00     0.127 HD
ATOM     19  H   UNL d   1      -2.633  -6.166   1.872  0.00  0.00     0.127 HD
ENDBRANCH   4  17
TORSDOF 2
