REMARK  4 active torsions:
REMARK  status: ('A' for Active; 'I' for Inactive)
REMARK    1  A    between atoms: C_5  and  C_1 
REMARK    2  A    between atoms: O_12  and  C_1 
REMARK    3  A    between atoms: N_3  and  O_12 
REMARK    4  A    between atoms: C_15  and  C_14 
ROOT
ATOM      1  N   UNL d   1       3.058  -0.616   1.081  0.00  0.00    -0.268 N 
ATOM      2  HN  UNL d   1       2.538  -1.214   1.723  1.00  0.00     0.194 HD
ATOM      3  C   UNL d   1       4.320  -0.352   1.172  0.00  0.00     0.126 C 
ENDROOT
BRANCH   3   4
ATOM      4  C   UNL d   1       5.116  -0.881   2.299  0.00  0.00    -0.016 A 
ATOM      5  C   UNL d   1       6.465  -0.529   2.411  0.00  0.00     0.052 A 
ATOM      6  C   UNL d   1       7.139  -0.983   3.526  0.00  0.00     0.105 A 
ATOM      7  O   UNL d   1       8.441  -0.722   3.830  0.00  0.00    -0.323 OA
ATOM      8  C   UNL d   1       6.529  -1.759   4.487  0.00  0.00     0.105 A 
ATOM      9  C   UNL d   1       8.555  -1.366   5.118  0.00  0.00     0.352 A 
ATOM     10  O   UNL d   1       7.364  -2.076   5.511  0.00  0.00    -0.323 OA
ATOM     11  C   UNL d   1       5.210  -2.139   4.386  0.00  0.00     0.040 A 
ATOM     12  C   UNL d   1       4.497  -1.691   3.272  0.00  0.00     0.016 A 
ENDBRANCH   3   4
BRANCH   1  13
ATOM     13  O   UNL d   1       2.511   0.036  -0.023  0.00  0.00    -0.199 OA
BRANCH  13  14
ATOM     14  C   UNL d   1       1.159  -0.123  -0.163  0.00  0.00     0.288 C 
ATOM     15  O   UNL d   1       0.566   0.584  -0.982  0.00  0.00    -0.262 OA
BRANCH  14  16
ATOM     16  C   UNL d   1       0.409  -1.212   0.647  0.00  0.00     0.039 C 
ATOM     17  C   UNL d   1      -1.073  -1.194   0.190  0.00  0.00     0.025 C 
ATOM     18  C   UNL d   1       0.954  -2.614   0.331  0.00  0.00     0.025 C 
ATOM     19  C   UNL d   1       0.386  -0.942   2.160  0.00  0.00     0.025 C 
ENDBRANCH  14  16
ENDBRANCH  13  14
ENDBRANCH   1  13
TORSDOF 4
