REMARK  4 active torsions:
REMARK  status: ('A' for Active; 'I' for Inactive)
REMARK    1  A    between atoms: C_3  and  N_1 
REMARK    2  A    between atoms: C_4  and  C_2 
REMARK    3  A    between atoms: O_14  and  C_4 
REMARK    4  A    between atoms: N_16  and  C_13 
ROOT
ATOM      1  C   UNL d   1       1.082   3.663  -0.686  0.00  0.00     0.066 A 
ATOM      2  C   UNL d   1       1.266   2.263  -0.812  0.00  0.00     0.047 A 
ATOM      3  C   UNL d   1       2.102   1.838  -1.856  0.00  0.00     0.032 A 
ATOM      4  C   UNL d   1       1.692   4.569  -1.577  0.00  0.00     0.043 A 
ATOM      5  C   UNL d   1       2.491   4.119  -2.623  0.00  0.00     0.007 A 
ATOM      6  C   UNL d   1       2.721   2.750  -2.728  0.00  0.00     0.025 A 
ENDROOT
BRANCH   2   7
ATOM      7  N   UNL d   1       0.719   1.364   0.108  0.00  0.00    -0.375 N 
ATOM      8  C   UNL d   1       1.396   0.084   0.424  0.00  0.00     0.154 C 
ATOM      9  C   UNL d   1       0.721  -1.114  -0.270  0.00  0.00     0.136 C 
ATOM     10  C   UNL d   1       1.347  -2.426   0.186  0.00  0.00     0.041 C 
ATOM     11  O   UNL d   1      -0.673  -1.166   0.070  0.00  0.00    -0.378 OA
ATOM     12  C   UNL d   1      -1.355   0.010  -0.400  0.00  0.00     0.136 C 
ATOM     13  C   UNL d   1      -0.768   1.296   0.223  0.00  0.00     0.154 C 
ATOM     14  C   UNL d   1      -2.822  -0.143  -0.013  0.00  0.00     0.041 C 
ENDBRANCH   2   7
BRANCH   1  15
ATOM     15  C   UNL d   1       0.350   4.294   0.446  0.00  0.00     0.178 C 
ATOM     16  O   UNL d   1      -0.240   5.356   0.354  0.00  0.00    -0.646 OA
BRANCH  15  17
ATOM     17  O   UNL d   1       0.476   3.616   1.609  0.00  0.00    -0.773 OA
ATOM     18  H   UNL d   1       0.901   2.740   1.456  0.00  0.00     0.167 HD
ENDBRANCH  15  17
ENDBRANCH   1  15
BRANCH   5  19
ATOM     19  N   UNL d   1       3.244   5.025  -3.373  0.00  0.00    -0.303 NA
ATOM     20  H   UNL d   1       3.557   4.676  -4.273  0.00  0.00     0.124 HD
ATOM     21  H   UNL d   1       2.837   5.954  -3.441  0.00  0.00     0.124 HD
ENDBRANCH   5  19
TORSDOF 4
