REMARK  4 active torsions:
REMARK  status: ('A' for Active; 'I' for Inactive)
REMARK    1  A    between atoms: N_2  and  S_1 
REMARK    2  A    between atoms: C_14  and  S_1 
REMARK    3  A    between atoms: C_3  and  C_6 
REMARK    4  A    between atoms: C_17  and  C_9 
ROOT
ATOM      1  N   UNL d   1       0.476   1.643   0.501  0.00  0.00    -0.188 N 
ATOM      2  N   UNL d   1       1.088   2.783   0.089  0.00  0.00    -0.284 N 
ATOM      3  HN  UNL d   1       1.913   2.871  -0.504  1.00  0.00     0.188 HD
ATOM      4  C   UNL d   1       0.365   3.764   0.635  0.00  0.00     0.065 A 
ATOM      5  C   UNL d   1      -0.677   3.262   1.444  0.00  0.00     0.052 A 
ATOM      6  C   UNL d   1      -0.593   1.892   1.329  0.00  0.00     0.131 A 
ENDROOT
BRANCH   4   7
ATOM      7  C   UNL d   1       0.642   5.176   0.395  0.00  0.00     0.053 A 
ATOM      8  C   UNL d   1       1.124   5.778  -0.814  0.00  0.00     0.080 A 
ATOM      9  N   UNL d   1       1.315   7.096  -0.618  0.00  0.00    -0.259 N 
ATOM     10  O   UNL d   1       0.942   7.361   0.682  0.00  0.00    -0.241 OA
ATOM     11  HN  UNL d   1       1.668   7.768  -1.299  1.00  0.00     0.195 HD
ATOM     12  C   UNL d   1       0.531   6.218   1.286  0.00  0.00     0.087 A 
ATOM     13  C   UNL d   1       0.116   6.337   2.696  0.00  0.00     0.080 C 
BRANCH   8  14
ATOM     14  C   UNL d   1       1.412   5.173  -2.123  0.00  0.00    -0.006 A 
ATOM     15  C   UNL d   1       2.465   5.657  -2.917  0.00  0.00     0.015 A 
ATOM     16  C   UNL d   1       2.803   5.019  -4.117  0.00  0.00     0.024 A 
ATOM     17  C   UNL d   1       2.098   3.890  -4.527  0.00  0.00     0.034 A 
ATOM     18  C   UNL d   1       1.026   3.423  -3.775  0.00  0.00     0.024 A 
ATOM     19 CL   UNL d   1       2.553   3.065  -5.966  0.00  0.00    -0.084 Cl
ATOM     20  C   UNL d   1       0.666   4.085  -2.599  0.00  0.00     0.015 A 
ENDBRANCH   8  14
ENDBRANCH   4   7
BRANCH   1  21
ATOM     21  S   UNL d   1       0.907   0.045   0.000  0.00  0.00     0.282 S 
ATOM     22  O   UNL d   1       0.701   0.013  -1.439  0.00  0.00    -0.198 OA
ATOM     23  O   UNL d   1       0.205  -0.849   0.899  0.00  0.00    -0.198 OA
BRANCH  21  24
ATOM     24  C   UNL d   1       2.644  -0.060   0.333  0.00  0.00     0.081 A 
ATOM     25  C   UNL d   1       3.120  -1.000   1.251  0.00  0.00     0.026 A 
ATOM     26  C   UNL d   1       4.494  -1.101   1.480  0.00  0.00     0.008 A 
ATOM     27  C   UNL d   1       5.393  -0.269   0.797  0.00  0.00    -0.062 A 
ATOM     28  C   UNL d   1       4.900   0.672  -0.116  0.00  0.00     0.008 A 
ATOM     29  C   UNL d   1       6.869  -0.412   1.026  0.00  0.00     0.048 C 
ATOM     30  C   UNL d   1       3.529   0.773  -0.355  0.00  0.00     0.026 A 
ENDBRANCH  21  24
ENDBRANCH   1  21
TORSDOF 4
