REMARK  3 active torsions:
REMARK  status: ('A' for Active; 'I' for Inactive)
REMARK       I    between atoms: N_2  and  C_1 
REMARK       I    between atoms: N_3  and  C_1 
REMARK    1  A    between atoms: C_17  and  N_3 
REMARK    2  A    between atoms: C_15  and  N_4 
REMARK    3  A    between atoms: C_14  and  C_15 
ROOT
ATOM      1  C   UNL d   1       0.803   0.091   0.082  0.00  0.00     0.323 C 
ATOM      2  N   UNL d   1       0.282  -1.197   0.022  0.00  0.00    -0.331 N 
ATOM      3  N   UNL d   1       0.305   1.000  -0.822  0.00  0.00    -0.309 N 
ATOM      4  N   UNL d   1      -0.604  -4.021   0.146  0.00  0.00     0.095 N 
ATOM      5  O   UNL d   1       1.694   0.345   0.895  0.00  0.00    -0.247 OA
ATOM      6  C   UNL d   1       0.849  -2.142   0.994  0.00  0.00     0.158 C 
ATOM      7  C   UNL d   1      -1.009  -1.589  -0.559  0.00  0.00     0.158 C 
ATOM      8  C   UNL d   1       0.760  -3.598   0.522  0.00  0.00     0.292 C 
ATOM      9  C   UNL d   1      -1.083  -3.097  -0.908  0.00  0.00     0.292 C 
ATOM     10  H   UNL d   1      -0.435   0.707  -1.431  0.00  0.00     0.170 HD
ENDROOT
BRANCH   3  11
ATOM     11  C   UNL d   1       0.875   2.264  -1.127  0.00  0.00     0.036 A 
ATOM     12  C   UNL d   1       1.995   2.781  -0.472  0.00  0.00     0.030 A 
ATOM     13  C   UNL d   1       2.623   3.940  -0.935  0.00  0.00     0.009 A 
ATOM     14  C   UNL d   1       2.133   4.616  -2.052  0.00  0.00    -0.062 A 
ATOM     15  C   UNL d   1       0.956   4.158  -2.652  0.00  0.00     0.009 A 
ATOM     16  C   UNL d   1       2.899   5.782  -2.596  0.00  0.00     0.048 C 
ATOM     17  C   UNL d   1       0.331   2.991  -2.192  0.00  0.00     0.030 A 
ENDBRANCH   3  11
BRANCH   4  18
ATOM     18  C   UNL d   1      -1.535  -4.030   1.288  0.00  0.00     0.311 C 
BRANCH  18  19
ATOM     19  C   UNL d   1      -1.144  -4.953   2.425  0.00  0.00    -0.027 A 
ATOM     20  C   UNL d   1      -0.929  -4.432   3.714  0.00  0.00     0.048 A 
ATOM     21  C   UNL d   1      -0.678  -5.317   4.741  0.00  0.00     0.105 A 
ATOM     22  O   UNL d   1      -0.486  -4.985   6.046  0.00  0.00    -0.323 OA
ATOM     23  C   UNL d   1      -0.623  -6.674   4.531  0.00  0.00     0.105 A 
ATOM     24  C   UNL d   1      -0.352  -6.292   6.640  0.00  0.00     0.352 A 
ATOM     25  O   UNL d   1      -0.401  -7.368   5.680  0.00  0.00    -0.323 OA
ATOM     26  C   UNL d   1      -0.792  -7.221   3.277  0.00  0.00     0.040 A 
ATOM     27  C   UNL d   1      -1.052  -6.348   2.215  0.00  0.00     0.012 A 
ENDBRANCH  18  19
ENDBRANCH   4  18
TORSDOF 3
