REMARK  4 active torsions:
REMARK  status: ('A' for Active; 'I' for Inactive)
REMARK    1  A    between atoms: C_13  and  C_9 
REMARK    2  A    between atoms: C_20  and  C_10 
REMARK    3  A    between atoms: C_11  and  C_14 
REMARK    4  A    between atoms: C_12  and  C_15 
ROOT
ATOM      1  N   UNL d   1      -0.302  -0.589   0.028  0.00  0.00    -0.203 N 
ATOM      2  C   UNL d   1      -0.265   0.791   0.011  0.00  0.00     0.133 A 
ATOM      3  N   UNL d   1      -1.571  -1.067   0.029  0.00  0.00    -0.289 N 
ATOM      4  HN  UNL d   1      -1.869  -2.042   0.039  1.00  0.00     0.188 HD
ATOM      5  C   UNL d   1       0.841  -1.409   0.025  0.00  0.00     0.270 A 
ATOM      6  C   UNL d   1      -1.565   1.219   0.003  0.00  0.00     0.082 A 
ATOM      7  C   UNL d   1       2.130  -0.661   0.006  0.00  0.00     0.106 A 
ATOM      8  N   UNL d   1       0.936   1.413  -0.004  0.00  0.00    -0.340 N 
ATOM      9  C   UNL d   1       2.111   0.685  -0.005  0.00  0.00     0.049 A 
ATOM     10  C   UNL d   1      -2.350   0.029   0.013  0.00  0.00     0.062 A 
ATOM     11  O   UNL d   1       0.774  -2.633   0.037  0.00  0.00    -0.266 OA
ATOM     12  H   UNL d   1       1.024   2.428  -0.025  0.00  0.00     0.167 HD
ENDROOT
BRANCH   9  13
ATOM     13  C   UNL d   1       3.376   1.436   0.010  0.00  0.00    -0.008 A 
ATOM     14  C   UNL d   1       4.013   1.801  -1.185  0.00  0.00     0.029 A 
ATOM     15  C   UNL d   1       5.226   2.512  -1.164  0.00  0.00     0.049 A 
ATOM     16  C   UNL d   1       5.791   2.857   0.075  0.00  0.00     0.032 A 
ATOM     17  C   UNL d   1       5.167   2.503   1.281  0.00  0.00     0.049 A 
ATOM     18  C   UNL d   1       3.958   1.790   1.235  0.00  0.00     0.029 A 
BRANCH  15  19
ATOM     19  C   UNL d   1       5.915   2.894  -2.455  0.00  0.00     0.417 C 
ATOM     20  F   UNL d   1       7.078   3.579  -2.262  0.00  0.00    -0.166 F 
ATOM     21  F   UNL d   1       6.241   1.811  -3.211  0.00  0.00    -0.166 F 
ATOM     22  F   UNL d   1       5.141   3.689  -3.242  0.00  0.00    -0.166 F 
ENDBRANCH  15  19
BRANCH  17  23
ATOM     23  C   UNL d   1       5.781   2.876   2.610  0.00  0.00     0.417 C 
ATOM     24  F   UNL d   1       6.955   3.554   2.492  0.00  0.00    -0.166 F 
ATOM     25  F   UNL d   1       4.962   3.671   3.352  0.00  0.00    -0.166 F 
ATOM     26  F   UNL d   1       6.051   1.788   3.380  0.00  0.00    -0.166 F 
ENDBRANCH  17  23
ENDBRANCH   9  13
BRANCH  10  27
ATOM     27  C   UNL d   1      -3.812  -0.069  -0.009  0.00  0.00    -0.008 A 
ATOM     28  C   UNL d   1      -4.610   0.953   0.526  0.00  0.00     0.014 A 
ATOM     29  C   UNL d   1      -6.004   0.860   0.489  0.00  0.00     0.001 A 
ATOM     30  C   UNL d   1      -6.615  -0.256  -0.080  0.00  0.00     0.000 A 
ATOM     31  C   UNL d   1      -5.834  -1.280  -0.613  0.00  0.00     0.001 A 
ATOM     32  C   UNL d   1      -4.440  -1.187  -0.577  0.00  0.00     0.014 A 
ENDBRANCH  10  27
TORSDOF 4
