REMARK  4 active torsions:
REMARK  status: ('A' for Active; 'I' for Inactive)
REMARK    1  A    between atoms: C_6  and  C_1 
REMARK    2  A    between atoms: C_11  and  N_2 
REMARK    3  A    between atoms: C_7  and  C_3 
REMARK       I    between atoms: N_13  and  C_7 
REMARK    4  A    between atoms: N_16  and  N_13 
ROOT
ATOM      1  C   UNL d   1      -0.178  -1.233   0.123  0.00  0.00     0.103 C 
ATOM      2  N   UNL d   1       1.125  -0.750   0.200  0.00  0.00    -0.253 N 
ATOM      3  C   UNL d   1      -1.016  -0.114   0.059  0.00  0.00     0.087 C 
ATOM      4  N   UNL d   1       1.156   0.578   0.384  0.00  0.00    -0.297 N 
ATOM      5  HN  UNL d   1       1.961   1.150   0.636  1.00  0.00     0.187 HD
ATOM      6  C   UNL d   1      -0.096   0.987   0.166  0.00  0.00     0.040 C 
ATOM      7  C   UNL d   1      -0.314   2.460   0.119  0.00  0.00     0.071 C 
ENDROOT
BRANCH   3   8
ATOM      8  C   UNL d   1      -2.482   0.042   0.009  0.00  0.00     0.270 C 
ATOM      9  N   UNL d   1      -3.263  -1.103   0.031  0.00  0.00    -0.285 N 
ATOM     10  H   UNL d   1      -2.838  -2.020  -0.091  0.00  0.00     0.184 HD
ATOM     11  O   UNL d   1      -2.987   1.164  -0.019  0.00  0.00    -0.266 OA
BRANCH   9  12
ATOM     12  N   UNL d   1      -4.677  -0.995  -0.028  0.00  0.00    -0.225 NA
ATOM     13  C   UNL d   1      -5.198  -1.535  -1.297  0.00  0.00     0.140 C 
ATOM     14  C   UNL d   1      -6.733  -1.486  -1.340  0.00  0.00     0.183 C 
ATOM     15  O   UNL d   1      -7.311  -2.169  -0.219  0.00  0.00    -0.389 OA
ATOM     16  C   UNL d   1      -6.851  -1.575   1.003  0.00  0.00     0.183 C 
ATOM     17  C   UNL d   1      -5.322  -1.669   1.114  0.00  0.00     0.140 C 
ENDBRANCH   9  12
ENDBRANCH   3   8
BRANCH   1  18
ATOM     18  C   UNL d   1      -0.525  -2.686   0.170  0.00  0.00     0.087 A 
ATOM     19  N   UNL d   1      -1.588  -3.199  -0.461  0.00  0.00    -0.259 N 
ATOM     20  O   UNL d   1      -1.493  -4.574  -0.309  0.00  0.00    -0.242 OA
ATOM     21  HN  UNL d   1      -2.318  -2.684  -0.952  1.00  0.00     0.195 HD
ATOM     22  C   UNL d   1      -0.402  -4.870   0.447  0.00  0.00     0.074 A 
ATOM     23  C   UNL d   1       0.205  -3.703   0.828  0.00  0.00     0.068 A 
ATOM     24  C   UNL d   1      -0.095  -6.294   0.661  0.00  0.00     0.079 C 
ENDBRANCH   1  18
BRANCH   2  25
ATOM     25  C   UNL d   1       2.374  -1.424   0.062  0.00  0.00     0.058 A 
ATOM     26  C   UNL d   1       3.470  -0.957   0.805  0.00  0.00     0.058 A 
ATOM     27  C   UNL d   1       4.693  -1.622   0.735  0.00  0.00     0.074 A 
ATOM     28 CL   UNL d   1       6.006  -1.085   1.709  0.00  0.00    -0.081 Cl
ATOM     29  C   UNL d   1       4.835  -2.725  -0.105  0.00  0.00     0.138 A 
ATOM     30  C   UNL d   1       3.767  -3.164  -0.886  0.00  0.00     0.046 A 
ATOM     31  F   UNL d   1       5.998  -3.386  -0.177  0.00  0.00    -0.204 F 
ATOM     32  C   UNL d   1       2.534  -2.512  -0.811  0.00  0.00     0.034 A 
ENDBRANCH   2  25
TORSDOF 4
