REMARK  5 active torsions:
REMARK  status: ('A' for Active; 'I' for Inactive)
REMARK    1  A    between atoms: S_14  and  C_7 
REMARK    2  A    between atoms: C_13  and  C_20 
REMARK       I    between atoms: N_15  and  C_13 
REMARK    3  A    between atoms: C_20  and  S_14 
REMARK    4  A    between atoms: C_21  and  N_15 
REMARK    5  A    between atoms: C_22  and  C_16 
ROOT
ATOM      1  S   UNL d   1       3.695  -2.626   1.518  0.00  0.00    -0.083 SA
ENDROOT
BRANCH   1   2
ATOM      2  C   UNL d   1       4.572  -1.320   2.255  0.00  0.00     0.175 A 
ATOM      3  N   UNL d   1       5.091  -0.307   1.509  0.00  0.00    -0.167 N 
ATOM      4  C   UNL d   1       5.891   0.304   2.353  0.00  0.00     0.706 A 
ATOM      5  HN  UNL d   1       4.904  -0.078   0.533  1.00  0.00     0.186 HD
ATOM      6  N   UNL d   1       5.840  -0.344   3.594  0.00  0.00    -0.089 N 
ATOM      7  N   UNL d   1       6.781   1.291   2.080  0.00  0.00    -0.194 N 
ATOM      8  N   UNL d   1       4.927  -1.343   3.536  0.00  0.00    -0.258 N 
ATOM      9  C   UNL d   1       6.716   0.013   4.625  0.00  0.00     0.050 A 
ATOM     10  HN  UNL d   1       4.597  -1.955   4.282  1.00  0.00     0.190 HD
ATOM     11  C   UNL d   1       6.641  -0.706   5.936  0.00  0.00     0.071 C 
ATOM     12  C   UNL d   1       7.634   0.969   4.386  0.00  0.00     0.052 A 
ATOM     13  C   UNL d   1       7.630   1.578   3.018  0.00  0.00     0.024 A 
ATOM     14  C   UNL d   1       8.712   2.578   2.695  0.00  0.00     0.068 C 
ATOM     15  HN  UNL d   1       6.782   1.781   1.186  1.00  0.00     0.184 HD
ENDBRANCH   1   2
BRANCH   1  16
ATOM     16  C   UNL d   1       4.493  -2.615  -0.116  0.00  0.00     0.185 C 
BRANCH  16  17
ATOM     17  C   UNL d   1       5.956  -3.042  -0.030  0.00  0.00     0.231 C 
ATOM     18  N   UNL d   1       6.854  -1.986   0.025  0.00  0.00    -0.327 N 
ATOM     19  H   UNL d   1       6.462  -1.070   0.230  0.00  0.00     0.169 HD
ATOM     20  O   UNL d   1       6.255  -4.236  -0.024  0.00  0.00    -0.272 OA
BRANCH  18  21
ATOM     21  C   UNL d   1       8.261  -2.059  -0.077  0.00  0.00     0.034 A 
ATOM     22  C   UNL d   1       8.939  -3.196  -0.514  0.00  0.00     0.030 A 
ATOM     23  C   UNL d   1      10.326  -3.176  -0.694  0.00  0.00     0.010 A 
ATOM     24  C   UNL d   1      11.076  -2.024  -0.429  0.00  0.00    -0.055 A 
ATOM     25  C   UNL d   1      10.402  -0.897   0.056  0.00  0.00     0.010 A 
ATOM     26  C   UNL d   1       9.009  -0.912   0.214  0.00  0.00     0.030 A 
BRANCH  24  27
ATOM     27  C   UNL d   1      12.566  -1.964  -0.726  0.00  0.00     0.010 C 
ATOM     28  C   UNL d   1      13.358  -3.026   0.040  0.00  0.00     0.015 C 
ATOM     29  C   UNL d   1      12.817  -2.087  -2.233  0.00  0.00     0.015 C 
ENDBRANCH  24  27
ENDBRANCH  18  21
ENDBRANCH  16  17
ENDBRANCH   1  16
TORSDOF 5
