REMARK  6 active torsions:
REMARK  status: ('A' for Active; 'I' for Inactive)
REMARK    1  A    between atoms: C_2  and  S_1 
REMARK    2  A    between atoms: N_7  and  S_1 
REMARK    3  A    between atoms: C_15  and  N_7 
REMARK    4  A    between atoms: C_11  and  S_13 
REMARK    5  A    between atoms: S_13  and  C_16 
REMARK    6  A    between atoms: C_16  and  C_15 
ROOT
ATOM      1  S   UNL d   1       3.047  -1.705   0.555  0.00  0.00     0.258 S 
ATOM      2  O   UNL d   1       2.040  -2.532  -0.070  0.00  0.00    -0.201 OA
ATOM      3  O   UNL d   1       4.458  -1.935   0.355  0.00  0.00    -0.201 OA
ENDROOT
BRANCH   1   4
ATOM      4  C   UNL d   1       2.737  -1.739   2.304  0.00  0.00     0.081 A 
ATOM      5  C   UNL d   1       1.435  -1.516   2.761  0.00  0.00     0.050 A 
ATOM      6  C   UNL d   1       1.192  -1.464   4.134  0.00  0.00     0.057 A 
ATOM      7 CL   UNL d   1      -0.424  -1.136   4.649  0.00  0.00    -0.083 Cl
ATOM      8  C   UNL d   1       2.245  -1.650   5.041  0.00  0.00     0.055 A 
ATOM      9  C   UNL d   1       3.541  -1.894   4.569  0.00  0.00     0.027 A 
ATOM     10 CL   UNL d   1       2.018  -1.576   6.752  0.00  0.00    -0.083 Cl
ATOM     11  C   UNL d   1       3.791  -1.939   3.196  0.00  0.00     0.027 A 
ENDBRANCH   1   4
BRANCH   1  12
ATOM     12  N   UNL d   1       2.681  -0.122   0.166  0.00  0.00    -0.315 N 
ATOM     13  H   UNL d   1       1.799   0.001  -0.327  0.00  0.00     0.172 HD
BRANCH  12  14
ATOM     14  C   UNL d   1       3.276   1.038   0.840  0.00  0.00     0.142 C 
BRANCH  14  15
ATOM     15  C   UNL d   1       4.801   1.126   0.763  0.00  0.00     0.095 C 
BRANCH  15  16
ATOM     16  S   UNL d   1       5.376   1.303  -0.961  0.00  0.00    -0.159 SA
BRANCH  16  17
ATOM     17  C   UNL d   1       7.213   1.260  -0.754  0.00  0.00    -0.003 C 
ATOM     18  C   UNL d   1       7.680  -0.101  -0.222  0.00  0.00     0.026 C 
ATOM     19  C   UNL d   1       7.806   1.479  -2.155  0.00  0.00     0.026 C 
ATOM     20  C   UNL d   1       7.679   2.389   0.173  0.00  0.00     0.026 C 
ENDBRANCH  16  17
ENDBRANCH  15  16
ENDBRANCH  14  15
ENDBRANCH  12  14
ENDBRANCH   1  12
TORSDOF 6
