REMARK  6 active torsions:
REMARK  status: ('A' for Active; 'I' for Inactive)
REMARK    1  A    between atoms: C_4  and  C_1 
REMARK    2  A    between atoms: N_5  and  C_2 
REMARK       I    between atoms: C_3  and  N_6 
REMARK       I    between atoms: N_9  and  C_3 
REMARK    3  A    between atoms: O_15  and  C_4 
REMARK    4  A    between atoms: N_6  and  C_10 
REMARK    5  A    between atoms: C_13  and  N_9 
REMARK    6  A    between atoms: C_24  and  O_15 
ROOT
ATOM      1  C   UNL d   1       1.680  -0.182   0.062  0.00  0.00     0.068 C 
ATOM      2  C   UNL d   1       0.894  -1.256  -0.396  0.00  0.00     0.046 C 
ATOM      3  C   UNL d   1       1.119   1.106   0.151  0.00  0.00     0.049 C 
ATOM      4  C   UNL d   1      -0.299  -0.925  -1.063  0.00  0.00     0.032 C 
ATOM      5  C   UNL d   1      -0.193   1.356  -0.258  0.00  0.00     0.037 C 
ATOM      6  C   UNL d   1      -0.839   0.367  -0.997  0.00  0.00     0.032 C 
ENDROOT
BRANCH   5   7
ATOM      7  N   UNL d   1      -0.926   2.524   0.096  0.00  0.00    -0.309 N 
ATOM      8  C   UNL d   1      -0.537   3.440   1.065  0.00  0.00     0.325 C 
ATOM      9  N   UNL d   1      -1.534   4.353   1.380  0.00  0.00    -0.309 N 
ATOM     10  O   UNL d   1       0.564   3.422   1.612  0.00  0.00    -0.247 OA
ATOM     11  H   UNL d   1      -2.439   4.221   0.954  0.00  0.00     0.170 HD
ATOM     12  H   UNL d   1      -1.891   2.544  -0.199  0.00  0.00     0.170 HD
BRANCH   9  13
ATOM     13  C   UNL d   1      -1.457   5.344   2.397  0.00  0.00     0.036 A 
ATOM     14  C   UNL d   1      -0.281   5.652   3.098  0.00  0.00     0.032 A 
ATOM     15  C   UNL d   1      -0.284   6.570   4.152  0.00  0.00     0.044 A 
ATOM     16  C   UNL d   1      -1.466   7.200   4.504  0.00  0.00     0.116 A 
ATOM     17  C   UNL d   1      -2.636   6.953   3.797  0.00  0.00     0.044 A 
ATOM     18  F   UNL d   1      -1.478   8.055   5.535  0.00  0.00    -0.206 F 
ATOM     19  C   UNL d   1      -2.629   6.033   2.739  0.00  0.00     0.032 A 
ENDBRANCH   9  13
ENDBRANCH   5   7
BRANCH   1  20
ATOM     20  C   UNL d   1       3.132  -0.352   0.366  0.00  0.00     0.295 C 
ATOM     21  O   UNL d   1       3.865  -1.150  -0.197  0.00  0.00    -0.259 OA
BRANCH  20  22
ATOM     22  O   UNL d   1       3.517   0.522   1.332  0.00  0.00    -0.318 OA
BRANCH  22  23
ATOM     23  C   UNL d   1       4.897   0.475   1.730  0.00  0.00     0.174 C 
ATOM     24  C   UNL d   1       5.777   1.269   0.780  0.00  0.00     0.034 C 
ENDBRANCH  22  23
ENDBRANCH  20  22
ENDBRANCH   1  20
BRANCH   2  25
ATOM     25  N   UNL d   1       1.067  -2.605  -0.052  0.00  0.00    -0.380 N 
ATOM     26  C   UNL d   1       1.608  -2.902   1.283  0.00  0.00     0.123 C 
ATOM     27  C   UNL d   1       1.204  -4.313   1.708  0.00  0.00     0.020 C 
ATOM     28  C   UNL d   1       1.611  -5.338   0.655  0.00  0.00     0.003 C 
ATOM     29  C   UNL d   1       1.036  -4.959  -0.709  0.00  0.00     0.020 C 
ATOM     30  C   UNL d   1       1.438  -3.536  -1.119  0.00  0.00     0.123 C 
ENDBRANCH   2  25
TORSDOF 6
