REMARK  4 active torsions:
REMARK  status: ('A' for Active; 'I' for Inactive)
REMARK    1  A    between atoms: C_8  and  N_3 
REMARK    2  A    between atoms: N_7  and  C_6 
REMARK    3  A    between atoms: C_12  and  C_6 
REMARK    4  A    between atoms: C_15  and  N_7 
ROOT
ATOM      1  C   UNL d   1      -0.551  -1.014  -0.179  0.00  0.00     0.081 C 
ATOM      2  C   UNL d   1       0.947  -1.016  -0.065  0.00  0.00     0.127 C 
ATOM      3  N   UNL d   1       1.296   0.317   0.220  0.00  0.00    -0.265 N 
ATOM      4  C   UNL d   1       0.217   1.146   0.462  0.00  0.00     0.304 C 
ATOM      5  C   UNL d   1      -1.030   0.296   0.308  0.00  0.00     0.255 C 
ATOM      6  C   UNL d   1      -1.449  -1.897  -0.667  0.00  0.00     0.041 C 
ATOM      7  S   UNL d   1       2.001  -2.319  -0.128  0.00  0.00    -0.059 SA
ATOM      8  O   UNL d   1       0.171   2.336   0.705  0.00  0.00    -0.263 OA
ATOM      9  O   UNL d   1      -2.160   0.622   0.599  0.00  0.00    -0.281 OA
ENDROOT
BRANCH   6  10
ATOM     10  N   UNL d   1      -2.824  -1.661  -0.790  0.00  0.00    -0.258 NA
ATOM     11  H   UNL d   1      -3.140  -0.937  -0.123  0.00  0.00     0.134 HD
BRANCH  10  12
ATOM     12  C   UNL d   1      -3.418  -1.309  -2.040  0.00  0.00     0.013 A 
ATOM     13  C   UNL d   1      -2.674  -0.875  -3.147  0.00  0.00     0.025 A 
ATOM     14  C   UNL d   1      -3.296  -0.581  -4.362  0.00  0.00     0.025 A 
ATOM     15  C   UNL d   1      -4.679  -0.688  -4.470  0.00  0.00     0.034 A 
ATOM     16  C   UNL d   1      -5.442  -1.054  -3.365  0.00  0.00     0.025 A 
ATOM     17 CL   UNL d   1      -5.441  -0.368  -5.978  0.00  0.00    -0.084 Cl
ATOM     18  C   UNL d   1      -4.813  -1.354  -2.152  0.00  0.00     0.025 A 
ENDBRANCH  10  12
ENDBRANCH   6  10
BRANCH   6  19
ATOM     19  C   UNL d   1      -1.046  -3.262  -1.085  0.00  0.00    -0.014 A 
ATOM     20  C   UNL d   1      -1.113  -4.307  -0.151  0.00  0.00     0.013 A 
ATOM     21  C   UNL d   1      -0.707  -5.597  -0.498  0.00  0.00     0.001 A 
ATOM     22  C   UNL d   1      -0.244  -5.859  -1.785  0.00  0.00     0.000 A 
ATOM     23  C   UNL d   1      -0.189  -4.833  -2.727  0.00  0.00     0.001 A 
ATOM     24  C   UNL d   1      -0.586  -3.540  -2.381  0.00  0.00     0.013 A 
ENDBRANCH   6  19
BRANCH   3  25
ATOM     25  C   UNL d   1       2.620   0.813   0.323  0.00  0.00     0.044 A 
ATOM     26  C   UNL d   1       3.007   1.533   1.461  0.00  0.00     0.032 A 
ATOM     27  C   UNL d   1       4.330   1.958   1.612  0.00  0.00     0.026 A 
ATOM     28  C   UNL d   1       5.259   1.703   0.606  0.00  0.00     0.034 A 
ATOM     29  C   UNL d   1       4.875   1.036  -0.555  0.00  0.00     0.026 A 
ATOM     30 CL   UNL d   1       6.890   2.211   0.801  0.00  0.00    -0.084 Cl
ATOM     31  C   UNL d   1       3.559   0.586  -0.693  0.00  0.00     0.032 A 
ENDBRANCH   3  25
TORSDOF 4
