REMARK  3 active torsions:
REMARK  status: ('A' for Active; 'I' for Inactive)
REMARK    1  A    between atoms: S_5  and  C_1 
REMARK    2  A    between atoms: C_11  and  S_5 
REMARK    3  A    between atoms: C_8  and  C_11 
ROOT
ATOM      1  C   UNL d   1      -0.707   3.986   0.016  0.00  0.00     0.119 C 
ENDROOT
BRANCH   1   2
ATOM      2  C   UNL d   1      -1.502   5.268  -0.058  0.00  0.00    -0.046 A 
ATOM      3  C   UNL d   1      -1.818   5.983   1.107  0.00  0.00     0.027 A 
ATOM      4  C   UNL d   1      -2.535   7.179   1.025  0.00  0.00     0.012 A 
ATOM      5 BR   UNL d   1      -2.932   8.142   2.604  0.00  0.00    -0.051 Br
ATOM      6  C   UNL d   1      -2.955   7.675  -0.206  0.00  0.00     0.038 A 
ATOM      7  C   UNL d   1      -2.655   6.961  -1.363  0.00  0.00     0.012 A 
ATOM      8  C   UNL d   1      -1.938   5.765  -1.297  0.00  0.00     0.027 A 
ATOM      9 BR   UNL d   1      -3.217   7.621  -3.044  0.00  0.00    -0.051 Br
ENDBRANCH   1   2
BRANCH   1  10
ATOM     10  S   UNL d   1      -1.785   2.526   0.147  0.00  0.00    -0.108 SA
BRANCH  10  11
ATOM     11  C   UNL d   1      -0.554   1.232   0.139  0.00  0.00     0.069 A 
ATOM     12  N   UNL d   1       0.748   1.584   0.058  0.00  0.00    -0.361 N 
ATOM     13  C   UNL d   1       1.662   0.589   0.047  0.00  0.00     0.089 A 
ATOM     14  HN  UNL d   1       1.030   2.563   0.007  1.00  0.00     0.165 HD
ATOM     15  C   UNL d   1       1.340  -0.756   0.113  0.00  0.00     0.017 A 
ATOM     16  C   UNL d   1      -0.003  -1.101   0.199  0.00  0.00     0.004 A 
ATOM     17  C   UNL d   1      -0.968  -0.095   0.212  0.00  0.00     0.037 A 
ENDBRANCH  10  11
ENDBRANCH   1  10
TORSDOF 3
