REMARK  11 active torsions:
REMARK  status: ('A' for Active; 'I' for Inactive)
REMARK    1  A    between atoms: O_4  and  C_1 
REMARK    2  A    between atoms: C_11  and  C_1 
REMARK       I    between atoms: C_2  and  N_6 
REMARK    3  A    between atoms: C_12  and  C_2 
REMARK    4  A    between atoms: C_3  and  O_4 
REMARK    5  A    between atoms: O_15  and  C_5 
REMARK    6  A    between atoms: N_6  and  C_20 
REMARK    7  A    between atoms: C_17  and  C_11 
REMARK    8  A    between atoms: C_18  and  C_12 
REMARK    9  A    between atoms: C_16  and  C_13 
REMARK   10  A    between atoms: C_19  and  C_16 
REMARK   11  A    between atoms: C_20  and  C_19 
ROOT
ATOM      1  C   UNL d   1       0.640  -1.529  -1.944  0.00  0.00     0.112 A 
ATOM      2  C   UNL d   1       1.239  -2.728  -1.538  0.00  0.00     0.102 A 
ATOM      3  C   UNL d   1       1.918  -3.506  -2.489  0.00  0.00     0.046 A 
ATOM      4  C   UNL d   1       0.579  -1.199  -3.299  0.00  0.00     0.041 A 
ATOM      5  C   UNL d   1       1.897  -3.174  -3.851  0.00  0.00    -0.055 A 
ATOM      6  C   UNL d   1       1.207  -2.015  -4.241  0.00  0.00     0.010 A 
ENDROOT
BRANCH   5   7
ATOM      7  C   UNL d   1       2.659  -3.947  -4.907  0.00  0.00     0.041 C 
BRANCH   7   8
ATOM      8  C   UNL d   1       2.876  -5.461  -4.738  0.00  0.00     0.029 C 
BRANCH   8   9
ATOM      9  C   UNL d   1       1.645  -6.347  -5.012  0.00  0.00     0.080 C 
ATOM     10  C   UNL d   1       0.556  -6.219  -3.950  0.00  0.00     0.032 C 
BRANCH   9  11
ATOM     11  N   UNL d   1       2.059  -7.751  -5.103  0.00  0.00    -0.357 N 
ATOM     12  C   UNL d   1       1.286  -8.682  -5.776  0.00  0.00     0.222 C 
ATOM     13  O   UNL d   1       0.290  -8.381  -6.430  0.00  0.00    -0.273 OA
ATOM     14  H   UNL d   1       2.700  -8.102  -4.404  0.00  0.00     0.162 HD
BRANCH  12  15
ATOM     15  C   UNL d   1       1.768 -10.117  -5.652  0.00  0.00     0.141 C 
BRANCH  15  16
ATOM     16  C   UNL d   1       1.115 -10.890  -4.532  0.00  0.00    -0.050 A 
ATOM     17  C   UNL d   1      -0.279 -11.031  -4.470  0.00  0.00     0.007 A 
ATOM     18  C   UNL d   1      -0.874 -11.800  -3.464  0.00  0.00     0.001 A 
ATOM     19  C   UNL d   1      -0.082 -12.442  -2.515  0.00  0.00     0.000 A 
ATOM     20  C   UNL d   1       1.304 -12.313  -2.567  0.00  0.00     0.001 A 
ATOM     21  C   UNL d   1       1.900 -11.545  -3.569  0.00  0.00     0.007 A 
ENDBRANCH  15  16
ENDBRANCH  12  15
ENDBRANCH   9  11
ENDBRANCH   8   9
ENDBRANCH   7   8
ENDBRANCH   5   7
BRANCH   2  22
ATOM     22  O   UNL d   1       1.150  -3.071  -0.212  0.00  0.00    -0.353 OA
ATOM     23  C   UNL d   1       1.073  -4.478   0.025  0.00  0.00     0.210 C 
ENDBRANCH   2  22
BRANCH   1  24
ATOM     24  O   UNL d   1       0.030  -0.698  -0.980  0.00  0.00    -0.276 OA
BRANCH  24  25
ATOM     25  C   UNL d   1       0.336   0.667  -1.021  0.00  0.00     0.268 C 
ATOM     26  O   UNL d   1       1.110   1.216  -1.799  0.00  0.00    -0.265 OA
BRANCH  25  27
ATOM     27  C   UNL d   1      -0.465   1.418   0.017  0.00  0.00     0.150 C 
BRANCH  27  28
ATOM     28  C   UNL d   1       0.128   1.390   1.403  0.00  0.00    -0.049 A 
ATOM     29  C   UNL d   1       0.652   2.554   1.986  0.00  0.00     0.007 A 
ATOM     30  C   UNL d   1       1.178   2.524   3.280  0.00  0.00     0.001 A 
ATOM     31  C   UNL d   1       1.190   1.334   4.003  0.00  0.00     0.000 A 
ATOM     32  C   UNL d   1       0.672   0.173   3.435  0.00  0.00     0.001 A 
ATOM     33  C   UNL d   1       0.141   0.199   2.147  0.00  0.00     0.007 A 
ENDBRANCH  27  28
ENDBRANCH  25  27
ENDBRANCH  24  25
ENDBRANCH   1  24
TORSDOF 11
