REMARK  2 active torsions:
REMARK  status: ('A' for Active; 'I' for Inactive)
REMARK    1  A    between atoms: S_11  and  C_3 
REMARK    2  A    between atoms: C_9  and  C_4 
ROOT
ATOM      1  N   UNL d   1       1.359   0.408  -0.001  0.00  0.00    -0.334 N 
ATOM      2  HN  UNL d   1       2.331   0.717  -0.040  1.00  0.00     0.168 HD
ATOM      3  C   UNL d   1       0.341   1.278   0.129  0.00  0.00     0.159 A 
ATOM      4  C   UNL d   1       1.021  -0.901  -0.079  0.00  0.00     0.061 A 
ATOM      5  N   UNL d   1      -0.961   0.916   0.193  0.00  0.00    -0.280 N 
ATOM      6  HN  UNL d   1      -1.687   1.626   0.288  1.00  0.00     0.189 HD
ATOM      7  N   UNL d   1      -1.294  -0.396   0.130  0.00  0.00    -0.308 N 
ATOM      8  HN  UNL d   1      -2.268  -0.693   0.182  1.00  0.00     0.186 HD
ATOM      9  C   UNL d   1      -0.303  -1.294  -0.002  0.00  0.00     0.137 A 
ENDROOT
BRANCH   4  10
ATOM     10  C   UNL d   1       2.135  -1.858  -0.241  0.00  0.00    -0.008 A 
ATOM     11  C   UNL d   1       3.401  -1.594   0.315  0.00  0.00     0.015 A 
ATOM     12  C   UNL d   1       4.465  -2.494   0.174  0.00  0.00     0.024 A 
ATOM     13  C   UNL d   1       4.281  -3.677  -0.534  0.00  0.00     0.034 A 
ATOM     14  C   UNL d   1       3.045  -3.965  -1.102  0.00  0.00     0.024 A 
ATOM     15 CL   UNL d   1       5.584  -4.784  -0.712  0.00  0.00    -0.084 Cl
ATOM     16  C   UNL d   1       1.984  -3.062  -0.959  0.00  0.00     0.015 A 
ENDBRANCH   4  10
BRANCH   3  17
ATOM     17  S   UNL d   1       0.678   3.021   0.233  0.00  0.00    -0.097 SA
ATOM     18  C   UNL d   1       2.482   3.021   0.116  0.00  0.00     0.099 C 
ENDBRANCH   3  17
TORSDOF 2
