REMARK  4 active torsions:
REMARK  status: ('A' for Active; 'I' for Inactive)
REMARK    1  A    between atoms: O_3  and  S_1 
REMARK    2  A    between atoms: C_4  and  S_1 
REMARK    3  A    between atoms: C_2  and  O_3 
REMARK    4  A    between atoms: C_14  and  C_7 
ROOT
ATOM      1  C   UNL d   1       0.728   1.595   2.208  0.00  0.00     0.128 A 
ATOM      2  C   UNL d   1       2.057   1.386   2.622  0.00  0.00     0.070 A 
ATOM      3  C   UNL d   1      -0.183   2.027   3.178  0.00  0.00     0.048 A 
ATOM      4  C   UNL d   1       1.532   1.955   4.947  0.00  0.00    -0.048 A 
ATOM      5  C   UNL d   1       2.451   1.565   3.962  0.00  0.00     0.034 A 
ATOM      6  C   UNL d   1       0.217   2.176   4.520  0.00  0.00     0.030 A 
ATOM      7 CL   UNL d   1       3.280   0.916   1.488  0.00  0.00    -0.081 Cl
ATOM      8 BR   UNL d   1      -1.975   2.577   2.865  0.00  0.00    -0.048 Br
ENDROOT
BRANCH   1   9
ATOM      9  O   UNL d   1       0.478   1.422   0.861  0.00  0.00    -0.226 OA
BRANCH   9  10
ATOM     10  S   UNL d   1      -0.877   0.697   0.308  0.00  0.00     0.303 S 
ATOM     11  O   UNL d   1      -1.811   1.735  -0.079  0.00  0.00    -0.193 OA
ATOM     12  O   UNL d   1      -1.247  -0.387   1.199  0.00  0.00    -0.193 OA
BRANCH  10  13
ATOM     13  C   UNL d   1      -0.433  -0.092  -1.223  0.00  0.00     0.090 A 
ATOM     14  C   UNL d   1       0.805  -0.710  -1.387  0.00  0.00     0.049 A 
ATOM     15  C   UNL d   1       1.081  -1.330  -2.607  0.00  0.00     0.037 A 
ATOM     16 CL   UNL d   1       2.597  -2.114  -2.835  0.00  0.00    -0.084 Cl
ATOM     17  C   UNL d   1       0.148  -1.331  -3.646  0.00  0.00     0.047 A 
ATOM     18  C   UNL d   1      -1.084  -0.710  -3.463  0.00  0.00     0.037 A 
ATOM     19  C   UNL d   1      -1.382  -0.089  -2.257  0.00  0.00     0.049 A 
ATOM     20 CL   UNL d   1      -2.246  -0.714  -4.729  0.00  0.00    -0.084 Cl
ENDBRANCH  10  13
ENDBRANCH   9  10
ENDBRANCH   1   9
BRANCH   4  21
ATOM     21  C   UNL d   1       1.954   2.155   6.415  0.00  0.00    -0.024 C 
ATOM     22  C   UNL d   1       0.793   2.594   7.341  0.00  0.00     0.019 C 
ATOM     23  C   UNL d   1       2.510   0.832   6.981  0.00  0.00     0.019 C 
ATOM     24  C   UNL d   1       3.040   3.247   6.508  0.00  0.00     0.019 C 
ENDBRANCH   4  21
TORSDOF 4
