REMARK  3 active torsions:
REMARK  status: ('A' for Active; 'I' for Inactive)
REMARK    1  A    between atoms: C_8  and  C_1 
REMARK    2  A    between atoms: C_7  and  C_2 
REMARK    3  A    between atoms: O_19  and  C_8 
ROOT
ATOM      1  C   UNL d   1       2.054  -1.339  -0.088  0.00  0.00     0.052 A 
ATOM      2  C   UNL d   1       0.554  -1.696  -0.165  0.00  0.00     0.098 A 
ATOM      3  C   UNL d   1      -0.354  -0.472  -0.110  0.00  0.00     0.023 A 
ATOM      4  C   UNL d   1       2.454  -0.046   0.016  0.00  0.00     0.018 A 
ATOM      5  C   UNL d   1       0.144   0.778  -0.026  0.00  0.00     0.020 A 
ATOM      6  N   UNL d   1       1.507   0.969   0.022  0.00  0.00    -0.362 N 
ATOM      7  C   UNL d   1      -1.833  -0.655  -0.145  0.00  0.00     0.158 C 
ATOM      8  O   UNL d   1      -2.341  -1.711  -0.511  0.00  0.00    -0.293 OA
ATOM      9  C   UNL d   1      -0.710   2.025   0.013  0.00  0.00     0.058 C 
ATOM     10  C   UNL d   1       3.874   0.458   0.130  0.00  0.00     0.069 C 
ATOM     11  C   UNL d   1      -2.680   0.510   0.314  0.00  0.00     0.084 C 
ATOM     12  C   UNL d   1      -2.170   1.777  -0.349  0.00  0.00     0.014 C 
ATOM     13  H   UNL d   1       1.849   1.925   0.089  0.00  0.00     0.165 HD
ENDROOT
BRANCH   2  14
ATOM     14  C   UNL d   1       0.172  -2.718   0.914  0.00  0.00    -0.042 A 
ATOM     15  C   UNL d   1       0.304  -2.421   2.280  0.00  0.00     0.045 A 
ATOM     16  C   UNL d   1      -0.048  -3.393   3.194  0.00  0.00     0.075 A 
ATOM     17  O   UNL d   1       0.034  -3.240   4.552  0.00  0.00    -0.350 OA
ATOM     18  C   UNL d   1      -0.506  -4.642   2.803  0.00  0.00    -0.023 A 
ATOM     19  C   UNL d   1      -0.696  -4.380   5.064  0.00  0.00     0.180 C 
ATOM     20  C   UNL d   1      -0.714  -5.481   4.003  0.00  0.00     0.068 C 
ATOM     21  C   UNL d   1      -0.644  -4.967   1.469  0.00  0.00     0.010 A 
ATOM     22  C   UNL d   1      -0.315  -3.991   0.522  0.00  0.00     0.009 A 
ENDBRANCH   2  14
BRANCH   1  23
ATOM     23  C   UNL d   1       3.020  -2.477  -0.087  0.00  0.00     0.291 C 
ATOM     24  O   UNL d   1       4.108  -2.475   0.466  0.00  0.00    -0.260 OA
BRANCH  23  25
ATOM     25  O   UNL d   1       2.503  -3.524  -0.781  0.00  0.00    -0.323 OA
ATOM     26  C   UNL d   1       3.253  -4.739  -0.696  0.00  0.00     0.213 C 
ENDBRANCH  23  25
ENDBRANCH   1  23
TORSDOF 3
