REMARK  3 active torsions:
REMARK  status: ('A' for Active; 'I' for Inactive)
REMARK    1  A    between atoms: C_5  and  C_11 
REMARK    2  A    between atoms: N_10  and  C_6 
REMARK       I    between atoms: C_9  and  N_10 
REMARK    3  A    between atoms: C_11  and  C_9 
ROOT
ATOM      1  C   UNL d   1      -3.431  -1.411  -0.297  0.00  0.00     0.229 C 
ATOM      2  N   UNL d   1      -2.242  -2.090  -0.458  0.00  0.00    -0.324 N 
ATOM      3  O   UNL d   1      -3.511  -0.203  -0.063  0.00  0.00    -0.273 OA
ATOM      4  H   UNL d   1      -2.306  -3.106  -0.405  0.00  0.00     0.169 HD
ENDROOT
BRANCH   2   5
ATOM      5  C   UNL d   1      -0.940  -1.538  -0.434  0.00  0.00     0.077 A 
ATOM      6  C   UNL d   1      -0.618  -0.207  -0.743  0.00  0.00     0.184 A 
ATOM      7  C   UNL d   1       0.694   0.246  -0.634  0.00  0.00     0.195 A 
ATOM      8  F   UNL d   1      -1.530   0.637  -1.243  0.00  0.00    -0.200 F 
ATOM      9  C   UNL d   1       1.701  -0.622  -0.237  0.00  0.00     0.158 A 
ATOM     10  F   UNL d   1       0.992   1.519  -0.936  0.00  0.00    -0.199 F 
ATOM     11  F   UNL d   1       2.963  -0.187  -0.123  0.00  0.00    -0.203 F 
ATOM     12  C   UNL d   1       1.416  -1.956   0.029  0.00  0.00     0.048 A 
ATOM     13  C   UNL d   1       0.100  -2.415  -0.081  0.00  0.00     0.036 A 
ENDBRANCH   2   5
BRANCH   1  14
ATOM     14  C   UNL d   1      -4.720  -2.212  -0.358  0.00  0.00     0.181 C 
BRANCH  14  15
ATOM     15  C   UNL d   1      -4.647  -3.689  -0.479  0.00  0.00     0.112 A 
ATOM     16  N   UNL d   1      -3.480  -4.421  -0.557  0.00  0.00    -0.333 N 
ATOM     17  C   UNL d   1      -3.937  -5.646  -0.665  0.00  0.00     0.260 A 
ATOM     18  HN  UNL d   1      -2.514  -4.095  -0.537  1.00  0.00     0.168 HD
ATOM     19  O   UNL d   1      -5.290  -5.735  -0.639  0.00  0.00    -0.232 OA
ATOM     20  N   UNL d   1      -5.764  -4.431  -0.512  0.00  0.00    -0.247 N 
ATOM     21  HN  UNL d   1      -6.733  -4.115  -0.457  1.00  0.00     0.196 HD
ENDBRANCH  14  15
ENDBRANCH   1  14
TORSDOF 3
