REMARK  1 active torsions:
REMARK  status: ('A' for Active; 'I' for Inactive)
REMARK    1  A    between atoms: C_8  and  C_7 
ROOT
ATOM      1  C   UNL d   1       1.193   0.104  -0.030  0.00  0.00     0.101 C 
ATOM      2  N   UNL d   1      -0.802  -1.247   0.020  0.00  0.00    -0.275 N 
ATOM      3  N   UNL d   1      -1.016   1.058  -0.036  0.00  0.00    -0.275 N 
ATOM      4  C   UNL d   1       0.563  -1.240   0.022  0.00  0.00     0.265 C 
ATOM      5  C   UNL d   1       0.323   1.302  -0.149  0.00  0.00     0.265 C 
ATOM      6  C   UNL d   1      -1.623  -0.160   0.002  0.00  0.00     0.329 C 
ATOM      7  C   UNL d   1       2.538   0.154   0.051  0.00  0.00     0.037 C 
ATOM      8  O   UNL d   1       0.734   2.440  -0.348  0.00  0.00    -0.267 OA
ATOM      9  O   UNL d   1       1.201  -2.286   0.067  0.00  0.00    -0.267 OA
ATOM     10  O   UNL d   1      -2.844  -0.273   0.002  0.00  0.00    -0.246 OA
ATOM     11  H   UNL d   1      -1.252  -2.150   0.049  0.00  0.00     0.173 HD
ATOM     12  H   UNL d   1      -1.627   1.860  -0.106  0.00  0.00     0.173 HD
ENDROOT
BRANCH   7  13
ATOM     13  C   UNL d   1       3.359   1.380   0.048  0.00  0.00     0.009 A 
ATOM     14  C   UNL d   1       3.664   2.051   1.247  0.00  0.00     0.046 A 
ATOM     15 CL   UNL d   1       3.158   1.439   2.786  0.00  0.00    -0.083 Cl
ATOM     16  C   UNL d   1       4.399   3.241   1.237  0.00  0.00     0.025 A 
ATOM     17  C   UNL d   1       4.846   3.779   0.032  0.00  0.00     0.003 A 
ATOM     18  C   UNL d   1       4.572   3.118  -1.164  0.00  0.00     0.025 A 
ATOM     19  C   UNL d   1       3.836   1.928  -1.158  0.00  0.00     0.046 A 
ATOM     20 CL   UNL d   1       3.543   1.161  -2.683  0.00  0.00    -0.083 Cl
ENDBRANCH   7  13
TORSDOF 1
