REMARK  6 active torsions:
REMARK  status: ('A' for Active; 'I' for Inactive)
REMARK    1  A    between atoms: C_2  and  S_1 
REMARK    2  A    between atoms: C_6  and  S_1 
REMARK    3  A    between atoms: C_3  and  O_11 
REMARK    4  A    between atoms: N_10  and  C_4 
REMARK    5  A    between atoms: C_15  and  N_10 
REMARK    6  A    between atoms: O_11  and  C_16 
ROOT
ATOM      1  C   UNL d   1       0.469   0.872   1.277  0.00  0.00     0.155 C 
ATOM      2  C   UNL d   1      -0.295   1.924   0.930  0.00  0.00     0.123 C 
ATOM      3  C   UNL d   1       0.959  -0.058   0.334  0.00  0.00     0.113 C 
ATOM      4  N   UNL d   1       1.297  -0.814  -0.483  0.00  0.00    -0.191 NA
ENDROOT
BRANCH   1   5
ATOM      5  S   UNL d   1       0.917   0.654   2.942  0.00  0.00     0.194 S 
ATOM      6  O   UNL d   1       0.771   1.921   3.642  0.00  0.00    -0.221 OA
ATOM      7  O   UNL d   1       2.202  -0.021   2.989  0.00  0.00    -0.221 OA
BRANCH   5   8
ATOM      8  C   UNL d   1      -0.328  -0.492   3.639  0.00  0.00     0.058 C 
ATOM      9  C   UNL d   1      -0.347  -1.828   2.884  0.00  0.00     0.031 C 
ATOM     10  C   UNL d   1       0.059  -0.769   5.106  0.00  0.00     0.031 C 
ATOM     11  C   UNL d   1      -1.727   0.139   3.608  0.00  0.00     0.031 C 
ENDBRANCH   5   8
ENDBRANCH   1   5
BRANCH   2  12
ATOM     12  N   UNL d   1      -0.788   2.261  -0.313  0.00  0.00    -0.364 N 
ATOM     13  H   UNL d   1      -0.588   1.631  -1.089  0.00  0.00     0.165 HD
BRANCH  12  14
ATOM     14  C   UNL d   1      -1.537   3.397  -0.659  0.00  0.00     0.032 A 
ATOM     15  C   UNL d   1      -1.508   4.590   0.074  0.00  0.00     0.032 A 
ATOM     16  C   UNL d   1      -2.330   5.676  -0.263  0.00  0.00     0.039 A 
ATOM     17  C   UNL d   1      -3.193   5.589  -1.352  0.00  0.00     0.078 A 
ATOM     18  C   UNL d   1      -3.265   4.387  -2.059  0.00  0.00     0.039 A 
ATOM     19  C   UNL d   1      -2.442   3.308  -1.723  0.00  0.00     0.032 A 
BRANCH  17  20
ATOM     20  O   UNL d   1      -4.040   6.556  -1.794  0.00  0.00    -0.255 OA
BRANCH  20  21
ATOM     21  C   UNL d   1      -3.714   7.925  -1.599  0.00  0.00     0.530 C 
ATOM     22  F   UNL d   1      -2.438   8.141  -1.219  0.00  0.00    -0.144 F 
ATOM     23  F   UNL d   1      -3.912   8.578  -2.766  0.00  0.00    -0.144 F 
ATOM     24  F   UNL d   1      -4.543   8.457  -0.675  0.00  0.00    -0.144 F 
ENDBRANCH  20  21
ENDBRANCH  17  20
ENDBRANCH  12  14
ENDBRANCH   2  12
TORSDOF 6
