REMARK  4 active torsions:
REMARK  status: ('A' for Active; 'I' for Inactive)
REMARK    1  A    between atoms: C_4  and  C_1 
REMARK    2  A    between atoms: C_5  and  C_2 
REMARK       I    between atoms: N_6  and  C_4 
REMARK       I    between atoms: N_7  and  C_5 
REMARK    3  A    between atoms: C_11  and  N_6 
REMARK    4  A    between atoms: C_12  and  N_7 
ROOT
ATOM      1  C   UNL d   1       0.192   1.211  -0.165  0.00  0.00     0.071 A 
ATOM      2  C   UNL d   1       0.181  -1.203   0.169  0.00  0.00     0.071 A 
ATOM      3  C   UNL d   1       0.879  -0.000  -0.006  0.00  0.00     0.147 A 
ATOM      4  F   UNL d   1       2.224  -0.009  -0.022  0.00  0.00    -0.204 F 
ATOM      5  C   UNL d   1      -1.214   1.200  -0.176  0.00  0.00     0.020 A 
ATOM      6  C   UNL d   1      -1.224  -1.174   0.216  0.00  0.00     0.020 A 
ATOM      7  C   UNL d   1      -1.919   0.017   0.029  0.00  0.00     0.002 A 
ENDROOT
BRANCH   1   8
ATOM      8  C   UNL d   1       0.861   2.541  -0.308  0.00  0.00     0.259 C 
ATOM      9  N   UNL d   1       2.220   2.594  -0.055  0.00  0.00    -0.323 N 
ATOM     10  H   UNL d   1       2.700   1.719   0.117  0.00  0.00     0.169 HD
ATOM     11  O   UNL d   1       0.158   3.496  -0.627  0.00  0.00    -0.267 OA
BRANCH   9  12
ATOM     12  C   UNL d   1       3.040   3.746  -0.061  0.00  0.00     0.035 A 
ATOM     13  C   UNL d   1       2.556   5.050  -0.192  0.00  0.00     0.029 A 
ATOM     14  C   UNL d   1       3.436   6.138  -0.220  0.00  0.00     0.002 A 
ATOM     15  C   UNL d   1       4.808   5.932  -0.113  0.00  0.00     0.000 A 
ATOM     16  C   UNL d   1       5.301   4.639   0.044  0.00  0.00     0.002 A 
ATOM     17  C   UNL d   1       4.420   3.553   0.077  0.00  0.00     0.029 A 
ENDBRANCH   9  12
ENDBRANCH   1   8
BRANCH   2  18
ATOM     18  C   UNL d   1       0.838  -2.542   0.295  0.00  0.00     0.259 C 
ATOM     19  N   UNL d   1       2.188  -2.614   0.009  0.00  0.00    -0.323 N 
ATOM     20  H   UNL d   1       2.678  -1.747  -0.173  0.00  0.00     0.169 HD
ATOM     21  O   UNL d   1       0.130  -3.484   0.634  0.00  0.00    -0.267 OA
BRANCH  19  22
ATOM     22  C   UNL d   1       2.987  -3.783  -0.006  0.00  0.00     0.035 A 
ATOM     23  C   UNL d   1       2.483  -5.078   0.128  0.00  0.00     0.029 A 
ATOM     24  C   UNL d   1       3.344  -6.183   0.128  0.00  0.00     0.002 A 
ATOM     25  C   UNL d   1       4.717  -5.999  -0.010  0.00  0.00     0.000 A 
ATOM     26  C   UNL d   1       5.229  -4.716  -0.168  0.00  0.00     0.002 A 
ATOM     27  C   UNL d   1       4.368  -3.615  -0.172  0.00  0.00     0.029 A 
ENDBRANCH  19  22
ENDBRANCH   2  18
TORSDOF 4
