REMARK  2 active torsions:
REMARK  status: ('A' for Active; 'I' for Inactive)
REMARK    1  A    between atoms: C_2  and  C_1 
REMARK       I    between atoms: N_4  and  C_2 
REMARK    2  A    between atoms: N_10  and  C_3 
ROOT
ATOM      1  C   UNL d   1      -1.984   0.862   0.030  0.00  0.00     0.053 A 
ATOM      2  C   UNL d   1      -1.694  -0.214  -0.839  0.00  0.00     0.023 A 
ATOM      3  C   UNL d   1      -0.985   1.355   0.887  0.00  0.00     0.020 A 
ATOM      4  C   UNL d   1      -0.367  -0.656  -0.945  0.00  0.00     0.048 A 
ATOM      5  C   UNL d   1       0.629  -0.116  -0.129  0.00  0.00     0.035 A 
ATOM      6  C   UNL d   1       0.324   0.880   0.792  0.00  0.00     0.025 A 
ATOM      7 CL   UNL d   1       2.244  -0.695  -0.254  0.00  0.00    -0.084 Cl
ENDROOT
BRANCH   1   8
ATOM      8  C   UNL d   1      -3.384   1.365   0.152  0.00  0.00     0.255 C 
ATOM      9  N   UNL d   1      -3.655   2.735   0.262  0.00  0.00    -0.346 N 
ATOM     10  C   UNL d   1      -4.992   3.130   0.727  0.00  0.00     0.136 C 
ATOM     11  C   UNL d   1      -2.681   3.823   0.079  0.00  0.00     0.136 C 
ATOM     12  C   UNL d   1      -5.681   4.159  -0.168  0.00  0.00     0.093 C 
ATOM     13  S   UNL d   1      -4.717   5.699  -0.271  0.00  0.00    -0.166 SA
ATOM     14  C   UNL d   1      -3.161   4.952  -0.837  0.00  0.00     0.093 C 
ATOM     15  O   UNL d   1      -4.279   0.517   0.166  0.00  0.00    -0.267 OA
ENDBRANCH   1   8
BRANCH   2  16
ATOM     16  N   UNL d   1      -2.640  -0.711  -1.762  0.00  0.00    -0.302 NA
ATOM     17  H   UNL d   1      -3.596  -0.584  -1.405  0.00  0.00     0.124 HD
ATOM     18  H   UNL d   1      -2.481  -1.677  -2.026  0.00  0.00     0.124 HD
ENDBRANCH   2  16
TORSDOF 2
