REMARK  6 active torsions:
REMARK  status: ('A' for Active; 'I' for Inactive)
REMARK    1  A    between atoms: N_2  and  C_1 
REMARK    2  A    between atoms: N_3  and  C_1 
REMARK    3  A    between atoms: C_7  and  N_2 
REMARK    4  A    between atoms: C_9  and  N_3 
REMARK    5  A    between atoms: C_15  and  C_9 
REMARK    6  A    between atoms: O_14  and  C_15 
ROOT
ATOM      1  C   UNL d   1       1.053  -0.140   0.035  0.00  0.00     0.172 C 
ATOM      2  S   UNL d   1       2.660  -0.219   0.488  0.00  0.00    -0.041 SA
ENDROOT
BRANCH   1   3
ATOM      3  N   UNL d   1       0.517   0.503  -1.041  0.00  0.00    -0.333 N 
ATOM      4  H   UNL d   1      -0.287   0.010  -1.435  0.00  0.00     0.168 HD
BRANCH   3   5
ATOM      5  C   UNL d   1       0.907   1.677  -1.715  0.00  0.00     0.036 A 
ATOM      6  C   UNL d   1       0.249   1.966  -2.919  0.00  0.00     0.056 A 
ATOM      7  C   UNL d   1       0.519   3.152  -3.606  0.00  0.00     0.074 A 
ATOM      8 CL   UNL d   1      -0.315   3.488  -5.074  0.00  0.00    -0.081 Cl
ATOM      9  C   UNL d   1       1.441   4.058  -3.091  0.00  0.00     0.138 A 
ATOM     10  C   UNL d   1       2.092   3.790  -1.894  0.00  0.00     0.046 A 
ATOM     11  F   UNL d   1       1.703   5.210  -3.726  0.00  0.00    -0.204 F 
ATOM     12  C   UNL d   1       1.821   2.605  -1.204  0.00  0.00     0.032 A 
ENDBRANCH   3   5
ENDBRANCH   1   3
BRANCH   1  13
ATOM     13  N   UNL d   1       0.167  -0.816   0.826  0.00  0.00    -0.356 N 
ATOM     14  H   UNL d   1       0.631  -1.292   1.591  0.00  0.00     0.162 HD
BRANCH  13  15
ATOM     15  C   UNL d   1      -1.316  -0.912   0.786  0.00  0.00     0.046 C 
ATOM     16  C   UNL d   1      -1.760  -1.592   2.098  0.00  0.00     0.040 C 
ATOM     17  C   UNL d   1      -1.976   0.479   0.742  0.00  0.00     0.040 C 
BRANCH  15  18
ATOM     18  C   UNL d   1      -1.790  -1.798  -0.397  0.00  0.00     0.194 C 
BRANCH  18  19
ATOM     19  O   UNL d   1      -1.517  -1.196  -1.666  0.00  0.00    -0.398 OA
ATOM     20  H   UNL d   1      -1.787  -1.850  -2.338  0.00  0.00     0.209 HD
ENDBRANCH  18  19
ENDBRANCH  15  18
ENDBRANCH  13  15
ENDBRANCH   1  13
TORSDOF 6
