REMARK  4 active torsions:
REMARK  status: ('A' for Active; 'I' for Inactive)
REMARK    1  A    between atoms: C_3  and  C_1 
REMARK    2  A    between atoms: C_16  and  N_2 
REMARK    3  A    between atoms: S_7  and  C_3 
REMARK    4  A    between atoms: C_9  and  S_7 
ROOT
ATOM      1  C   UNL d   1      -0.456  -2.642   0.469  0.00  0.00     0.242 C 
ATOM      2  O   UNL d   1       0.255  -3.471  -0.087  0.00  0.00    -0.278 OA
ENDROOT
BRANCH   1   3
ATOM      3  C   UNL d   1      -0.407  -1.217   0.215  0.00  0.00     0.110 A 
ATOM      4  N   UNL d   1       0.589  -0.578  -0.492  0.00  0.00    -0.288 N 
ATOM      5  N   UNL d   1       0.442   0.758  -0.549  0.00  0.00    -0.303 N 
ATOM      6  C   UNL d   1      -0.718   0.996   0.062  0.00  0.00     0.024 A 
ATOM      7  HN  UNL d   1       1.077   1.438  -0.968  1.00  0.00     0.186 HD
ATOM      8  C   UNL d   1      -1.288  -0.198   0.551  0.00  0.00     0.061 A 
ATOM      9  C   UNL d   1      -1.233   2.383   0.161  0.00  0.00     0.070 C 
BRANCH   4  10
ATOM     10  C   UNL d   1       1.739  -1.147  -1.180  0.00  0.00     0.145 C 
ATOM     11  C   UNL d   1       1.486  -1.285  -2.672  0.00  0.00     0.028 C 
ENDBRANCH   4  10
ENDBRANCH   1   3
BRANCH   1  12
ATOM     12  S   UNL d   1      -1.629  -3.174   1.669  0.00  0.00    -0.044 SA
BRANCH  12  13
ATOM     13  C   UNL d   1      -0.652  -3.399   3.164  0.00  0.00     0.030 A 
ATOM     14  C   UNL d   1      -1.237  -3.265   4.442  0.00  0.00     0.052 A 
ATOM     15  C   UNL d   1      -0.471  -3.398   5.608  0.00  0.00     0.049 A 
ATOM     16 CL   UNL d   1      -2.925  -2.938   4.664  0.00  0.00    -0.083 Cl
ATOM     17  C   UNL d   1       0.886  -3.681   5.514  0.00  0.00     0.035 A 
ATOM     18  C   UNL d   1       1.476  -3.868   4.269  0.00  0.00     0.025 A 
ATOM     19 CL   UNL d   1       1.839  -3.803   6.941  0.00  0.00    -0.084 Cl
ATOM     20  C   UNL d   1       0.710  -3.738   3.104  0.00  0.00     0.022 A 
ENDBRANCH  12  13
ENDBRANCH   1  12
TORSDOF 4
