REMARK  4 active torsions:
REMARK  status: ('A' for Active; 'I' for Inactive)
REMARK    1  A    between atoms: C_5  and  C_1 
REMARK    2  A    between atoms: C_8  and  C_2 
REMARK    3  A    between atoms: C_11  and  C_8 
REMARK    4  A    between atoms: O_14  and  C_8 
ROOT
ATOM      1  C   UNL d   1      -1.336  -0.859   0.354  0.00  0.00     0.080 A 
ATOM      2  C   UNL d   1       0.001  -1.331   0.083  0.00  0.00     0.036 A 
ATOM      3  N   UNL d   1      -1.329   0.453   0.621  0.00  0.00    -0.260 N 
ATOM      4  HN  UNL d   1      -2.131   1.027   0.883  1.00  0.00     0.195 HD
ATOM      5  O   UNL d   1      -0.030   0.876   0.474  0.00  0.00    -0.242 OA
ATOM      6  C   UNL d   1       0.763  -0.176   0.155  0.00  0.00     0.084 A 
ATOM      7  C   UNL d   1       2.187   0.172  -0.019  0.00  0.00     0.079 C 
ENDROOT
BRANCH   2   8
ATOM      8  C   UNL d   1       0.462  -2.734  -0.148  0.00  0.00     0.189 C 
BRANCH   8   9
ATOM      9  C   UNL d   1       0.652  -3.024  -1.635  0.00  0.00    -0.025 A 
ATOM     10  C   UNL d   1       1.517  -4.083  -2.005  0.00  0.00     0.013 A 
ATOM     11  C   UNL d   1       1.644  -4.491  -3.333  0.00  0.00     0.043 A 
ATOM     12  C   UNL d   1       0.887  -3.866  -4.311  0.00  0.00     0.116 A 
ATOM     13  C   UNL d   1       0.013  -2.839  -3.983  0.00  0.00     0.043 A 
ATOM     14  F   UNL d   1       0.985  -4.274  -5.583  0.00  0.00    -0.206 F 
ATOM     15  C   UNL d   1      -0.107  -2.422  -2.653  0.00  0.00     0.013 A 
ENDBRANCH   8   9
BRANCH   8  16
ATOM     16  O   UNL d   1       1.657  -2.993   0.592  0.00  0.00    -0.386 OA
ATOM     17  H   UNL d   1       2.407  -2.749   0.023  0.00  0.00     0.210 HD
ENDBRANCH   8  16
ENDBRANCH   2   8
BRANCH   1  18
ATOM     18  C   UNL d   1      -2.619  -1.570   0.338  0.00  0.00     0.037 A 
ATOM     19  C   UNL d   1      -2.893  -2.640   1.208  0.00  0.00     0.048 A 
ATOM     20 CL   UNL d   1      -1.800  -3.150   2.452  0.00  0.00    -0.083 Cl
ATOM     21  C   UNL d   1      -4.119  -3.321   1.149  0.00  0.00     0.025 A 
ATOM     22  C   UNL d   1      -5.116  -2.908   0.270  0.00  0.00     0.003 A 
ATOM     23  C   UNL d   1      -4.887  -1.817  -0.560  0.00  0.00     0.025 A 
ATOM     24  C   UNL d   1      -3.648  -1.162  -0.541  0.00  0.00     0.048 A 
ATOM     25 CL   UNL d   1      -3.467   0.139  -1.676  0.00  0.00    -0.083 Cl
ENDBRANCH   1  18
TORSDOF 4
