REMARK  4 active torsions:
REMARK  status: ('A' for Active; 'I' for Inactive)
REMARK    1  A    between atoms: C_2  and  C_1 
REMARK    2  A    between atoms: S_8  and  C_2 
REMARK    3  A    between atoms: C_5  and  C_7 
REMARK    4  A    between atoms: C_15  and  S_8 
ROOT
ATOM      1  C   UNL d   1      -1.931   0.117  -0.015  0.00  0.00     0.043 A 
ATOM      2  N   UNL d   1       0.245   0.790   0.765  0.00  0.00    -0.355 N 
ATOM      3  HN  UNL d   1       0.832   1.438   1.291  1.00  0.00     0.166 HD
ATOM      4  C   UNL d   1      -1.106   0.963   0.724  0.00  0.00     0.020 A 
ATOM      5  C   UNL d   1       0.806  -0.261   0.095  0.00  0.00     0.117 A 
ATOM      6  C   UNL d   1      -1.354  -0.988  -0.654  0.00  0.00     0.020 A 
ATOM      7  C   UNL d   1       0.023  -1.182  -0.598  0.00  0.00     0.035 A 
ATOM      8  C   UNL d   1      -1.632   2.073   1.586  0.00  0.00     0.069 C 
ENDROOT
BRANCH   1   9
ATOM      9  C   UNL d   1      -3.393   0.270  -0.129  0.00  0.00     0.225 C 
ATOM     10  O   UNL d   1      -4.112  -0.683   0.148  0.00  0.00    -0.279 OA
BRANCH   9  11
ATOM     11  S   UNL d   1      -3.959   1.733  -0.913  0.00  0.00    -0.048 SA
BRANCH  11  12
ATOM     12  C   UNL d   1      -5.560   2.123  -0.227  0.00  0.00     0.008 A 
ATOM     13  C   UNL d   1      -6.410   1.214   0.416  0.00  0.00     0.022 A 
ATOM     14  C   UNL d   1      -7.668   1.612   0.883  0.00  0.00     0.043 A 
ATOM     15  C   UNL d   1      -8.090   2.919   0.701  0.00  0.00     0.116 A 
ATOM     16  C   UNL d   1      -7.273   3.842   0.064  0.00  0.00     0.043 A 
ATOM     17  F   UNL d   1      -9.299   3.293   1.135  0.00  0.00    -0.206 F 
ATOM     18  C   UNL d   1      -6.014   3.444  -0.398  0.00  0.00     0.022 A 
ENDBRANCH  11  12
ENDBRANCH   9  11
ENDBRANCH   1   9
BRANCH   5  19
ATOM     19  C   UNL d   1       2.319  -0.451   0.114  0.00  0.00     0.432 C 
ATOM     20  F   UNL d   1       3.013   0.609   0.614  0.00  0.00    -0.165 F 
ATOM     21  F   UNL d   1       2.700  -1.533   0.853  0.00  0.00    -0.165 F 
ATOM     22  F   UNL d   1       2.827  -0.668  -1.136  0.00  0.00    -0.165 F 
ENDBRANCH   5  19
TORSDOF 4
