REMARK  2 active torsions:
REMARK  status: ('A' for Active; 'I' for Inactive)
REMARK    1  A    between atoms: C_10  and  N_4 
REMARK    2  A    between atoms: O_16  and  C_14 
ROOT
ATOM      1  N   UNL d   1      -1.763   1.464  -0.296  0.00  0.00    -0.301 N 
ATOM      2  HN  UNL d   1      -1.470   2.367  -0.669  1.00  0.00     0.187 HD
ATOM      3  C   UNL d   1      -1.002   0.474   0.055  0.00  0.00     0.042 C 
ATOM      4  N   UNL d   1      -3.048   1.038  -0.059  0.00  0.00    -0.291 N 
ATOM      5  C   UNL d   1       0.455   0.401  -0.047  0.00  0.00    -0.005 A 
ATOM      6  C   UNL d   1      -1.716  -0.693   0.688  0.00  0.00     0.058 C 
ATOM      7  C   UNL d   1      -3.112  -0.402   0.161  0.00  0.00     0.160 C 
ATOM      8  C   UNL d   1       1.007  -0.874  -0.246  0.00  0.00    -0.043 A 
ATOM      9  C   UNL d   1       1.260   1.523   0.108  0.00  0.00     0.017 A 
ATOM     10  C   UNL d   1      -1.129  -2.063   0.380  0.00  0.00     0.017 C 
ATOM     11  C   UNL d   1       2.401  -1.019  -0.260  0.00  0.00     0.044 A 
ATOM     12  C   UNL d   1       0.091  -2.035  -0.540  0.00  0.00     0.040 C 
ATOM     13  C   UNL d   1       3.224   0.094  -0.060  0.00  0.00     0.068 A 
ATOM     14  C   UNL d   1       2.648   1.360   0.108  0.00  0.00     0.037 A 
ENDROOT
BRANCH   4  15
ATOM     15  C   UNL d   1      -4.160   1.840  -0.312  0.00  0.00     0.050 A 
ATOM     16  C   UNL d   1      -4.028   3.121  -0.869  0.00  0.00     0.031 A 
ATOM     17  C   UNL d   1      -5.135   3.950  -1.084  0.00  0.00     0.002 A 
ATOM     18  C   UNL d   1      -6.409   3.518  -0.728  0.00  0.00     0.000 A 
ATOM     19  C   UNL d   1      -6.572   2.258  -0.169  0.00  0.00     0.002 A 
ATOM     20  C   UNL d   1      -5.462   1.430   0.029  0.00  0.00     0.031 A 
ENDBRANCH   4  15
BRANCH  13  21
ATOM     21  O   UNL d   1       4.591   0.077  -0.016  0.00  0.00    -0.356 OA
ATOM     22  C   UNL d   1       5.225  -1.192  -0.121  0.00  0.00     0.210 C 
ENDBRANCH  13  21
TORSDOF 2
