REMARK  3 active torsions:
REMARK  status: ('A' for Active; 'I' for Inactive)
REMARK    1  A    between atoms: C_2  and  C_1 
REMARK       I    between atoms: N_3  and  C_1 
REMARK    2  A    between atoms: C_5  and  N_3 
REMARK    3  A    between atoms: O_11  and  C_4 
ROOT
ATOM      1  C   UNL d   1       1.020   0.026  -0.170  0.00  0.00     0.260 C 
ATOM      2  N   UNL d   1       0.433   1.048   0.553  0.00  0.00    -0.321 N 
ATOM      3  O   UNL d   1       2.013   0.102  -0.880  0.00  0.00    -0.267 OA
ATOM      4  H   UNL d   1      -0.216   0.798   1.293  0.00  0.00     0.169 HD
ENDROOT
BRANCH   1   5
ATOM      5  C   UNL d   1       0.302  -1.255  -0.121  0.00  0.00     0.083 A 
ATOM      6  C   UNL d   1       0.892  -2.419   0.351  0.00  0.00     0.157 A 
ATOM      7  N   UNL d   1       0.288  -3.632   0.266  0.00  0.00    -0.346 N 
ATOM      8  C   UNL d   1      -0.919  -3.681  -0.342  0.00  0.00     0.090 A 
ATOM      9  HN  UNL d   1       0.726  -4.471   0.645  1.00  0.00     0.167 HD
ATOM     10  C   UNL d   1      -1.577  -2.570  -0.843  0.00  0.00     0.018 A 
ATOM     11  C   UNL d   1      -0.957  -1.331  -0.728  0.00  0.00     0.023 A 
BRANCH   6  12
ATOM     12  O   UNL d   1       2.106  -2.328   0.999  0.00  0.00    -0.340 OA
ATOM     13  C   UNL d   1       2.735  -3.592   1.190  0.00  0.00     0.211 C 
ENDBRANCH   6  12
ENDBRANCH   1   5
BRANCH   2  14
ATOM     14  C   UNL d   1       0.733   2.427   0.431  0.00  0.00     0.056 A 
ATOM     15  C   UNL d   1       0.278   3.326   1.412  0.00  0.00     0.060 A 
ATOM     16 CL   UNL d   1      -0.599   2.768   2.796  0.00  0.00    -0.082 Cl
ATOM     17  C   UNL d   1       0.533   4.698   1.301  0.00  0.00     0.026 A 
ATOM     18  C   UNL d   1       1.224   5.191   0.195  0.00  0.00     0.002 A 
ATOM     19  C   UNL d   1       1.661   4.315  -0.793  0.00  0.00     0.002 A 
ATOM     20  C   UNL d   1       1.422   2.943  -0.673  0.00  0.00     0.031 A 
ENDBRANCH   2  14
TORSDOF 3
