REMARK  4 active torsions:
REMARK  status: ('A' for Active; 'I' for Inactive)
REMARK    1  A    between atoms: C_7  and  C_1 
REMARK       I    between atoms: N_9  and  C_7 
REMARK       I    between atoms: C_8  and  N_10 
REMARK    2  A    between atoms: C_11  and  C_8 
REMARK    3  A    between atoms: N_10  and  N_9 
REMARK    4  A    between atoms: C_12  and  C_13 
ROOT
ATOM      1  C   UNL d   1      -4.118  -3.003  -0.065  0.00  0.00     0.270 C 
ATOM      2  N   UNL d   1      -3.323  -2.450   0.920  0.00  0.00    -0.263 N 
ATOM      3  O   UNL d   1      -4.564  -2.343  -1.001  0.00  0.00    -0.266 OA
ATOM      4  H   UNL d   1      -3.136  -2.908   1.809  0.00  0.00     0.190 HD
ENDROOT
BRANCH   2   5
ATOM      5  N   UNL d   1      -3.066  -1.070   0.893  0.00  0.00    -0.262 N 
ATOM      6  C   UNL d   1      -2.703  -0.431   2.065  0.00  0.00     0.289 C 
ATOM      7  O   UNL d   1      -2.568  -1.059   3.118  0.00  0.00    -0.264 OA
ATOM      8  H   UNL d   1      -3.235  -0.546   0.035  0.00  0.00     0.190 HD
BRANCH   6   9
ATOM      9  C   UNL d   1      -2.500   1.020   1.935  0.00  0.00     0.137 A 
ATOM     10  N   UNL d   1      -2.665   1.653   0.752  0.00  0.00    -0.292 N 
ATOM     11  N   UNL d   1      -2.413   2.950   1.022  0.00  0.00    -0.299 N 
ATOM     12  HN  UNL d   1      -2.923   1.241  -0.145  1.00  0.00     0.187 HD
ATOM     13  C   UNL d   1      -2.531   3.932  -0.035  0.00  0.00     0.177 C 
ATOM     14  C   UNL d   1      -2.077   3.191   2.327  0.00  0.00     0.044 A 
ATOM     15  C   UNL d   1      -2.125   1.956   2.933  0.00  0.00     0.068 A 
ATOM     16  C   UNL d   1      -1.762   4.546   2.850  0.00  0.00     0.071 C 
ATOM     17 BR   UNL d   1      -1.771   1.584   4.739  0.00  0.00    -0.046 Br
ENDBRANCH   6   9
ENDBRANCH   2   5
BRANCH   1  18
ATOM     18  C   UNL d   1      -4.418  -4.468   0.042  0.00  0.00     0.033 A 
ATOM     19  C   UNL d   1      -3.730  -5.334   0.897  0.00  0.00     0.017 A 
ATOM     20  C   UNL d   1      -4.009  -6.711   0.891  0.00  0.00     0.009 A 
ATOM     21  C   UNL d   1      -4.970  -7.271   0.028  0.00  0.00    -0.051 A 
ATOM     22  C   UNL d   1      -5.668  -6.383  -0.807  0.00  0.00     0.009 A 
ATOM     23  C   UNL d   1      -5.396  -5.006  -0.801  0.00  0.00     0.017 A 
BRANCH  21  24
ATOM     24  C   UNL d   1      -5.197  -8.796  -0.004  0.00  0.00    -0.024 C 
ATOM     25  C   UNL d   1      -6.268  -9.245  -1.026  0.00  0.00     0.019 C 
ATOM     26  C   UNL d   1      -3.881  -9.508  -0.389  0.00  0.00     0.019 C 
ATOM     27  C   UNL d   1      -5.651  -9.301   1.381  0.00  0.00     0.019 C 
ENDBRANCH  21  24
ENDBRANCH   1  18
TORSDOF 4
