REMARK  6 active torsions:
REMARK  status: ('A' for Active; 'I' for Inactive)
REMARK    1  A    between atoms: C_6  and  C_1 
REMARK    2  A    between atoms: N_7  and  C_2 
REMARK    3  A    between atoms: C_12  and  N_4 
REMARK    4  A    between atoms: O_11  and  C_6 
REMARK    5  A    between atoms: C_10  and  N_7 
REMARK    6  A    between atoms: C_19  and  O_11 
ROOT
ATOM      1  C   UNL d   1      -1.443   0.824   0.099  0.00  0.00     0.067 A 
ATOM      2  C   UNL d   1      -0.182   1.273   0.020  0.00  0.00     0.115 A 
ATOM      3  C   UNL d   1       0.674   0.047  -0.038  0.00  0.00     0.271 A 
ATOM      4  N   UNL d   1      -0.172  -1.041  -0.079  0.00  0.00    -0.343 N 
ATOM      5  C   UNL d   1      -1.554  -0.665   0.069  0.00  0.00     0.173 A 
ATOM      6  O   UNL d   1       1.889   0.031  -0.059  0.00  0.00    -0.266 OA
ENDROOT
BRANCH   2   7
ATOM      7  N   UNL d   1       0.406   2.512  -0.062  0.00  0.00    -0.351 N 
ATOM      8  H   UNL d   1       0.299   3.054   0.790  0.00  0.00     0.166 HD
BRANCH   7   9
ATOM      9  C   UNL d   1       0.420   3.320  -1.222  0.00  0.00     0.032 A 
ATOM     10  C   UNL d   1       0.159   2.815  -2.506  0.00  0.00     0.032 A 
ATOM     11  C   UNL d   1       0.289   3.627  -3.638  0.00  0.00     0.044 A 
ATOM     12  C   UNL d   1       0.700   4.945  -3.493  0.00  0.00     0.116 A 
ATOM     13  C   UNL d   1       0.988   5.465  -2.239  0.00  0.00     0.044 A 
ATOM     14  F   UNL d   1       0.835   5.720  -4.578  0.00  0.00    -0.206 F 
ATOM     15  C   UNL d   1       0.855   4.651  -1.110  0.00  0.00     0.032 A 
ENDBRANCH   7   9
ENDBRANCH   2   7
BRANCH   1  16
ATOM     16  C   UNL d   1      -2.674   1.628   0.064  0.00  0.00     0.293 C 
ATOM     17  O   UNL d   1      -3.759   1.154  -0.230  0.00  0.00    -0.259 OA
BRANCH  16  18
ATOM     18  O   UNL d   1      -2.419   2.928   0.348  0.00  0.00    -0.318 OA
BRANCH  18  19
ATOM     19  C   UNL d   1      -3.356   3.891  -0.158  0.00  0.00     0.174 C 
ATOM     20  C   UNL d   1      -4.046   4.630   0.970  0.00  0.00     0.034 C 
ENDBRANCH  18  19
ENDBRANCH  16  18
ENDBRANCH   1  16
BRANCH   4  21
ATOM     21  C   UNL d   1       0.296  -2.409  -0.189  0.00  0.00     0.122 C 
ATOM     22  C   UNL d   1       0.654  -3.017   1.155  0.00  0.00     0.026 C 
ENDBRANCH   4  21
TORSDOF 6
