REMARK  3 active torsions:
REMARK  status: ('A' for Active; 'I' for Inactive)
REMARK    1  A    between atoms: N_3  and  C_1 
REMARK    2  A    between atoms: C_4  and  C_2 
REMARK       I    between atoms: N_13  and  C_4 
REMARK    3  A    between atoms: N_14  and  N_13 
ROOT
ATOM      1  C   UNL d   1       1.294   0.752   0.041  0.00  0.00     0.062 A 
ATOM      2  C   UNL d   1       0.560   0.201   1.088  0.00  0.00     0.101 A 
ATOM      3  S   UNL d   1      -0.907  -0.517   0.512  0.00  0.00    -0.094 SA
ATOM      4  C   UNL d   1       0.604   0.595  -1.210  0.00  0.00     0.039 A 
ATOM      5  C   UNL d   1      -0.579  -0.094  -1.097  0.00  0.00     0.053 A 
ENDROOT
BRANCH   1   6
ATOM      6  N   UNL d   1       2.565   1.446   0.117  0.00  0.00    -0.319 N 
ATOM      7  C   UNL d   1       3.575   1.395  -0.858  0.00  0.00     0.013 A 
ATOM      8  C   UNL d   1       4.586   2.264  -0.496  0.00  0.00     0.027 A 
ATOM      9  C   UNL d   1       3.606   0.495  -2.048  0.00  0.00     0.068 C 
ATOM     10  C   UNL d   1       4.231   2.847   0.724  0.00  0.00     0.027 A 
ATOM     11  C   UNL d   1       2.986   2.365   1.084  0.00  0.00     0.013 A 
ATOM     12  C   UNL d   1       2.201   2.845   2.255  0.00  0.00     0.068 C 
ENDBRANCH   1   6
BRANCH   2  13
ATOM     13  C   UNL d   1       0.861   0.055   2.509  0.00  0.00     0.274 C 
ATOM     14  O   UNL d   1       1.978  -0.167   2.960  0.00  0.00    -0.266 OA
ATOM     15  N   UNL d   1      -0.248   0.216   3.348  0.00  0.00    -0.289 N 
ATOM     16  H   UNL d   1      -1.140   0.495   2.934  0.00  0.00     0.183 HD
BRANCH  15  17
ATOM     17  N   UNL d   1      -0.097   0.270   4.750  0.00  0.00    -0.247 NA
ATOM     18  H   UNL d   1       0.912   0.177   4.947  0.00  0.00     0.143 HD
ATOM     19  H   UNL d   1      -0.510  -0.577   5.147  0.00  0.00     0.143 HD
ENDBRANCH  15  17
ENDBRANCH   2  13
TORSDOF 3
