REMARK  8 active torsions:
REMARK  status: ('A' for Active; 'I' for Inactive)
REMARK    1  A    between atoms: O_7  and  C_1 
REMARK    2  A    between atoms: C_8  and  C_1 
REMARK    3  A    between atoms: C_2  and  O_6 
REMARK    4  A    between atoms: C_9  and  C_2 
REMARK    5  A    between atoms: C_4  and  C_11 
REMARK    6  A    between atoms: C_10  and  C_5 
REMARK    7  A    between atoms: O_6  and  C_10 
REMARK    8  A    between atoms: C_11  and  O_7 
ROOT
ATOM      1  C   UNL d   1      -1.339   2.138  -2.918  0.00  0.00     0.133 A 
ATOM      2  C   UNL d   1      -1.422   0.791  -2.542  0.00  0.00     0.005 A 
ATOM      3  C   UNL d   1      -1.716   2.568  -4.196  0.00  0.00     0.005 A 
ATOM      4  F   UNL d   1      -0.890   3.037  -2.028  0.00  0.00    -0.205 F 
ATOM      5  C   UNL d   1      -2.220   1.623  -5.099  0.00  0.00     0.012 A 
ATOM      6  C   UNL d   1      -1.922  -0.136  -3.465  0.00  0.00     0.012 A 
ATOM      7  C   UNL d   1      -2.323   0.279  -4.735  0.00  0.00     0.001 A 
ENDROOT
BRANCH   2   8
ATOM      8  C   UNL d   1      -0.983   0.346  -1.172  0.00  0.00     0.221 C 
BRANCH   8   9
ATOM      9  O   UNL d   1       0.387   0.694  -0.926  0.00  0.00    -0.313 OA
BRANCH   9  10
ATOM     10  C   UNL d   1       1.304  -0.176  -1.410  0.00  0.00     0.293 C 
ATOM     11  O   UNL d   1       1.068  -1.218  -2.001  0.00  0.00    -0.259 OA
BRANCH  10  12
ATOM     12  C   UNL d   1       2.684   0.294  -1.105  0.00  0.00     0.039 A 
ATOM     13  C   UNL d   1       3.760  -0.514  -1.504  0.00  0.00     0.019 A 
ATOM     14  C   UNL d   1       5.074  -0.135  -1.218  0.00  0.00     0.025 A 
ATOM     15  C   UNL d   1       5.318   1.056  -0.536  0.00  0.00     0.034 A 
ATOM     16  C   UNL d   1       4.259   1.874  -0.145  0.00  0.00     0.025 A 
ATOM     17 CL   UNL d   1       6.935   1.515  -0.170  0.00  0.00    -0.084 Cl
ATOM     18  C   UNL d   1       2.942   1.496  -0.429  0.00  0.00     0.019 A 
ENDBRANCH  10  12
ENDBRANCH   9  10
ENDBRANCH   8   9
ENDBRANCH   2   8
BRANCH   3  19
ATOM     19  C   UNL d   1      -1.622   4.019  -4.583  0.00  0.00     0.221 C 
BRANCH  19  20
ATOM     20  O   UNL d   1      -0.745   4.165  -5.716  0.00  0.00    -0.313 OA
BRANCH  20  21
ATOM     21  C   UNL d   1      -1.291   4.716  -6.825  0.00  0.00     0.293 C 
ATOM     22  O   UNL d   1      -2.453   5.062  -6.956  0.00  0.00    -0.259 OA
BRANCH  21  23
ATOM     23  C   UNL d   1      -0.284   4.859  -7.914  0.00  0.00     0.039 A 
ATOM     24  C   UNL d   1      -0.708   5.413  -9.133  0.00  0.00     0.019 A 
ATOM     25  C   UNL d   1       0.191   5.580 -10.191  0.00  0.00     0.025 A 
ATOM     26  C   UNL d   1       1.520   5.197 -10.033  0.00  0.00     0.034 A 
ATOM     27  C   UNL d   1       1.957   4.646  -8.828  0.00  0.00     0.025 A 
ATOM     28 CL   UNL d   1       2.629   5.406 -11.332  0.00  0.00    -0.084 Cl
ATOM     29  C   UNL d   1       1.057   4.476  -7.768  0.00  0.00     0.019 A 
ENDBRANCH  21  23
ENDBRANCH  20  21
ENDBRANCH  19  20
ENDBRANCH   3  19
TORSDOF 8
