REMARK  6 active torsions:
REMARK  status: ('A' for Active; 'I' for Inactive)
REMARK    1  A    between atoms: N_9  and  C_1 
REMARK    2  A    between atoms: C_15  and  N_2 
REMARK    3  A    between atoms: C_3  and  C_15 
REMARK    4  A    between atoms: S_17  and  C_10 
REMARK    5  A    between atoms: C_16  and  C_18 
REMARK    6  A    between atoms: C_18  and  S_17 
ROOT
ATOM      1  C   UNL d   1       3.407   0.720  -0.099  0.00  0.00     0.120 A 
ATOM      2  N   UNL d   1       3.711   0.017  -1.246  0.00  0.00    -0.318 N 
ATOM      3  C   UNL d   1       4.886  -0.631  -0.975  0.00  0.00     0.162 A 
ATOM      4  N   UNL d   1       4.404   0.581   0.754  0.00  0.00    -0.285 N 
ATOM      5  HN  UNL d   1       4.475   1.029   1.668  1.00  0.00     0.188 HD
ATOM      6  N   UNL d   1       5.329  -0.267   0.205  0.00  0.00    -0.278 N 
ATOM      7  HN  UNL d   1       6.205  -0.563   0.636  1.00  0.00     0.189 HD
ATOM      8  C   UNL d   1       2.926  -0.093  -2.449  0.00  0.00     0.160 C 
ENDROOT
BRANCH   1   9
ATOM      9  C   UNL d   1       2.114   1.389   0.197  0.00  0.00     0.227 C 
BRANCH   9  10
ATOM     10  N   UNL d   1       2.236   2.845   0.239  0.00  0.00    -0.287 N 
ATOM     11  C   UNL d   1       2.427   3.642   1.345  0.00  0.00     0.060 A 
ATOM     12  C   UNL d   1       2.148   4.935   0.918  0.00  0.00     0.150 A 
ATOM     13  C   UNL d   1       2.820   3.119   2.682  0.00  0.00     0.072 C 
ATOM     14  C   UNL d   1       1.877   4.821  -0.470  0.00  0.00     0.057 A 
ATOM     15  N   UNL d   1       1.927   3.544  -0.877  0.00  0.00    -0.300 N 
ATOM     16  C   UNL d   1       1.538   5.891  -1.445  0.00  0.00     0.072 C 
ATOM     17  HN  UNL d   1       1.769   3.182  -1.817  1.00  0.00     0.187 HD
BRANCH  12  18
ATOM     18  N   UNL d   1       2.116   6.129   1.726  0.00  0.00    -0.112 N 
ATOM     19  O   UNL d   1       2.259   6.001   2.947  0.00  0.00    -0.532 OA
ATOM     20  O   UNL d   1       1.917   7.201   1.139  0.00  0.00    -0.532 OA
ENDBRANCH  12  18
ENDBRANCH   9  10
ENDBRANCH   1   9
BRANCH   3  21
ATOM     21  S   UNL d   1       5.602  -1.821  -2.005  0.00  0.00    -0.088 SA
BRANCH  21  22
ATOM     22  C   UNL d   1       6.556  -2.758  -0.765  0.00  0.00     0.126 C 
BRANCH  22  23
ATOM     23  C   UNL d   1       7.267  -3.941  -1.365  0.00  0.00     0.012 A 
ATOM     24  C   UNL d   1       6.633  -5.190  -1.372  0.00  0.00     0.125 A 
ATOM     25  F   UNL d   1       5.403  -5.314  -0.854  0.00  0.00    -0.205 F 
ATOM     26  C   UNL d   1       7.245  -6.327  -1.898  0.00  0.00     0.043 A 
ATOM     27  C   UNL d   1       8.522  -6.234  -2.441  0.00  0.00     0.005 A 
ATOM     28  C   UNL d   1       9.172  -5.000  -2.457  0.00  0.00     0.024 A 
ATOM     29  C   UNL d   1       8.550  -3.862  -1.928  0.00  0.00     0.044 A 
ATOM     30 CL   UNL d   1       9.430  -2.377  -1.993  0.00  0.00    -0.084 Cl
ENDBRANCH  22  23
ENDBRANCH  21  22
ENDBRANCH   3  21
TORSDOF 6
