REMARK  6 active torsions:
REMARK  status: ('A' for Active; 'I' for Inactive)
REMARK    1  A    between atoms: N_5  and  C_1 
REMARK    2  A    between atoms: C_4  and  C_7 
REMARK    3  A    between atoms: C_6  and  N_12 
REMARK    4  A    between atoms: N_10  and  C_6 
REMARK    5  A    between atoms: C_11  and  N_10 
REMARK    6  A    between atoms: N_12  and  C_23 
ROOT
ATOM      1  N   UNL d   1       0.110   2.573   0.224  0.00  0.00    -0.217 N 
ATOM      2  C   UNL d   1      -0.017   3.227  -1.074  0.00  0.00     0.143 C 
ATOM      3  C   UNL d   1      -0.552   3.257   1.331  0.00  0.00     0.143 C 
ATOM      4  C   UNL d   1       0.635   4.604  -0.989  0.00  0.00     0.045 C 
ATOM      5  C   UNL d   1      -0.015   4.686   1.456  0.00  0.00     0.045 C 
ATOM      6  C   UNL d   1       0.023   5.457   0.129  0.00  0.00     0.087 C 
ENDROOT
BRANCH   1   7
ATOM      7  C   UNL d   1      -0.058   1.191   0.215  0.00  0.00     0.680 A 
ATOM      8  N   UNL d   1       0.090   0.530   1.372  0.00  0.00    -0.186 N 
ATOM      9  C   UNL d   1       0.041  -0.829   1.360  0.00  0.00     0.133 A 
ATOM     10  HN  UNL d   1       0.236   1.037   2.245  1.00  0.00     0.184 HD
ATOM     11  C   UNL d   1      -0.200  -1.538   0.198  0.00  0.00     0.052 A 
ATOM     12  C   UNL d   1      -0.364  -0.784  -0.934  0.00  0.00     0.108 A 
ATOM     13  N   UNL d   1      -0.288   0.557  -0.942  0.00  0.00    -0.202 N 
ATOM     14  HN  UNL d   1      -0.404   1.081  -1.810  1.00  0.00     0.183 HD
BRANCH   9  15
ATOM     15  C   UNL d   1       0.269  -1.596   2.648  0.00  0.00     0.433 C 
ATOM     16  F   UNL d   1       0.563  -0.818   3.727  0.00  0.00    -0.165 F 
ATOM     17  F   UNL d   1      -0.820  -2.336   3.010  0.00  0.00    -0.165 F 
ATOM     18  F   UNL d   1       1.295  -2.492   2.543  0.00  0.00    -0.165 F 
ENDBRANCH   9  15
ENDBRANCH   1   7
BRANCH   6  19
ATOM     19  N   UNL d   1      -1.298   5.965  -0.269  0.00  0.00    -0.363 N 
ATOM     20  H   UNL d   1      -2.116   5.555   0.161  0.00  0.00     0.162 HD
BRANCH  19  21
ATOM     21  C   UNL d   1      -1.541   6.972  -1.167  0.00  0.00     0.168 C 
ATOM     22  S   UNL d   1      -0.430   8.058  -1.777  0.00  0.00    -0.041 SA
BRANCH  21  23
ATOM     23  N   UNL d   1      -2.831   7.056  -1.622  0.00  0.00    -0.363 N 
ATOM     24  H   UNL d   1      -2.953   7.783  -2.321  0.00  0.00     0.162 HD
BRANCH  23  25
ATOM     25  C   UNL d   1      -3.796   6.004  -1.615  0.00  0.00     0.084 A 
ATOM     26  C   UNL d   1      -5.258   6.343  -1.718  0.00  0.00     0.027 A 
ATOM     27  C   UNL d   1      -4.710   5.763  -0.449  0.00  0.00     0.027 A 
ENDBRANCH  23  25
ENDBRANCH  21  23
ENDBRANCH  19  21
ENDBRANCH   6  19
TORSDOF 6
