REMARK  7 active torsions:
REMARK  status: ('A' for Active; 'I' for Inactive)
REMARK    1  A    between atoms: S_16  and  C_3 
REMARK       I    between atoms: C_13  and  N_10 
REMARK    2  A    between atoms: C_11  and  N_12 
REMARK       I    between atoms: N_12  and  C_14 
REMARK    3  A    between atoms: C_25  and  C_13 
REMARK    4  A    between atoms: C_14  and  C_24 
REMARK    5  A    between atoms: C_24  and  S_16 
REMARK    6  A    between atoms: S_19  and  C_25 
REMARK    7  A    between atoms: C_26  and  S_19 
ROOT
ATOM      1  C   UNL d   1       0.005   1.278  -0.130  0.00  0.00     0.168 A 
ATOM      2  S   UNL d   1       1.328   0.212   0.038  0.00  0.00    -0.026 SA
ATOM      3  C   UNL d   1       0.183  -0.984   0.472  0.00  0.00     0.130 A 
ATOM      4  N   UNL d   1      -1.174   0.732   0.035  0.00  0.00    -0.278 N 
ATOM      5  HN  UNL d   1      -2.058   1.228  -0.085  1.00  0.00     0.189 HD
ATOM      6  N   UNL d   1      -1.071  -0.599   0.391  0.00  0.00    -0.286 N 
ATOM      7  HN  UNL d   1      -1.870  -1.208   0.568  1.00  0.00     0.188 HD
ATOM      8  N   UNL d   1       0.364   2.566  -0.376  0.00  0.00    -0.305 N 
ATOM      9  C   UNL d   1      -0.548   3.575  -0.582  0.00  0.00     0.233 C 
ATOM     10  O   UNL d   1      -1.767   3.442  -0.602  0.00  0.00    -0.272 OA
ATOM     11  H   UNL d   1       1.351   2.781  -0.433  0.00  0.00     0.171 HD
ENDROOT
BRANCH   3  12
ATOM     12  S   UNL d   1       0.567  -2.552   1.132  0.00  0.00    -0.094 SA
BRANCH  12  13
ATOM     13  C   UNL d   1       1.612  -2.089   2.532  0.00  0.00     0.184 C 
BRANCH  13  14
ATOM     14  C   UNL d   1       0.971  -1.270   3.645  0.00  0.00     0.231 C 
ATOM     15  N   UNL d   1      -0.337  -0.855   3.479  0.00  0.00    -0.324 N 
ATOM     16  H   UNL d   1      -0.885  -1.336   2.771  0.00  0.00     0.169 HD
ATOM     17  O   UNL d   1       1.643  -1.049   4.652  0.00  0.00    -0.272 OA
BRANCH  15  18
ATOM     18  C   UNL d   1      -1.065  -0.052   4.393  0.00  0.00     0.077 A 
ATOM     19  C   UNL d   1      -0.484   0.853   5.295  0.00  0.00     0.184 A 
ATOM     20  C   UNL d   1      -1.262   1.500   6.250  0.00  0.00     0.195 A 
ATOM     21  F   UNL d   1       0.810   1.191   5.207  0.00  0.00    -0.200 F 
ATOM     22  F   UNL d   1      -0.690   2.341   7.125  0.00  0.00    -0.199 F 
ATOM     23  C   UNL d   1      -2.631   1.285   6.290  0.00  0.00     0.158 A 
ATOM     24  C   UNL d   1      -3.242   0.465   5.348  0.00  0.00     0.048 A 
ATOM     25  F   UNL d   1      -3.381   1.883   7.226  0.00  0.00    -0.203 F 
ATOM     26  C   UNL d   1      -2.462  -0.191   4.389  0.00  0.00     0.036 A 
ENDBRANCH  15  18
ENDBRANCH  13  14
ENDBRANCH  12  13
ENDBRANCH   3  12
BRANCH   9  27
ATOM     27  C   UNL d   1       0.078   4.965  -0.721  0.00  0.00     0.182 C 
BRANCH  27  28
ATOM     28  S   UNL d   1       1.803   4.869  -1.330  0.00  0.00    -0.121 SA
BRANCH  28  29
ATOM     29  C   UNL d   1       2.352   6.562  -1.261  0.00  0.00     0.001 A 
ATOM     30  C   UNL d   1       3.708   6.780  -0.990  0.00  0.00     0.019 A 
ATOM     31  C   UNL d   1       4.246   8.068  -1.018  0.00  0.00     0.008 A 
ATOM     32  C   UNL d   1       3.437   9.164  -1.324  0.00  0.00    -0.062 A 
ATOM     33  C   UNL d   1       2.078   8.952  -1.583  0.00  0.00     0.008 A 
ATOM     34  C   UNL d   1       4.039  10.536  -1.396  0.00  0.00     0.048 C 
ATOM     35  C   UNL d   1       1.539   7.660  -1.553  0.00  0.00     0.019 A 
ENDBRANCH  28  29
ENDBRANCH  27  28
ENDBRANCH   9  27
TORSDOF 7
