REMARK  4 active torsions:
REMARK  status: ('A' for Active; 'I' for Inactive)
REMARK       I    between atoms: N_5  and  C_1 
REMARK    1  A    between atoms: O_6  and  C_1 
REMARK    2  A    between atoms: N_2  and  C_3 
REMARK    3  A    between atoms: C_10  and  N_5 
REMARK    4  A    between atoms: C_8  and  O_6 
ROOT
ATOM      1  C   UNL d   1      -3.296  -0.766  -0.591  0.00  0.00     0.033 A 
ATOM      2  C   UNL d   1      -1.905  -0.904  -0.624  0.00  0.00     0.066 A 
ATOM      3  C   UNL d   1      -1.157  -0.948   0.561  0.00  0.00     0.083 A 
ATOM      4  C   UNL d   1      -3.900  -0.711   0.680  0.00  0.00     0.029 A 
ATOM      5  C   UNL d   1      -3.155  -0.785   1.863  0.00  0.00     0.005 A 
ATOM      6  C   UNL d   1      -1.772  -0.908   1.806  0.00  0.00     0.037 A 
ENDROOT
BRANCH   3   7
ATOM      7  O   UNL d   1       0.232  -1.164   0.529  0.00  0.00    -0.261 OA
BRANCH   7   8
ATOM      8  C   UNL d   1       0.973  -0.316  -0.291  0.00  0.00     0.370 C 
ATOM      9  N   UNL d   1       2.172  -0.928  -0.563  0.00  0.00    -0.302 N 
ATOM     10  H   UNL d   1       2.263  -1.846  -0.150  0.00  0.00     0.171 HD
ATOM     11  O   UNL d   1       0.572   0.751  -0.729  0.00  0.00    -0.238 OA
BRANCH   9  12
ATOM     12  C   UNL d   1       3.138  -0.526  -1.501  0.00  0.00     0.036 A 
ATOM     13  C   UNL d   1       3.151   0.733  -2.108  0.00  0.00     0.031 A 
ATOM     14  C   UNL d   1       4.098   1.036  -3.092  0.00  0.00     0.026 A 
ATOM     15  C   UNL d   1       5.037   0.081  -3.471  0.00  0.00     0.034 A 
ATOM     16  C   UNL d   1       5.053  -1.167  -2.854  0.00  0.00     0.026 A 
ATOM     17 CL   UNL d   1       6.172   0.440  -4.711  0.00  0.00    -0.084 Cl
ATOM     18  C   UNL d   1       4.113  -1.465  -1.863  0.00  0.00     0.031 A 
ENDBRANCH   9  12
ENDBRANCH   7   8
ENDBRANCH   3   7
BRANCH   1  19
ATOM     19  N   UNL d   1      -4.088  -0.734  -1.730  0.00  0.00    -0.377 N 
ATOM     20  C   UNL d   1      -3.647  -1.325  -3.007  0.00  0.00     0.149 C 
ATOM     21  C   UNL d   1      -3.181  -0.250  -3.999  0.00  0.00     0.187 C 
ATOM     22  O   UNL d   1      -4.184   0.762  -4.186  0.00  0.00    -0.388 OA
ATOM     23  C   UNL d   1      -4.471   1.404  -2.933  0.00  0.00     0.187 C 
ATOM     24  C   UNL d   1      -5.013   0.406  -1.895  0.00  0.00     0.149 C 
ENDBRANCH   1  19
TORSDOF 4
