REMARK  3 active torsions:
REMARK  status: ('A' for Active; 'I' for Inactive)
REMARK    1  A    between atoms: N_4  and  C_1 
REMARK    2  A    between atoms: N_2  and  N_4 
REMARK    3  A    between atoms: C_5  and  C_8 
ROOT
ATOM      1  N   UNL d   1       1.049   1.219  -2.119  0.00  0.00    -0.302 N 
ATOM      2  HN  UNL d   1       0.520   1.071  -1.259  1.00  0.00     0.186 HD
ATOM      3  C   UNL d   1       0.441   1.413  -3.256  0.00  0.00     0.033 C 
ATOM      4  C   UNL d   1       1.166   1.666  -4.565  0.00  0.00     0.070 C 
ENDROOT
BRANCH   3   5
ATOM      5  C   UNL d   1      -1.049   1.406  -3.275  0.00  0.00     0.003 A 
ATOM      6  C   UNL d   1      -1.769   0.982  -4.382  0.00  0.00     0.101 A 
ATOM      7  N   UNL d   1      -3.123   0.986  -4.454  0.00  0.00    -0.369 N 
ATOM      8  C   UNL d   1      -3.806   1.414  -3.366  0.00  0.00     0.005 A 
ATOM      9  HN  UNL d   1      -3.609   0.677  -5.296  1.00  0.00     0.165 HD
ATOM     10  C   UNL d   1      -3.166   1.833  -2.202  0.00  0.00     0.025 A 
ATOM     11  C   UNL d   1      -5.301   1.412  -3.470  0.00  0.00     0.068 C 
ATOM     12  C   UNL d   1      -1.771   1.825  -2.157  0.00  0.00     0.017 A 
ENDBRANCH   3   5
BRANCH   1  13
ATOM     13  N   UNL d   1       2.416   1.221  -2.113  0.00  0.00    -0.276 N 
ATOM     14  H   UNL d   1       2.946   1.346  -2.969  0.00  0.00     0.189 HD
BRANCH  13  15
ATOM     15  C   UNL d   1       3.131   1.023  -0.967  0.00  0.00     0.184 C 
ATOM     16  S   UNL d   1       4.790   1.006  -0.958  0.00  0.00    -0.040 SA
ATOM     17  N   UNL d   1       2.406   0.849   0.161  0.00  0.00    -0.375 N 
ATOM     18  H   UNL d   1       1.403   0.763   0.051  0.00  0.00     0.158 HD
ATOM     19  H   UNL d   1       2.852   0.626   1.038  0.00  0.00     0.158 HD
ENDBRANCH  13  15
ENDBRANCH   1  13
TORSDOF 3
