REMARK  1 active torsions:
REMARK  status: ('A' for Active; 'I' for Inactive)
REMARK    1  A    between atoms: C_2  and  N_1 
ROOT
ATOM      1  C   UNL d   1       0.282   0.309   1.293  0.00  0.00     0.114 A 
ATOM      2  C   UNL d   1      -0.808  -0.543   1.619  0.00  0.00     0.010 A 
ATOM      3  N   UNL d   1      -2.999  -2.135   2.452  0.00  0.00    -0.374 N 
ATOM      4  HN  UNL d   1      -3.790  -2.704   2.755  1.00  0.00     0.164 HD
ATOM      5  C   UNL d   1      -1.459  -0.291   2.846  0.00  0.00    -0.008 A 
ATOM      6  C   UNL d   1       0.712   1.347   2.132  0.00  0.00     0.037 A 
ATOM      7  C   UNL d   1      -2.535  -1.110   3.199  0.00  0.00     0.100 A 
ATOM      8  C   UNL d   1      -1.288  -1.622   0.838  0.00  0.00     0.032 A 
ATOM      9  C   UNL d   1       0.049   1.568   3.333  0.00  0.00     0.003 A 
ATOM     10  C   UNL d   1      -2.365  -2.368   1.289  0.00  0.00     0.088 A 
ATOM     11  C   UNL d   1      -1.029   0.756   3.686  0.00  0.00     0.014 A 
ENDROOT
BRANCH   1  12
ATOM     12  N   UNL d   1       1.014   0.131   0.051  0.00  0.00    -0.115 N 
ATOM     13  O   UNL d   1       0.375   0.222  -1.006  0.00  0.00    -0.532 OA
ATOM     14  O   UNL d   1       2.232  -0.074   0.141  0.00  0.00    -0.532 OA
ENDBRANCH   1  12
TORSDOF 1
