REMARK  4 active torsions:
REMARK  status: ('A' for Active; 'I' for Inactive)
REMARK    1  A    between atoms: C_7  and  C_1 
REMARK    2  A    between atoms: C_8  and  C_2 
REMARK    3  A    between atoms: C_10  and  C_4 
REMARK    4  A    between atoms: O_11  and  C_4 
ROOT
ATOM      1  C   UNL d   1       0.460  -1.383  -0.099  0.00  0.00    -0.000 C 
ATOM      2  C   UNL d   1       0.895   1.162  -0.031  0.00  0.00    -0.000 C 
ATOM      3  C   UNL d   1       1.368  -0.239   0.263  0.00  0.00     0.185 C 
ATOM      4  C   UNL d   1      -1.453   0.249   0.156  0.00  0.00     0.122 C 
ATOM      5  C   UNL d   1      -0.442   1.341  -0.045  0.00  0.00     0.031 C 
ATOM      6  C   UNL d   1      -0.860  -1.105  -0.111  0.00  0.00     0.031 C 
ATOM      7  O   UNL d   1       2.442  -0.436   0.812  0.00  0.00    -0.287 OA
ENDROOT
BRANCH   4   8
ATOM      8  C   UNL d   1      -2.079   0.323   1.550  0.00  0.00    -0.016 A 
ATOM      9  C   UNL d   1      -1.293   0.098   2.698  0.00  0.00     0.011 A 
ATOM     10  C   UNL d   1      -1.842   0.171   3.980  0.00  0.00     0.001 A 
ATOM     11  C   UNL d   1      -3.190   0.473   4.140  0.00  0.00     0.000 A 
ATOM     12  C   UNL d   1      -3.986   0.700   3.021  0.00  0.00     0.001 A 
ATOM     13  C   UNL d   1      -3.438   0.626   1.736  0.00  0.00     0.011 A 
ENDBRANCH   4   8
BRANCH   4  14
ATOM     14  O   UNL d   1      -2.439   0.443  -0.858  0.00  0.00    -0.377 OA
ATOM     15  H   UNL d   1      -1.981   0.365  -1.712  0.00  0.00     0.211 HD
ENDBRANCH   4  14
BRANCH   1  16
ATOM     16  C   UNL d   1       1.037  -2.793  -0.303  0.00  0.00    -0.020 C 
ATOM     17  C   UNL d   1       0.927  -3.566   1.025  0.00  0.00     0.019 C 
ATOM     18  C   UNL d   1       0.252  -3.565  -1.392  0.00  0.00     0.019 C 
ATOM     19  C   UNL d   1       2.513  -2.804  -0.764  0.00  0.00     0.019 C 
ENDBRANCH   1  16
BRANCH   2  20
ATOM     20  C   UNL d   1       1.944   2.261  -0.264  0.00  0.00    -0.020 C 
ATOM     21  C   UNL d   1       2.896   1.831  -1.400  0.00  0.00     0.019 C 
ATOM     22  C   UNL d   1       1.305   3.604  -0.698  0.00  0.00     0.019 C 
ATOM     23  C   UNL d   1       2.766   2.557   1.008  0.00  0.00     0.019 C 
ENDBRANCH   2  20
TORSDOF 4
