REMARK  6 active torsions:
REMARK  status: ('A' for Active; 'I' for Inactive)
REMARK    1  A    between atoms: N_2  and  S_1 
REMARK    2  A    between atoms: C_3  and  S_1 
REMARK    3  A    between atoms: C_4  and  N_2 
REMARK    4  A    between atoms: C_17  and  N_2 
REMARK    5  A    between atoms: C_6  and  C_4 
REMARK    6  A    between atoms: C_16  and  C_17 
ROOT
ATOM      1  N   UNL d   1       3.130  -4.632  -2.228  0.00  0.00    -0.197 NA
ATOM      2  C   UNL d   1       2.807  -3.811  -1.474  0.00  0.00     0.060 C 
ATOM      3  C   UNL d   1       2.400  -2.752  -0.542  0.00  0.00     0.139 C 
ENDROOT
BRANCH   3   4
ATOM      4  C   UNL d   1       0.905  -2.462  -0.688  0.00  0.00     0.122 C 
BRANCH   4   5
ATOM      5  N   UNL d   1       0.368  -1.393   0.266  0.00  0.00    -0.200 NA
BRANCH   5   6
ATOM      6  S   UNL d   1       1.187   0.113   0.027  0.00  0.00     0.244 S 
ATOM      7  O   UNL d   1       0.972   0.471  -1.362  0.00  0.00    -0.206 OA
ATOM      8  O   UNL d   1       2.529  -0.036   0.548  0.00  0.00    -0.206 OA
BRANCH   6   9
ATOM      9  C   UNL d   1       0.402   1.339   1.036  0.00  0.00     0.074 A 
ATOM     10  C   UNL d   1       0.438   1.223   2.426  0.00  0.00     0.025 A 
ATOM     11  C   UNL d   1       0.025   2.302   3.214  0.00  0.00     0.008 A 
ATOM     12  C   UNL d   1      -0.399   3.500   2.619  0.00  0.00    -0.062 A 
ATOM     13  C   UNL d   1      -0.476   3.583   1.223  0.00  0.00     0.008 A 
ATOM     14  C   UNL d   1      -0.759   4.683   3.471  0.00  0.00     0.048 C 
ATOM     15  C   UNL d   1      -0.074   2.508   0.431  0.00  0.00     0.025 A 
ENDBRANCH   6   9
ENDBRANCH   5   6
BRANCH   5  16
ATOM     16  C   UNL d   1      -1.122  -1.264   0.113  0.00  0.00     0.172 C 
BRANCH  16  17
ATOM     17  C   UNL d   1      -1.830  -2.548   0.418  0.00  0.00     0.066 A 
ATOM     18  O   UNL d   1      -2.610  -3.051  -0.585  0.00  0.00    -0.326 OA
ATOM     19  C   UNL d   1      -3.167  -4.199  -0.124  0.00  0.00     0.142 A 
ATOM     20  C   UNL d   1      -2.753  -4.450   1.162  0.00  0.00     0.027 A 
ATOM     21  C   UNL d   1      -1.887  -3.385   1.514  0.00  0.00     0.036 A 
ENDBRANCH  16  17
ENDBRANCH   5  16
ENDBRANCH   4   5
ENDBRANCH   3   4
TORSDOF 6
