REMARK  1 active torsions:
REMARK  status: ('A' for Active; 'I' for Inactive)
REMARK    1  A    between atoms: C_2  and  C_1 
REMARK       I    between atoms: N_3  and  C_2 
ROOT
ATOM      1  C   UNL d   1       1.188  -0.399   1.077  0.00  0.00     0.042 C 
ATOM      2  C   UNL d   1       1.948   0.054  -0.189  0.00  0.00     0.024 C 
ATOM      3  C   UNL d   1       0.404  -1.667   0.636  0.00  0.00     0.024 C 
ATOM      4  C   UNL d   1       0.189   0.664   1.598  0.00  0.00     0.024 C 
ATOM      5  C   UNL d   1       0.959   0.506  -1.263  0.00  0.00    -0.013 C 
ATOM      6  C   UNL d   1      -0.570  -1.444  -0.531  0.00  0.00    -0.013 C 
ATOM      7  C   UNL d   1      -0.651   1.375   0.525  0.00  0.00    -0.013 C 
ATOM      8  C   UNL d   1       0.068  -0.667  -1.692  0.00  0.00     0.009 C 
ATOM      9  C   UNL d   1       0.165   1.699  -0.731  0.00  0.00     0.009 C 
ATOM     10  C   UNL d   1      -1.894  -0.853  -0.040  0.00  0.00     0.005 C 
ATOM     11  C   UNL d   1      -1.955   0.653   0.171  0.00  0.00     0.005 C 
ENDROOT
BRANCH   1  12
ATOM     12  C   UNL d   1       2.171  -0.812   2.208  0.00  0.00     0.228 C 
ATOM     13  N   UNL d   1       3.041   0.104   2.763  0.00  0.00    -0.351 N 
ATOM     14  C   UNL d   1       3.216   1.526   2.537  0.00  0.00     0.126 C 
ATOM     15  C   UNL d   1       4.012  -0.345   3.754  0.00  0.00     0.126 C 
ATOM     16  C   UNL d   1       4.718   1.694   2.677  0.00  0.00     0.021 C 
ATOM     17  C   UNL d   1       5.040   0.782   3.855  0.00  0.00     0.021 C 
ATOM     18  O   UNL d   1       2.183  -1.978   2.616  0.00  0.00    -0.273 OA
ENDBRANCH   1  12
TORSDOF 1
