REMARK  2 active torsions:
REMARK  status: ('A' for Active; 'I' for Inactive)
REMARK    1  A    between atoms: C_3  and  C_1 
REMARK    2  A    between atoms: C_10  and  C_2 
REMARK       I    between atoms: N_15  and  C_10 
ROOT
ATOM      1  C   UNL d   1      -1.251  -0.891  -0.079  0.00  0.00     0.145 A 
ATOM      2  C   UNL d   1       0.064  -1.325   0.013  0.00  0.00     0.094 A 
ATOM      3  O   UNL d   1      -1.248   0.459  -0.281  0.00  0.00    -0.234 OA
ATOM      4  N   UNL d   1       0.036   0.948  -0.217  0.00  0.00    -0.264 N 
ATOM      5  HN  UNL d   1       0.326   1.924  -0.278  1.00  0.00     0.194 HD
ATOM      6  C   UNL d   1       0.826  -0.119  -0.058  0.00  0.00     0.047 A 
ATOM      7  C   UNL d   1       2.291   0.110  -0.033  0.00  0.00     0.071 C 
ENDROOT
BRANCH   1   8
ATOM      8  C   UNL d   1      -2.522  -1.667   0.038  0.00  0.00     0.094 A 
ATOM      9  N   UNL d   1      -3.675  -1.188  -0.447  0.00  0.00    -0.258 N 
ATOM     10  O   UNL d   1      -4.630  -2.154  -0.178  0.00  0.00    -0.242 OA
ATOM     11  HN  UNL d   1      -3.820  -0.295  -0.918  1.00  0.00     0.195 HD
ATOM     12  C   UNL d   1      -4.058  -3.169   0.522  0.00  0.00     0.074 A 
ATOM     13  C   UNL d   1      -2.725  -2.900   0.697  0.00  0.00     0.068 A 
ATOM     14  C   UNL d   1      -4.940  -4.277   0.924  0.00  0.00     0.079 C 
ENDBRANCH   1   8
BRANCH   2  15
ATOM     15  C   UNL d   1       0.500  -2.707   0.064  0.00  0.00     0.254 C 
ATOM     16  O   UNL d   1      -0.113  -3.633  -0.448  0.00  0.00    -0.268 OA
ATOM     17  N   UNL d   1       1.657  -2.963   0.737  0.00  0.00    -0.366 N 
ATOM     18  H   UNL d   1       2.135  -2.292   1.314  0.00  0.00     0.159 HD
ATOM     19  H   UNL d   1       1.933  -3.936   0.799  0.00  0.00     0.159 HD
ENDBRANCH   2  15
TORSDOF 2
