REMARK  1 active torsions:
REMARK  status: ('A' for Active; 'I' for Inactive)
REMARK    1  A    between atoms: C_18  and  O_21 
ROOT
ATOM      1  C   UNL d   1      -1.975  -0.899  -0.139  0.00  0.00    -0.017 C 
ATOM      2  C   UNL d   1       2.036   1.181  -1.411  0.00  0.00     0.021 C 
ATOM      3  C   UNL d   1      -1.771  -2.383   0.056  0.00  0.00    -0.072 C 
ATOM      4  C   UNL d   1      -0.678  -0.157  -0.632  0.00  0.00     0.003 C 
ATOM      5  C   UNL d   1       2.004  -0.334  -0.970  0.00  0.00     0.006 C 
ATOM      6  C   UNL d   1       0.742  -0.688   0.000  0.00  0.00    -0.001 C 
ATOM      7  C   UNL d   1      -0.541  -2.926   0.135  0.00  0.00    -0.023 C 
ATOM      8  C   UNL d   1       3.382   1.167  -2.096  0.00  0.00     0.135 C 
ATOM      9  C   UNL d   1       0.732   1.456  -2.223  0.00  0.00     0.018 C 
ATOM     10  C   UNL d   1       0.742  -2.176   0.000  0.00  0.00     0.033 C 
ATOM     11  C   UNL d   1      -0.436   0.371  -2.088  0.00  0.00     0.007 C 
ATOM     12  C   UNL d   1      -3.159  -0.600  -1.095  0.00  0.00     0.016 C 
ATOM     13  C   UNL d   1       3.410  -0.576  -0.426  0.00  0.00     0.013 C 
ATOM     14  C   UNL d   1      -2.991  -3.236   0.227  0.00  0.00     0.066 C 
ATOM     15  C   UNL d   1       4.325   0.202  -1.392  0.00  0.00     0.079 C 
ATOM     16  O   UNL d   1       3.712   1.914  -3.007  0.00  0.00    -0.297 OA
ATOM     17  C   UNL d   1      -4.404  -1.451  -0.835  0.00  0.00     0.033 C 
ATOM     18  C   UNL d   1      -4.047  -2.935  -0.843  0.00  0.00     0.122 C 
ATOM     19  C   UNL d   1      -2.330  -0.340   1.282  0.00  0.00     0.020 C 
ATOM     20  C   UNL d   1       2.273   2.283  -0.293  0.00  0.00     0.024 C 
ENDROOT
BRANCH  18  21
ATOM     21  O   UNL d   1      -5.215  -3.712  -0.636  0.00  0.00    -0.395 OA
ATOM     22  H   UNL d   1      -5.597  -3.461   0.223  0.00  0.00     0.210 HD
ENDBRANCH  18  21
TORSDOF 1
