REMARK  5 active torsions:
REMARK  status: ('A' for Active; 'I' for Inactive)
REMARK    1  A    between atoms: C_6  and  C_1 
REMARK    2  A    between atoms: C_15  and  C_7 
REMARK    3  A    between atoms: C_10  and  C_16 
REMARK    4  A    between atoms: O_17  and  C_10 
REMARK    5  A    between atoms: C_16  and  C_15 
ROOT
ATOM      1  C   UNL d   1       0.276   1.111  -0.001  0.00  0.00     0.144 A 
ATOM      2  N   UNL d   1       1.226   0.172  -0.328  0.00  0.00    -0.322 N 
ATOM      3  HN  UNL d   1       2.163   0.314  -0.704  1.00  0.00     0.169 HD
ATOM      4  N   UNL d   1      -0.879   0.594   0.448  0.00  0.00    -0.242 N 
ATOM      5  HN  UNL d   1      -1.723   1.090   0.737  1.00  0.00     0.196 HD
ATOM      6  C   UNL d   1       0.620  -0.954  -0.030  0.00  0.00     0.149 A 
ATOM      7  O   UNL d   1      -0.652  -0.782   0.426  0.00  0.00    -0.223 OA
ENDROOT
BRANCH   6   8
ATOM      8  C   UNL d   1       1.148  -2.337  -0.057  0.00  0.00     0.097 C 
BRANCH   8   9
ATOM      9  C   UNL d   1       2.651  -2.335   0.208  0.00  0.00     0.118 C 
BRANCH   9  10
ATOM     10  C   UNL d   1       3.199  -3.734   0.245  0.00  0.00     0.139 C 
ATOM     11  O   UNL d   1       2.540  -4.747   0.083  0.00  0.00    -0.650 OA
BRANCH  10  12
ATOM     12  O   UNL d   1       4.529  -3.760   0.487  0.00  0.00    -0.776 OA
ATOM     13  H   UNL d   1       4.934  -2.878   0.593  0.00  0.00     0.167 HD
ENDBRANCH  10  12
ENDBRANCH   9  10
ENDBRANCH   8   9
ENDBRANCH   6   8
BRANCH   1  14
ATOM     14  C   UNL d   1       0.528   2.581  -0.099  0.00  0.00     0.050 A 
ATOM     15  S   UNL d   1       1.987   3.253  -0.681  0.00  0.00    -0.098 SA
ATOM     16  C   UNL d   1       1.419   4.849  -0.443  0.00  0.00     0.050 A 
ATOM     17  C   UNL d   1       0.146   4.871   0.084  0.00  0.00     0.009 A 
ATOM     18  C   UNL d   1      -0.372   3.556   0.281  0.00  0.00     0.023 A 
ENDBRANCH   1  14
TORSDOF 5
