REMARK  5 active torsions:
REMARK  status: ('A' for Active; 'I' for Inactive)
REMARK    1  A    between atoms: N_2  and  S_1 
REMARK    2  A    between atoms: C_4  and  S_1 
REMARK    3  A    between atoms: C_7  and  C_3 
REMARK    4  A    between atoms: C_12  and  C_7 
REMARK    5  A    between atoms: C_13  and  C_7 
ROOT
ATOM      1  N   UNL d   1      -0.595   3.014   0.827  0.00  0.00    -0.177 N 
ATOM      2  C   UNL d   1      -0.969   2.011  -0.076  0.00  0.00     0.060 A 
ATOM      3  N   UNL d   1       0.591   3.596   0.471  0.00  0.00    -0.295 N 
ATOM      4  HN  UNL d   1       1.094   4.334   0.964  1.00  0.00     0.187 HD
ATOM      5  C   UNL d   1       0.021   2.015  -1.050  0.00  0.00     0.047 A 
ATOM      6  C   UNL d   1       0.946   2.988  -0.656  0.00  0.00     0.110 A 
ENDROOT
BRANCH   2   7
ATOM      7  C   UNL d   1      -2.200   1.105  -0.014  0.00  0.00     0.104 C 
BRANCH   7   8
ATOM      8  C   UNL d   1      -2.171   0.141   1.213  0.00  0.00    -0.044 C 
ATOM      9  C   UNL d   1      -1.101   0.115   2.134  0.00  0.00     0.008 C 
ATOM     10  C   UNL d   1      -1.145  -0.645   3.309  0.00  0.00     0.001 C 
ATOM     11  C   UNL d   1      -2.228  -1.470   3.567  0.00  0.00     0.000 C 
ATOM     12  C   UNL d   1      -3.233  -1.575   2.619  0.00  0.00     0.001 C 
ATOM     13  C   UNL d   1      -3.187  -0.801   1.453  0.00  0.00     0.008 C 
ENDBRANCH   7   8
BRANCH   7  14
ATOM     14  C   UNL d   1      -3.514   1.882  -0.339  0.00  0.00    -0.044 C 
ATOM     15  C   UNL d   1      -3.548   3.278  -0.547  0.00  0.00     0.008 C 
ATOM     16  C   UNL d   1      -4.751   3.982  -0.680  0.00  0.00     0.001 C 
ATOM     17  C   UNL d   1      -5.960   3.303  -0.670  0.00  0.00     0.000 C 
ATOM     18  C   UNL d   1      -5.955   1.918  -0.611  0.00  0.00     0.001 C 
ATOM     19  C   UNL d   1      -4.746   1.223  -0.490  0.00  0.00     0.008 C 
ENDBRANCH   7  14
ENDBRANCH   2   7
BRANCH   1  20
ATOM     20  S   UNL d   1      -1.409   3.499   2.295  0.00  0.00     0.353 S 
ATOM     21  O   UNL d   1      -0.422   3.224   3.337  0.00  0.00    -0.195 OA
ATOM     22  O   UNL d   1      -2.698   2.827   2.331  0.00  0.00    -0.195 OA
BRANCH  20  23
ATOM     23  C   UNL d   1      -1.640   5.275   2.066  0.00  0.00     0.519 C 
ATOM     24  F   UNL d   1      -1.196   5.738   0.862  0.00  0.00    -0.155 F 
ATOM     25  F   UNL d   1      -2.959   5.634   2.120  0.00  0.00    -0.155 F 
ATOM     26  F   UNL d   1      -1.015   6.024   3.021  0.00  0.00    -0.155 F 
ENDBRANCH  20  23
ENDBRANCH   1  20
TORSDOF 5
