REMARK  2 active torsions:
REMARK  status: ('A' for Active; 'I' for Inactive)
REMARK    1  A    between atoms: C_10  and  C_2 
REMARK    2  A    between atoms: O_12  and  C_4 
ROOT
ATOM      1  C   UNL d   1       1.187  -1.435   0.087  0.00  0.00     0.268 A 
ATOM      2  C   UNL d   1       2.447  -0.636   0.013  0.00  0.00     0.093 A 
ATOM      3  N   UNL d   1       0.004  -0.707   0.058  0.00  0.00    -0.274 N 
ATOM      4  C   UNL d   1       2.329   0.705  -0.007  0.00  0.00     0.158 A 
ATOM      5  N   UNL d   1       1.141   1.371   0.038  0.00  0.00    -0.322 N 
ATOM      6  HN  UNL d   1       1.113   2.390   0.068  1.00  0.00     0.169 HD
ATOM      7  C   UNL d   1       0.048   0.677   0.042  0.00  0.00     0.116 A 
ATOM      8  C   UNL d   1      -1.213  -1.382   0.038  0.00  0.00     0.102 A 
ATOM      9  O   UNL d   1       1.241  -2.663   0.150  0.00  0.00    -0.267 OA
ATOM     10  C   UNL d   1      -1.254   1.400   0.010  0.00  0.00     0.049 A 
ATOM     11  C   UNL d   1      -2.381  -0.730  -0.018  0.00  0.00     0.018 A 
ATOM     12  C   UNL d   1      -2.400   0.709  -0.040  0.00  0.00     0.005 A 
ENDROOT
BRANCH   2  13
ATOM     13  C   UNL d   1       3.752  -1.311  -0.088  0.00  0.00    -0.016 A 
ATOM     14  C   UNL d   1       4.503  -1.600   1.058  0.00  0.00     0.012 A 
ATOM     15  C   UNL d   1       5.779  -2.158   0.939  0.00  0.00     0.001 A 
ATOM     16  C   UNL d   1       6.310  -2.428  -0.321  0.00  0.00     0.000 A 
ATOM     17  C   UNL d   1       5.563  -2.156  -1.466  0.00  0.00     0.001 A 
ATOM     18  C   UNL d   1       4.288  -1.600  -1.351  0.00  0.00     0.012 A 
ENDBRANCH   2  13
BRANCH   4  19
ATOM     19  O   UNL d   1       3.424   1.543  -0.117  0.00  0.00    -0.345 OA
ATOM     20  H   UNL d   1       4.221   1.012  -0.270  0.00  0.00     0.219 HD
ENDBRANCH   4  19
TORSDOF 2
