REMARK  4 active torsions:
REMARK  status: ('A' for Active; 'I' for Inactive)
REMARK    1  A    between atoms: O_10  and  C_1 
REMARK    2  A    between atoms: C_7  and  O_10 
REMARK    3  A    between atoms: C_13  and  C_11 
REMARK    4  A    between atoms: O_23  and  C_12 
ROOT
ATOM      1  C   UNL d   1       4.367   1.335   0.202  0.00  0.00     0.129 A 
ATOM      2  C   UNL d   1       4.386   2.299   1.236  0.00  0.00     0.048 A 
ATOM      3  C   UNL d   1       5.876   3.747  -0.042  0.00  0.00    -0.030 A 
ATOM      4  C   UNL d   1       5.137   1.585  -0.951  0.00  0.00     0.104 A 
ATOM      5  C   UNL d   1       5.082   3.506   1.082  0.00  0.00     0.031 A 
ATOM      6  C   UNL d   1       5.873   2.781  -1.056  0.00  0.00     0.049 A 
ATOM      7 BR   UNL d   1       3.705   2.022   3.001  0.00  0.00    -0.048 Br
ENDROOT
BRANCH   1   8
ATOM      8  O   UNL d   1       3.759   0.108   0.315  0.00  0.00    -0.283 OA
BRANCH   8   9
ATOM      9  C   UNL d   1       2.553  -0.071   0.858  0.00  0.00     0.193 C 
ATOM     10  N   UNL d   1       1.618   0.849   0.913  0.00  0.00    -0.328 N 
ATOM     11  C   UNL d   1       0.614   0.444   1.792  0.00  0.00     0.074 A 
ATOM     12  HN  UNL d   1       1.626   1.727   0.393  1.00  0.00     0.168 HD
ATOM     13  C   UNL d   1      -0.474   1.193   2.288  0.00  0.00     0.063 A 
ATOM     14  C   UNL d   1       0.749  -0.869   2.262  0.00  0.00     0.039 A 
ATOM     15  C   UNL d   1      -1.375   0.667   3.213  0.00  0.00     0.050 A 
ATOM     16 CL   UNL d   1      -0.596   2.809   1.743  0.00  0.00    -0.082 Cl
ATOM     17  C   UNL d   1      -1.207  -0.641   3.646  0.00  0.00     0.037 A 
ATOM     18  C   UNL d   1      -0.158  -1.437   3.175  0.00  0.00     0.045 A 
ATOM     19 CL   UNL d   1      -2.304  -1.300   4.799  0.00  0.00    -0.084 Cl
ATOM     20  S   UNL d   1       2.159  -1.574   1.569  0.00  0.00    -0.044 SA
ENDBRANCH   8   9
ENDBRANCH   1   8
BRANCH   4  21
ATOM     21  O   UNL d   1       5.341   0.789  -2.049  0.00  0.00    -0.353 OA
ATOM     22  C   UNL d   1       4.807  -0.522  -2.091  0.00  0.00     0.210 C 
ENDBRANCH   4  21
BRANCH   3  23
ATOM     23  C   UNL d   1       6.786   4.954  -0.137  0.00  0.00     0.141 C 
ATOM     24  S   UNL d   1       7.895   5.085   1.307  0.00  0.00    -0.148 SA
ATOM     25  C   UNL d   1       8.023   6.882   1.284  0.00  0.00     0.085 C 
ATOM     26  C   UNL d   1       6.646   7.444   0.990  0.00  0.00     0.085 C 
ATOM     27  S   UNL d   1       5.879   6.514  -0.368  0.00  0.00    -0.148 SA
ENDBRANCH   3  23
TORSDOF 4
