REMARK  3 active torsions:
REMARK  status: ('A' for Active; 'I' for Inactive)
REMARK    1  A    between atoms: C_2  and  S_1 
REMARK    2  A    between atoms: N_5  and  S_1 
REMARK    3  A    between atoms: C_9  and  N_5 
ROOT
ATOM      1  S   UNL d   1       1.038   0.090  -0.067  0.00  0.00     0.264 S 
ATOM      2  O   UNL d   1       2.483   0.055  -0.031  0.00  0.00    -0.200 OA
ATOM      3  O   UNL d   1       0.356   0.890   0.930  0.00  0.00    -0.200 OA
ENDROOT
BRANCH   1   4
ATOM      4  C   UNL d   1       0.405  -1.620  -0.024  0.00  0.00     0.092 A 
ATOM      5  C   UNL d   1       1.250  -2.696  -0.437  0.00  0.00    -0.032 A 
ATOM      6  C   UNL d   1       0.845  -4.040  -0.189  0.00  0.00    -0.048 A 
ATOM      7  C   UNL d   1       2.571  -2.488  -1.147  0.00  0.00     0.050 C 
ATOM      8  C   UNL d   1       1.734  -5.220  -0.542  0.00  0.00     0.049 C 
ATOM      9  C   UNL d   1      -0.423  -4.311   0.385  0.00  0.00    -0.049 A 
ATOM     10  C   UNL d   1      -1.296  -3.245   0.715  0.00  0.00    -0.048 A 
ATOM     11  C   UNL d   1      -0.829  -5.756   0.610  0.00  0.00     0.049 C 
ATOM     12  C   UNL d   1      -0.890  -1.892   0.511  0.00  0.00    -0.032 A 
ATOM     13  C   UNL d   1      -2.664  -3.577   1.279  0.00  0.00     0.049 C 
ATOM     14  C   UNL d   1      -1.901  -0.820   0.855  0.00  0.00     0.050 C 
ENDBRANCH   1   4
BRANCH   1  15
ATOM     15  N   UNL d   1       0.620   0.655  -1.603  0.00  0.00    -0.278 N 
ATOM     16  H   UNL d   1       1.311   0.436  -2.320  0.00  0.00     0.179 HD
BRANCH  15  17
ATOM     17  C   UNL d   1      -0.744   0.758  -2.001  0.00  0.00     0.081 A 
ATOM     18  C   UNL d   1      -1.392  -0.281  -2.684  0.00  0.00     0.146 A 
ATOM     19  C   UNL d   1      -2.725  -0.161  -3.074  0.00  0.00     0.086 A 
ATOM     20  F   UNL d   1      -0.732  -1.410  -2.972  0.00  0.00    -0.204 F 
ATOM     21  C   UNL d   1      -3.404   1.018  -2.789  0.00  0.00     0.119 A 
ATOM     22  C   UNL d   1      -2.778   2.060  -2.108  0.00  0.00     0.045 A 
ATOM     23  F   UNL d   1      -4.679   1.152  -3.172  0.00  0.00    -0.206 F 
ATOM     24  C   UNL d   1      -1.448   1.926  -1.708  0.00  0.00     0.036 A 
ENDBRANCH  15  17
ENDBRANCH   1  15
TORSDOF 3
