REMARK  3 active torsions:
REMARK  status: ('A' for Active; 'I' for Inactive)
REMARK    1  A    between atoms: N_2  and  C_1 
REMARK    2  A    between atoms: C_5  and  C_1 
REMARK    3  A    between atoms: C_6  and  N_2 
ROOT
ATOM      1  C   UNL d   1       1.100  -0.104  -0.195  0.00  0.00     0.109 C 
ATOM      2  N   UNL d   1       0.500   1.048  -0.273  0.00  0.00    -0.385 N 
ATOM      3  HN  UNL d   1       0.948   1.946  -0.453  1.00  0.00     0.157 HD
ATOM      4  H   UNL d   1      -0.503   0.896  -0.120  0.00  0.00     0.157 HD
ENDROOT
BRANCH   1   5
ATOM      5  N   UNL d   1       0.403  -1.272   0.017  0.00  0.00    -0.342 N 
ATOM      6  H   UNL d   1       0.875  -2.053   0.451  0.00  0.00     0.167 HD
BRANCH   5   7
ATOM      7  C   UNL d   1      -0.892  -1.569  -0.455  0.00  0.00     0.033 A 
ATOM      8  C   UNL d   1      -1.429  -0.958  -1.598  0.00  0.00     0.029 A 
ATOM      9  C   UNL d   1      -2.753  -1.180  -1.982  0.00  0.00     0.002 A 
ATOM     10  C   UNL d   1      -3.566  -2.013  -1.218  0.00  0.00     0.000 A 
ATOM     11  C   UNL d   1      -3.048  -2.635  -0.084  0.00  0.00     0.002 A 
ATOM     12  C   UNL d   1      -1.719  -2.418   0.292  0.00  0.00     0.029 A 
ENDBRANCH   5   7
ENDBRANCH   1   5
BRANCH   1  13
ATOM     13  C   UNL d   1       2.600  -0.110  -0.304  0.00  0.00     0.007 A 
ATOM     14  C   UNL d   1       3.349  -1.294  -0.294  0.00  0.00     0.015 A 
ATOM     15  C   UNL d   1       4.742  -1.244  -0.427  0.00  0.00     0.001 A 
ATOM     16  C   UNL d   1       5.393  -0.019  -0.577  0.00  0.00     0.000 A 
ATOM     17  C   UNL d   1       4.656   1.161  -0.591  0.00  0.00     0.001 A 
ATOM     18  C   UNL d   1       3.269   1.116  -0.452  0.00  0.00     0.015 A 
ENDBRANCH   1  13
TORSDOF 3
