REMARK  4 active torsions:
REMARK  status: ('A' for Active; 'I' for Inactive)
REMARK    1  A    between atoms: N_2  and  C_1 
REMARK    2  A    between atoms: O_14  and  C_1 
REMARK       I    between atoms: C_5  and  N_2 
REMARK    3  A    between atoms: C_8  and  C_5 
REMARK    4  A    between atoms: S_16  and  C_9 
ROOT
ATOM      1  C   UNL d   1      -1.835  -0.034  -0.250  0.00  0.00     0.269 C 
ATOM      2  C   UNL d   1      -2.095   0.347   1.222  0.00  0.00     0.224 C 
ATOM      3  C   UNL d   1      -0.985  -1.317  -0.134  0.00  0.00     0.224 C 
ATOM      4  C   UNL d   1      -1.284  -0.537   2.062  0.00  0.00     0.029 A 
ATOM      5  C   UNL d   1      -0.627  -1.484   1.284  0.00  0.00     0.029 A 
ATOM      6  O   UNL d   1      -2.701   1.320   1.639  0.00  0.00    -0.286 OA
ATOM      7  O   UNL d   1      -0.581  -2.051  -1.020  0.00  0.00    -0.286 OA
ATOM      8  C   UNL d   1       0.293  -2.357   1.832  0.00  0.00     0.016 A 
ATOM      9  C   UNL d   1      -1.048  -0.423   3.422  0.00  0.00     0.016 A 
ATOM     10  C   UNL d   1       0.552  -2.250   3.205  0.00  0.00     0.001 A 
ATOM     11  C   UNL d   1      -0.115  -1.294   3.994  0.00  0.00     0.001 A 
ENDROOT
BRANCH   1  12
ATOM     12  N   UNL d   1      -2.968  -0.044  -1.120  0.00  0.00    -0.312 N 
ATOM     13  C   UNL d   1      -4.003  -0.943  -1.019  0.00  0.00     0.257 C 
ATOM     14  O   UNL d   1      -4.030  -1.790  -0.138  0.00  0.00    -0.267 OA
ATOM     15  H   UNL d   1      -3.021   0.749  -1.738  0.00  0.00     0.166 HD
BRANCH  13  16
ATOM     16  C   UNL d   1      -5.042  -0.818  -2.091  0.00  0.00     0.065 A 
ATOM     17  C   UNL d   1      -6.409  -1.058  -1.907  0.00  0.00     0.085 A 
ATOM     18  N   UNL d   1      -7.306  -0.892  -2.923  0.00  0.00    -0.360 N 
ATOM     19  C   UNL d   1      -6.859  -0.512  -4.137  0.00  0.00     0.089 A 
ATOM     20  HN  UNL d   1      -8.301  -1.053  -2.766  1.00  0.00     0.166 HD
ATOM     21  C   UNL d   1      -5.530  -0.284  -4.415  0.00  0.00     0.018 A 
ATOM     22  C   UNL d   1      -4.614  -0.447  -3.382  0.00  0.00     0.021 A 
BRANCH  17  23
ATOM     23  S   UNL d   1      -7.141  -1.549  -0.350  0.00  0.00    -0.116 SA
ATOM     24  C   UNL d   1      -8.871  -1.802  -0.846  0.00  0.00     0.097 C 
ENDBRANCH  17  23
ENDBRANCH  13  16
ENDBRANCH   1  12
BRANCH   1  25
ATOM     25  O   UNL d   1      -1.022   0.984  -0.836  0.00  0.00    -0.358 OA
ATOM     26  H   UNL d   1      -0.843   1.656  -0.154  0.00  0.00     0.213 HD
ENDBRANCH   1  25
TORSDOF 4
