REMARK  2 active torsions:
REMARK  status: ('A' for Active; 'I' for Inactive)
REMARK    1  A    between atoms: C_12  and  N_2 
REMARK    2  A    between atoms: C_17  and  C_10 
ROOT
ATOM      1  C   UNL d   1      -0.455   0.383  -0.081  0.00  0.00     0.123 A 
ATOM      2  N   UNL d   1       1.883   0.978   0.001  0.00  0.00    -0.215 N 
ATOM      3  C   UNL d   1      -0.042  -0.925  -0.088  0.00  0.00     0.063 A 
ATOM      4  C   UNL d   1       0.545   1.459  -0.052  0.00  0.00     0.295 A 
ATOM      5  N   UNL d   1      -1.841   0.547  -0.041  0.00  0.00    -0.344 N 
ATOM      6  HN  UNL d   1      -2.325   1.445  -0.059  1.00  0.00     0.167 HD
ATOM      7  N   UNL d   1       2.253  -0.372   0.047  0.00  0.00    -0.294 N 
ATOM      8  HN  UNL d   1       3.235  -0.631   0.137  1.00  0.00     0.187 HD
ATOM      9  S   UNL d   1      -1.358  -1.980  -0.135  0.00  0.00    -0.067 SA
ATOM     10  C   UNL d   1      -2.433  -0.635   0.022  0.00  0.00     0.085 A 
ATOM     11  C   UNL d   1       1.337  -1.292  -0.026  0.00  0.00     0.042 A 
ATOM     12  O   UNL d   1       0.218   2.641  -0.007  0.00  0.00    -0.264 OA
ATOM     13  C   UNL d   1       1.792  -2.729  -0.037  0.00  0.00     0.071 C 
ENDROOT
BRANCH   2  14
ATOM     14  C   UNL d   1       3.012   1.846  -0.018  0.00  0.00     0.099 A 
ATOM     15  C   UNL d   1       3.094   2.945  -0.883  0.00  0.00     0.148 A 
ATOM     16  C   UNL d   1       4.239   3.738  -0.937  0.00  0.00     0.087 A 
ATOM     17  F   UNL d   1       2.122   3.188  -1.775  0.00  0.00    -0.203 F 
ATOM     18  C   UNL d   1       5.308   3.445  -0.102  0.00  0.00     0.119 A 
ATOM     19  C   UNL d   1       5.259   2.366   0.772  0.00  0.00     0.045 A 
ATOM     20  F   UNL d   1       6.414   4.199  -0.153  0.00  0.00    -0.206 F 
ATOM     21  C   UNL d   1       4.120   1.557   0.800  0.00  0.00     0.038 A 
ENDBRANCH   2  14
BRANCH  10  22
ATOM     22  C   UNL d   1      -3.876  -0.876   0.203  0.00  0.00    -0.002 A 
ATOM     23  C   UNL d   1      -4.817   0.013  -0.335  0.00  0.00     0.014 A 
ATOM     24  C   UNL d   1      -6.189  -0.206  -0.162  0.00  0.00     0.001 A 
ATOM     25  C   UNL d   1      -6.639  -1.313   0.560  0.00  0.00     0.000 A 
ATOM     26  C   UNL d   1      -5.720  -2.199   1.111  0.00  0.00     0.001 A 
ATOM     27  C   UNL d   1      -4.352  -1.981   0.935  0.00  0.00     0.014 A 
ENDBRANCH  10  22
TORSDOF 2
