REMARK  6 active torsions:
REMARK  status: ('A' for Active; 'I' for Inactive)
REMARK    1  A    between atoms: C_2  and  S_1 
REMARK    2  A    between atoms: N_10  and  S_1 
REMARK    3  A    between atoms: C_12  and  N_10 
REMARK    4  A    between atoms: C_11  and  C_12 
REMARK       I    between atoms: N_20  and  C_11 
REMARK    5  A    between atoms: N_16  and  N_20 
REMARK    6  A    between atoms: C_23  and  C_22 
ROOT
ATOM      1  N   UNL d   1       0.356   1.272  -0.854  0.00  0.00    -0.306 N 
ATOM      2  H   UNL d   1       0.965   0.560  -0.450  0.00  0.00     0.172 HD
ENDROOT
BRANCH   1   3
ATOM      3  S   UNL d   1      -1.253   0.778  -0.825  0.00  0.00     0.261 S 
ATOM      4  O   UNL d   1      -1.214  -0.593  -0.371  0.00  0.00    -0.200 OA
ATOM      5  O   UNL d   1      -1.991   1.829  -0.151  0.00  0.00    -0.200 OA
BRANCH   3   6
ATOM      6  C   UNL d   1      -1.749   0.783  -2.504  0.00  0.00     0.108 A 
ATOM      7  C   UNL d   1      -3.086   0.495  -2.860  0.00  0.00     0.090 A 
ATOM      8  N   UNL d   1      -4.092   0.124  -2.054  0.00  0.00    -0.309 N 
ATOM      9  C   UNL d   1      -3.520   0.616  -4.302  0.00  0.00     0.068 A 
ATOM     10  S   UNL d   1      -5.428  -0.101  -3.012  0.00  0.00     0.068 SA
ATOM     11  HN  UNL d   1      -4.045   0.003  -1.042  1.00  0.00     0.176 HD
ATOM     12  N   UNL d   1      -4.814   0.318  -4.495  0.00  0.00    -0.310 N 
ATOM     13  HN  UNL d   1      -5.321   0.345  -5.380  1.00  0.00     0.176 HD
ATOM     14  C   UNL d   1      -2.610   1.019  -5.308  0.00  0.00     0.032 A 
ATOM     15  C   UNL d   1      -1.293   1.275  -4.890  0.00  0.00     0.004 A 
ATOM     16  C   UNL d   1      -0.875   1.151  -3.547  0.00  0.00     0.028 A 
ENDBRANCH   3   6
ENDBRANCH   1   3
BRANCH   1  17
ATOM     17  C   UNL d   1       0.680   2.670  -0.511  0.00  0.00     0.236 C 
BRANCH  17  18
ATOM     18  C   UNL d   1       0.316   3.695  -1.570  0.00  0.00     0.254 C 
ATOM     19  N   UNL d   1      -1.040   3.989  -1.625  0.00  0.00    -0.269 N 
ATOM     20  H   UNL d   1      -1.700   3.530  -0.992  0.00  0.00     0.190 HD
ATOM     21  O   UNL d   1       1.171   4.177  -2.308  0.00  0.00    -0.270 OA
BRANCH  19  22
ATOM     22  N   UNL d   1      -1.481   4.931  -2.501  0.00  0.00    -0.308 N 
ATOM     23  C   UNL d   1      -2.764   5.070  -2.597  0.00  0.00     0.118 C 
ATOM     24  HN  UNL d   1      -0.836   5.497  -3.053  1.00  0.00     0.186 HD
BRANCH  23  25
ATOM     25  C   UNL d   1      -3.348   6.131  -3.443  0.00  0.00    -0.019 A 
ATOM     26  C   UNL d   1      -2.519   7.062  -4.082  0.00  0.00     0.014 A 
ATOM     27  C   UNL d   1      -3.079   8.096  -4.835  0.00  0.00     0.024 A 
ATOM     28  C   UNL d   1      -4.465   8.192  -4.952  0.00  0.00     0.034 A 
ATOM     29  C   UNL d   1      -5.295   7.262  -4.324  0.00  0.00     0.024 A 
ATOM     30 CL   UNL d   1      -5.157   9.472  -5.870  0.00  0.00    -0.084 Cl
ATOM     31  C   UNL d   1      -4.737   6.227  -3.566  0.00  0.00     0.014 A 
ENDBRANCH  23  25
ENDBRANCH  19  22
ENDBRANCH  17  18
ENDBRANCH   1  17
TORSDOF 6
