REMARK  6 active torsions:
REMARK  status: ('A' for Active; 'I' for Inactive)
REMARK    1  A    between atoms: C_6  and  N_1 
REMARK    2  A    between atoms: C_14  and  C_2 
REMARK    3  A    between atoms: C_8  and  C_11 
REMARK    4  A    between atoms: O_17  and  N_12 
REMARK    5  A    between atoms: C_16  and  O_17 
REMARK    6  A    between atoms: C_21  and  C_16 
ROOT
ATOM      1  N   UNL d   1      -3.941   4.090   0.052  0.00  0.00    -0.244 N 
ATOM      2  C   UNL d   1      -2.026   2.933   0.029  0.00  0.00     0.029 A 
ATOM      3  C   UNL d   1      -2.555   4.222  -0.008  0.00  0.00     0.046 A 
ATOM      4  N   UNL d   1      -4.311   2.784   0.173  0.00  0.00    -0.303 N 
ATOM      5  HN  UNL d   1      -5.255   2.409   0.270  1.00  0.00     0.186 HD
ATOM      6  C   UNL d   1      -3.164   2.107   0.136  0.00  0.00     0.123 A 
ATOM      7  C   UNL d   1      -1.891   5.560  -0.063  0.00  0.00     0.071 C 
ENDROOT
BRANCH   2   8
ATOM      8  C   UNL d   1      -0.622   2.521  -0.008  0.00  0.00     0.042 C 
ATOM      9  N   UNL d   1       0.245   3.479  -0.088  0.00  0.00    -0.261 N 
ATOM     10  HN  UNL d   1      -0.027   4.460  -0.144  1.00  0.00     0.194 HD
ATOM     11  C   UNL d   1      -0.279   1.052   0.055  0.00  0.00     0.071 C 
BRANCH   9  12
ATOM     12  O   UNL d   1       1.584   3.069  -0.093  0.00  0.00    -0.195 OA
BRANCH  12  13
ATOM     13  C   UNL d   1       2.378   4.181  -0.203  0.00  0.00     0.315 C 
ATOM     14  O   UNL d   1       2.030   5.349  -0.316  0.00  0.00    -0.257 OA
BRANCH  13  15
ATOM     15  C   UNL d   1       3.801   3.777  -0.227  0.00  0.00     0.041 A 
ATOM     16  C   UNL d   1       4.264   2.631   0.431  0.00  0.00     0.017 A 
ATOM     17  C   UNL d   1       5.620   2.303   0.378  0.00  0.00     0.001 A 
ATOM     18  C   UNL d   1       6.511   3.115  -0.327  0.00  0.00     0.000 A 
ATOM     19  C   UNL d   1       6.054   4.263  -0.971  0.00  0.00     0.001 A 
ATOM     20  C   UNL d   1       4.702   4.600  -0.916  0.00  0.00     0.017 A 
ENDBRANCH  13  15
ENDBRANCH  12  13
ENDBRANCH   9  12
ENDBRANCH   2   8
BRANCH   1  21
ATOM     21  C   UNL d   1      -4.929   5.134   0.025  0.00  0.00     0.128 A 
ATOM     22  N   UNL d   1      -4.526   6.407  -0.220  0.00  0.00    -0.345 N 
ATOM     23  C   UNL d   1      -5.434   7.404  -0.205  0.00  0.00     0.007 A 
ATOM     24  HN  UNL d   1      -3.545   6.607  -0.414  1.00  0.00     0.167 HD
ATOM     25  C   UNL d   1      -4.926   8.784  -0.490  0.00  0.00     0.068 C 
ATOM     26  C   UNL d   1      -6.771   7.173   0.074  0.00  0.00     0.041 A 
ATOM     27  C   UNL d   1      -7.198   5.863   0.328  0.00  0.00     0.053 A 
ATOM     28  C   UNL d   1      -6.260   4.823   0.279  0.00  0.00     0.066 A 
BRANCH  27  29
ATOM     29  C   UNL d   1      -8.636   5.600   0.683  0.00  0.00     0.417 C 
ATOM     30  F   UNL d   1      -8.916   4.287   0.908  0.00  0.00    -0.166 F 
ATOM     31  F   UNL d   1      -9.015   6.260   1.812  0.00  0.00    -0.166 F 
ATOM     32  F   UNL d   1      -9.496   6.006  -0.292  0.00  0.00    -0.166 F 
ENDBRANCH  27  29
ENDBRANCH   1  21
TORSDOF 6
