REMARK  11 active torsions:
REMARK  status: ('A' for Active; 'I' for Inactive)
REMARK    1  A    between atoms: O_4  and  C_1 
REMARK    2  A    between atoms: C_7  and  C_1 
REMARK    3  A    between atoms: N_2  and  O_4 
REMARK    4  A    between atoms: O_30  and  C_6 
REMARK    5  A    between atoms: O_12  and  C_8 
REMARK    6  A    between atoms: C_9  and  C_10 
REMARK    7  A    between atoms: C_26  and  O_12 
REMARK    8  A    between atoms: C_31  and  C_20 
REMARK    9  A    between atoms: C_23  and  C_26 
REMARK   10  A    between atoms: C_24  and  C_32 
REMARK   11  A    between atoms: C_32  and  C_31 
ROOT
ATOM      1  C   UNL d   1       0.367  -1.562   2.903  0.00  0.00     0.044 C 
ENDROOT
BRANCH   1   2
ATOM      2  C   UNL d   1       0.837  -2.293   1.667  0.00  0.00    -0.055 C 
ATOM      3  C   UNL d   1       0.500  -1.814   0.393  0.00  0.00     0.046 C 
ATOM      4  C   UNL d   1       0.810  -2.527  -0.767  0.00  0.00     0.102 C 
ATOM      5  C   UNL d   1       1.625  -3.661  -0.666  0.00  0.00     0.102 C 
ATOM      6  C   UNL d   1       1.996  -4.131   0.603  0.00  0.00     0.040 C 
ATOM      7  C   UNL d   1       1.596  -3.460   1.761  0.00  0.00     0.010 C 
BRANCH   4   8
ATOM      8  O   UNL d   1       0.386  -2.133  -2.012  0.00  0.00    -0.353 OA
ATOM      9  C   UNL d   1      -0.903  -1.518  -2.036  0.00  0.00     0.210 C 
ENDBRANCH   4   8
BRANCH   5  10
ATOM     10  O   UNL d   1       2.016  -4.267  -1.837  0.00  0.00    -0.344 OA
BRANCH  10  11
ATOM     11  C   UNL d   1       3.276  -4.937  -1.756  0.00  0.00     0.214 C 
BRANCH  11  12
ATOM     12  C   UNL d   1       3.945  -5.113  -3.100  0.00  0.00    -0.032 A 
ATOM     13  C   UNL d   1       3.369  -4.681  -4.301  0.00  0.00     0.035 A 
ATOM     14  C   UNL d   1       4.049  -4.847  -5.516  0.00  0.00     0.056 A 
ATOM     15 CL   UNL d   1       3.277  -4.281  -6.956  0.00  0.00    -0.083 Cl
ATOM     16  C   UNL d   1       5.312  -5.450  -5.533  0.00  0.00     0.055 A 
ATOM     17  C   UNL d   1       5.890  -5.887  -4.339  0.00  0.00     0.026 A 
ATOM     18 CL   UNL d   1       6.216  -5.676  -6.988  0.00  0.00    -0.083 Cl
ATOM     19  C   UNL d   1       5.209  -5.722  -3.133  0.00  0.00     0.011 A 
ENDBRANCH  11  12
ENDBRANCH  10  11
ENDBRANCH   5  10
ENDBRANCH   1   2
BRANCH   1  20
ATOM     20  C   UNL d   1      -1.149  -1.665   3.133  0.00  0.00     0.058 C 
BRANCH  20  21
ATOM     21  C   UNL d   1      -1.962  -0.986   2.035  0.00  0.00     0.007 C 
ATOM     22  N   UNL d   1      -1.777   0.287   1.856  0.00  0.00    -0.266 N 
ATOM     23  HN  UNL d   1      -1.185   0.852   2.465  1.00  0.00     0.194 HD
ATOM     24  C   UNL d   1      -2.883  -1.866   1.225  0.00  0.00     0.065 C 
BRANCH  22  25
ATOM     25  O   UNL d   1      -2.466   0.820   0.745  0.00  0.00    -0.195 OA
BRANCH  25  26
ATOM     26  C   UNL d   1      -2.037   2.106   0.530  0.00  0.00     0.315 C 
ATOM     27  O   UNL d   1      -1.216   2.727   1.202  0.00  0.00    -0.257 OA
BRANCH  26  28
ATOM     28  C   UNL d   1      -2.689   2.720  -0.663  0.00  0.00     0.041 A 
ATOM     29  C   UNL d   1      -2.426   4.070  -0.932  0.00  0.00     0.018 A 
ATOM     30  C   UNL d   1      -3.021   4.716  -2.023  0.00  0.00     0.009 A 
ATOM     31  C   UNL d   1      -3.902   4.041  -2.885  0.00  0.00    -0.051 A 
ATOM     32  C   UNL d   1      -4.132   2.677  -2.619  0.00  0.00     0.009 A 
ATOM     33  C   UNL d   1      -3.538   2.023  -1.524  0.00  0.00     0.018 A 
BRANCH  31  34
ATOM     34  C   UNL d   1      -4.595   4.800  -4.035  0.00  0.00    -0.024 C 
ATOM     35  C   UNL d   1      -5.549   3.918  -4.872  0.00  0.00     0.019 C 
ATOM     36  C   UNL d   1      -5.438   5.959  -3.456  0.00  0.00     0.019 C 
ATOM     37  C   UNL d   1      -3.550   5.391  -5.008  0.00  0.00     0.019 C 
ENDBRANCH  31  34
ENDBRANCH  26  28
ENDBRANCH  25  26
ENDBRANCH  22  25
ENDBRANCH  20  21
ENDBRANCH   1  20
TORSDOF 11
