REMARK  5 active torsions:
REMARK  status: ('A' for Active; 'I' for Inactive)
REMARK    1  A    between atoms: C_2  and  N_1 
REMARK    2  A    between atoms: O_5  and  C_3 
REMARK    3  A    between atoms: C_4  and  O_5 
REMARK    4  A    between atoms: C_20  and  C_15 
REMARK    5  A    between atoms: O_19  and  C_20 
ROOT
ATOM      1  C   UNL d   1       0.230  -1.356   0.253  0.00  0.00     0.137 A 
ATOM      2  C   UNL d   1       0.723  -2.087   1.335  0.00  0.00     0.109 A 
ATOM      3  C   UNL d   1      -0.999  -1.673  -0.350  0.00  0.00     0.048 A 
ATOM      4  C   UNL d   1       0.021  -3.233   1.726  0.00  0.00     0.040 A 
ATOM      5  C   UNL d   1      -1.755  -2.752   0.127  0.00  0.00    -0.032 A 
ATOM      6  C   UNL d   1      -1.212  -3.547   1.147  0.00  0.00     0.012 A 
ENDROOT
BRANCH   2   7
ATOM      7  O   UNL d   1       1.883  -1.694   1.968  0.00  0.00    -0.308 OA
BRANCH   7   8
ATOM      8  C   UNL d   1       1.953  -1.879   3.335  0.00  0.00     0.079 A 
ATOM      9  C   UNL d   1       3.153  -2.374   3.842  0.00  0.00     0.061 A 
ATOM     10  C   UNL d   1       3.246  -2.689   5.197  0.00  0.00     0.038 A 
ATOM     11 CL   UNL d   1       4.710  -3.345   5.820  0.00  0.00    -0.084 Cl
ATOM     12  C   UNL d   1       2.158  -2.506   6.049  0.00  0.00     0.048 A 
ATOM     13  C   UNL d   1       0.983  -1.958   5.543  0.00  0.00     0.038 A 
ATOM     14  C   UNL d   1       0.883  -1.611   4.197  0.00  0.00     0.061 A 
ATOM     15 CL   UNL d   1      -0.377  -1.748   6.577  0.00  0.00    -0.084 Cl
ENDBRANCH   7   8
ENDBRANCH   2   7
BRANCH   1  16
ATOM     16  N   UNL d   1       0.980  -0.236  -0.286  0.00  0.00    -0.113 N 
ATOM     17  O   UNL d   1       1.282   0.677   0.494  0.00  0.00    -0.532 OA
ATOM     18  O   UNL d   1       1.215  -0.256  -1.501  0.00  0.00    -0.532 OA
ENDBRANCH   1  16
BRANCH   5  19
ATOM     19  C   UNL d   1      -3.116  -3.028  -0.460  0.00  0.00     0.203 C 
BRANCH  19  20
ATOM     20  O   UNL d   1      -3.789  -4.061   0.246  0.00  0.00    -0.396 OA
ATOM     21  H   UNL d   1      -4.675  -4.141  -0.147  0.00  0.00     0.209 HD
ENDBRANCH  19  20
ENDBRANCH   5  19
TORSDOF 5
