REMARK  9 active torsions:
REMARK  status: ('A' for Active; 'I' for Inactive)
REMARK    1  A    between atoms: C_3  and  C_1 
REMARK    2  A    between atoms: C_18  and  N_2 
REMARK    3  A    between atoms: S_14  and  C_6 
REMARK    4  A    between atoms: C_19  and  S_14 
REMARK    5  A    between atoms: C_15  and  C_19 
REMARK       I    between atoms: N_16  and  C_15 
REMARK    6  A    between atoms: C_20  and  N_16 
REMARK    7  A    between atoms: C_27  and  C_18 
REMARK    8  A    between atoms: C_30  and  C_27 
REMARK    9  A    between atoms: O_29  and  C_30 
ROOT
ATOM      1  C   UNL d   1      -0.080  -1.262   0.034  0.00  0.00     0.152 A 
ATOM      2  N   UNL d   1       1.208  -0.874  -0.271  0.00  0.00    -0.309 N 
ATOM      3  N   UNL d   1      -0.874  -0.209  -0.066  0.00  0.00    -0.281 N 
ATOM      4  HN  UNL d   1      -1.872  -0.192   0.145  1.00  0.00     0.188 HD
ATOM      5  C   UNL d   1       1.104   0.441  -0.649  0.00  0.00     0.163 A 
ATOM      6  N   UNL d   1      -0.130   0.854  -0.501  0.00  0.00    -0.278 N 
ATOM      7  HN  UNL d   1      -0.474   1.798  -0.678  1.00  0.00     0.189 HD
ENDROOT
BRANCH   5   8
ATOM      8  S   UNL d   1       2.421   1.390  -1.252  0.00  0.00    -0.083 SA
BRANCH   8   9
ATOM      9  C   UNL d   1       1.645   3.034  -1.278  0.00  0.00     0.185 C 
BRANCH   9  10
ATOM     10  C   UNL d   1       2.625   4.156  -1.593  0.00  0.00     0.231 C 
ATOM     11  N   UNL d   1       3.662   3.828  -2.450  0.00  0.00    -0.327 N 
ATOM     12  H   UNL d   1       3.623   2.905  -2.868  0.00  0.00     0.169 HD
ATOM     13  O   UNL d   1       2.405   5.286  -1.158  0.00  0.00    -0.272 OA
BRANCH  11  14
ATOM     14  C   UNL d   1       4.737   4.658  -2.829  0.00  0.00     0.034 A 
ATOM     15  C   UNL d   1       5.045   5.858  -2.181  0.00  0.00     0.031 A 
ATOM     16  C   UNL d   1       6.123   6.641  -2.603  0.00  0.00     0.026 A 
ATOM     17  C   UNL d   1       6.899   6.230  -3.682  0.00  0.00     0.034 A 
ATOM     18  C   UNL d   1       6.615   5.030  -4.329  0.00  0.00     0.026 A 
ATOM     19 CL   UNL d   1       8.211   7.205  -4.214  0.00  0.00    -0.084 Cl
ATOM     20  C   UNL d   1       5.543   4.240  -3.896  0.00  0.00     0.031 A 
ENDBRANCH  11  14
ENDBRANCH   9  10
ENDBRANCH   8   9
ENDBRANCH   5   8
BRANCH   2  21
ATOM     21  C   UNL d   1       2.409  -1.680  -0.257  0.00  0.00     0.135 C 
BRANCH  21  22
ATOM     22  C   UNL d   1       3.393  -1.353   0.864  0.00  0.00     0.046 C 
BRANCH  22  23
ATOM     23  C   UNL d   1       2.841  -1.546   2.271  0.00  0.00     0.168 C 
BRANCH  23  24
ATOM     24  O   UNL d   1       3.907  -1.258   3.177  0.00  0.00    -0.396 OA
ATOM     25  C   UNL d   1       3.504  -1.362   4.535  0.00  0.00     0.201 C 
ENDBRANCH  23  24
ENDBRANCH  22  23
ENDBRANCH  21  22
ENDBRANCH   2  21
BRANCH   1  26
ATOM     26  C   UNL d   1      -0.585  -2.625   0.389  0.00  0.00     0.085 A 
ATOM     27  N   UNL d   1       0.232  -3.735   0.448  0.00  0.00    -0.351 N 
ATOM     28  C   UNL d   1      -0.489  -4.810   0.700  0.00  0.00     0.047 A 
ATOM     29  HN  UNL d   1       1.244  -3.726   0.316  1.00  0.00     0.166 HD
ATOM     30  C   UNL d   1       0.065  -6.190   0.773  0.00  0.00     0.076 C 
ATOM     31  S   UNL d   1      -2.165  -4.535   0.946  0.00  0.00    -0.087 SA
ATOM     32  C   UNL d   1      -1.921  -2.865   0.647  0.00  0.00     0.084 A 
ENDBRANCH   1  26
TORSDOF 9
