REMARK  5 active torsions:
REMARK  status: ('A' for Active; 'I' for Inactive)
REMARK    1  A    between atoms: C_4  and  C_7 
REMARK    2  A    between atoms: C_5  and  C_8 
REMARK    3  A    between atoms: N_13  and  C_6 
REMARK    4  A    between atoms: C_19  and  C_9 
REMARK    5  A    between atoms: C_14  and  N_13 
ROOT
ATOM      1  N   UNL d   1       2.701   2.280  -1.359  0.00  0.00    -0.365 N 
ATOM      2  H   UNL d   1       3.248   1.429  -1.193  0.00  0.00     0.165 HD
ENDROOT
BRANCH   1   3
ATOM      3  C   UNL d   1       1.395   2.228  -0.930  0.00  0.00     0.107 C 
ATOM      4  C   UNL d   1       0.753   1.177  -0.392  0.00  0.00     0.071 C 
ATOM      5  C   UNL d   1       1.459  -0.115  -0.192  0.00  0.00     0.165 C 
ATOM      6  C   UNL d   1      -0.718   1.268  -0.208  0.00  0.00     0.165 C 
ATOM      7  C   UNL d   1       0.625  -1.371  -0.236  0.00  0.00     0.093 C 
ATOM      8  O   UNL d   1       2.689  -0.176  -0.133  0.00  0.00    -0.292 OA
ATOM      9  C   UNL d   1      -0.777  -1.199   0.370  0.00  0.00     0.033 C 
ATOM     10  C   UNL d   1      -1.492  -0.026  -0.316  0.00  0.00     0.093 C 
ATOM     11  O   UNL d   1      -1.293   2.347  -0.073  0.00  0.00    -0.292 OA
BRANCH   9  12
ATOM     12  C   UNL d   1      -0.788  -1.196   1.897  0.00  0.00    -0.053 A 
ATOM     13  C   UNL d   1      -1.433  -0.211   2.662  0.00  0.00     0.007 A 
ATOM     14  C   UNL d   1      -1.478  -0.295   4.058  0.00  0.00     0.001 A 
ATOM     15  C   UNL d   1      -0.881  -1.363   4.718  0.00  0.00     0.000 A 
ATOM     16  C   UNL d   1      -0.242  -2.354   3.982  0.00  0.00     0.001 A 
ATOM     17  C   UNL d   1      -0.205  -2.276   2.588  0.00  0.00     0.007 A 
ENDBRANCH   9  12
ENDBRANCH   1   3
BRANCH   1  18
ATOM     18  C   UNL d   1       3.408   3.366  -1.888  0.00  0.00     0.033 A 
ATOM     19  C   UNL d   1       3.043   4.695  -1.652  0.00  0.00     0.045 A 
ATOM     20  C   UNL d   1       3.757   5.763  -2.221  0.00  0.00     0.050 A 
ATOM     21  C   UNL d   1       4.824   5.485  -3.089  0.00  0.00     0.032 A 
ATOM     22  C   UNL d   1       5.186   4.161  -3.375  0.00  0.00     0.050 A 
ATOM     23  C   UNL d   1       4.473   3.116  -2.763  0.00  0.00     0.045 A 
BRANCH  20  24
ATOM     24  C   UNL d   1       3.371   7.179  -1.869  0.00  0.00     0.417 C 
ATOM     25  F   UNL d   1       4.166   8.118  -2.452  0.00  0.00    -0.166 F 
ATOM     26  F   UNL d   1       2.098   7.480  -2.241  0.00  0.00    -0.166 F 
ATOM     27  F   UNL d   1       3.438   7.415  -0.529  0.00  0.00    -0.166 F 
ENDBRANCH  20  24
BRANCH  22  28
ATOM     28  C   UNL d   1       6.319   3.841  -4.320  0.00  0.00     0.417 C 
ATOM     29  F   UNL d   1       6.915   4.946  -4.847  0.00  0.00    -0.166 F 
ATOM     30  F   UNL d   1       7.313   3.131  -3.718  0.00  0.00    -0.166 F 
ATOM     31  F   UNL d   1       5.915   3.092  -5.383  0.00  0.00    -0.166 F 
ENDBRANCH  22  28
ENDBRANCH   1  18
TORSDOF 5
