REMARK  4 active torsions:
REMARK  status: ('A' for Active; 'I' for Inactive)
REMARK       I    between atoms: N_3  and  C_1 
REMARK       I    between atoms: N_4  and  C_1 
REMARK    1  A    between atoms: C_2  and  C_5 
REMARK    2  A    between atoms: O_13  and  C_2 
REMARK    3  A    between atoms: C_8  and  N_3 
REMARK    4  A    between atoms: C_9  and  N_4 
ROOT
ATOM      1  C   UNL d   1       1.060  -0.075  -0.106  0.00  0.00     0.325 C 
ATOM      2  N   UNL d   1       2.406  -0.386  -0.169  0.00  0.00    -0.309 N 
ATOM      3  N   UNL d   1       0.281  -1.220  -0.002  0.00  0.00    -0.309 N 
ATOM      4  O   UNL d   1       0.598   1.061  -0.145  0.00  0.00    -0.247 OA
ATOM      5  H   UNL d   1       2.630  -1.351  -0.360  0.00  0.00     0.170 HD
ATOM      6  H   UNL d   1       0.729  -2.027   0.407  0.00  0.00     0.170 HD
ENDROOT
BRANCH   3   7
ATOM      7  C   UNL d   1      -1.130  -1.236  -0.063  0.00  0.00     0.037 A 
ATOM      8  C   UNL d   1      -1.866  -0.203  -0.653  0.00  0.00     0.048 A 
ATOM      9  C   UNL d   1      -3.264  -0.213  -0.613  0.00  0.00     0.039 A 
ATOM     10  C   UNL d   1      -3.934  -1.302  -0.049  0.00  0.00     0.018 A 
ATOM     11  C   UNL d   1      -3.206  -2.365   0.486  0.00  0.00     0.003 A 
ATOM     12  C   UNL d   1      -1.808  -2.332   0.479  0.00  0.00     0.029 A 
BRANCH   9  13
ATOM     13  C   UNL d   1      -4.065   0.897  -1.186  0.00  0.00     0.176 C 
ATOM     14  O   UNL d   1      -5.178   0.728  -1.656  0.00  0.00    -0.646 OA
BRANCH  13  15
ATOM     15  O   UNL d   1      -3.478   2.109  -1.093  0.00  0.00    -0.773 OA
ATOM     16  H   UNL d   1      -2.648   2.145  -0.580  0.00  0.00     0.167 HD
ENDBRANCH  13  15
ENDBRANCH   9  13
ENDBRANCH   3   7
BRANCH   2  17
ATOM     17  C   UNL d   1       3.471   0.539  -0.277  0.00  0.00     0.037 A 
ATOM     18  C   UNL d   1       3.329   1.913  -0.065  0.00  0.00     0.053 A 
ATOM     19  C   UNL d   1       4.415   2.771  -0.246  0.00  0.00     0.036 A 
ATOM     20 CL   UNL d   1       4.215   4.464  -0.006  0.00  0.00    -0.084 Cl
ATOM     21  C   UNL d   1       5.657   2.271  -0.625  0.00  0.00     0.024 A 
ATOM     22  C   UNL d   1       5.818   0.899  -0.806  0.00  0.00     0.004 A 
ATOM     23  C   UNL d   1       4.732   0.037  -0.626  0.00  0.00     0.029 A 
ENDBRANCH   2  17
TORSDOF 4
