REMARK  5 active torsions:
REMARK  status: ('A' for Active; 'I' for Inactive)
REMARK    1  A    between atoms: C_4  and  C_1 
REMARK    2  A    between atoms: S_5  and  C_2 
REMARK       I    between atoms: C_3  and  N_6 
REMARK       I    between atoms: N_7  and  C_3 
REMARK    3  A    between atoms: N_6  and  C_4 
REMARK    4  A    between atoms: C_10  and  S_5 
REMARK    5  A    between atoms: C_11  and  N_7 
ROOT
ATOM      1  C   UNL d   1       0.254  -1.071   0.093  0.00  0.00     0.015 A 
ATOM      2  C   UNL d   1      -1.138  -1.033  -0.161  0.00  0.00     0.016 A 
ATOM      3  C   UNL d   1       0.932   0.156   0.168  0.00  0.00     0.125 A 
ATOM      4  F   UNL d   1       2.266   0.182   0.321  0.00  0.00    -0.205 F 
ATOM      5  C   UNL d   1      -1.800   0.208  -0.226  0.00  0.00     0.019 A 
ATOM      6  C   UNL d   1      -1.105   1.407  -0.090  0.00  0.00     0.004 A 
ATOM      7  C   UNL d   1       0.270   1.380   0.092  0.00  0.00     0.043 A 
ENDROOT
BRANCH   1   8
ATOM      8  C   UNL d   1       1.007  -2.375   0.214  0.00  0.00     0.167 C 
BRANCH   8   9
ATOM      9  N   UNL d   1       2.233  -2.325   0.997  0.00  0.00    -0.338 N 
ATOM     10  C   UNL d   1       2.836  -3.528   1.329  0.00  0.00     0.320 C 
ATOM     11  N   UNL d   1       4.137  -3.368   1.756  0.00  0.00    -0.309 N 
ATOM     12  O   UNL d   1       2.241  -4.588   1.198  0.00  0.00    -0.247 OA
ATOM     13  H   UNL d   1       4.526  -2.441   1.686  0.00  0.00     0.170 HD
ATOM     14  H   UNL d   1       2.835  -1.531   0.839  0.00  0.00     0.164 HD
BRANCH  11  15
ATOM     15  C   UNL d   1       5.047  -4.428   1.984  0.00  0.00     0.036 A 
ATOM     16  C   UNL d   1       4.645  -5.752   2.192  0.00  0.00     0.031 A 
ATOM     17  C   UNL d   1       5.584  -6.786   2.258  0.00  0.00     0.026 A 
ATOM     18  C   UNL d   1       6.938  -6.497   2.130  0.00  0.00     0.034 A 
ATOM     19  C   UNL d   1       7.361  -5.177   1.995  0.00  0.00     0.026 A 
ATOM     20 CL   UNL d   1       8.087  -7.776   2.116  0.00  0.00    -0.084 Cl
ATOM     21  C   UNL d   1       6.418  -4.142   1.939  0.00  0.00     0.031 A 
ENDBRANCH  11  15
ENDBRANCH   8   9
ENDBRANCH   1   8
BRANCH   2  22
ATOM     22  S   UNL d   1      -2.214  -2.457  -0.284  0.00  0.00    -0.090 SA
BRANCH  22  23
ATOM     23  C   UNL d   1      -1.824  -3.303  -1.806  0.00  0.00     0.005 A 
ATOM     24  C   UNL d   1      -0.905  -2.868  -2.765  0.00  0.00     0.020 A 
ATOM     25  C   UNL d   1      -0.572  -3.687  -3.852  0.00  0.00     0.025 A 
ATOM     26  C   UNL d   1      -1.181  -4.931  -4.004  0.00  0.00     0.034 A 
ATOM     27  C   UNL d   1      -2.157  -5.344  -3.106  0.00  0.00     0.025 A 
ATOM     28 CL   UNL d   1      -0.710  -5.969  -5.293  0.00  0.00    -0.084 Cl
ATOM     29  C   UNL d   1      -2.478  -4.530  -2.016  0.00  0.00     0.020 A 
ENDBRANCH  22  23
ENDBRANCH   2  22
TORSDOF 5
