REMARK  6 active torsions:
REMARK  status: ('A' for Active; 'I' for Inactive)
REMARK    1  A    between atoms: N_2  and  C_1 
REMARK    2  A    between atoms: N_7  and  C_1 
REMARK    3  A    between atoms: C_3  and  C_8 
REMARK    4  A    between atoms: C_4  and  N_14 
REMARK    5  A    between atoms: C_9  and  N_7 
REMARK    6  A    between atoms: N_14  and  C_24 
ROOT
ATOM      1  N   UNL d   1       0.165  -1.156  -0.464  0.00  0.00    -0.358 N 
ATOM      2  C   UNL d   1      -0.812  -0.971  -1.528  0.00  0.00     0.127 C 
ATOM      3  C   UNL d   1       0.401  -2.538  -0.063  0.00  0.00     0.127 C 
ATOM      4  C   UNL d   1      -2.149  -1.574  -1.104  0.00  0.00     0.040 C 
ATOM      5  C   UNL d   1      -0.890  -3.224   0.357  0.00  0.00     0.040 C 
ATOM      6  C   UNL d   1      -2.024  -3.046  -0.668  0.00  0.00     0.066 C 
ENDROOT
BRANCH   6   7
ATOM      7  N   UNL d   1      -1.805  -3.918  -1.825  0.00  0.00    -0.259 NA
ATOM      8  H   UNL d   1      -1.246  -4.750  -1.659  0.00  0.00     0.131 HD
BRANCH   7   9
ATOM      9  C   UNL d   1      -2.959  -4.387  -2.445  0.00  0.00     0.157 A 
ATOM     10  N   UNL d   1      -2.871  -5.599  -3.001  0.00  0.00    -0.329 N 
ATOM     11  C   UNL d   1      -3.977  -6.099  -3.616  0.00  0.00     0.120 A 
ATOM     12  HN  UNL d   1      -2.002  -6.132  -2.966  1.00  0.00     0.168 HD
ATOM     13  C   UNL d   1      -5.168  -5.398  -3.659  0.00  0.00     0.051 A 
ATOM     14  C   UNL d   1      -5.161  -4.169  -3.054  0.00  0.00     0.093 A 
ATOM     15  N   UNL d   1      -4.078  -3.652  -2.450  0.00  0.00    -0.343 N 
ATOM     16  HN  UNL d   1      -4.107  -2.732  -2.011  1.00  0.00     0.167 HD
BRANCH  11  17
ATOM     17  C   UNL d   1      -3.918  -7.466  -4.276  0.00  0.00     0.432 C 
ATOM     18  F   UNL d   1      -2.703  -8.076  -4.207  0.00  0.00    -0.165 F 
ATOM     19  F   UNL d   1      -4.808  -8.344  -3.725  0.00  0.00    -0.165 F 
ATOM     20  F   UNL d   1      -4.236  -7.415  -5.603  0.00  0.00    -0.165 F 
ENDBRANCH  11  17
ENDBRANCH   7   9
ENDBRANCH   6   7
BRANCH   1  21
ATOM     21  C   UNL d   1       0.875  -0.112   0.113  0.00  0.00     0.174 C 
ATOM     22  S   UNL d   1       0.800   0.178   1.768  0.00  0.00    -0.041 SA
BRANCH  21  23
ATOM     23  N   UNL d   1       1.601   0.616  -0.814  0.00  0.00    -0.333 N 
ATOM     24  H   UNL d   1       1.224   0.626  -1.748  0.00  0.00     0.168 HD
BRANCH  23  25
ATOM     25  C   UNL d   1       2.909   1.154  -0.682  0.00  0.00     0.040 A 
ATOM     26  C   UNL d   1       3.394   2.081  -1.626  0.00  0.00    -0.035 A 
ATOM     27  C   UNL d   1       4.743   2.488  -1.559  0.00  0.00     0.015 A 
ATOM     28  C   UNL d   1       2.553   2.696  -2.712  0.00  0.00     0.050 C 
ATOM     29  C   UNL d   1       5.609   2.004  -0.573  0.00  0.00    -0.061 A 
ATOM     30  C   UNL d   1       5.116   1.099   0.361  0.00  0.00     0.009 A 
ATOM     31  C   UNL d   1       7.053   2.406  -0.559  0.00  0.00     0.048 C 
ATOM     32  C   UNL d   1       3.786   0.678   0.303  0.00  0.00     0.030 A 
ENDBRANCH  23  25
ENDBRANCH  21  23
ENDBRANCH   1  21
TORSDOF 6
