REMARK  11 active torsions:
REMARK  status: ('A' for Active; 'I' for Inactive)
REMARK    1  A    between atoms: C_12  and  N_1 
REMARK    2  A    between atoms: C_4  and  C_2 
REMARK    3  A    between atoms: C_7  and  C_3 
REMARK    4  A    between atoms: O_23  and  C_6 
REMARK    5  A    between atoms: O_24  and  C_7 
REMARK    6  A    between atoms: O_26  and  C_8 
REMARK    7  A    between atoms: O_25  and  C_9 
REMARK    8  A    between atoms: C_22  and  C_12 
REMARK    9  A    between atoms: O_28  and  C_14 
REMARK   10  A    between atoms: O_29  and  C_16 
REMARK   11  A    between atoms: C_21  and  C_22 
ROOT
ATOM      1  N   UNL d   1      -0.365   0.973  -0.053  0.00  0.00    -0.342 N 
ATOM      2  C   UNL d   1       1.104   1.144  -0.124  0.00  0.00     0.134 C 
ATOM      3  C   UNL d   1       1.884  -0.119  -0.543  0.00  0.00     0.111 C 
ATOM      4  C   UNL d   1      -0.967  -0.275   0.072  0.00  0.00     0.220 C 
ATOM      5  C   UNL d   1       1.382  -1.288   0.292  0.00  0.00     0.027 C 
ATOM      6  C   UNL d   1      -0.097  -1.518   0.044  0.00  0.00     0.104 C 
ATOM      7  O   UNL d   1      -2.189  -0.415   0.176  0.00  0.00    -0.273 OA
ENDROOT
BRANCH   1   8
ATOM      8  C   UNL d   1      -1.238   2.157   0.097  0.00  0.00     0.131 C 
BRANCH   8   9
ATOM      9  C   UNL d   1      -1.984   2.275   1.440  0.00  0.00     0.058 C 
BRANCH   9  10
ATOM     10  C   UNL d   1      -2.804   3.546   1.520  0.00  0.00    -0.054 A 
ATOM     11  C   UNL d   1      -2.174   4.801   1.585  0.00  0.00     0.046 A 
ATOM     12  C   UNL d   1      -2.910   5.996   1.650  0.00  0.00     0.102 A 
ATOM     13  C   UNL d   1      -4.313   5.924   1.644  0.00  0.00     0.101 A 
ATOM     14  C   UNL d   1      -4.944   4.672   1.601  0.00  0.00     0.040 A 
ATOM     15  C   UNL d   1      -4.198   3.495   1.530  0.00  0.00     0.010 A 
BRANCH  12  16
ATOM     16  O   UNL d   1      -2.332   7.231   1.756  0.00  0.00    -0.353 OA
ATOM     17  C   UNL d   1      -0.913   7.309   1.736  0.00  0.00     0.210 C 
ENDBRANCH  12  16
BRANCH  13  18
ATOM     18  O   UNL d   1      -5.196   6.973   1.733  0.00  0.00    -0.353 OA
ATOM     19  C   UNL d   1      -4.806   8.185   1.100  0.00  0.00     0.210 C 
ENDBRANCH  13  18
ENDBRANCH   9  10
ENDBRANCH   8   9
ENDBRANCH   1   8
BRANCH   2  20
ATOM     20  C   UNL d   1       1.632   2.379  -0.853  0.00  0.00    -0.029 A 
ATOM     21  C   UNL d   1       2.779   3.024  -0.363  0.00  0.00     0.049 A 
ATOM     22  C   UNL d   1       3.283   4.196  -0.955  0.00  0.00     0.104 A 
ATOM     23  C   UNL d   1       2.641   4.744  -2.083  0.00  0.00     0.135 A 
ATOM     24  C   UNL d   1       1.533   4.057  -2.624  0.00  0.00     0.104 A 
ATOM     25  C   UNL d   1       1.043   2.893  -2.011  0.00  0.00     0.049 A 
BRANCH  22  26
ATOM     26  O   UNL d   1       4.434   4.780  -0.489  0.00  0.00    -0.353 OA
ATOM     27  C   UNL d   1       4.694   4.664   0.905  0.00  0.00     0.210 C 
ENDBRANCH  22  26
BRANCH  23  28
ATOM     28  O   UNL d   1       2.963   5.920  -2.709  0.00  0.00    -0.351 OA
ATOM     29  C   UNL d   1       3.960   6.772  -2.170  0.00  0.00     0.210 C 
ENDBRANCH  23  28
BRANCH  24  30
ATOM     30  O   UNL d   1       0.780   4.454  -3.703  0.00  0.00    -0.353 OA
ATOM     31  C   UNL d   1       1.496   5.020  -4.795  0.00  0.00     0.210 C 
ENDBRANCH  24  30
ENDBRANCH   2  20
BRANCH   3  32
ATOM     32  C   UNL d   1       1.784  -0.460  -2.021  0.00  0.00     0.146 C 
ATOM     33  O   UNL d   1       0.856  -0.163  -2.755  0.00  0.00    -0.650 OA
BRANCH  32  34
ATOM     34  O   UNL d   1       2.812  -1.228  -2.457  0.00  0.00    -0.776 OA
ATOM     35  H   UNL d   1       3.484  -1.451  -1.787  0.00  0.00     0.167 HD
ENDBRANCH  32  34
ENDBRANCH   3  32
TORSDOF 11
