REMARK  3 active torsions:
REMARK  status: ('A' for Active; 'I' for Inactive)
REMARK    1  A    between atoms: N_7  and  C_1 
REMARK    2  A    between atoms: N_4  and  C_3 
REMARK       I    between atoms: C_10  and  N_7 
REMARK    3  A    between atoms: C_9  and  C_10 
ROOT
ATOM      1  N   UNL d   1      -0.122  -2.652  -0.399  0.00  0.00    -0.305 N 
ATOM      2  C   UNL d   1       0.752  -3.695  -0.180  0.00  0.00     0.281 C 
ATOM      3  O   UNL d   1       0.480  -4.887  -0.281  0.00  0.00    -0.265 OA
ATOM      4  H   UNL d   1       0.244  -1.710  -0.437  0.00  0.00     0.171 HD
ENDROOT
BRANCH   1   5
ATOM      5  C   UNL d   1      -1.499  -2.795  -0.443  0.00  0.00     0.148 A 
ATOM      6  C   UNL d   1      -2.422  -1.756  -0.710  0.00  0.00     0.088 A 
ATOM      7  C   UNL d   1      -3.662  -2.304  -0.522  0.00  0.00     0.093 A 
ATOM      8 BR   UNL d   1      -1.998  -0.000  -1.195  0.00  0.00    -0.044 Br
ATOM      9  C   UNL d   1      -5.048  -1.806  -0.571  0.00  0.00     0.080 C 
ATOM     10  O   UNL d   1      -3.505  -3.618  -0.209  0.00  0.00    -0.240 OA
ATOM     11  N   UNL d   1      -2.161  -3.926  -0.169  0.00  0.00    -0.243 N 
ATOM     12  HN  UNL d   1      -1.751  -4.838   0.031  1.00  0.00     0.196 HD
ENDBRANCH   1   5
BRANCH   2  13
ATOM     13  C   UNL d   1       2.087  -3.261   0.197  0.00  0.00     0.146 A 
ATOM     14  O   UNL d   1       2.342  -1.931   0.432  0.00  0.00    -0.283 OA
ATOM     15  C   UNL d   1       3.635  -1.865   0.857  0.00  0.00     0.215 A 
ATOM     16  C   UNL d   1       4.233  -3.101   0.875  0.00  0.00     0.066 A 
ATOM     17  C   UNL d   1       3.232  -4.004   0.441  0.00  0.00     0.047 A 
BRANCH  15  18
ATOM     18  N   UNL d   1       4.123  -0.573   1.225  0.00  0.00    -0.090 N 
ATOM     19  O   UNL d   1       5.272  -0.527   1.683  0.00  0.00    -0.530 OA
ATOM     20  O   UNL d   1       3.365   0.392   1.060  0.00  0.00    -0.530 OA
ENDBRANCH  15  18
ENDBRANCH   2  13
TORSDOF 3
