REMARK  1 active torsions:
REMARK  status: ('A' for Active; 'I' for Inactive)
REMARK    1  A    between atoms: C_8  and  C_3 
ROOT
ATOM      1  N   UNL d   1       2.178  -0.236   0.237  0.00  0.00    -0.336 N 
ATOM      2  C   UNL d   1       1.318   0.814   0.061  0.00  0.00     0.255 C 
ATOM      3  C   UNL d   1       1.823  -1.569  -0.144  0.00  0.00     0.196 C 
ATOM      4  N   UNL d   1       0.474  -1.863   0.298  0.00  0.00    -0.267 NA
ATOM      5  C   UNL d   1      -0.118   0.478  -0.028  0.00  0.00     0.053 A 
ATOM      6  C   UNL d   1      -0.482  -0.871   0.065  0.00  0.00     0.026 A 
ATOM      7  O   UNL d   1       1.722   1.970   0.007  0.00  0.00    -0.268 OA
ATOM      8  C   UNL d   1      -1.082   1.484  -0.149  0.00  0.00     0.019 A 
ATOM      9  C   UNL d   1      -1.842  -1.192   0.097  0.00  0.00     0.024 A 
ATOM     10  C   UNL d   1      -2.433   1.143  -0.153  0.00  0.00     0.001 A 
ATOM     11  C   UNL d   1      -2.813  -0.193  -0.025  0.00  0.00     0.002 A 
ATOM     12  H   UNL d   1       3.154   0.018   0.210  0.00  0.00     0.164 HD
ATOM     13  H   UNL d   1       0.173  -2.794   0.033  0.00  0.00     0.130 HD
ENDROOT
BRANCH   3  14
ATOM     14  C   UNL d   1       2.756  -2.587   0.480  0.00  0.00    -0.021 A 
ATOM     15  C   UNL d   1       2.861  -2.685   1.880  0.00  0.00     0.010 A 
ATOM     16  C   UNL d   1       3.660  -3.662   2.471  0.00  0.00     0.001 A 
ATOM     17  C   UNL d   1       4.371  -4.552   1.671  0.00  0.00     0.000 A 
ATOM     18  C   UNL d   1       4.290  -4.459   0.281  0.00  0.00     0.001 A 
ATOM     19  C   UNL d   1       3.487  -3.482  -0.313  0.00  0.00     0.010 A 
ENDBRANCH   3  14
TORSDOF 1
