REMARK  4 active torsions:
REMARK  status: ('A' for Active; 'I' for Inactive)
REMARK    1  A    between atoms: C_7  and  C_1 
REMARK    2  A    between atoms: N_19  and  C_2 
REMARK    3  A    between atoms: C_6  and  C_7 
REMARK    4  A    between atoms: C_20  and  C_10 
ROOT
ATOM      1  C   UNL d   1      -2.447  -0.728  -0.046  0.00  0.00     0.087 A 
ATOM      2  C   UNL d   1      -1.337  -1.566  -0.084  0.00  0.00     0.062 A 
ATOM      3  C   UNL d   1      -0.284   0.495  -0.037  0.00  0.00     0.091 A 
ATOM      4  C   UNL d   1      -0.081  -0.875  -0.062  0.00  0.00     0.048 A 
ATOM      5  S   UNL d   1      -1.943   0.907  -0.001  0.00  0.00    -0.065 SA
ATOM      6  N   UNL d   1       0.664   1.453  -0.029  0.00  0.00    -0.335 N 
ATOM      7  HN  UNL d   1       0.455   2.451  -0.009  1.00  0.00     0.168 HD
ATOM      8  C   UNL d   1       1.914   0.960  -0.048  0.00  0.00     0.116 A 
ATOM      9  N   UNL d   1       2.235  -0.349  -0.053  0.00  0.00    -0.345 N 
ATOM     10  HN  UNL d   1       3.215  -0.632  -0.052  1.00  0.00     0.167 HD
ATOM     11  C   UNL d   1       1.262  -1.290  -0.058  0.00  0.00     0.022 A 
ATOM     12  C   UNL d   1       1.727  -2.713  -0.050  0.00  0.00     0.069 C 
ENDROOT
BRANCH   1  13
ATOM     13  C   UNL d   1      -3.837  -1.197   0.021  0.00  0.00     0.225 C 
ATOM     14  O   UNL d   1      -4.078  -2.407   0.107  0.00  0.00    -0.284 OA
BRANCH  13  15
ATOM     15  C   UNL d   1      -4.957  -0.275   0.048  0.00  0.00     0.128 A 
ATOM     16  O   UNL d   1      -4.931   0.965  -0.532  0.00  0.00    -0.306 OA
ATOM     17  C   UNL d   1      -6.186   1.492  -0.415  0.00  0.00     0.086 A 
ATOM     18  C   UNL d   1      -6.602   2.732  -0.894  0.00  0.00     0.038 A 
ATOM     19  C   UNL d   1      -7.027   0.605   0.246  0.00  0.00     0.001 A 
ATOM     20  C   UNL d   1      -7.946   3.068  -0.681  0.00  0.00     0.003 A 
ATOM     21  C   UNL d   1      -8.816   2.199  -0.017  0.00  0.00     0.001 A 
ATOM     22  C   UNL d   1      -8.370   0.959   0.454  0.00  0.00     0.014 A 
ATOM     23  C   UNL d   1      -6.232  -0.525   0.533  0.00  0.00     0.055 A 
ENDBRANCH  13  15
ENDBRANCH   1  13
BRANCH   2  24
ATOM     24  N   UNL d   1      -1.454  -2.914  -0.125  0.00  0.00    -0.397 N 
ATOM     25  H   UNL d   1      -2.378  -3.353  -0.043  0.00  0.00     0.156 HD
ATOM     26  H   UNL d   1      -0.694  -3.569   0.016  0.00  0.00     0.156 HD
ENDBRANCH   2  24
BRANCH   8  27
ATOM     27  C   UNL d   1       3.058   1.903  -0.084  0.00  0.00     0.008 A 
ATOM     28  C   UNL d   1       2.888   3.297  -0.010  0.00  0.00     0.015 A 
ATOM     29  C   UNL d   1       3.984   4.169  -0.059  0.00  0.00     0.001 A 
ATOM     30  C   UNL d   1       5.278   3.669  -0.184  0.00  0.00     0.000 A 
ATOM     31  C   UNL d   1       5.480   2.296  -0.254  0.00  0.00     0.001 A 
ATOM     32  C   UNL d   1       4.384   1.429  -0.204  0.00  0.00     0.015 A 
ENDBRANCH   8  27
TORSDOF 4
