REMARK  4 active torsions:
REMARK  status: ('A' for Active; 'I' for Inactive)
REMARK    1  A    between atoms: C_7  and  C_1 
REMARK    2  A    between atoms: O_17  and  C_7 
REMARK    3  A    between atoms: N_9  and  O_17 
REMARK    4  A    between atoms: C_20  and  C_19 
ROOT
ATOM      1  C   UNL d   1       0.054  -2.626   1.280  0.00  0.00     0.294 C 
ATOM      2  O   UNL d   1       0.092  -3.849   1.138  0.00  0.00    -0.262 OA
ENDROOT
BRANCH   1   3
ATOM      3  C   UNL d   1       0.047  -1.663   0.101  0.00  0.00     0.159 A 
ATOM      4  C   UNL d   1      -1.221  -0.837   0.054  0.00  0.00    -0.006 A 
ATOM      5  C   UNL d   1      -1.150   0.557   0.052  0.00  0.00     0.083 A 
ATOM      6  C   UNL d   1      -2.485  -1.450   0.005  0.00  0.00     0.011 A 
ATOM      7  C   UNL d   1      -2.314   1.329   0.024  0.00  0.00     0.038 A 
ATOM      8  O   UNL d   1       0.026   1.262   0.084  0.00  0.00    -0.310 OA
ATOM      9  C   UNL d   1      -3.563   0.713  -0.003  0.00  0.00     0.003 A 
ATOM     10  C   UNL d   1      -3.648  -0.677  -0.015  0.00  0.00     0.001 A 
ATOM     11  C   UNL d   1       1.212   0.574   0.062  0.00  0.00     0.083 A 
ATOM     12  C   UNL d   1       1.303  -0.819   0.059  0.00  0.00    -0.006 A 
ATOM     13  C   UNL d   1       2.366   1.361   0.044  0.00  0.00     0.038 A 
ATOM     14  C   UNL d   1       2.575  -1.415   0.013  0.00  0.00     0.011 A 
ATOM     15  C   UNL d   1       3.728  -0.626   0.002  0.00  0.00     0.001 A 
ATOM     16  C   UNL d   1       3.623   0.763   0.022  0.00  0.00     0.003 A 
ENDBRANCH   1   3
BRANCH   1  17
ATOM     17  O   UNL d   1       0.015  -1.945   2.481  0.00  0.00    -0.199 OA
BRANCH  17  18
ATOM     18  N   UNL d   1      -0.002  -2.871   3.543  0.00  0.00    -0.268 N 
ATOM     19  C   UNL d   1      -0.043  -2.257   4.680  0.00  0.00     0.126 C 
ATOM     20  HN  UNL d   1       0.016  -3.884   3.431  1.00  0.00     0.194 HD
BRANCH  19  21
ATOM     21  C   UNL d   1      -0.088  -3.018   5.949  0.00  0.00    -0.016 A 
ATOM     22  C   UNL d   1      -0.147  -2.329   7.166  0.00  0.00     0.052 A 
ATOM     23  C   UNL d   1      -0.232  -3.089   8.317  0.00  0.00     0.105 A 
ATOM     24  O   UNL d   1      -0.324  -2.605   9.586  0.00  0.00    -0.323 OA
ATOM     25  C   UNL d   1      -0.248  -4.466   8.285  0.00  0.00     0.105 A 
ATOM     26  C   UNL d   1      -0.465  -3.831  10.338  0.00  0.00     0.352 A 
ATOM     27  O   UNL d   1      -0.352  -5.016   9.525  0.00  0.00    -0.323 OA
ATOM     28  C   UNL d   1      -0.173  -5.167   7.102  0.00  0.00     0.040 A 
ATOM     29  C   UNL d   1      -0.095  -4.429   5.918  0.00  0.00     0.016 A 
ENDBRANCH  19  21
ENDBRANCH  17  18
ENDBRANCH   1  17
TORSDOF 4
