REMARK  2 active torsions:
REMARK  status: ('A' for Active; 'I' for Inactive)
REMARK    1  A    between atoms: C_5  and  C_3 
REMARK    2  A    between atoms: C_6  and  C_4 
ROOT
ATOM      1  N   UNL d   1      -1.291  -0.041   0.009  0.00  0.00    -0.355 N 
ATOM      2  HN  UNL d   1      -2.310  -0.079   0.014  1.00  0.00     0.166 HD
ATOM      3  C   UNL d   1      -0.644   1.157  -0.013  0.00  0.00     0.043 A 
ATOM      4  C   UNL d   1      -0.556  -1.187   0.025  0.00  0.00     0.043 A 
ATOM      5  C   UNL d   1       0.749   1.233  -0.032  0.00  0.00     0.030 A 
ATOM      6  C   UNL d   1       0.838  -1.158   0.030  0.00  0.00     0.030 A 
ATOM      7  C   UNL d   1       1.496   0.064  -0.005  0.00  0.00     0.005 A 
ENDROOT
BRANCH   3   8
ATOM      8  C   UNL d   1      -1.495   2.368  -0.042  0.00  0.00    -0.009 A 
ATOM      9  C   UNL d   1      -1.086   3.576   0.553  0.00  0.00     0.014 A 
ATOM     10  C   UNL d   1      -1.866   4.735   0.471  0.00  0.00     0.007 A 
ATOM     11  C   UNL d   1      -3.090   4.719  -0.203  0.00  0.00    -0.062 A 
ATOM     12  C   UNL d   1      -3.528   3.521  -0.772  0.00  0.00     0.007 A 
ATOM     13  C   UNL d   1      -3.901   5.976  -0.308  0.00  0.00     0.048 C 
ATOM     14  C   UNL d   1      -2.743   2.363  -0.688  0.00  0.00     0.014 A 
ENDBRANCH   3   8
BRANCH   4  15
ATOM     15  C   UNL d   1      -1.314  -2.458   0.064  0.00  0.00    -0.009 A 
ATOM     16  C   UNL d   1      -0.819  -3.635  -0.529  0.00  0.00     0.014 A 
ATOM     17  C   UNL d   1      -1.510  -4.848  -0.438  0.00  0.00     0.007 A 
ATOM     18  C   UNL d   1      -2.727  -4.921   0.244  0.00  0.00    -0.062 A 
ATOM     19  C   UNL d   1      -3.251  -3.757   0.813  0.00  0.00     0.007 A 
ATOM     20  C   UNL d   1      -3.443  -6.234   0.360  0.00  0.00     0.048 C 
ATOM     21  C   UNL d   1      -2.554  -2.544   0.719  0.00  0.00     0.014 A 
ENDBRANCH   4  15
TORSDOF 2
