REMARK  4 active torsions:
REMARK  status: ('A' for Active; 'I' for Inactive)
REMARK    1  A    between atoms: S_17  and  C_5 
REMARK    2  A    between atoms: N_9  and  C_8 
REMARK    3  A    between atoms: C_13  and  C_19 
REMARK    4  A    between atoms: C_15  and  S_17 
ROOT
ATOM      1  C   UNL d   1       0.491  -0.910   0.133  0.00  0.00     0.706 A 
ATOM      2  N   UNL d   1       1.629  -1.574   0.171  0.00  0.00    -0.167 N 
ATOM      3  HN  UNL d   1       1.770  -2.582   0.227  1.00  0.00     0.186 HD
ATOM      4  N   UNL d   1       0.765   0.463   0.087  0.00  0.00    -0.089 N 
ATOM      5  C   UNL d   1       2.571  -0.591   0.118  0.00  0.00     0.180 A 
ATOM      6  N   UNL d   1       2.103   0.657   0.104  0.00  0.00    -0.258 N 
ATOM      7  HN  UNL d   1       2.622   1.535   0.107  1.00  0.00     0.190 HD
ATOM      8  N   UNL d   1      -0.789  -1.388   0.129  0.00  0.00    -0.194 N 
ATOM      9  HN  UNL d   1      -0.987  -2.387   0.175  1.00  0.00     0.184 HD
ATOM     10  C   UNL d   1      -0.265   1.410   0.031  0.00  0.00     0.050 A 
ATOM     11  C   UNL d   1      -1.538   0.978   0.009  0.00  0.00     0.052 A 
ATOM     12  C   UNL d   1      -1.743  -0.505   0.063  0.00  0.00     0.024 A 
ATOM     13  C   UNL d   1       0.076   2.868  -0.011  0.00  0.00     0.071 C 
ATOM     14  C   UNL d   1      -3.170  -0.995   0.042  0.00  0.00     0.068 C 
ENDROOT
BRANCH   5  15
ATOM     15  S   UNL d   1       4.299  -0.872   0.084  0.00  0.00    -0.050 SA
BRANCH  15  16
ATOM     16  C   UNL d   1       4.411  -2.648   0.195  0.00  0.00     0.041 A 
ATOM     17  C   UNL d   1       4.496  -3.520  -0.897  0.00  0.00     0.120 A 
ATOM     18  C   UNL d   1       4.637  -4.910  -0.732  0.00  0.00     0.053 A 
ATOM     19  C   UNL d   1       4.691  -5.460   0.556  0.00  0.00     0.050 A 
ATOM     20  C   UNL d   1       4.633  -4.593   1.658  0.00  0.00     0.017 A 
ATOM     21  C   UNL d   1       4.497  -3.210   1.479  0.00  0.00     0.022 A 
BRANCH  17  22
ATOM     22  N   UNL d   1       4.496  -3.019  -2.260  0.00  0.00    -0.114 N 
ATOM     23  O   UNL d   1       3.492  -2.413  -2.654  0.00  0.00    -0.532 OA
ATOM     24  O   UNL d   1       5.490  -3.286  -2.949  0.00  0.00    -0.532 OA
ENDBRANCH  17  22
BRANCH  19  25
ATOM     25  C   UNL d   1       4.807  -6.951   0.772  0.00  0.00     0.417 C 
ATOM     26  F   UNL d   1       4.817  -7.666  -0.386  0.00  0.00    -0.166 F 
ATOM     27  F   UNL d   1       5.945  -7.293   1.436  0.00  0.00    -0.166 F 
ATOM     28  F   UNL d   1       3.777  -7.447   1.511  0.00  0.00    -0.166 F 
ENDBRANCH  19  25
ENDBRANCH  15  16
ENDBRANCH   5  15
TORSDOF 4
