REMARK  1 active torsions:
REMARK  status: ('A' for Active; 'I' for Inactive)
REMARK    1  A    between atoms: C_8  and  C_7 
ROOT
ATOM      1  C   UNL d   1       1.583  -0.093   0.100  0.00  0.00     0.102 A 
ATOM      2  N   UNL d   1      -0.475   1.166  -0.035  0.00  0.00    -0.299 N 
ATOM      3  N   UNL d   1      -0.584  -1.151   0.034  0.00  0.00    -0.299 N 
ATOM      4  C   UNL d   1       0.892   1.221   0.022  0.00  0.00     0.263 A 
ATOM      5  C   UNL d   1       0.774  -1.341   0.037  0.00  0.00     0.263 A 
ATOM      6  C   UNL d   1      -1.236   0.040  -0.023  0.00  0.00     0.181 A 
ATOM      7  C   UNL d   1       2.922  -0.048   0.223  0.00  0.00     0.060 C 
ATOM      8  S   UNL d   1      -2.895   0.117  -0.084  0.00  0.00    -0.040 SA
ATOM      9  O   UNL d   1       1.229  -2.474  -0.044  0.00  0.00    -0.267 OA
ATOM     10  O   UNL d   1       1.478   2.298  -0.000  0.00  0.00    -0.267 OA
ATOM     11  H   UNL d   1      -0.949   2.059  -0.088  0.00  0.00     0.171 HD
ATOM     12  H   UNL d   1      -1.138  -1.998   0.002  0.00  0.00     0.171 HD
ENDROOT
BRANCH   7  13
ATOM     13  C   UNL d   1       3.737  -1.200   0.327  0.00  0.00     0.076 A 
ATOM     14  O   UNL d   1       4.014  -1.818   1.523  0.00  0.00    -0.323 OA
ATOM     15  C   UNL d   1       4.805  -2.890   1.271  0.00  0.00     0.142 A 
ATOM     16  C   UNL d   1       5.077  -2.981  -0.070  0.00  0.00     0.027 A 
ATOM     17  C   UNL d   1       4.407  -1.892  -0.675  0.00  0.00     0.039 A 
ENDBRANCH   7  13
TORSDOF 1
