REMARK  6 active torsions:
REMARK  status: ('A' for Active; 'I' for Inactive)
REMARK    1  A    between atoms: O_4  and  C_1 
REMARK    2  A    between atoms: C_3  and  C_2 
REMARK       I    between atoms: N_5  and  C_3 
REMARK    3  A    between atoms: C_12  and  O_4 
REMARK    4  A    between atoms: C_11  and  N_5 
REMARK    5  A    between atoms: C_8  and  C_11 
REMARK    6  A    between atoms: O_14  and  C_8 
ROOT
ATOM      1  C   UNL d   1      -0.190   0.522  -0.243  0.00  0.00     0.163 A 
ATOM      2  C   UNL d   1       1.128   0.858   0.058  0.00  0.00     0.083 A 
ATOM      3  N   UNL d   1      -0.625  -0.767  -0.295  0.00  0.00    -0.346 N 
ATOM      4  HN  UNL d   1      -1.595  -0.987  -0.520  1.00  0.00     0.167 HD
ATOM      5  C   UNL d   1       2.030  -0.181   0.324  0.00  0.00     0.023 A 
ATOM      6  C   UNL d   1       0.269  -1.743  -0.040  0.00  0.00     0.090 A 
ATOM      7  C   UNL d   1       1.596  -1.502   0.265  0.00  0.00     0.018 A 
ENDROOT
BRANCH   2   8
ATOM      8  C   UNL d   1       1.563   2.258   0.224  0.00  0.00     0.256 C 
ATOM      9  N   UNL d   1       2.764   2.681  -0.296  0.00  0.00    -0.347 N 
ATOM     10  H   UNL d   1       2.990   3.630  -0.021  0.00  0.00     0.163 HD
ATOM     11  O   UNL d   1       0.891   3.036   0.895  0.00  0.00    -0.268 OA
BRANCH   9  12
ATOM     12  C   UNL d   1       3.487   2.146  -1.448  0.00  0.00     0.233 C 
BRANCH  12  13
ATOM     13  C   UNL d   1       4.953   1.764  -1.232  0.00  0.00     0.276 C 
ATOM     14  O   UNL d   1       5.663   1.326  -2.130  0.00  0.00    -0.263 OA
BRANCH  13  15
ATOM     15  O   UNL d   1       5.366   1.971   0.048  0.00  0.00    -0.325 OA
ATOM     16  C   UNL d   1       6.741   1.647   0.273  0.00  0.00     0.213 C 
ENDBRANCH  13  15
ENDBRANCH  12  13
ENDBRANCH   9  12
ENDBRANCH   2   8
BRANCH   1  17
ATOM     17  O   UNL d   1      -1.098   1.544  -0.514  0.00  0.00    -0.293 OA
BRANCH  17  18
ATOM     18  C   UNL d   1      -2.324   1.174  -1.022  0.00  0.00     0.077 A 
ATOM     19  C   UNL d   1      -3.467   1.504  -0.292  0.00  0.00     0.039 A 
ATOM     20  C   UNL d   1      -4.730   1.151  -0.782  0.00  0.00     0.026 A 
ATOM     21  C   UNL d   1      -4.838   0.483  -2.000  0.00  0.00     0.034 A 
ATOM     22  C   UNL d   1      -3.700   0.184  -2.748  0.00  0.00     0.026 A 
ATOM     23 CL   UNL d   1      -6.389   0.027  -2.591  0.00  0.00    -0.084 Cl
ATOM     24  C   UNL d   1      -2.440   0.543  -2.265  0.00  0.00     0.039 A 
ENDBRANCH  17  18
ENDBRANCH   1  17
TORSDOF 6
