REMARK  5 active torsions:
REMARK  status: ('A' for Active; 'I' for Inactive)
REMARK    1  A    between atoms: C_4  and  C_1 
REMARK    2  A    between atoms: C_2  and  C_5 
REMARK    3  A    between atoms: C_3  and  O_7 
REMARK       I    between atoms: N_8  and  C_4 
REMARK       I    between atoms: C_5  and  N_9 
REMARK    4  A    between atoms: O_7  and  C_6 
REMARK    5  A    between atoms: N_9  and  N_8 
ROOT
ATOM      1  C   UNL d   1       2.963  -0.265   0.152  0.00  0.00     0.272 C 
ATOM      2  N   UNL d   1       3.584   0.785   0.801  0.00  0.00    -0.263 N 
ATOM      3  O   UNL d   1       3.599  -1.210  -0.317  0.00  0.00    -0.266 OA
ATOM      4  H   UNL d   1       3.121   1.621   1.155  0.00  0.00     0.190 HD
ENDROOT
BRANCH   1   5
ATOM      5  C   UNL d   1       1.478  -0.207   0.025  0.00  0.00     0.067 A 
ATOM      6  C   UNL d   1       0.799  -0.869  -1.017  0.00  0.00     0.094 A 
ATOM      7  C   UNL d   1      -0.605  -0.918  -1.013  0.00  0.00     0.038 A 
ATOM      8  C   UNL d   1      -1.336  -0.304   0.006  0.00  0.00     0.003 A 
ATOM      9  C   UNL d   1      -0.670   0.366   1.027  0.00  0.00     0.001 A 
ATOM     10  C   UNL d   1       0.726   0.419   1.037  0.00  0.00     0.020 A 
BRANCH   6  11
ATOM     11  O   UNL d   1       1.397  -1.661  -1.959  0.00  0.00    -0.254 OA
BRANCH  11  12
ATOM     12  C   UNL d   1       2.202  -0.998  -2.929  0.00  0.00     0.530 C 
ATOM     13  F   UNL d   1       2.726   0.170  -2.503  0.00  0.00    -0.144 F 
ATOM     14  F   UNL d   1       3.202  -1.823  -3.307  0.00  0.00    -0.144 F 
ATOM     15  F   UNL d   1       1.448  -0.739  -4.024  0.00  0.00    -0.144 F 
ENDBRANCH  11  12
ENDBRANCH   6  11
ENDBRANCH   1   5
BRANCH   2  16
ATOM     16  N   UNL d   1       4.978   0.758   0.926  0.00  0.00    -0.263 N 
ATOM     17  C   UNL d   1       5.598   1.748   1.653  0.00  0.00     0.271 C 
ATOM     18  O   UNL d   1       4.960   2.688   2.128  0.00  0.00    -0.266 OA
ATOM     19  H   UNL d   1       5.458  -0.035   0.494  0.00  0.00     0.190 HD
BRANCH  17  20
ATOM     20  C   UNL d   1       7.068   1.627   1.917  0.00  0.00     0.055 A 
ATOM     21  C   UNL d   1       7.971   0.809   1.222  0.00  0.00     0.049 A 
ATOM     22 CL   UNL d   1       7.558  -0.134  -0.166  0.00  0.00    -0.083 Cl
ATOM     23  C   UNL d   1       9.317   0.743   1.625  0.00  0.00     0.025 A 
ATOM     24  C   UNL d   1       9.777   1.495   2.705  0.00  0.00     0.002 A 
ATOM     25  C   UNL d   1       8.900   2.334   3.381  0.00  0.00     0.001 A 
ATOM     26  C   UNL d   1       7.560   2.401   2.988  0.00  0.00     0.019 A 
ENDBRANCH  17  20
ENDBRANCH   2  16
TORSDOF 5
