REMARK  5 active torsions:
REMARK  status: ('A' for Active; 'I' for Inactive)
REMARK    1  A    between atoms: C_2  and  S_1 
REMARK    2  A    between atoms: N_10  and  S_1 
REMARK    3  A    between atoms: C_8  and  C_13 
REMARK    4  A    between atoms: C_9  and  C_14 
REMARK    5  A    between atoms: C_15  and  N_10 
ROOT
ATOM      1  N   UNL d   1       0.553  -0.047  -1.553  0.00  0.00    -0.281 N 
ATOM      2  H   UNL d   1       0.651   0.317  -0.605  0.00  0.00     0.179 HD
ENDROOT
BRANCH   1   3
ATOM      3  S   UNL d   1       0.476  -1.715  -1.670  0.00  0.00     0.265 S 
ATOM      4  O   UNL d   1       0.200  -2.233  -0.351  0.00  0.00    -0.200 OA
ATOM      5  O   UNL d   1      -0.387  -2.038  -2.788  0.00  0.00    -0.200 OA
BRANCH   3   6
ATOM      6  C   UNL d   1       2.108  -2.208  -2.108  0.00  0.00     0.109 A 
ATOM      7  C   UNL d   1       3.228  -1.949  -1.286  0.00  0.00     0.090 A 
ATOM      8  N   UNL d   1       3.257  -1.294  -0.112  0.00  0.00    -0.309 N 
ATOM      9  C   UNL d   1       4.603  -2.405  -1.724  0.00  0.00     0.068 A 
ATOM     10  S   UNL d   1       4.831  -1.321   0.418  0.00  0.00     0.068 SA
ATOM     11  HN  UNL d   1       2.464  -0.862   0.362  1.00  0.00     0.176 HD
ATOM     12  N   UNL d   1       5.569  -2.095  -0.849  0.00  0.00    -0.310 N 
ATOM     13  HN  UNL d   1       6.565  -2.296  -0.944  1.00  0.00     0.176 HD
ATOM     14  C   UNL d   1       4.793  -3.083  -2.952  0.00  0.00     0.032 A 
ATOM     15  C   UNL d   1       3.640  -3.312  -3.721  0.00  0.00     0.004 A 
ATOM     16  C   UNL d   1       2.351  -2.897  -3.317  0.00  0.00     0.028 A 
ENDBRANCH   3   6
ENDBRANCH   1   3
BRANCH   1  17
ATOM     17  C   UNL d   1       0.858   0.771  -2.664  0.00  0.00     0.044 A 
ATOM     18  C   UNL d   1      -0.160   1.168  -3.530  0.00  0.00     0.046 A 
ATOM     19  C   UNL d   1       0.099   2.089  -4.560  0.00  0.00     0.050 A 
ATOM     20  C   UNL d   1       1.408   2.577  -4.721  0.00  0.00     0.032 A 
ATOM     21  C   UNL d   1       2.441   2.175  -3.858  0.00  0.00     0.050 A 
ATOM     22  C   UNL d   1       2.151   1.265  -2.828  0.00  0.00     0.046 A 
BRANCH  19  23
ATOM     23  C   UNL d   1      -1.028   2.584  -5.438  0.00  0.00     0.417 C 
ATOM     24  F   UNL d   1      -0.627   3.508  -6.355  0.00  0.00    -0.166 F 
ATOM     25  F   UNL d   1      -1.621   1.587  -6.146  0.00  0.00    -0.166 F 
ATOM     26  F   UNL d   1      -2.017   3.181  -4.718  0.00  0.00    -0.166 F 
ENDBRANCH  19  23
BRANCH  21  27
ATOM     27  C   UNL d   1       3.836   2.740  -3.990  0.00  0.00     0.417 C 
ATOM     28  F   UNL d   1       3.953   3.671  -4.975  0.00  0.00    -0.166 F 
ATOM     29  F   UNL d   1       4.252   3.349  -2.847  0.00  0.00    -0.166 F 
ATOM     30  F   UNL d   1       4.759   1.780  -4.265  0.00  0.00    -0.166 F 
ENDBRANCH  21  27
ENDBRANCH   1  17
TORSDOF 5
