REMARK  3 active torsions:
REMARK  status: ('A' for Active; 'I' for Inactive)
REMARK    1  A    between atoms: C_7  and  O_12 
REMARK    2  A    between atoms: C_8  and  C_7 
REMARK    3  A    between atoms: O_12  and  N_9 
ROOT
ATOM      1  C   UNL d   1      -0.234   0.395   0.436  0.00  0.00     0.024 A 
ATOM      2  C   UNL d   1      -0.995  -0.744   0.245  0.00  0.00     0.025 A 
ATOM      3  N   UNL d   1      -0.143  -1.768  -0.088  0.00  0.00    -0.353 N 
ATOM      4  C   UNL d   1       1.111   0.081   0.096  0.00  0.00     0.005 A 
ATOM      5  C   UNL d   1       1.148  -1.282  -0.217  0.00  0.00     0.045 A 
ATOM      6  C   UNL d   1      -0.848   1.621   0.920  0.00  0.00     0.045 C 
ATOM      7  N   UNL d   1      -0.048   2.526   1.388  0.00  0.00    -0.261 N 
ATOM      8  HN  UNL d   1       0.968   2.433   1.380  1.00  0.00     0.194 HD
ATOM      9  C   UNL d   1      -2.479  -0.831   0.395  0.00  0.00     0.058 C 
ATOM     10  C   UNL d   1      -0.499  -3.161  -0.247  0.00  0.00     0.156 C 
ATOM     11  C   UNL d   1       2.307   0.825   0.024  0.00  0.00     0.014 A 
ATOM     12  C   UNL d   1       2.347  -1.926  -0.571  0.00  0.00     0.030 A 
ATOM     13  C   UNL d   1      -2.364   1.703   0.829  0.00  0.00     0.060 C 
ATOM     14  C   UNL d   1      -3.006   0.361   1.215  0.00  0.00     0.012 C 
ATOM     15  C   UNL d   1       3.498   0.199  -0.350  0.00  0.00     0.001 A 
ATOM     16  C   UNL d   1       3.516  -1.161  -0.637  0.00  0.00     0.002 A 
ENDROOT
BRANCH   7  17
ATOM     17  O   UNL d   1      -0.717   3.647   1.907  0.00  0.00    -0.195 OA
BRANCH  17  18
ATOM     18  C   UNL d   1       0.180   4.606   2.317  0.00  0.00     0.316 C 
ATOM     19  O   UNL d   1      -0.055   5.398   3.221  0.00  0.00    -0.257 OA
BRANCH  18  20
ATOM     20  C   UNL d   1       1.411   4.708   1.491  0.00  0.00     0.052 A 
ATOM     21  C   UNL d   1       2.707   4.561   2.054  0.00  0.00    -0.010 A 
ATOM     22  C   UNL d   1       3.817   4.623   1.171  0.00  0.00    -0.025 A 
ATOM     23  C   UNL d   1       2.970   4.340   3.426  0.00  0.00     0.013 A 
ATOM     24  C   UNL d   1       5.120   4.457   1.669  0.00  0.00     0.012 A 
ATOM     25  C   UNL d   1       3.613   4.835  -0.203  0.00  0.00     0.012 A 
ATOM     26  C   UNL d   1       5.348   4.243   3.027  0.00  0.00     0.001 A 
ATOM     27  C   UNL d   1       4.274   4.187   3.906  0.00  0.00     0.001 A 
ATOM     28  C   UNL d   1       2.333   5.002  -0.727  0.00  0.00     0.002 A 
ATOM     29  C   UNL d   1       1.233   4.945   0.119  0.00  0.00     0.018 A 
ENDBRANCH  18  20
ENDBRANCH  17  18
ENDBRANCH   7  17
TORSDOF 3
