REMARK  4 active torsions:
REMARK  status: ('A' for Active; 'I' for Inactive)
REMARK    1  A    between atoms: C_5  and  C_1 
REMARK    2  A    between atoms: C_6  and  C_4 
REMARK    3  A    between atoms: S_10  and  C_5 
REMARK    4  A    between atoms: C_13  and  S_10 
ROOT
ATOM      1  C   UNL d   1       1.524   0.978   0.144  0.00  0.00     0.093 A 
ATOM      2  N   UNL d   1       2.283  -0.664   0.562  0.00  0.00    -0.370 N 
ATOM      3  HN  UNL d   1       3.199  -0.755   1.000  1.00  0.00     0.161 HD
ATOM      4  C   UNL d   1       1.357  -1.951   0.168  0.00  0.00     0.180 A 
ATOM      5  S   UNL d   1      -0.704  -1.294  -0.949  0.00  0.00    -0.111 SA
ATOM      6  C   UNL d   1       0.002   0.880  -0.689  0.00  0.00     0.081 A 
ENDROOT
BRANCH   1   7
ATOM      7  C   UNL d   1       2.130   2.200   0.676  0.00  0.00     0.241 C 
ATOM      8  O   UNL d   1       2.440   2.332   1.856  0.00  0.00    -0.278 OA
BRANCH   7   9
ATOM      9  S   UNL d   1       2.708   3.363  -0.508  0.00  0.00    -0.028 SA
BRANCH   9  10
ATOM     10  C   UNL d   1       1.287   4.332  -0.949  0.00  0.00     0.077 A 
ATOM     11  N   UNL d   1       0.055   3.810  -0.807  0.00  0.00    -0.360 N 
ATOM     12  C   UNL d   1      -0.990   4.500  -1.325  0.00  0.00     0.089 A 
ATOM     13  HN  UNL d   1      -0.088   2.922  -0.325  1.00  0.00     0.166 HD
ATOM     14  C   UNL d   1      -0.868   5.712  -1.977  0.00  0.00     0.017 A 
ATOM     15  C   UNL d   1       0.401   6.261  -2.085  0.00  0.00     0.004 A 
ATOM     16  C   UNL d   1       1.493   5.563  -1.569  0.00  0.00     0.037 A 
ENDBRANCH   9  10
ENDBRANCH   7   9
ENDBRANCH   1   7
BRANCH   4  17
ATOM     17  C   UNL d   1       1.121  -3.265   0.394  0.00  0.00     0.186 C 
ATOM     18  O   UNL d   1       1.114  -3.457  -1.108  0.00  0.00    -0.338 OA
ATOM     19  C   UNL d   1       1.598  -2.323  -1.905  0.00  0.00     0.102 A 
ATOM     20  C   UNL d   1       2.209  -2.619  -3.104  0.00  0.00     0.039 A 
ATOM     21  C   UNL d   1       1.438  -0.793  -1.379  0.00  0.00     0.102 A 
ATOM     22  C   UNL d   1       2.726  -1.546  -3.836  0.00  0.00     0.003 A 
ATOM     23  C   UNL d   1       2.587  -0.192  -3.435  0.00  0.00     0.003 A 
ATOM     24  C   UNL d   1       1.929   0.217  -2.257  0.00  0.00     0.039 A 
ATOM     25  O   UNL d   1       0.489  -0.539   0.373  0.00  0.00    -0.346 OA
ATOM     26  C   UNL d   1       0.252  -2.104   1.260  0.00  0.00     0.211 C 
ENDBRANCH   4  17
TORSDOF 4
