REMARK  4 active torsions:
REMARK  status: ('A' for Active; 'I' for Inactive)
REMARK       I    between atoms: C_2  and  N_1 
REMARK    1  A    between atoms: C_8  and  C_2 
REMARK    2  A    between atoms: C_14  and  C_8 
REMARK    3  A    between atoms: O_18  and  C_9 
REMARK    4  A    between atoms: O_19  and  C_11 
ROOT
ATOM      1  N   UNL d   1      -5.133   0.089  -1.116  0.00  0.00    -0.184 N 
ATOM      2  C   UNL d   1      -4.453  -1.131  -1.313  0.00  0.00     0.250 C 
ATOM      3  N   UNL d   1      -6.005   0.435  -2.175  0.00  0.00    -0.254 N 
ATOM      4  C   UNL d   1      -5.008   0.948  -0.026  0.00  0.00     0.269 C 
ATOM      5  C   UNL d   1      -6.475   1.697  -2.381  0.00  0.00     0.260 C 
ATOM      6  C   UNL d   1      -5.543   2.313  -0.210  0.00  0.00     0.082 C 
ATOM      7  C   UNL d   1      -6.199   2.671  -1.314  0.00  0.00     0.081 C 
ATOM      8  O   UNL d   1      -4.707  -1.844  -2.288  0.00  0.00    -0.271 OA
ATOM      9  O   UNL d   1      -4.492   0.672   1.054  0.00  0.00    -0.266 OA
ATOM     10  O   UNL d   1      -7.112   2.024  -3.374  0.00  0.00    -0.267 OA
ATOM     11  H   UNL d   1      -6.128  -0.268  -2.903  0.00  0.00     0.191 HD
ENDROOT
BRANCH   2  12
ATOM     12  C   UNL d   1      -3.408  -1.487  -0.269  0.00  0.00     0.144 C 
BRANCH  12  13
ATOM     13  C   UNL d   1      -2.529  -2.675  -0.590  0.00  0.00    -0.046 A 
ATOM     14  C   UNL d   1      -2.947  -3.977  -0.279  0.00  0.00     0.047 A 
ATOM     15  C   UNL d   1      -2.101  -5.084  -0.469  0.00  0.00     0.102 A 
ATOM     16  C   UNL d   1      -0.800  -4.877  -0.952  0.00  0.00     0.101 A 
ATOM     17  C   UNL d   1      -0.401  -3.577  -1.297  0.00  0.00     0.040 A 
ATOM     18  C   UNL d   1      -1.257  -2.488  -1.134  0.00  0.00     0.010 A 
BRANCH  15  19
ATOM     19  O   UNL d   1      -2.491  -6.347  -0.108  0.00  0.00    -0.353 OA
ATOM     20  C   UNL d   1      -3.862  -6.657  -0.335  0.00  0.00     0.210 C 
ENDBRANCH  15  19
BRANCH  16  21
ATOM     21  O   UNL d   1       0.203  -5.792  -1.139  0.00  0.00    -0.353 OA
ATOM     22  C   UNL d   1      -0.106  -7.172  -1.030  0.00  0.00     0.210 C 
ENDBRANCH  16  21
ENDBRANCH  12  13
ENDBRANCH   2  12
TORSDOF 4
