REMARK  6 active torsions:
REMARK  status: ('A' for Active; 'I' for Inactive)
REMARK    1  A    between atoms: C_6  and  C_3 
REMARK    2  A    between atoms: C_9  and  O_14 
REMARK       I    between atoms: N_17  and  C_9 
REMARK    3  A    between atoms: O_14  and  C_10 
REMARK    4  A    between atoms: C_11  and  O_19 
REMARK    5  A    between atoms: C_24  and  N_17 
REMARK    6  A    between atoms: O_19  and  C_25 
ROOT
ATOM      1  C   UNL d   1       1.858  -2.982  -0.616  0.00  0.00    -0.006 C 
ATOM      2  C   UNL d   1       1.888  -5.757  -0.432  0.00  0.00     0.092 C 
ATOM      3  C   UNL d   1       0.839  -5.136  -1.125  0.00  0.00    -0.026 C 
ATOM      4  C   UNL d   1       3.015  -5.032   0.001  0.00  0.00    -0.026 C 
ATOM      5  C   UNL d   1       2.998  -3.635  -0.142  0.00  0.00     0.023 C 
ATOM      6  C   UNL d   1       0.828  -3.739  -1.193  0.00  0.00     0.023 C 
ATOM      7  C   UNL d   1      -0.255  -5.908  -1.802  0.00  0.00     0.051 C 
ATOM      8  C   UNL d   1       4.205  -5.671   0.656  0.00  0.00     0.051 C 
ENDROOT
BRANCH   2   9
ATOM      9  O   UNL d   1       1.562  -7.015   0.145  0.00  0.00    -0.260 OA
BRANCH   9  10
ATOM     10  C   UNL d   1       2.436  -8.078   0.185  0.00  0.00     0.370 C 
ATOM     11  N   UNL d   1       2.586  -8.659   1.426  0.00  0.00    -0.302 N 
ATOM     12  H   UNL d   1       3.276  -9.399   1.399  0.00  0.00     0.171 HD
ATOM     13  O   UNL d   1       3.069  -8.477  -0.786  0.00  0.00    -0.238 OA
BRANCH  11  14
ATOM     14  C   UNL d   1       2.192  -8.193   2.701  0.00  0.00     0.037 A 
ATOM     15  C   UNL d   1       1.212  -7.229   2.938  0.00  0.00     0.032 A 
ATOM     16  C   UNL d   1       0.967  -6.765   4.237  0.00  0.00     0.039 A 
ATOM     17  C   UNL d   1       1.679  -7.262   5.329  0.00  0.00     0.078 A 
ATOM     18  C   UNL d   1       2.650  -8.233   5.104  0.00  0.00     0.039 A 
ATOM     19  C   UNL d   1       2.888  -8.707   3.804  0.00  0.00     0.032 A 
BRANCH  17  20
ATOM     20  O   UNL d   1       1.317  -6.723   6.528  0.00  0.00    -0.255 OA
BRANCH  20  21
ATOM     21  C   UNL d   1       1.905  -7.246   7.706  0.00  0.00     0.530 C 
ATOM     22  F   UNL d   1       1.801  -8.591   7.763  0.00  0.00    -0.144 F 
ATOM     23  F   UNL d   1       3.204  -6.891   7.789  0.00  0.00    -0.144 F 
ATOM     24  F   UNL d   1       1.256  -6.733   8.775  0.00  0.00    -0.144 F 
ENDBRANCH  20  21
ENDBRANCH  17  20
ENDBRANCH  11  14
ENDBRANCH   9  10
ENDBRANCH   2   9
BRANCH   1  25
ATOM     25  C   UNL d   1       1.655  -1.501  -0.510  0.00  0.00     0.070 A 
ATOM     26  N   UNL d   1       1.055  -0.944  -1.520  0.00  0.00    -0.294 N 
ATOM     27  N   UNL d   1       0.767   0.388  -1.501  0.00  0.00    -0.261 N 
ATOM     28  HN  UNL d   1       0.798  -1.508  -2.331  1.00  0.00     0.187 HD
ATOM     29  C   UNL d   1       1.084   1.246  -0.459  0.00  0.00     0.272 A 
ATOM     30  C   UNL d   1      -0.021   0.892  -2.608  0.00  0.00     0.181 C 
ATOM     31  C   UNL d   1       1.771   0.642   0.696  0.00  0.00     0.046 A 
ATOM     32  O   UNL d   1       0.798   2.438  -0.441  0.00  0.00    -0.266 OA
ATOM     33  C   UNL d   1       2.094   1.453   1.797  0.00  0.00     0.018 A 
ATOM     34  C   UNL d   1       2.036  -0.726   0.711  0.00  0.00     0.009 A 
ATOM     35  C   UNL d   1       2.686   0.897   2.927  0.00  0.00     0.001 A 
ATOM     36  C   UNL d   1       2.923  -0.472   2.969  0.00  0.00     0.001 A 
ATOM     37  C   UNL d   1       2.580  -1.282   1.879  0.00  0.00     0.015 A 
ENDBRANCH   1  25
TORSDOF 6
