REMARK  5 active torsions:
REMARK  status: ('A' for Active; 'I' for Inactive)
REMARK    1  A    between atoms: C_2  and  C_1 
REMARK    2  A    between atoms: C_3  and  C_1 
REMARK    3  A    between atoms: N_4  and  C_1 
REMARK    4  A    between atoms: N_5  and  C_1 
REMARK       I    between atoms: C_6  and  N_4 
REMARK    5  A    between atoms: C_14  and  N_5 
ROOT
ATOM      1  C   UNL d   1       0.814  -0.100   0.195  0.00  0.00     0.290 C 
ENDROOT
BRANCH   1   2
ATOM      2  C   UNL d   1       0.113  -1.462  -0.227  0.00  0.00     0.435 C 
ATOM      3  F   UNL d   1      -0.672  -2.028   0.709  0.00  0.00    -0.167 F 
ATOM      4  F   UNL d   1      -0.648  -1.319  -1.348  0.00  0.00    -0.167 F 
ATOM      5  F   UNL d   1       1.024  -2.414  -0.577  0.00  0.00    -0.167 F 
ENDBRANCH   1   2
BRANCH   1   6
ATOM      6  C   UNL d   1       0.396   0.315   1.670  0.00  0.00     0.435 C 
ATOM      7  F   UNL d   1      -0.281  -0.612   2.371  0.00  0.00    -0.167 F 
ATOM      8  F   UNL d   1       1.506   0.605   2.414  0.00  0.00    -0.167 F 
ATOM      9  F   UNL d   1      -0.322   1.467   1.718  0.00  0.00    -0.167 F 
ENDBRANCH   1   6
BRANCH   1  10
ATOM     10  N   UNL d   1       0.511   0.980  -0.787  0.00  0.00    -0.324 N 
ATOM     11  C   UNL d   1      -0.803   1.350  -0.971  0.00  0.00     0.215 C 
ATOM     12  O   UNL d   1      -1.713   0.871  -0.305  0.00  0.00    -0.274 OA
ATOM     13  C   UNL d   1      -1.040   2.367  -2.054  0.00  0.00     0.117 C 
ATOM     14  H   UNL d   1       1.135   1.036  -1.578  0.00  0.00     0.165 HD
ENDBRANCH   1  10
BRANCH   1  15
ATOM     15  N   UNL d   1       2.318  -0.120   0.004  0.00  0.00    -0.251 NA
ATOM     16  H   UNL d   1       2.683   0.826   0.123  0.00  0.00     0.130 HD
BRANCH  15  17
ATOM     17  C   UNL d   1       3.164  -0.992   0.708  0.00  0.00     0.010 A 
ATOM     18  C   UNL d   1       2.748  -1.942   1.650  0.00  0.00     0.023 A 
ATOM     19  C   UNL d   1       3.670  -2.762   2.313  0.00  0.00     0.002 A 
ATOM     20  C   UNL d   1       5.026  -2.666   2.026  0.00  0.00     0.000 A 
ATOM     21  C   UNL d   1       5.461  -1.754   1.073  0.00  0.00     0.002 A 
ATOM     22  C   UNL d   1       4.536  -0.928   0.424  0.00  0.00     0.023 A 
ENDBRANCH  15  17
ENDBRANCH   1  15
TORSDOF 5
