REMARK  2 active torsions:
REMARK  status: ('A' for Active; 'I' for Inactive)
REMARK    1  A    between atoms: C_2  and  S_1 
REMARK    2  A    between atoms: C_3  and  S_1 
ROOT
ATOM      1  C   UNL d   1       0.427   1.521   0.693  0.00  0.00     0.167 C 
ATOM      2  C   UNL d   1      -0.363   2.346  -0.030  0.00  0.00     0.069 C 
ATOM      3  C   UNL d   1       0.766   1.773   2.048  0.00  0.00     0.114 C 
ATOM      4  N   UNL d   1       1.018   1.999   3.159  0.00  0.00    -0.191 NA
ATOM      5  S   UNL d   1      -0.941   3.862   0.660  0.00  0.00    -0.121 SA
ATOM      6  S   UNL d   1      -0.774   2.110  -1.714  0.00  0.00    -0.121 SA
ATOM      7  C   UNL d   1      -3.114   3.480  -1.039  0.00  0.00     0.021 C 
ATOM      8  C   UNL d   1      -2.730   3.672   0.422  0.00  0.00     0.081 C 
ATOM      9  C   UNL d   1      -2.587   2.179  -1.632  0.00  0.00     0.081 C 
ENDROOT
BRANCH   1  10
ATOM     10  S   UNL d   1       1.032   0.020   0.084  0.00  0.00     0.225 S 
ATOM     11  O   UNL d   1      -0.043  -0.755  -0.513  0.00  0.00    -0.216 OA
ATOM     12  O   UNL d   1       1.907  -0.618   1.054  0.00  0.00    -0.216 OA
BRANCH  10  13
ATOM     13  C   UNL d   1       2.136   0.375  -1.275  0.00  0.00     0.105 A 
ATOM     14  S   UNL d   1       3.278   1.629  -1.040  0.00  0.00    -0.090 SA
ATOM     15  C   UNL d   1       3.954   1.393  -2.595  0.00  0.00     0.051 A 
ATOM     16  C   UNL d   1       3.338   0.368  -3.277  0.00  0.00     0.009 A 
ATOM     17  C   UNL d   1       2.291  -0.224  -2.513  0.00  0.00     0.032 A 
ENDBRANCH  10  13
ENDBRANCH   1  10
TORSDOF 2
