REMARK  8 active torsions:
REMARK  status: ('A' for Active; 'I' for Inactive)
REMARK    1  A    between atoms: S_14  and  C_2 
REMARK    2  A    between atoms: C_23  and  C_7 
REMARK    3  A    between atoms: C_15  and  C_10 
REMARK    4  A    between atoms: C_11  and  C_28 
REMARK    5  A    between atoms: C_18  and  S_14 
REMARK    6  A    between atoms: C_16  and  C_18 
REMARK       I    between atoms: N_24  and  C_16 
REMARK    7  A    between atoms: S_21  and  C_23 
REMARK    8  A    between atoms: C_28  and  S_21 
ROOT
ATOM      1  C   UNL d   1       0.503  -2.660   0.054  0.00  0.00     0.152 C 
ENDROOT
BRANCH   1   2
ATOM      2  S   UNL d   1       2.312  -2.602  -0.153  0.00  0.00    -0.155 SA
BRANCH   2   3
ATOM      3  C   UNL d   1       2.703  -4.386  -0.193  0.00  0.00     0.139 C 
BRANCH   3   4
ATOM      4  C   UNL d   1       2.087  -5.121  -1.344  0.00  0.00     0.060 A 
ATOM      5  N   UNL d   1       0.946  -5.774  -1.277  0.00  0.00    -0.352 N 
ATOM      6  C   UNL d   1       0.685  -6.428  -2.469  0.00  0.00     0.049 A 
ATOM      7  HN  UNL d   1       0.337  -5.794  -0.459  1.00  0.00     0.166 HD
ATOM      8  C   UNL d   1       1.628  -6.219  -3.456  0.00  0.00     0.081 A 
ATOM      9  S   UNL d   1       2.886  -5.212  -2.865  0.00  0.00    -0.086 SA
BRANCH   6  10
ATOM     10  C   UNL d   1      -0.516  -7.241  -2.628  0.00  0.00    -0.009 A 
ATOM     11  C   UNL d   1      -1.659  -6.934  -1.873  0.00  0.00     0.015 A 
ATOM     12  C   UNL d   1      -2.831  -7.685  -2.012  0.00  0.00     0.024 A 
ATOM     13  C   UNL d   1      -2.862  -8.759  -2.897  0.00  0.00     0.034 A 
ATOM     14  C   UNL d   1      -1.731  -9.093  -3.638  0.00  0.00     0.024 A 
ATOM     15 CL   UNL d   1      -4.303  -9.682  -3.075  0.00  0.00    -0.084 Cl
ATOM     16  C   UNL d   1      -0.561  -8.336  -3.504  0.00  0.00     0.015 A 
ENDBRANCH   6  10
ENDBRANCH   3   4
ENDBRANCH   2   3
ENDBRANCH   1   2
BRANCH   1  17
ATOM     17  C   UNL d   1       0.083  -3.253   1.355  0.00  0.00     0.109 A 
ATOM     18  N   UNL d   1      -0.212  -4.522   1.569  0.00  0.00    -0.286 N 
ATOM     19  N   UNL d   1      -0.596  -4.663   2.879  0.00  0.00    -0.278 N 
ATOM     20  HN  UNL d   1      -0.163  -5.270   0.879  1.00  0.00     0.188 HD
ATOM     21  C   UNL d   1      -0.554  -3.475   3.433  0.00  0.00     0.162 A 
ATOM     22  HN  UNL d   1      -0.865  -5.533   3.338  1.00  0.00     0.189 HD
ATOM     23  N   UNL d   1      -0.093  -2.557   2.533  0.00  0.00    -0.319 N 
ATOM     24  C   UNL d   1       0.196  -1.163   2.748  0.00  0.00     0.159 C 
BRANCH  21  25
ATOM     25  S   UNL d   1      -1.000  -3.113   5.061  0.00  0.00    -0.083 SA
BRANCH  25  26
ATOM     26  C   UNL d   1      -0.175  -4.472   5.938  0.00  0.00     0.184 C 
BRANCH  26  27
ATOM     27  C   UNL d   1       1.330  -4.287   5.875  0.00  0.00     0.225 C 
ATOM     28  O   UNL d   1       1.948  -3.469   6.545  0.00  0.00    -0.273 OA
ATOM     29  N   UNL d   1       1.985  -5.094   4.984  0.00  0.00    -0.369 N 
ATOM     30  H   UNL d   1       1.486  -5.522   4.211  0.00  0.00     0.159 HD
ATOM     31  H   UNL d   1       2.974  -4.918   4.859  0.00  0.00     0.159 HD
ENDBRANCH  26  27
ENDBRANCH  25  26
ENDBRANCH  21  25
ENDBRANCH   1  17
TORSDOF 8
