REMARK  5 active torsions:
REMARK  status: ('A' for Active; 'I' for Inactive)
REMARK    1  A    between atoms: N_2  and  C_1 
REMARK    2  A    between atoms: N_3  and  C_4 
REMARK    3  A    between atoms: N_18  and  C_6 
REMARK    4  A    between atoms: N_9  and  N_18 
REMARK    5  A    between atoms: C_11  and  C_16 
ROOT
ATOM      1  C   UNL d   1      -1.845   0.051   0.030  0.00  0.00     0.133 A 
ATOM      2  C   UNL d   1       0.255  -1.206  -0.013  0.00  0.00     0.111 A 
ATOM      3  C   UNL d   1      -1.153  -1.177   0.004  0.00  0.00     0.075 A 
ATOM      4  C   UNL d   1      -1.150   1.274   0.026  0.00  0.00     0.081 A 
ATOM      5  C   UNL d   1       0.983  -0.002  -0.012  0.00  0.00    -0.027 A 
ATOM      6  C   UNL d   1       0.260   1.211   0.009  0.00  0.00     0.042 A 
ATOM      7  C   UNL d   1       2.486   0.092  -0.020  0.00  0.00     0.050 C 
ENDROOT
BRANCH   4   8
ATOM      8  N   UNL d   1      -1.788   2.535   0.116  0.00  0.00    -0.299 N 
ATOM      9  H   UNL d   1      -2.813   2.494   0.034  0.00  0.00     0.187 HD
BRANCH   8  10
ATOM     10  N   UNL d   1      -1.134   3.611  -0.404  0.00  0.00    -0.309 N 
ATOM     11  C   UNL d   1      -1.799   4.724  -0.372  0.00  0.00     0.144 C 
ATOM     12  HN  UNL d   1      -0.191   3.546  -0.789  1.00  0.00     0.186 HD
BRANCH  11  13
ATOM     13  C   UNL d   1      -1.226   5.930  -0.896  0.00  0.00     0.091 A 
ATOM     14  O   UNL d   1      -1.933   7.092  -0.762  0.00  0.00    -0.321 OA
ATOM     15  C   UNL d   1      -1.179   8.083  -1.304  0.00  0.00     0.142 A 
ATOM     16  C   UNL d   1       0.001   7.577  -1.797  0.00  0.00     0.027 A 
ATOM     17  C   UNL d   1      -0.032   6.186  -1.541  0.00  0.00     0.040 A 
ENDBRANCH  11  13
ENDBRANCH   8  10
ENDBRANCH   4   8
BRANCH   1  18
ATOM     18  N   UNL d   1      -3.317   0.009   0.029  0.00  0.00    -0.113 N 
ATOM     19  O   UNL d   1      -3.863  -1.102  -0.003  0.00  0.00    -0.532 OA
ATOM     20  O   UNL d   1      -3.937   1.086   0.051  0.00  0.00    -0.532 OA
ENDBRANCH   1  18
BRANCH   2  21
ATOM     21  N   UNL d   1       0.903  -2.539  -0.025  0.00  0.00    -0.115 N 
ATOM     22  O   UNL d   1       0.161  -3.531  -0.026  0.00  0.00    -0.532 OA
ATOM     23  O   UNL d   1       2.138  -2.605  -0.031  0.00  0.00    -0.532 OA
ENDBRANCH   2  21
TORSDOF 5
