REMARK  7 active torsions:
REMARK  status: ('A' for Active; 'I' for Inactive)
REMARK    1  A    between atoms: N_2  and  C_1 
REMARK    2  A    between atoms: C_3  and  C_1 
REMARK    3  A    between atoms: C_4  and  C_1 
REMARK    4  A    between atoms: N_7  and  C_1 
REMARK       I    between atoms: C_5  and  N_2 
REMARK    5  A    between atoms: C_8  and  C_5 
REMARK    6  A    between atoms: C_6  and  C_9 
REMARK    7  A    between atoms: C_21  and  N_7 
ROOT
ATOM      1  C   UNL d   1       0.694  -0.098   0.183  0.00  0.00     0.290 C 
ENDROOT
BRANCH   1   2
ATOM      2  N   UNL d   1       0.656  -1.477  -0.359  0.00  0.00    -0.320 N 
ATOM      3  C   UNL d   1      -0.474  -1.954  -0.952  0.00  0.00     0.254 C 
ATOM      4  O   UNL d   1      -1.462  -1.235  -1.057  0.00  0.00    -0.268 OA
ATOM      5  H   UNL d   1       1.516  -1.996  -0.303  0.00  0.00     0.165 HD
BRANCH   3   6
ATOM      6  C   UNL d   1      -0.486  -3.342  -1.531  0.00  0.00     0.037 A 
ATOM      7  C   UNL d   1       0.223  -4.458  -1.045  0.00  0.00    -0.046 A 
ATOM      8  C   UNL d   1       1.068  -4.468   0.197  0.00  0.00     0.049 C 
ATOM      9  C   UNL d   1       0.113  -5.686  -1.738  0.00  0.00     0.007 A 
ATOM     10  C   UNL d   1      -0.737  -5.832  -2.831  0.00  0.00     0.001 A 
ATOM     11  C   UNL d   1      -1.482  -4.749  -3.272  0.00  0.00     0.001 A 
ATOM     12  C   UNL d   1      -1.345  -3.513  -2.638  0.00  0.00     0.017 A 
ENDBRANCH   3   6
ENDBRANCH   1   2
BRANCH   1  13
ATOM     13  C   UNL d   1      -0.318   0.157   1.370  0.00  0.00     0.435 C 
ATOM     14  F   UNL d   1      -0.947  -0.980   1.770  0.00  0.00    -0.167 F 
ATOM     15  F   UNL d   1       0.392   0.569   2.471  0.00  0.00    -0.167 F 
ATOM     16  F   UNL d   1      -1.257   1.101   1.183  0.00  0.00    -0.167 F 
ENDBRANCH   1  13
BRANCH   1  17
ATOM     17  C   UNL d   1       0.407   1.047  -0.856  0.00  0.00     0.435 C 
ATOM     18  F   UNL d   1       0.824   0.701  -2.106  0.00  0.00    -0.167 F 
ATOM     19  F   UNL d   1      -0.889   1.402  -0.992  0.00  0.00    -0.167 F 
ATOM     20  F   UNL d   1       1.076   2.186  -0.531  0.00  0.00    -0.167 F 
ENDBRANCH   1  17
BRANCH   1  21
ATOM     21  N   UNL d   1       2.115  -0.099   0.774  0.00  0.00    -0.251 NA
ATOM     22  H   UNL d   1       2.071   0.344   1.698  0.00  0.00     0.130 HD
BRANCH  21  23
ATOM     23  C   UNL d   1       3.220   0.375   0.069  0.00  0.00     0.010 A 
ATOM     24  C   UNL d   1       4.193   1.124   0.750  0.00  0.00     0.024 A 
ATOM     25  C   UNL d   1       5.343   1.595   0.104  0.00  0.00     0.018 A 
ATOM     26  C   UNL d   1       5.565   1.298  -1.244  0.00  0.00     0.048 A 
ATOM     27  C   UNL d   1       4.618   0.517  -1.919  0.00  0.00     0.018 A 
ATOM     28  C   UNL d   1       3.471   0.052  -1.264  0.00  0.00     0.024 A 
BRANCH  26  29
ATOM     29  C   UNL d   1       6.794   1.785  -1.970  0.00  0.00     0.417 C 
ATOM     30  F   UNL d   1       7.631   2.526  -1.192  0.00  0.00    -0.166 F 
ATOM     31  F   UNL d   1       7.548   0.760  -2.456  0.00  0.00    -0.166 F 
ATOM     32  F   UNL d   1       6.491   2.566  -3.043  0.00  0.00    -0.166 F 
ENDBRANCH  26  29
ENDBRANCH  21  23
ENDBRANCH   1  21
TORSDOF 7
