REMARK  3 active torsions:
REMARK  status: ('A' for Active; 'I' for Inactive)
REMARK    1  A    between atoms: S_4  and  C_1 
REMARK    2  A    between atoms: C_3  and  C_2 
REMARK       I    between atoms: N_9  and  C_3 
REMARK    3  A    between atoms: C_8  and  S_4 
ROOT
ATOM      1  C   UNL d   1      -0.613   1.245   0.075  0.00  0.00     0.090 A 
ATOM      2  C   UNL d   1       0.772   1.219   0.281  0.00  0.00     0.065 A 
ATOM      3  N   UNL d   1      -1.341   0.109  -0.133  0.00  0.00    -0.359 N 
ATOM      4  HN  UNL d   1      -2.350   0.154  -0.273  1.00  0.00     0.166 HD
ATOM      5  C   UNL d   1       1.403  -0.039   0.247  0.00  0.00     0.021 A 
ATOM      6  C   UNL d   1      -0.693  -1.074  -0.149  0.00  0.00     0.089 A 
ATOM      7  C   UNL d   1       0.668  -1.199   0.025  0.00  0.00     0.018 A 
ENDROOT
BRANCH   1   8
ATOM      8  S   UNL d   1      -1.588   2.735  -0.088  0.00  0.00    -0.072 SA
BRANCH   8   9
ATOM      9  C   UNL d   1      -2.721   2.599   1.278  0.00  0.00     0.007 A 
ATOM     10  C   UNL d   1      -2.423   3.209   2.503  0.00  0.00     0.020 A 
ATOM     11  C   UNL d   1      -3.364   3.210   3.538  0.00  0.00     0.025 A 
ATOM     12  C   UNL d   1      -4.604   2.604   3.348  0.00  0.00     0.034 A 
ATOM     13  C   UNL d   1      -4.907   1.984   2.138  0.00  0.00     0.025 A 
ATOM     14 CL   UNL d   1      -5.775   2.640   4.608  0.00  0.00    -0.084 Cl
ATOM     15  C   UNL d   1      -3.966   1.982   1.104  0.00  0.00     0.020 A 
ENDBRANCH   8   9
ENDBRANCH   1   8
BRANCH   2  16
ATOM     16  C   UNL d   1       1.674   2.382   0.536  0.00  0.00     0.252 C 
ATOM     17  O   UNL d   1       2.886   2.226   0.659  0.00  0.00    -0.268 OA
ATOM     18  N   UNL d   1       1.161   3.639   0.647  0.00  0.00    -0.366 N 
ATOM     19  H   UNL d   1       0.197   3.869   0.442  0.00  0.00     0.159 HD
ATOM     20  H   UNL d   1       1.820   4.399   0.761  0.00  0.00     0.159 HD
ENDBRANCH   2  16
TORSDOF 3
