REMARK  3 active torsions:
REMARK  status: ('A' for Active; 'I' for Inactive)
REMARK    1  A    between atoms: C_3  and  S_1 
REMARK    2  A    between atoms: C_5  and  S_1 
REMARK    3  A    between atoms: C_2  and  C_3 
ROOT
ATOM      1  N   UNL d   1      -2.138  -1.802   0.430  0.00  0.00    -0.196 NA
ATOM      2  C   UNL d   1      -1.209  -2.175  -1.982  0.00  0.00     0.264 C 
ATOM      3  C   UNL d   1      -1.755  -1.951  -0.654  0.00  0.00     0.074 C 
ENDROOT
BRANCH   2   4
ATOM      4  S   UNL d   1      -0.837  -0.593  -2.696  0.00  0.00     0.160 S 
ATOM      5  O   UNL d   1      -0.139  -0.872  -3.940  0.00  0.00    -0.227 OA
ATOM      6  O   UNL d   1      -2.060   0.186  -2.722  0.00  0.00    -0.227 OA
BRANCH   4   7
ATOM      7  C   UNL d   1       0.334   0.145  -1.546  0.00  0.00     0.184 C 
BRANCH   7   8
ATOM      8  C   UNL d   1       0.741   1.503  -2.050  0.00  0.00     0.016 A 
ATOM      9  C   UNL d   1       1.843   1.609  -2.908  0.00  0.00     0.125 A 
ATOM     10  F   UNL d   1       2.523   0.504  -3.247  0.00  0.00    -0.205 F 
ATOM     11  C   UNL d   1       2.280   2.835  -3.401  0.00  0.00     0.043 A 
ATOM     12  C   UNL d   1       1.609   4.000  -3.043  0.00  0.00     0.005 A 
ATOM     13  C   UNL d   1       0.505   3.924  -2.195  0.00  0.00     0.024 A 
ATOM     14  C   UNL d   1       0.072   2.686  -1.703  0.00  0.00     0.044 A 
ATOM     15 CL   UNL d   1      -1.280   2.689  -0.628  0.00  0.00    -0.084 Cl
ENDBRANCH   7   8
ENDBRANCH   4   7
ENDBRANCH   2   4
TORSDOF 3
