REMARK  7 active torsions:
REMARK  status: ('A' for Active; 'I' for Inactive)
REMARK    1  A    between atoms: N_5  and  C_1 
REMARK    2  A    between atoms: O_19  and  C_1 
REMARK    3  A    between atoms: C_2  and  C_10 
REMARK    4  A    between atoms: C_15  and  C_3 
REMARK       I    between atoms: C_10  and  N_5 
REMARK    5  A    between atoms: C_16  and  C_9 
REMARK    6  A    between atoms: O_34  and  C_25 
REMARK    7  A    between atoms: O_33  and  C_26 
ROOT
ATOM      1  C   UNL d   1      -3.938  -1.983  -0.225  0.00  0.00     0.086 C 
ATOM      2  C   UNL d   1      -3.908  -1.937   1.171  0.00  0.00     0.010 C 
ATOM      3  S   UNL d   1      -4.059  -3.614  -0.770  0.00  0.00    -0.072 SA
ATOM      4  C   UNL d   1      -3.870  -4.270   0.788  0.00  0.00     0.098 C 
ATOM      5  C   UNL d   1      -3.795  -3.289   1.766  0.00  0.00     0.014 C 
ATOM      6  C   UNL d   1      -3.776  -5.692   0.961  0.00  0.00     0.108 C 
ATOM      7  N   UNL d   1      -3.724  -6.841   1.095  0.00  0.00    -0.191 NA
ENDROOT
BRANCH   5   8
ATOM      8  C   UNL d   1      -3.510  -3.627   3.183  0.00  0.00    -0.023 A 
ATOM      9  C   UNL d   1      -4.184  -4.653   3.863  0.00  0.00     0.015 A 
ATOM     10  C   UNL d   1      -3.848  -4.993   5.186  0.00  0.00     0.037 A 
ATOM     11  C   UNL d   1      -2.871  -4.275   5.871  0.00  0.00     0.068 A 
ATOM     12  C   UNL d   1      -2.229  -3.224   5.220  0.00  0.00     0.037 A 
ATOM     13  C   UNL d   1      -2.520  -2.925   3.885  0.00  0.00     0.015 A 
BRANCH  11  14
ATOM     14  O   UNL d   1      -2.466  -4.480   7.160  0.00  0.00    -0.356 OA
ATOM     15  C   UNL d   1      -2.888  -5.686   7.785  0.00  0.00     0.210 C 
ENDBRANCH  11  14
ENDBRANCH   5   8
BRANCH   1  16
ATOM     16  C   UNL d   1      -3.917  -0.929  -1.257  0.00  0.00     0.262 C 
ATOM     17  N   UNL d   1      -3.298  -1.306  -2.427  0.00  0.00    -0.311 N 
ATOM     18  H   UNL d   1      -2.877  -2.220  -2.478  0.00  0.00     0.166 HD
ATOM     19  O   UNL d   1      -4.385   0.199  -1.132  0.00  0.00    -0.267 OA
BRANCH  17  20
ATOM     20  C   UNL d   1      -3.232  -0.542  -3.630  0.00  0.00     0.269 C 
ATOM     21  C   UNL d   1      -4.564  -0.165  -4.302  0.00  0.00     0.224 C 
ATOM     22  C   UNL d   1      -4.371   1.112  -4.997  0.00  0.00     0.029 A 
ATOM     23  O   UNL d   1      -5.553  -0.872  -4.427  0.00  0.00    -0.286 OA
ATOM     24  C   UNL d   1      -5.208   1.693  -5.935  0.00  0.00     0.016 A 
ATOM     25  C   UNL d   1      -3.108   1.625  -4.714  0.00  0.00     0.029 A 
ATOM     26  C   UNL d   1      -4.732   2.814  -6.619  0.00  0.00     0.001 A 
ATOM     27  C   UNL d   1      -3.443   3.320  -6.360  0.00  0.00     0.001 A 
ATOM     28  C   UNL d   1      -2.619   2.729  -5.393  0.00  0.00     0.016 A 
ATOM     29  C   UNL d   1      -2.414   0.762  -3.744  0.00  0.00     0.224 C 
ATOM     30  O   UNL d   1      -1.345   1.039  -3.228  0.00  0.00    -0.286 OA
BRANCH  20  31
ATOM     31  O   UNL d   1      -2.599  -1.462  -4.536  0.00  0.00    -0.358 OA
ATOM     32  H   UNL d   1      -3.311  -1.937  -5.001  0.00  0.00     0.213 HD
ENDBRANCH  20  31
ENDBRANCH  17  20
ENDBRANCH   1  16
BRANCH   2  33
ATOM     33  C   UNL d   1      -3.806  -0.687   1.943  0.00  0.00    -0.023 A 
ATOM     34  C   UNL d   1      -4.540  -0.537   3.133  0.00  0.00     0.015 A 
ATOM     35  C   UNL d   1      -4.226   0.477   4.051  0.00  0.00     0.037 A 
ATOM     36  C   UNL d   1      -3.208   1.383   3.764  0.00  0.00     0.068 A 
ATOM     37  C   UNL d   1      -2.536   1.289   2.545  0.00  0.00     0.037 A 
ATOM     38  C   UNL d   1      -2.827   0.264   1.640  0.00  0.00     0.015 A 
BRANCH  36  39
ATOM     39  O   UNL d   1      -2.741   2.362   4.596  0.00  0.00    -0.356 OA
ATOM     40  C   UNL d   1      -3.562   2.712   5.701  0.00  0.00     0.210 C 
ENDBRANCH  36  39
ENDBRANCH   2  33
TORSDOF 7
