REMARK  4 active torsions:
REMARK  status: ('A' for Active; 'I' for Inactive)
REMARK    1  A    between atoms: N_8  and  C_3 
REMARK    2  A    between atoms: N_4  and  C_12 
REMARK    3  A    between atoms: C_16  and  C_5 
REMARK    4  A    between atoms: C_7  and  N_8 
ROOT
ATOM      1  N   UNL d   1       1.391  -0.563  -0.282  0.00  0.00    -0.335 N 
ATOM      2  HN  UNL d   1       2.265  -1.021  -0.540  1.00  0.00     0.168 HD
ATOM      3  C   UNL d   1       0.246  -1.188  -0.121  0.00  0.00     0.149 A 
ATOM      4  C   UNL d   1       1.260   0.793  -0.056  0.00  0.00     0.051 A 
ATOM      5  S   UNL d   1      -1.073  -0.155   0.282  0.00  0.00    -0.064 SA
ATOM      6  C   UNL d   1      -0.033   1.209   0.183  0.00  0.00     0.083 A 
ENDROOT
BRANCH   3   7
ATOM      7  N   UNL d   1       0.070  -2.525  -0.233  0.00  0.00    -0.335 N 
ATOM      8  H   UNL d   1      -0.671  -2.966   0.300  0.00  0.00     0.168 HD
BRANCH   7   9
ATOM      9  C   UNL d   1       0.962  -3.409  -0.876  0.00  0.00     0.057 A 
ATOM     10  C   UNL d   1       1.716  -2.993  -1.986  0.00  0.00     0.057 A 
ATOM     11  C   UNL d   1       2.634  -3.844  -2.608  0.00  0.00     0.058 A 
ATOM     12 CL   UNL d   1       3.477  -3.243  -3.990  0.00  0.00    -0.082 Cl
ATOM     13  C   UNL d   1       2.830  -5.133  -2.108  0.00  0.00     0.057 A 
ATOM     14  C   UNL d   1       2.102  -5.566  -0.997  0.00  0.00     0.051 A 
ATOM     15 CL   UNL d   1       3.951  -6.238  -2.817  0.00  0.00    -0.082 Cl
ATOM     16  C   UNL d   1       1.175  -4.712  -0.391  0.00  0.00     0.062 A 
ATOM     17 CL   UNL d   1       0.305  -5.294   0.987  0.00  0.00    -0.082 Cl
ENDBRANCH   7   9
ENDBRANCH   3   7
BRANCH   4  18
ATOM     18  C   UNL d   1       2.436   1.656  -0.076  0.00  0.00    -0.006 A 
ATOM     19  C   UNL d   1       3.574   1.251  -0.791  0.00  0.00     0.049 A 
ATOM     20  C   UNL d   1       4.734   2.036  -0.768  0.00  0.00     0.103 A 
ATOM     21  C   UNL d   1       4.776   3.226  -0.031  0.00  0.00     0.036 A 
ATOM     22  C   UNL d   1       3.648   3.629   0.683  0.00  0.00     0.003 A 
ATOM     23  C   UNL d   1       2.487   2.850   0.661  0.00  0.00     0.014 A 
BRANCH  20  24
ATOM     24  N   UNL d   1       5.922   1.605  -1.512  0.00  0.00    -0.116 N 
ATOM     25  O   UNL d   1       5.846   0.556  -2.170  0.00  0.00    -0.532 OA
ATOM     26  O   UNL d   1       6.936   2.316  -1.442  0.00  0.00    -0.532 OA
ENDBRANCH  20  24
ENDBRANCH   4  18
TORSDOF 4
