REMARK  4 active torsions:
REMARK  status: ('A' for Active; 'I' for Inactive)
REMARK    1  A    between atoms: N_2  and  C_1 
REMARK    2  A    between atoms: C_3  and  C_6 
REMARK    3  A    between atoms: S_7  and  C_4 
REMARK    4  A    between atoms: C_15  and  S_7 
ROOT
ATOM      1  C   UNL d   1       1.419  -0.160  -0.096  0.00  0.00     0.120 A 
ATOM      2  C   UNL d   1       0.647  -1.327  -0.030  0.00  0.00     0.038 A 
ATOM      3  C   UNL d   1       0.846   1.123   0.017  0.00  0.00     0.053 A 
ATOM      4  C   UNL d   1      -0.539   1.261   0.179  0.00  0.00     0.050 A 
ATOM      5  C   UNL d   1      -0.742  -1.170   0.099  0.00  0.00     0.022 A 
ATOM      6  C   UNL d   1      -1.325   0.100   0.203  0.00  0.00     0.017 A 
ENDROOT
BRANCH   2   7
ATOM      7  S   UNL d   1       1.275  -2.997  -0.181  0.00  0.00    -0.088 SA
BRANCH   7   8
ATOM      8  C   UNL d   1       1.449  -3.455   1.538  0.00  0.00     0.005 A 
ATOM      9  C   UNL d   1       0.367  -3.948   2.274  0.00  0.00     0.019 A 
ATOM     10  C   UNL d   1       0.521  -4.278   3.627  0.00  0.00     0.008 A 
ATOM     11  C   UNL d   1       1.760  -4.125   4.260  0.00  0.00    -0.062 A 
ATOM     12  C   UNL d   1       2.847  -3.664   3.514  0.00  0.00     0.008 A 
ATOM     13  C   UNL d   1       1.909  -4.425   5.722  0.00  0.00     0.048 C 
ATOM     14  C   UNL d   1       2.695  -3.344   2.162  0.00  0.00     0.019 A 
ENDBRANCH   7   8
ENDBRANCH   2   7
BRANCH   1  15
ATOM     15  N   UNL d   1       2.848  -0.206  -0.335  0.00  0.00    -0.114 N 
ATOM     16  O   UNL d   1       3.564  -0.709   0.537  0.00  0.00    -0.532 OA
ATOM     17  O   UNL d   1       3.252   0.344  -1.371  0.00  0.00    -0.532 OA
ENDBRANCH   1  15
BRANCH   4  18
ATOM     18  C   UNL d   1      -1.182   2.622   0.313  0.00  0.00     0.417 C 
ATOM     19  F   UNL d   1      -0.284   3.644   0.336  0.00  0.00    -0.166 F 
ATOM     20  F   UNL d   1      -2.037   2.894  -0.709  0.00  0.00    -0.166 F 
ATOM     21  F   UNL d   1      -1.911   2.737   1.456  0.00  0.00    -0.166 F 
ENDBRANCH   4  18
TORSDOF 4
