REMARK  3 active torsions:
REMARK  status: ('A' for Active; 'I' for Inactive)
REMARK    1  A    between atoms: C_8  and  C_2 
REMARK    2  A    between atoms: S_12  and  C_3 
REMARK    3  A    between atoms: C_6  and  C_10 
ROOT
ATOM      1  C   UNL d   1       1.246  -0.947   0.662  0.00  0.00     0.079 A 
ATOM      2  C   UNL d   1      -0.030  -1.292   0.071  0.00  0.00     0.003 A 
ATOM      3  C   UNL d   1       1.488   0.416   0.658  0.00  0.00     0.062 A 
ATOM      4  C   UNL d   1      -0.670  -0.152  -0.385  0.00  0.00     0.065 A 
ATOM      5  S   UNL d   1       0.224   1.275  -0.113  0.00  0.00    -0.092 SA
ATOM      6  C   UNL d   1       2.172  -1.891   1.219  0.00  0.00     0.102 C 
ATOM      7  N   UNL d   1       2.917  -2.663   1.665  0.00  0.00    -0.191 NA
ENDROOT
BRANCH   2   8
ATOM      8  C   UNL d   1      -0.676  -2.610  -0.041  0.00  0.00    -0.023 A 
ATOM      9  C   UNL d   1      -1.471  -2.935  -1.155  0.00  0.00     0.028 A 
ATOM     10  C   UNL d   1      -2.120  -4.181  -1.254  0.00  0.00     0.048 A 
ATOM     11  C   UNL d   1      -1.940  -5.124  -0.234  0.00  0.00     0.016 A 
ATOM     12  C   UNL d   1      -1.151  -4.819   0.872  0.00  0.00     0.002 A 
ATOM     13  C   UNL d   1      -0.539  -3.567   0.974  0.00  0.00     0.012 A 
BRANCH  10  14
ATOM     14  C   UNL d   1      -3.010  -4.509  -2.428  0.00  0.00     0.417 C 
ATOM     15  F   UNL d   1      -3.118  -3.493  -3.329  0.00  0.00    -0.166 F 
ATOM     16  F   UNL d   1      -2.571  -5.589  -3.131  0.00  0.00    -0.166 F 
ATOM     17  F   UNL d   1      -4.284  -4.803  -2.046  0.00  0.00    -0.166 F 
ENDBRANCH  10  14
ENDBRANCH   2   8
BRANCH   3  18
ATOM     18  S   UNL d   1       2.821   1.308   1.394  0.00  0.00    -0.126 SA
ATOM     19  C   UNL d   1       4.235   0.751   0.420  0.00  0.00     0.096 C 
ENDBRANCH   3  18
TORSDOF 3
