REMARK  4 active torsions:
REMARK  status: ('A' for Active; 'I' for Inactive)
REMARK    1  A    between atoms: C_2  and  C_1 
REMARK    2  A    between atoms: C_9  and  C_2 
REMARK    3  A    between atoms: N_10  and  C_3 
REMARK    4  A    between atoms: C_8  and  N_10 
ROOT
ATOM      1  C   UNL d   1       0.968  -0.082  -0.157  0.00  0.00     0.106 C 
ATOM      2  C   UNL d   1       0.225   0.376   0.870  0.00  0.00     0.116 C 
ATOM      3  C   UNL d   1       0.351  -0.601  -1.320  0.00  0.00     0.104 C 
ATOM      4  N   UNL d   1      -0.198  -1.019  -2.255  0.00  0.00    -0.191 NA
ENDROOT
BRANCH   1   5
ATOM      5  C   UNL d   1       2.459   0.012  -0.014  0.00  0.00     0.178 C 
ATOM      6  O   UNL d   1       2.921   0.866   0.753  0.00  0.00    -0.291 OA
BRANCH   5   7
ATOM      7  C   UNL d   1       3.436  -0.879  -0.829  0.00  0.00     0.015 C 
ATOM      8  C   UNL d   1       3.774  -0.154  -2.138  0.00  0.00     0.023 C 
ATOM      9  C   UNL d   1       4.734  -1.024   0.002  0.00  0.00     0.023 C 
ATOM     10  C   UNL d   1       2.947  -2.305  -1.116  0.00  0.00     0.023 C 
ENDBRANCH   5   7
ENDBRANCH   1   5
BRANCH   2  11
ATOM     11  N   UNL d   1      -1.146   0.374   1.046  0.00  0.00    -0.351 N 
ATOM     12  H   UNL d   1      -1.719   0.117   0.249  0.00  0.00     0.166 HD
BRANCH  11  13
ATOM     13  C   UNL d   1      -1.823   1.157   2.002  0.00  0.00     0.104 A 
ATOM     14  N   UNL d   1      -1.178   2.156   2.644  0.00  0.00    -0.351 N 
ATOM     15  C   UNL d   1      -1.850   2.835   3.608  0.00  0.00     0.113 A 
ATOM     16  HN  UNL d   1      -0.214   2.393   2.411  1.00  0.00     0.166 HD
ATOM     17  C   UNL d   1      -3.147   2.549   3.989  0.00  0.00     0.049 A 
ATOM     18  C   UNL d   1      -3.806   1.516   3.338  0.00  0.00     0.029 A 
ATOM     19 CL   UNL d   1      -3.920   3.430   5.242  0.00  0.00    -0.083 Cl
ATOM     20  C   UNL d   1      -3.136   0.815   2.332  0.00  0.00     0.050 A 
ENDBRANCH  11  13
ENDBRANCH   2  11
TORSDOF 4
