REMARK  4 active torsions:
REMARK  status: ('A' for Active; 'I' for Inactive)
REMARK    1  A    between atoms: C_7  and  N_1 
REMARK    2  A    between atoms: C_2  and  S_10 
REMARK    3  A    between atoms: S_10  and  C_15 
REMARK    4  A    between atoms: C_15  and  C_16 
ROOT
ATOM      1  S   UNL d   1      -1.428  -0.637   6.153  0.00  0.00    -0.118 SA
ENDROOT
BRANCH   1   2
ATOM      2  C   UNL d   1      -2.219  -1.563   7.409  0.00  0.00     0.041 C 
ATOM      3  C   UNL d   1      -2.718  -0.868   8.435  0.00  0.00     0.075 C 
ATOM      4  C   UNL d   1      -3.375  -1.429   9.620  0.00  0.00     0.152 C 
ATOM      5  O   UNL d   1      -3.803  -0.640  10.465  0.00  0.00    -0.293 OA
ATOM      6  C   UNL d   1      -3.610  -2.906   9.772  0.00  0.00     0.103 C 
ATOM      7  C   UNL d   1      -2.761  -3.873   8.943  0.00  0.00     0.013 C 
ATOM      8  S   UNL d   1      -2.256  -3.281   7.293  0.00  0.00    -0.113 SA
ATOM      9  C   UNL d   1      -1.510  -4.316   9.722  0.00  0.00     0.027 C 
ATOM     10  C   UNL d   1      -3.618  -5.126   8.656  0.00  0.00     0.027 C 
ENDBRANCH   1   2
BRANCH   1  11
ATOM     11  C   UNL d   1      -2.214  -1.254   4.628  0.00  0.00     0.118 C 
BRANCH  11  12
ATOM     12  C   UNL d   1      -1.713  -0.570   3.366  0.00  0.00    -0.048 A 
ATOM     13  C   UNL d   1      -0.358  -0.235   3.189  0.00  0.00     0.010 A 
ATOM     14  C   UNL d   1       0.089   0.369   2.010  0.00  0.00     0.036 A 
ATOM     15  C   UNL d   1      -0.818   0.615   0.976  0.00  0.00     0.102 A 
ATOM     16  C   UNL d   1      -2.164   0.256   1.113  0.00  0.00     0.036 A 
ATOM     17  C   UNL d   1      -2.604  -0.336   2.303  0.00  0.00     0.010 A 
BRANCH  15  18
ATOM     18  N   UNL d   1      -0.347   1.238  -0.262  0.00  0.00    -0.116 N 
ATOM     19  O   UNL d   1      -1.171   1.401  -1.178  0.00  0.00    -0.532 OA
ATOM     20  O   UNL d   1       0.846   1.581  -0.325  0.00  0.00    -0.532 OA
ENDBRANCH  15  18
ENDBRANCH  11  12
ENDBRANCH   1  11
TORSDOF 4
