REMARK  3 active torsions:
REMARK  status: ('A' for Active; 'I' for Inactive)
REMARK    1  A    between atoms: C_2  and  C_1 
REMARK       I    between atoms: N_5  and  C_1 
REMARK    2  A    between atoms: O_8  and  N_3 
REMARK    3  A    between atoms: C_7  and  N_5 
ROOT
ATOM      1  C   UNL d   1       1.161  -0.260   0.770  0.00  0.00     0.263 C 
ATOM      2  N   UNL d   1       0.332   0.843   0.771  0.00  0.00    -0.322 N 
ATOM      3  O   UNL d   1       0.875  -1.443   0.848  0.00  0.00    -0.267 OA
ATOM      4  H   UNL d   1       0.776   1.751   0.703  0.00  0.00     0.169 HD
ENDROOT
BRANCH   2   5
ATOM      5  C   UNL d   1      -1.073   0.841   0.896  0.00  0.00     0.035 A 
ATOM      6  C   UNL d   1      -1.847  -0.321   0.945  0.00  0.00     0.029 A 
ATOM      7  C   UNL d   1      -3.236  -0.243   1.090  0.00  0.00     0.002 A 
ATOM      8  C   UNL d   1      -3.863   0.995   1.192  0.00  0.00     0.000 A 
ATOM      9  C   UNL d   1      -3.103   2.160   1.140  0.00  0.00     0.002 A 
ATOM     10  C   UNL d   1      -1.715   2.084   0.988  0.00  0.00     0.029 A 
ENDBRANCH   2   5
BRANCH   1  11
ATOM     11  C   UNL d   1       2.621   0.109   0.733  0.00  0.00     0.188 C 
ATOM     12  N   UNL d   1       3.342  -0.145  -0.307  0.00  0.00    -0.275 N 
ATOM     13  HN  UNL d   1       3.012  -0.580  -1.168  1.00  0.00     0.193 HD
BRANCH  12  14
ATOM     14  O   UNL d   1       4.655   0.277  -0.057  0.00  0.00    -0.290 OA
ATOM     15  H   UNL d   1       5.145  -0.104  -0.811  0.00  0.00     0.244 HD
ENDBRANCH  12  14
ENDBRANCH   1  11
TORSDOF 3
