REMARK  8 active torsions:
REMARK  status: ('A' for Active; 'I' for Inactive)
REMARK    1  A    between atoms: C_2  and  C_1 
REMARK    2  A    between atoms: N_3  and  C_1 
REMARK    3  A    between atoms: C_4  and  C_1 
REMARK    4  A    between atoms: N_5  and  C_1 
REMARK       I    between atoms: C_6  and  N_3 
REMARK    5  A    between atoms: O_13  and  C_4 
REMARK    6  A    between atoms: C_12  and  N_5 
REMARK    7  A    between atoms: C_20  and  C_6 
REMARK    8  A    between atoms: C_21  and  O_13 
ROOT
ATOM      1  C   UNL d   1       0.917   0.027   0.118  0.00  0.00     0.296 C 
ENDROOT
BRANCH   1   2
ATOM      2  C   UNL d   1       0.162  -1.356   0.072  0.00  0.00     0.442 C 
ATOM      3  F   UNL d   1      -0.398  -1.670   1.273  0.00  0.00    -0.166 F 
ATOM      4  F   UNL d   1      -0.831  -1.417  -0.847  0.00  0.00    -0.166 F 
ATOM      5  F   UNL d   1       1.007  -2.383  -0.219  0.00  0.00    -0.166 F 
ENDBRANCH   1   2
BRANCH   1   6
ATOM      6  N   UNL d   1       0.557   0.932   1.206  0.00  0.00    -0.319 N 
ATOM      7  C   UNL d   1      -0.743   1.275   1.449  0.00  0.00     0.219 C 
ATOM      8  O   UNL d   1      -1.676   0.783   0.826  0.00  0.00    -0.274 OA
ATOM      9  H   UNL d   1       1.325   1.382   1.683  0.00  0.00     0.165 HD
BRANCH   7  10
ATOM     10  C   UNL d   1      -0.926   2.312   2.530  0.00  0.00     0.098 C 
ATOM     11  C   UNL d   1      -0.596   1.742   3.897  0.00  0.00     0.014 C 
ENDBRANCH   7  10
ENDBRANCH   1   6
BRANCH   1  12
ATOM     12  C   UNL d   1       0.592   0.727  -1.235  0.00  0.00     0.318 C 
ATOM     13  O   UNL d   1       0.204   1.891  -1.351  0.00  0.00    -0.260 OA
BRANCH  12  14
ATOM     14  O   UNL d   1       0.929  -0.057  -2.308  0.00  0.00    -0.318 OA
BRANCH  14  15
ATOM     15  C   UNL d   1       0.528   0.460  -3.589  0.00  0.00     0.174 C 
ATOM     16  C   UNL d   1       1.500   1.514  -4.090  0.00  0.00     0.034 C 
ENDBRANCH  14  15
ENDBRANCH  12  14
ENDBRANCH   1  12
BRANCH   1  17
ATOM     17  N   UNL d   1       2.397  -0.008   0.262  0.00  0.00    -0.348 N 
ATOM     18  H   UNL d   1       2.901   0.576  -0.400  0.00  0.00     0.163 HD
BRANCH  17  19
ATOM     19  C   UNL d   1       3.156  -0.764   1.129  0.00  0.00     0.030 A 
ATOM     20  C   UNL d   1       2.633  -1.478   2.213  0.00  0.00     0.032 A 
ATOM     21  C   UNL d   1       3.447  -2.287   3.012  0.00  0.00     0.044 A 
ATOM     22  C   UNL d   1       4.803  -2.379   2.739  0.00  0.00     0.116 A 
ATOM     23  C   UNL d   1       5.360  -1.670   1.687  0.00  0.00     0.044 A 
ATOM     24  F   UNL d   1       5.581  -3.164   3.496  0.00  0.00    -0.206 F 
ATOM     25  C   UNL d   1       4.538  -0.870   0.889  0.00  0.00     0.032 A 
ENDBRANCH  17  19
ENDBRANCH   1  17
TORSDOF 8
