REMARK  6 active torsions:
REMARK  status: ('A' for Active; 'I' for Inactive)
REMARK    1  A    between atoms: O_2  and  S_1 
REMARK    2  A    between atoms: C_3  and  S_1 
REMARK    3  A    between atoms: C_8  and  O_2 
REMARK    4  A    between atoms: O_9  and  C_10 
REMARK    5  A    between atoms: C_11  and  O_9 
REMARK    6  A    between atoms: C_19  and  C_11 
ROOT
ATOM      1  C   UNL d   1       0.719  -1.419   2.135  0.00  0.00     0.089 A 
ATOM      2  C   UNL d   1       1.594  -3.509   3.791  0.00  0.00     0.069 A 
ATOM      3  C   UNL d   1       2.054  -1.834   2.105  0.00  0.00     0.041 A 
ATOM      4  C   UNL d   1      -0.155  -2.001   3.053  0.00  0.00     0.041 A 
ATOM      5  C   UNL d   1       0.283  -3.042   3.873  0.00  0.00     0.039 A 
ATOM      6  C   UNL d   1       2.492  -2.875   2.933  0.00  0.00     0.039 A 
ENDROOT
BRANCH   1   7
ATOM      7  O   UNL d   1       0.363  -0.448   1.229  0.00  0.00    -0.229 OA
BRANCH   7   8
ATOM      8  S   UNL d   1      -1.199  -0.239   0.792  0.00  0.00     0.303 S 
ATOM      9  O   UNL d   1      -1.844   0.606   1.781  0.00  0.00    -0.193 OA
ATOM     10  O   UNL d   1      -1.776  -1.523   0.434  0.00  0.00    -0.193 OA
BRANCH   8  11
ATOM     11  C   UNL d   1      -1.108   0.696  -0.721  0.00  0.00     0.086 A 
ATOM     12  C   UNL d   1      -0.880   0.018  -1.923  0.00  0.00     0.026 A 
ATOM     13  C   UNL d   1      -0.956   0.715  -3.130  0.00  0.00     0.008 A 
ATOM     14  C   UNL d   1      -1.266   2.081  -3.144  0.00  0.00    -0.062 A 
ATOM     15  C   UNL d   1      -1.475   2.751  -1.931  0.00  0.00     0.008 A 
ATOM     16  C   UNL d   1      -1.409   2.799  -4.455  0.00  0.00     0.048 C 
ATOM     17  C   UNL d   1      -1.401   2.061  -0.719  0.00  0.00     0.026 A 
ENDBRANCH   8  11
ENDBRANCH   7   8
ENDBRANCH   1   7
BRANCH   2  18
ATOM     18  O   UNL d   1       1.885  -4.563   4.611  0.00  0.00    -0.347 OA
BRANCH  18  19
ATOM     19  C   UNL d   1       2.910  -5.448   4.152  0.00  0.00     0.214 C 
BRANCH  19  20
ATOM     20  C   UNL d   1       2.677  -6.850   4.680  0.00  0.00    -0.034 A 
ATOM     21  C   UNL d   1       1.381  -7.352   4.877  0.00  0.00     0.009 A 
ATOM     22  C   UNL d   1       1.182  -8.669   5.296  0.00  0.00     0.001 A 
ATOM     23  C   UNL d   1       2.276  -9.507   5.511  0.00  0.00     0.000 A 
ATOM     24  C   UNL d   1       3.567  -9.025   5.307  0.00  0.00     0.001 A 
ATOM     25  C   UNL d   1       3.767  -7.707   4.891  0.00  0.00     0.009 A 
ENDBRANCH  19  20
ENDBRANCH  18  19
ENDBRANCH   2  18
TORSDOF 6
