REMARK  5 active torsions:
REMARK  status: ('A' for Active; 'I' for Inactive)
REMARK    1  A    between atoms: N_2  and  S_1 
REMARK    2  A    between atoms: C_3  and  S_1 
REMARK    3  A    between atoms: C_6  and  C_9 
REMARK    4  A    between atoms: C_12  and  C_6 
REMARK    5  A    between atoms: C_13  and  C_6 
ROOT
ATOM      1  N   UNL d   1       0.128  -1.491   0.405  0.00  0.00    -0.206 NA
ATOM      2  C   UNL d   1      -0.866  -1.725  -0.680  0.00  0.00     0.108 C 
ATOM      3  C   UNL d   1       1.169  -2.545   0.569  0.00  0.00     0.108 C 
ATOM      4  C   UNL d   1      -0.204  -4.208  -0.783  0.00  0.00     0.001 C 
ATOM      5  C   UNL d   1      -1.335  -3.169  -0.792  0.00  0.00     0.021 C 
ATOM      6  C   UNL d   1       0.601  -3.947   0.491  0.00  0.00     0.021 C 
ENDROOT
BRANCH   4   7
ATOM      7  C   UNL d   1       0.537  -4.382  -2.164  0.00  0.00     0.056 C 
BRANCH   7   8
ATOM      8  C   UNL d   1       1.423  -3.279  -2.758  0.00  0.00    -0.049 A 
ATOM      9  C   UNL d   1       2.811  -3.219  -2.544  0.00  0.00     0.008 A 
ATOM     10  C   UNL d   1       3.620  -2.295  -3.212  0.00  0.00     0.001 A 
ATOM     11  C   UNL d   1       3.057  -1.388  -4.099  0.00  0.00     0.000 A 
ATOM     12  C   UNL d   1       1.683  -1.405  -4.315  0.00  0.00     0.001 A 
ATOM     13  C   UNL d   1       0.877  -2.346  -3.662  0.00  0.00     0.008 A 
ENDBRANCH   7   8
BRANCH   7  14
ATOM     14  C   UNL d   1       1.177  -5.776  -2.310  0.00  0.00    -0.049 A 
ATOM     15  C   UNL d   1       0.779  -6.617  -3.362  0.00  0.00     0.008 A 
ATOM     16  C   UNL d   1       1.392  -7.858  -3.559  0.00  0.00     0.001 A 
ATOM     17  C   UNL d   1       2.417  -8.277  -2.716  0.00  0.00     0.000 A 
ATOM     18  C   UNL d   1       2.825  -7.462  -1.667  0.00  0.00     0.001 A 
ATOM     19  C   UNL d   1       2.205  -6.227  -1.467  0.00  0.00     0.008 A 
ENDBRANCH   7  14
ENDBRANCH   4   7
BRANCH   1  20
ATOM     20  S   UNL d   1       0.898   0.063   0.299  0.00  0.00     0.243 S 
ATOM     21  O   UNL d   1       1.524   0.158  -0.998  0.00  0.00    -0.206 OA
ATOM     22  O   UNL d   1       1.664   0.262   1.514  0.00  0.00    -0.206 OA
BRANCH  20  23
ATOM     23  C   UNL d   1      -0.464   1.191   0.336  0.00  0.00     0.074 A 
ATOM     24  C   UNL d   1      -1.235   1.283   1.496  0.00  0.00     0.025 A 
ATOM     25  C   UNL d   1      -2.318   2.153   1.523  0.00  0.00     0.008 A 
ATOM     26  C   UNL d   1      -2.631   2.936   0.400  0.00  0.00    -0.062 A 
ATOM     27  C   UNL d   1      -1.837   2.842  -0.752  0.00  0.00     0.008 A 
ATOM     28  C   UNL d   1      -3.806   3.865   0.447  0.00  0.00     0.048 C 
ATOM     29  C   UNL d   1      -0.751   1.970  -0.787  0.00  0.00     0.025 A 
ENDBRANCH  20  23
ENDBRANCH   1  20
TORSDOF 5
