REMARK  3 active torsions:
REMARK  status: ('A' for Active; 'I' for Inactive)
REMARK    1  A    between atoms: C_17  and  N_3 
REMARK    2  A    between atoms: C_8  and  C_4 
REMARK       I    between atoms: N_10  and  C_8 
REMARK    3  A    between atoms: C_9  and  N_10 
ROOT
ATOM      1  N   UNL d   1      -0.224  -0.984  -0.206  0.00  0.00    -0.272 N 
ATOM      2  HN  UNL d   1      -0.514  -1.919  -0.491  1.00  0.00     0.189 HD
ATOM      3  N   UNL d   1       1.029  -0.530   0.106  0.00  0.00    -0.196 N 
ATOM      4  C   UNL d   1      -0.979   0.124  -0.038  0.00  0.00     0.141 A 
ATOM      5  N   UNL d   1       1.104   0.758   0.525  0.00  0.00    -0.281 N 
ATOM      6  HN  UNL d   1       1.921   1.274   0.853  1.00  0.00     0.189 HD
ATOM      7  C   UNL d   1      -0.154   1.185   0.405  0.00  0.00     0.057 A 
ATOM      8  C   UNL d   1      -0.503   2.591   0.712  0.00  0.00     0.072 C 
ENDROOT
BRANCH   4   9
ATOM      9  C   UNL d   1      -2.426   0.180  -0.286  0.00  0.00     0.277 C 
ATOM     10  N   UNL d   1      -2.988  -1.054  -0.509  0.00  0.00    -0.300 N 
ATOM     11  H   UNL d   1      -2.376  -1.861  -0.475  0.00  0.00     0.171 HD
ATOM     12  O   UNL d   1      -3.016   1.254  -0.265  0.00  0.00    -0.266 OA
BRANCH  10  13
ATOM     13  C   UNL d   1      -4.319  -1.318  -0.715  0.00  0.00     0.167 A 
ATOM     14  S   UNL d   1      -5.511  -0.099  -0.832  0.00  0.00    -0.046 SA
ATOM     15  C   UNL d   1      -6.664  -1.342  -1.050  0.00  0.00     0.160 A 
ATOM     16  N   UNL d   1      -6.163  -2.556  -1.038  0.00  0.00    -0.303 N 
ATOM     17  N   UNL d   1      -4.791  -2.540  -0.847  0.00  0.00    -0.279 N 
ATOM     18  HN  UNL d   1      -6.715  -3.406  -1.154  1.00  0.00     0.186 HD
ATOM     19  HN  UNL d   1      -4.212  -3.379  -0.812  1.00  0.00     0.189 HD
ENDBRANCH  10  13
ENDBRANCH   4   9
BRANCH   3  20
ATOM     20  C   UNL d   1       2.204  -1.318  -0.030  0.00  0.00     0.074 A 
ATOM     21  C   UNL d   1       2.148  -2.610  -0.564  0.00  0.00     0.033 A 
ATOM     22  C   UNL d   1       3.328  -3.344  -0.727  0.00  0.00     0.002 A 
ATOM     23  C   UNL d   1       4.557  -2.798  -0.351  0.00  0.00     0.000 A 
ATOM     24  C   UNL d   1       4.615  -1.517   0.193  0.00  0.00     0.002 A 
ATOM     25  C   UNL d   1       3.444  -0.776   0.352  0.00  0.00     0.033 A 
ENDBRANCH   3  20
TORSDOF 3
