REMARK  2 active torsions:
REMARK  status: ('A' for Active; 'I' for Inactive)
REMARK    1  A    between atoms: C_4  and  C_1 
REMARK    2  A    between atoms: O_8  and  C_4 
ROOT
ATOM      1  C   UNL d   1       2.159  -0.943  -0.015  0.00  0.00     0.080 A 
ATOM      2  S   UNL d   1       1.792   0.724  -0.006  0.00  0.00    -0.083 SA
ATOM      3  C   UNL d   1       1.007  -1.704  -0.015  0.00  0.00     0.038 A 
ATOM      4  C   UNL d   1       0.093   0.443  -0.004  0.00  0.00     0.016 A 
ATOM      5  C   UNL d   1      -0.195  -0.923  -0.009  0.00  0.00    -0.018 A 
ATOM      6  C   UNL d   1      -0.930   1.411   0.003  0.00  0.00     0.019 A 
ATOM      7  C   UNL d   1      -1.552  -1.323  -0.008  0.00  0.00     0.013 A 
ATOM      8  C   UNL d   1      -2.261   0.986   0.003  0.00  0.00     0.001 A 
ATOM      9  C   UNL d   1      -2.571  -0.366  -0.003  0.00  0.00     0.001 A 
ENDROOT
BRANCH   1  10
ATOM     10  C   UNL d   1       3.522  -1.444  -0.022  0.00  0.00     0.183 C 
ATOM     11  O   UNL d   1       3.835  -2.627  -0.028  0.00  0.00    -0.646 OA
BRANCH  10  12
ATOM     12  O   UNL d   1       4.458  -0.461  -0.022  0.00  0.00    -0.772 OA
ATOM     13  H   UNL d   1       4.048   0.426  -0.017  0.00  0.00     0.167 HD
ENDBRANCH  10  12
ENDBRANCH   1  10
TORSDOF 2
