REMARK  8 active torsions:
REMARK  status: ('A' for Active; 'I' for Inactive)
REMARK    1  A    between atoms: S_2  and  C_1 
REMARK    2  A    between atoms: O_8  and  S_2 
REMARK    3  A    between atoms: S_3  and  C_4 
REMARK    4  A    between atoms: O_9  and  S_3 
REMARK    5  A    between atoms: C_15  and  O_8 
REMARK    6  A    between atoms: C_16  and  O_9 
REMARK    7  A    between atoms: O_27  and  C_17 
REMARK    8  A    between atoms: O_28  and  C_18 
ROOT
ATOM      1  C   UNL d   1      -0.360   1.493   0.177  0.00  0.00     0.117 A 
ATOM      2  C   UNL d   1      -2.255   0.088   0.103  0.00  0.00     0.130 A 
ATOM      3  C   UNL d   1      -1.799   1.399   0.138  0.00  0.00     0.061 A 
ATOM      4  C   UNL d   1       0.200   0.241   0.197  0.00  0.00     0.100 A 
ATOM      5  S   UNL d   1      -0.945  -1.013   0.173  0.00  0.00    -0.062 SA
ATOM      6 CL   UNL d   1       1.857  -0.235   0.216  0.00  0.00    -0.074 Cl
ENDROOT
BRANCH   1   7
ATOM      7  S   UNL d   1       0.500   3.005   0.103  0.00  0.00     0.305 S 
ATOM      8  O   UNL d   1       1.783   2.670  -0.476  0.00  0.00    -0.193 OA
ATOM      9  O   UNL d   1      -0.435   3.892  -0.559  0.00  0.00    -0.193 OA
BRANCH   7  10
ATOM     10  O   UNL d   1       0.650   3.422   1.675  0.00  0.00    -0.229 OA
BRANCH  10  11
ATOM     11  C   UNL d   1       1.332   4.566   2.035  0.00  0.00     0.089 A 
ATOM     12  C   UNL d   1       0.930   5.210   3.209  0.00  0.00     0.041 A 
ATOM     13  C   UNL d   1       1.607   6.352   3.665  0.00  0.00     0.039 A 
ATOM     14  C   UNL d   1       2.707   6.850   2.965  0.00  0.00     0.068 A 
ATOM     15  C   UNL d   1       3.109   6.204   1.798  0.00  0.00     0.039 A 
ATOM     16  C   UNL d   1       2.427   5.072   1.333  0.00  0.00     0.041 A 
BRANCH  14  17
ATOM     17  O   UNL d   1       3.461   7.935   3.317  0.00  0.00    -0.356 OA
ATOM     18  C   UNL d   1       3.099   8.597   4.524  0.00  0.00     0.210 C 
ENDBRANCH  14  17
ENDBRANCH  10  11
ENDBRANCH   7  10
ENDBRANCH   1   7
BRANCH   2  19
ATOM     19  S   UNL d   1      -3.900  -0.631   0.073  0.00  0.00     0.309 S 
ATOM     20  O   UNL d   1      -3.776  -1.907   0.747  0.00  0.00    -0.192 OA
ATOM     21  O   UNL d   1      -4.747   0.432   0.574  0.00  0.00    -0.192 OA
BRANCH  19  22
ATOM     22  O   UNL d   1      -4.162  -0.840  -1.530  0.00  0.00    -0.229 OA
BRANCH  22  23
ATOM     23  C   UNL d   1      -5.341  -1.400  -1.977  0.00  0.00     0.089 A 
ATOM     24  C   UNL d   1      -5.827  -0.965  -3.212  0.00  0.00     0.041 A 
ATOM     25  C   UNL d   1      -7.025  -1.488  -3.733  0.00  0.00     0.039 A 
ATOM     26  C   UNL d   1      -7.725  -2.465  -3.039  0.00  0.00     0.068 A 
ATOM     27  C   UNL d   1      -7.207  -2.949  -1.837  0.00  0.00     0.039 A 
ATOM     28  C   UNL d   1      -6.031  -2.408  -1.302  0.00  0.00     0.041 A 
BRANCH  26  29
ATOM     29  O   UNL d   1      -8.885  -3.063  -3.464  0.00  0.00    -0.356 OA
ATOM     30  C   UNL d   1      -9.736  -2.243  -4.261  0.00  0.00     0.210 C 
ENDBRANCH  26  29
ENDBRANCH  22  23
ENDBRANCH  19  22
ENDBRANCH   2  19
TORSDOF 8
