REMARK  4 active torsions:
REMARK  status: ('A' for Active; 'I' for Inactive)
REMARK    1  A    between atoms: C_2  and  C_1 
REMARK    2  A    between atoms: C_3  and  C_1 
REMARK       I    between atoms: N_6  and  C_2 
REMARK    3  A    between atoms: C_4  and  C_3 
REMARK    4  A    between atoms: C_14  and  N_6 
ROOT
ATOM      1  C   UNL d   1       1.212   0.125  -0.100  0.00  0.00     0.259 C 
ATOM      2  C   UNL d   1       1.310   0.792  -1.395  0.00  0.00     0.081 C 
ATOM      3  N   UNL d   1       1.372   1.329  -2.423  0.00  0.00    -0.196 NA
ENDROOT
BRANCH   1   4
ATOM      4  C   UNL d   1       0.634   1.016   0.983  0.00  0.00     0.247 C 
ATOM      5  N   UNL d   1      -0.199   2.054   0.591  0.00  0.00    -0.326 N 
ATOM      6  H   UNL d   1      -0.611   2.020  -0.337  0.00  0.00     0.169 HD
ATOM      7  O   UNL d   1       0.921   0.762   2.156  0.00  0.00    -0.271 OA
BRANCH   5   8
ATOM      8  C   UNL d   1      -0.711   3.070   1.433  0.00  0.00     0.034 A 
ATOM      9  C   UNL d   1      -0.175   3.372   2.688  0.00  0.00     0.029 A 
ATOM     10  C   UNL d   1      -0.760   4.352   3.495  0.00  0.00     0.002 A 
ATOM     11  C   UNL d   1      -1.883   5.044   3.053  0.00  0.00     0.000 A 
ATOM     12  C   UNL d   1      -2.399   4.783   1.786  0.00  0.00     0.002 A 
ATOM     13  C   UNL d   1      -1.805   3.812   0.972  0.00  0.00     0.029 A 
ENDBRANCH   5   8
ENDBRANCH   1   4
BRANCH   1  14
ATOM     14  C   UNL d   1       0.434  -1.166  -0.267  0.00  0.00     0.193 C 
ATOM     15  O   UNL d   1      -0.792  -1.161  -0.122  0.00  0.00    -0.290 OA
BRANCH  14  16
ATOM     16  C   UNL d   1       1.143  -2.389  -0.663  0.00  0.00     0.052 A 
ATOM     17  S   UNL d   1       2.818  -2.416  -1.031  0.00  0.00    -0.098 SA
ATOM     18  C   UNL d   1       2.802  -4.085  -1.380  0.00  0.00     0.050 A 
ATOM     19  C   UNL d   1       1.544  -4.627  -1.228  0.00  0.00     0.009 A 
ATOM     20  C   UNL d   1       0.591  -3.649  -0.819  0.00  0.00     0.023 A 
ENDBRANCH  14  16
ENDBRANCH   1  14
TORSDOF 4
