REMARK  7 active torsions:
REMARK  status: ('A' for Active; 'I' for Inactive)
REMARK    1  A    between atoms: C_16  and  C_3 
REMARK    2  A    between atoms: C_14  and  C_4 
REMARK    3  A    between atoms: S_7  and  N_11 
REMARK    4  A    between atoms: C_20  and  S_7 
REMARK    5  A    between atoms: N_11  and  C_15 
REMARK    6  A    between atoms: C_19  and  C_13 
REMARK       I    between atoms: N_17  and  C_14 
REMARK    7  A    between atoms: C_15  and  N_17 
ROOT
ATOM      1  C   UNL d   1      -0.300  -2.737   1.321  0.00  0.00     0.145 A 
ATOM      2  N   UNL d   1      -1.577  -3.281   1.551  0.00  0.00    -0.234 N 
ATOM      3  C   UNL d   1      -2.706  -2.474   1.495  0.00  0.00     0.144 A 
ATOM      4  C   UNL d   1       0.597  -3.787   1.393  0.00  0.00     0.095 A 
ATOM      5  N   UNL d   1      -0.109  -1.402   1.080  0.00  0.00    -0.336 N 
ATOM      6  HN  UNL d   1       0.826  -1.020   0.937  1.00  0.00     0.167 HD
ATOM      7  C   UNL d   1      -2.567  -1.162   1.222  0.00  0.00     0.071 A 
ATOM      8  N   UNL d   1      -1.498  -4.606   1.798  0.00  0.00    -0.302 N 
ATOM      9  HN  UNL d   1      -2.264  -5.242   2.022  1.00  0.00     0.186 HD
ATOM     10  C   UNL d   1      -1.170  -0.633   1.041  0.00  0.00     0.120 A 
ATOM     11  C   UNL d   1      -0.208  -4.905   1.686  0.00  0.00     0.128 A 
ENDROOT
BRANCH   4  12
ATOM     12  C   UNL d   1       2.039  -3.804   1.204  0.00  0.00     0.263 C 
ATOM     13  N   UNL d   1       2.601  -2.588   0.882  0.00  0.00    -0.299 N 
ATOM     14  H   UNL d   1       1.984  -1.782   0.894  0.00  0.00     0.171 HD
ATOM     15  O   UNL d   1       2.657  -4.852   1.358  0.00  0.00    -0.267 OA
BRANCH  13  16
ATOM     16  C   UNL d   1       3.848  -2.332   0.360  0.00  0.00     0.186 C 
ATOM     17  S   UNL d   1       5.114  -3.386   0.107  0.00  0.00    -0.040 SA
BRANCH  16  18
ATOM     18  N   UNL d   1       4.146  -1.018  -0.007  0.00  0.00    -0.289 N 
ATOM     19  HN  UNL d   1       5.024  -0.610   0.315  1.00  0.00     0.178 HD
BRANCH  18  20
ATOM     20  S   UNL d   1       3.213  -0.158  -0.871  0.00  0.00     0.054 S 
ATOM     21  O   UNL d   1       1.878   0.203  -0.429  0.00  0.00    -0.245 OA
ATOM     22  C   UNL d   1       4.027   1.360  -1.268  0.00  0.00     0.142 C 
BRANCH  20  23
ATOM     23  C   UNL d   1       2.998  -1.031  -2.410  0.00  0.00     0.038 A 
ATOM     24  C   UNL d   1       1.761  -1.633  -2.668  0.00  0.00     0.022 A 
ATOM     25  C   UNL d   1       1.582  -2.372  -3.836  0.00  0.00     0.008 A 
ATOM     26  C   UNL d   1       2.629  -2.509  -4.756  0.00  0.00    -0.062 A 
ATOM     27  C   UNL d   1       3.861  -1.898  -4.488  0.00  0.00     0.008 A 
ATOM     28  C   UNL d   1       2.420  -3.325  -5.998  0.00  0.00     0.048 C 
ATOM     29  C   UNL d   1       4.053  -1.163  -3.313  0.00  0.00     0.022 A 
ENDBRANCH  20  23
ENDBRANCH  18  20
ENDBRANCH  16  18
ENDBRANCH  13  16
ENDBRANCH   4  12
BRANCH   3  30
ATOM     30  C   UNL d   1      -4.034  -3.093   1.741  0.00  0.00     0.434 C 
ATOM     31  F   UNL d   1      -4.139  -4.405   1.437  0.00  0.00    -0.165 F 
ATOM     32  F   UNL d   1      -4.405  -2.941   3.038  0.00  0.00    -0.165 F 
ATOM     33  F   UNL d   1      -4.994  -2.465   1.004  0.00  0.00    -0.165 F 
ENDBRANCH   3  30
BRANCH  10  34
ATOM     34  C   UNL d   1      -1.051   0.882   0.793  0.00  0.00     0.432 C 
ATOM     35  F   UNL d   1      -2.205   1.537   1.119  0.00  0.00    -0.165 F 
ATOM     36  F   UNL d   1      -0.072   1.466   1.532  0.00  0.00    -0.165 F 
ATOM     37  F   UNL d   1      -0.819   1.176  -0.513  0.00  0.00    -0.165 F 
ENDBRANCH  10  34
TORSDOF 7
