REMARK  7 active torsions:
REMARK  status: ('A' for Active; 'I' for Inactive)
REMARK    1  A    between atoms: S_2  and  C_1 
REMARK    2  A    between atoms: C_15  and  S_2 
REMARK    3  A    between atoms: S_17  and  C_3 
REMARK    4  A    between atoms: C_8  and  C_5 
REMARK       I    between atoms: N_7  and  C_8 
REMARK    5  A    between atoms: C_9  and  N_7 
REMARK    6  A    between atoms: N_10  and  C_9 
REMARK    7  A    between atoms: C_13  and  N_10 
ROOT
ATOM      1  N   UNL d   1      -1.070  -2.859  -1.135  0.00  0.00    -0.299 N 
ATOM      2  C   UNL d   1      -0.382  -2.204  -0.106  0.00  0.00     0.264 C 
ATOM      3  O   UNL d   1       0.010  -2.901   0.829  0.00  0.00    -0.267 OA
ATOM      4  H   UNL d   1      -0.886  -3.852  -1.034  0.00  0.00     0.171 HD
ENDROOT
BRANCH   2   5
ATOM      5  C   UNL d   1       0.057  -0.819  -0.272  0.00  0.00     0.075 C 
ATOM      6  C   UNL d   1       1.203  -0.263   0.280  0.00  0.00     0.050 C 
ATOM      7  C   UNL d   1       1.428   1.101  -0.121  0.00  0.00     0.084 C 
ATOM      8  C   UNL d   1       0.329   1.614  -0.786  0.00  0.00     0.063 C 
ATOM      9  S   UNL d   1      -0.746   0.344  -1.210  0.00  0.00    -0.076 SA
BRANCH   7  10
ATOM     10  S   UNL d   1       2.878   1.977   0.255  0.00  0.00     0.180 S 
ATOM     11  O   UNL d   1       3.095   2.859  -0.872  0.00  0.00    -0.222 OA
ATOM     12  O   UNL d   1       2.624   2.477   1.593  0.00  0.00    -0.222 OA
BRANCH  10  13
ATOM     13  C   UNL d   1       4.237   0.816   0.312  0.00  0.00     0.105 C 
ATOM     14  C   UNL d   1       4.422   0.075  -1.010  0.00  0.00     0.026 C 
ATOM     15  C   UNL d   1       5.522   1.568   0.664  0.00  0.00     0.026 C 
ENDBRANCH  10  13
ENDBRANCH   7  10
BRANCH   8  16
ATOM     16  S   UNL d   1      -0.089   3.232  -1.345  0.00  0.00    -0.126 SA
ATOM     17  C   UNL d   1       0.446   4.330  -0.015  0.00  0.00     0.096 C 
ENDBRANCH   8  16
ENDBRANCH   2   5
BRANCH   1  18
ATOM     18  C   UNL d   1      -2.353  -2.739  -1.685  0.00  0.00     0.179 C 
ATOM     19  S   UNL d   1      -3.557  -1.652  -1.308  0.00  0.00    -0.040 SA
BRANCH  18  20
ATOM     20  N   UNL d   1      -2.491  -3.631  -2.740  0.00  0.00    -0.332 N 
ATOM     21  H   UNL d   1      -2.441  -3.210  -3.668  0.00  0.00     0.168 HD
BRANCH  20  22
ATOM     22  C   UNL d   1      -3.313  -4.792  -2.710  0.00  0.00     0.056 A 
ATOM     23  C   UNL d   1      -3.631  -5.442  -3.914  0.00  0.00     0.060 A 
ATOM     24 CL   UNL d   1      -3.019  -4.871  -5.428  0.00  0.00    -0.082 Cl
ATOM     25  C   UNL d   1      -4.445  -6.576  -3.916  0.00  0.00     0.026 A 
ATOM     26  C   UNL d   1      -4.949  -7.072  -2.713  0.00  0.00     0.002 A 
ATOM     27  C   UNL d   1      -4.627  -6.439  -1.510  0.00  0.00     0.002 A 
ATOM     28  C   UNL d   1      -3.802  -5.311  -1.507  0.00  0.00     0.031 A 
ENDBRANCH  20  22
ENDBRANCH  18  20
ENDBRANCH   1  18
TORSDOF 7
