REMARK  8 active torsions:
REMARK  status: ('A' for Active; 'I' for Inactive)
REMARK    1  A    between atoms: C_2  and  S_1 
REMARK    2  A    between atoms: N_5  and  S_1 
REMARK    3  A    between atoms: C_8  and  C_4 
REMARK    4  A    between atoms: C_11  and  N_5 
REMARK    5  A    between atoms: C_12  and  N_5 
REMARK    6  A    between atoms: O_15  and  C_8 
REMARK    7  A    between atoms: C_17  and  C_11 
REMARK    8  A    between atoms: C_16  and  C_12 
ROOT
ATOM      1  N   UNL d   1       0.377  -1.476   0.001  0.00  0.00    -0.297 N 
ENDROOT
BRANCH   1   2
ATOM      2  S   UNL d   1       1.146   0.011  -0.278  0.00  0.00     0.277 S 
ATOM      3  O   UNL d   1       2.569  -0.208  -0.121  0.00  0.00    -0.199 OA
ATOM      4  O   UNL d   1       0.641   0.608  -1.496  0.00  0.00    -0.199 OA
BRANCH   2   5
ATOM      5  C   UNL d   1       0.761   1.121   1.070  0.00  0.00     0.151 C 
ATOM      6  N   UNL d   1       0.117   2.348   0.995  0.00  0.00    -0.335 N 
ATOM      7  C   UNL d   1       0.224   3.029   2.213  0.00  0.00     0.109 C 
ATOM      8  C   UNL d   1      -0.562   2.899  -0.166  0.00  0.00     0.157 C 
ATOM      9  C   UNL d   1       0.795   2.130   3.104  0.00  0.00     0.039 C 
ATOM     10  C   UNL d   1       1.118   0.955   2.399  0.00  0.00     0.046 C 
BRANCH   7  11
ATOM     11  C   UNL d   1      -0.195   4.412   2.418  0.00  0.00     0.193 C 
ATOM     12  O   UNL d   1      -0.669   5.148   1.566  0.00  0.00    -0.645 OA
BRANCH  11  13
ATOM     13  O   UNL d   1      -0.005   4.850   3.687  0.00  0.00    -0.772 OA
ATOM     14  H   UNL d   1       0.411   4.205   4.279  0.00  0.00     0.167 HD
ENDBRANCH  11  13
ENDBRANCH   7  11
ENDBRANCH   2   5
ENDBRANCH   1   2
BRANCH   1  15
ATOM     15  C   UNL d   1      -1.073  -1.479   0.266  0.00  0.00     0.174 C 
BRANCH  15  16
ATOM     16  C   UNL d   1      -2.040  -0.946  -0.770  0.00  0.00    -0.040 A 
ATOM     17  C   UNL d   1      -1.816  -1.044  -2.148  0.00  0.00     0.009 A 
ATOM     18  C   UNL d   1      -2.787  -0.651  -3.071  0.00  0.00     0.001 A 
ATOM     19  C   UNL d   1      -4.002  -0.140  -2.630  0.00  0.00     0.000 A 
ATOM     20  C   UNL d   1      -4.241  -0.011  -1.265  0.00  0.00     0.001 A 
ATOM     21  C   UNL d   1      -3.270  -0.415  -0.343  0.00  0.00     0.009 A 
ENDBRANCH  15  16
ENDBRANCH   1  15
BRANCH   1  22
ATOM     22  C   UNL d   1       0.976  -2.572  -0.799  0.00  0.00     0.174 C 
BRANCH  22  23
ATOM     23  C   UNL d   1       0.406  -3.978  -0.760  0.00  0.00    -0.040 A 
ATOM     24  C   UNL d   1      -0.539  -4.394  -1.712  0.00  0.00     0.009 A 
ATOM     25  C   UNL d   1      -0.876  -5.742  -1.852  0.00  0.00     0.001 A 
ATOM     26  C   UNL d   1      -0.278  -6.697  -1.038  0.00  0.00     0.000 A 
ATOM     27  C   UNL d   1       0.621  -6.298  -0.050  0.00  0.00     0.001 A 
ATOM     28  C   UNL d   1       0.950  -4.946   0.100  0.00  0.00     0.009 A 
ENDBRANCH  22  23
ENDBRANCH   1  22
TORSDOF 8
