REMARK  7 active torsions:
REMARK  status: ('A' for Active; 'I' for Inactive)
REMARK    1  A    between atoms: C_9  and  N_1 
REMARK    2  A    between atoms: S_2  and  N_10 
REMARK    3  A    between atoms: C_22  and  S_2 
REMARK    4  A    between atoms: C_14  and  C_6 
REMARK    5  A    between atoms: C_8  and  C_9 
REMARK    6  A    between atoms: N_10  and  N_16 
REMARK    7  A    between atoms: C_17  and  C_14 
REMARK       I    between atoms: N_16  and  C_17 
ROOT
ATOM      1  N   UNL d   1       2.481  -0.317   1.159  0.00  0.00    -0.251 N 
ATOM      2  N   UNL d   1       2.403   1.024   0.882  0.00  0.00    -0.298 N 
ATOM      3  HN  UNL d   1       3.242   1.603   0.918  1.00  0.00     0.187 HD
ATOM      4  C   UNL d   1       1.411  -1.194   0.967  0.00  0.00     0.273 C 
ATOM      5  C   UNL d   1       1.260   1.555   0.574  0.00  0.00     0.046 C 
ATOM      6  C   UNL d   1       0.102  -0.589   0.644  0.00  0.00     0.046 A 
ATOM      7  C   UNL d   1      -0.003   0.792   0.510  0.00  0.00     0.004 A 
ATOM      8  O   UNL d   1       1.505  -2.420   1.031  0.00  0.00    -0.266 OA
ATOM      9  C   UNL d   1      -1.027  -1.399   0.453  0.00  0.00     0.018 A 
ATOM     10  C   UNL d   1      -1.254   1.374   0.262  0.00  0.00     0.014 A 
ATOM     11  C   UNL d   1      -2.262  -0.822   0.156  0.00  0.00     0.001 A 
ATOM     12  C   UNL d   1      -2.379   0.564   0.079  0.00  0.00     0.001 A 
ENDROOT
BRANCH   5  13
ATOM     13  C   UNL d   1       1.310   3.012   0.184  0.00  0.00     0.163 C 
BRANCH  13  14
ATOM     14  C   UNL d   1       1.638   3.973   1.294  0.00  0.00     0.238 C 
ATOM     15  N   UNL d   1       2.419   3.470   2.319  0.00  0.00    -0.278 N 
ATOM     16  H   UNL d   1       2.961   2.609   2.168  0.00  0.00     0.184 HD
ATOM     17  O   UNL d   1       1.279   5.148   1.211  0.00  0.00    -0.272 OA
BRANCH  15  18
ATOM     18  N   UNL d   1       2.933   4.420   3.318  0.00  0.00    -0.123 NA
ATOM     19  H   UNL d   1       3.895   4.232   3.615  0.00  0.00     0.166 HD
BRANCH  18  20
ATOM     20  S   UNL d   1       2.038   4.559   4.779  0.00  0.00     0.258 S 
ATOM     21  O   UNL d   1       1.812   3.209   5.253  0.00  0.00    -0.204 OA
ATOM     22  O   UNL d   1       2.749   5.515   5.603  0.00  0.00    -0.204 OA
BRANCH  20  23
ATOM     23  C   UNL d   1       0.479   5.271   4.344  0.00  0.00     0.076 A 
ATOM     24  C   UNL d   1      -0.699   4.599   4.690  0.00  0.00     0.025 A 
ATOM     25  C   UNL d   1      -1.934   5.185   4.413  0.00  0.00     0.002 A 
ATOM     26  C   UNL d   1      -1.989   6.429   3.785  0.00  0.00     0.000 A 
ATOM     27  C   UNL d   1      -0.810   7.091   3.432  0.00  0.00     0.002 A 
ATOM     28  C   UNL d   1       0.430   6.518   3.721  0.00  0.00     0.025 A 
ENDBRANCH  20  23
ENDBRANCH  18  20
ENDBRANCH  15  18
ENDBRANCH  13  14
ENDBRANCH   5  13
BRANCH   1  29
ATOM     29  C   UNL d   1       3.838  -0.867   1.250  0.00  0.00     0.217 C 
BRANCH  29  30
ATOM     30  C   UNL d   1       4.624  -0.440   2.466  0.00  0.00     0.071 A 
ATOM     31  N   UNL d   1       4.504   0.669   3.181  0.00  0.00    -0.356 N 
ATOM     32  C   UNL d   1       5.451   0.683   4.204  0.00  0.00     0.012 A 
ATOM     33  HN  UNL d   1       3.820   1.405   3.008  1.00  0.00     0.166 HD
ATOM     34  C   UNL d   1       5.467   1.795   5.190  0.00  0.00     0.068 C 
ATOM     35  C   UNL d   1       6.323  -0.387   4.206  0.00  0.00     0.076 A 
ATOM     36  S   UNL d   1       5.936  -1.467   2.946  0.00  0.00    -0.085 SA
ENDBRANCH  29  30
ENDBRANCH   1  29
TORSDOF 7
