REMARK  3 active torsions:
REMARK  status: ('A' for Active; 'I' for Inactive)
REMARK    1  A    between atoms: N_6  and  C_1 
REMARK    2  A    between atoms: C_12  and  C_2 
REMARK    3  A    between atoms: C_3  and  N_13 
REMARK       I    between atoms: C_11  and  N_6 
REMARK       I    between atoms: N_13  and  C_11 
ROOT
ATOM      1  N   UNL d   1       2.668   1.911   0.230  0.00  0.00    -0.288 N 
ATOM      2  C   UNL d   1       2.149   3.179  -0.115  0.00  0.00     0.328 C 
ATOM      3  N   UNL d   1       3.077   4.220   0.012  0.00  0.00    -0.304 N 
ATOM      4  O   UNL d   1       0.997   3.360  -0.507  0.00  0.00    -0.246 OA
ATOM      5  C   UNL d   1       3.902   1.788   0.999  0.00  0.00     0.163 C 
ATOM      6  H   UNL d   1       4.001   3.972  -0.308  0.00  0.00     0.171 HD
ENDROOT
BRANCH   3   7
ATOM      7  C   UNL d   1       2.694   5.534  -0.269  0.00  0.00     0.097 A 
ATOM      8  C   UNL d   1       3.310   6.494  -1.149  0.00  0.00     0.097 A 
ATOM      9  N   UNL d   1       2.614   7.642  -1.121  0.00  0.00    -0.258 N 
ATOM     10  O   UNL d   1       1.597   7.470  -0.209  0.00  0.00    -0.240 OA
ATOM     11  HN  UNL d   1       2.802   8.481  -1.671  1.00  0.00     0.195 HD
ATOM     12  C   UNL d   1       1.639   6.212   0.299  0.00  0.00     0.101 A 
ATOM     13  C   UNL d   1       0.645   5.909   1.349  0.00  0.00     0.081 C 
BRANCH   8  14
ATOM     14  C   UNL d   1       4.483   6.343  -2.028  0.00  0.00     0.038 A 
ATOM     15  C   UNL d   1       4.633   5.220  -2.868  0.00  0.00     0.048 A 
ATOM     16 CL   UNL d   1       3.374   4.075  -3.162  0.00  0.00    -0.083 Cl
ATOM     17  C   UNL d   1       5.809   4.999  -3.599  0.00  0.00     0.025 A 
ATOM     18  C   UNL d   1       6.831   5.936  -3.584  0.00  0.00     0.003 A 
ATOM     19  C   UNL d   1       6.667   7.104  -2.849  0.00  0.00     0.025 A 
ATOM     20  C   UNL d   1       5.514   7.307  -2.069  0.00  0.00     0.048 A 
ATOM     21 CL   UNL d   1       5.478   8.791  -1.175  0.00  0.00    -0.083 Cl
ENDBRANCH   8  14
ENDBRANCH   3   7
BRANCH   1  22
ATOM     22  C   UNL d   1       1.800   0.804   0.081  0.00  0.00     0.136 A 
ATOM     23  N   UNL d   1       1.145   0.444  -1.081  0.00  0.00    -0.280 N 
ATOM     24  N   UNL d   1       0.458  -0.719  -0.973  0.00  0.00    -0.301 N 
ATOM     25  C   UNL d   1       1.268   0.978  -2.414  0.00  0.00     0.179 C 
ATOM     26  C   UNL d   1       0.616  -1.063   0.300  0.00  0.00     0.036 A 
ATOM     27  HN  UNL d   1      -0.060  -1.215  -1.699  1.00  0.00     0.187 HD
ATOM     28  C   UNL d   1       1.446  -0.162   1.009  0.00  0.00     0.012 A 
ATOM     29  C   UNL d   1      -0.008  -2.277   0.890  0.00  0.00     0.059 C 
ATOM     30  C   UNL d   1       1.677  -0.287   2.477  0.00  0.00     0.044 C 
ATOM     31  C   UNL d   1       1.276  -1.679   3.002  0.00  0.00     0.005 C 
ATOM     32  C   UNL d   1      -0.063  -2.165   2.421  0.00  0.00     0.006 C 
ENDBRANCH   1  22
TORSDOF 3
