REMARK  4 active torsions:
REMARK  status: ('A' for Active; 'I' for Inactive)
REMARK    1  A    between atoms: C_6  and  C_1 
REMARK    2  A    between atoms: C_7  and  C_3 
REMARK    3  A    between atoms: O_11  and  C_6 
REMARK    4  A    between atoms: C_14  and  O_11 
ROOT
ATOM      1  C   UNL d   1       1.134   0.241   0.031  0.00  0.00     0.115 A 
ATOM      2  C   UNL d   1      -0.020   1.016   0.033  0.00  0.00    -0.013 A 
ATOM      3  C   UNL d   1      -1.167   0.123   0.038  0.00  0.00     0.040 A 
ATOM      4  N   UNL d   1       0.723  -1.068   0.060  0.00  0.00    -0.354 N 
ATOM      5  C   UNL d   1      -0.646  -1.170   0.043  0.00  0.00     0.020 A 
ATOM      6  C   UNL d   1      -0.087   2.511  -0.002  0.00  0.00     0.052 C 
ATOM      7  C   UNL d   1      -1.257  -2.527   0.025  0.00  0.00     0.069 C 
ATOM      8  H   UNL d   1       1.370  -1.848   0.052  0.00  0.00     0.166 HD
ENDROOT
BRANCH   1   9
ATOM      9  C   UNL d   1       2.525   0.638  -0.045  0.00  0.00     0.310 C 
ATOM     10  O   UNL d   1       2.952   1.780  -0.100  0.00  0.00    -0.258 OA
BRANCH   9  11
ATOM     11  O   UNL d   1       3.300  -0.484  -0.150  0.00  0.00    -0.317 OA
BRANCH  11  12
ATOM     12  C   UNL d   1       4.615  -0.252  -0.672  0.00  0.00     0.175 C 
ATOM     13  C   UNL d   1       4.537  -0.333  -2.187  0.00  0.00     0.034 C 
ENDBRANCH  11  12
ENDBRANCH   9  11
ENDBRANCH   1   9
BRANCH   3  14
ATOM     14  C   UNL d   1      -2.576   0.575   0.023  0.00  0.00     0.158 C 
ATOM     15  O   UNL d   1      -2.846   1.780   0.003  0.00  0.00    -0.293 OA
ATOM     16  C   UNL d   1      -3.739  -0.380   0.021  0.00  0.00     0.097 C 
ENDBRANCH   3  14
TORSDOF 4
