REMARK  5 active torsions:
REMARK  status: ('A' for Active; 'I' for Inactive)
REMARK    1  A    between atoms: S_14  and  C_3 
REMARK    2  A    between atoms: C_8  and  C_6 
REMARK    3  A    between atoms: C_13  and  C_19 
REMARK    4  A    between atoms: O_23  and  C_13 
REMARK    5  A    between atoms: C_19  and  S_14 
ROOT
ATOM      1  N   UNL d   1       1.177   0.444   0.594  0.00  0.00    -0.336 N 
ATOM      2  HN  UNL d   1       2.051   0.783   0.996  1.00  0.00     0.168 HD
ATOM      3  C   UNL d   1       0.067   1.199   0.602  0.00  0.00     0.145 A 
ATOM      4  C   UNL d   1       1.091  -0.782   0.034  0.00  0.00     0.045 A 
ATOM      5  N   UNL d   1      -1.124   0.817   0.118  0.00  0.00    -0.347 N 
ATOM      6  HN  UNL d   1      -1.943   1.422   0.163  1.00  0.00     0.167 HD
ATOM      7  C   UNL d   1      -0.096  -1.254  -0.496  0.00  0.00     0.047 A 
ATOM      8  C   UNL d   1      -1.176  -0.408  -0.429  0.00  0.00     0.092 A 
ENDROOT
BRANCH   4   9
ATOM      9  C   UNL d   1       2.342  -1.567   0.022  0.00  0.00    -0.009 A 
ATOM     10  C   UNL d   1       3.307  -1.416   1.039  0.00  0.00     0.023 A 
ATOM     11  C   UNL d   1       4.502  -2.156   1.042  0.00  0.00    -0.024 A 
ATOM     12  C   UNL d   1       5.498  -1.976   2.149  0.00  0.00     0.044 C 
ATOM     13  C   UNL d   1       4.731  -3.079   0.023  0.00  0.00     0.076 A 
ATOM     14  C   UNL d   1       6.856  -2.518   1.729  0.00  0.00     0.042 C 
ATOM     15  C   UNL d   1       6.723  -3.899   1.068  0.00  0.00     0.061 C 
ATOM     16  O   UNL d   1       5.846  -3.864  -0.072  0.00  0.00    -0.340 OA
ATOM     17  C   UNL d   1       8.094  -4.326   0.523  0.00  0.00     0.046 C 
ATOM     18  C   UNL d   1       6.230  -4.978   2.043  0.00  0.00     0.046 C 
ATOM     19  C   UNL d   1       3.803  -3.231  -1.003  0.00  0.00     0.038 A 
ATOM     20  C   UNL d   1       2.625  -2.483  -1.005  0.00  0.00     0.016 A 
ENDBRANCH   4   9
BRANCH   3  21
ATOM     21  S   UNL d   1       0.175   2.809   1.344  0.00  0.00    -0.084 SA
BRANCH  21  22
ATOM     22  C   UNL d   1       1.914   3.197   0.954  0.00  0.00     0.193 C 
BRANCH  22  23
ATOM     23  C   UNL d   1       2.166   3.205  -0.537  0.00  0.00     0.268 C 
ATOM     24  O   UNL d   1       1.345   3.507  -1.398  0.00  0.00    -0.264 OA
BRANCH  23  25
ATOM     25  O   UNL d   1       3.469   2.894  -0.806  0.00  0.00    -0.326 OA
ATOM     26  C   UNL d   1       3.766   2.861  -2.204  0.00  0.00     0.213 C 
ENDBRANCH  23  25
ENDBRANCH  22  23
ENDBRANCH  21  22
ENDBRANCH   3  21
TORSDOF 5
