REMARK  2 active torsions:
REMARK  status: ('A' for Active; 'I' for Inactive)
REMARK       I    between atoms: C_6  and  N_3 
REMARK    1  A    between atoms: C_8  and  C_4 
REMARK       I    between atoms: N_9  and  C_6 
REMARK    2  A    between atoms: C_15  and  N_9 
ROOT
ATOM      1  N   UNL d   1       0.604  -0.622  -0.641  0.00  0.00    -0.289 N 
ATOM      2  HN  UNL d   1       1.326  -1.187  -1.088  1.00  0.00     0.188 HD
ATOM      3  N   UNL d   1      -0.647  -1.009  -0.241  0.00  0.00    -0.216 N 
ATOM      4  C   UNL d   1       0.656   0.685  -0.302  0.00  0.00     0.073 C 
ATOM      5  C   UNL d   1      -0.639   1.197   0.003  0.00  0.00    -0.015 C 
ATOM      6  C   UNL d   1      -1.067  -2.358  -0.198  0.00  0.00     0.345 C 
ATOM      7  C   UNL d   1      -1.421   0.072   0.103  0.00  0.00     0.130 C 
ATOM      8  N   UNL d   1      -0.318  -3.167  -1.028  0.00  0.00    -0.307 N 
ATOM      9  O   UNL d   1      -2.066  -2.636   0.456  0.00  0.00    -0.245 OA
ATOM     10  C   UNL d   1      -1.127   2.583   0.197  0.00  0.00     0.052 C 
ATOM     11  H   UNL d   1       0.321  -2.688  -1.658  0.00  0.00     0.170 HD
ENDROOT
BRANCH   4  12
ATOM     12  C   UNL d   1       1.964   1.444  -0.241  0.00  0.00     0.033 A 
ATOM     13  S   UNL d   1       2.191   2.907   0.627  0.00  0.00    -0.100 SA
ATOM     14  C   UNL d   1       3.848   2.981   0.236  0.00  0.00     0.050 A 
ATOM     15  C   UNL d   1       4.235   1.915  -0.544  0.00  0.00     0.008 A 
ATOM     16  C   UNL d   1       3.152   1.014  -0.799  0.00  0.00     0.021 A 
ENDBRANCH   4  12
BRANCH   8  17
ATOM     17  C   UNL d   1      -0.621  -4.526  -1.263  0.00  0.00     0.036 A 
ATOM     18  C   UNL d   1      -1.260  -5.327  -0.308  0.00  0.00     0.029 A 
ATOM     19  C   UNL d   1      -1.569  -6.661  -0.583  0.00  0.00     0.002 A 
ATOM     20  C   UNL d   1      -1.257  -7.206  -1.825  0.00  0.00     0.000 A 
ATOM     21  C   UNL d   1      -0.618  -6.419  -2.783  0.00  0.00     0.002 A 
ATOM     22  C   UNL d   1      -0.282  -5.090  -2.497  0.00  0.00     0.029 A 
ENDBRANCH   8  17
TORSDOF 2
