REMARK  3 active torsions:
REMARK  status: ('A' for Active; 'I' for Inactive)
REMARK    1  A    between atoms: C_4  and  C_1 
REMARK    2  A    between atoms: N_16  and  C_2 
REMARK    3  A    between atoms: C_15  and  C_12 
ROOT
ATOM      1  C   UNL d   1      -1.428   2.496   0.042  0.00  0.00     0.064 A 
ATOM      2  N   UNL d   1      -1.341   3.438  -0.906  0.00  0.00    -0.299 N 
ATOM      3  HN  UNL d   1      -0.797   3.413  -1.769  1.00  0.00     0.187 HD
ATOM      4  C   UNL d   1      -2.283   2.902   1.090  0.00  0.00     0.063 A 
ATOM      5  C   UNL d   1      -2.749   4.153   0.740  0.00  0.00     0.060 A 
ATOM      6  N   UNL d   1      -2.140   4.426  -0.457  0.00  0.00    -0.299 N 
ATOM      7  H   UNL d   1      -2.225   5.266  -1.019  0.00  0.00     0.187 HD
ENDROOT
BRANCH   1   8
ATOM      8  C   UNL d   1      -0.786   1.220  -0.009  0.00  0.00     0.042 A 
ATOM      9  C   UNL d   1      -1.367   0.133  -0.548  0.00  0.00     0.090 A 
ATOM     10  C   UNL d   1      -0.609  -1.169  -0.537  0.00  0.00     0.283 A 
ATOM     11  O   UNL d   1      -1.100  -2.150  -1.104  0.00  0.00    -0.265 OA
ATOM     12  N   UNL d   1       0.612  -1.182   0.112  0.00  0.00    -0.260 N 
ATOM     13  N   UNL d   1       1.189  -0.088   0.693  0.00  0.00    -0.300 N 
ATOM     14  C   UNL d   1       1.358  -2.423   0.176  0.00  0.00     0.181 C 
ATOM     15  C   UNL d   1       0.545   1.035   0.635  0.00  0.00     0.036 A 
ATOM     16  HN  UNL d   1       2.095  -0.153   1.157  1.00  0.00     0.187 HD
ATOM     17  C   UNL d   1       1.203   2.227   1.301  0.00  0.00     0.070 C 
BRANCH   9  18
ATOM     18  N   UNL d   1      -2.634   0.097  -1.144  0.00  0.00    -0.297 NA
ATOM     19  H   UNL d   1      -2.867   0.969  -1.617  0.00  0.00     0.124 HD
ATOM     20  H   UNL d   1      -2.714  -0.722  -1.753  0.00  0.00     0.124 HD
ENDBRANCH   9  18
ENDBRANCH   1   8
BRANCH   5  21
ATOM     21  C   UNL d   1      -3.688   5.036   1.423  0.00  0.00    -0.008 A 
ATOM     22  C   UNL d   1      -3.743   5.035   2.822  0.00  0.00     0.014 A 
ATOM     23  C   UNL d   1      -4.686   5.808   3.503  0.00  0.00     0.007 A 
ATOM     24  C   UNL d   1      -5.595   6.597   2.794  0.00  0.00    -0.062 A 
ATOM     25  C   UNL d   1      -5.531   6.619   1.397  0.00  0.00     0.007 A 
ATOM     26  C   UNL d   1      -6.631   7.385   3.539  0.00  0.00     0.048 C 
ATOM     27  C   UNL d   1      -4.585   5.846   0.716  0.00  0.00     0.014 A 
ENDBRANCH   5  21
TORSDOF 3
