REMARK  4 active torsions:
REMARK  status: ('A' for Active; 'I' for Inactive)
REMARK    1  A    between atoms: S_14  and  C_3 
REMARK    2  A    between atoms: C_7  and  C_4 
REMARK       I    between atoms: N_8  and  C_7 
REMARK    3  A    between atoms: C_16  and  N_8 
REMARK    4  A    between atoms: O_18  and  N_12 
ROOT
ATOM      1  C   UNL d   1       0.103  -1.050  -0.016  0.00  0.00     0.020 A 
ATOM      2  C   UNL d   1       0.361   0.385  -0.056  0.00  0.00    -0.021 A 
ATOM      3  C   UNL d   1       1.276  -1.783   0.010  0.00  0.00     0.054 A 
ATOM      4  C   UNL d   1       1.719   0.680  -0.062  0.00  0.00     0.081 A 
ATOM      5  S   UNL d   1       2.649  -0.756  -0.068  0.00  0.00    -0.076 SA
ATOM      6  C   UNL d   1      -1.280  -1.526   0.050  0.00  0.00     0.045 C 
ATOM      7  C   UNL d   1      -0.764   1.405  -0.058  0.00  0.00     0.050 C 
ATOM      8  C   UNL d   1      -2.157   0.801   0.277  0.00  0.00    -0.038 C 
ATOM      9  C   UNL d   1      -2.330  -0.547  -0.455  0.00  0.00     0.069 C 
ATOM     10  N   UNL d   1      -1.533  -2.670   0.605  0.00  0.00    -0.271 N 
ATOM     11  HN  UNL d   1      -0.818  -3.298   0.971  1.00  0.00     0.194 HD
ATOM     12  C   UNL d   1      -3.261   1.766  -0.192  0.00  0.00     0.015 C 
ATOM     13  C   UNL d   1      -2.313   0.611   1.802  0.00  0.00     0.015 C 
ENDROOT
BRANCH   4  14
ATOM     14  C   UNL d   1       2.362   2.004  -0.026  0.00  0.00     0.263 C 
ATOM     15  N   UNL d   1       3.749   1.979  -0.075  0.00  0.00    -0.323 N 
ATOM     16  H   UNL d   1       4.158   1.072  -0.262  0.00  0.00     0.169 HD
ATOM     17  O   UNL d   1       1.706   3.039   0.037  0.00  0.00    -0.267 OA
BRANCH  15  18
ATOM     18  C   UNL d   1       4.649   3.040   0.147  0.00  0.00     0.035 A 
ATOM     19  C   UNL d   1       4.269   4.307   0.597  0.00  0.00     0.031 A 
ATOM     20  C   UNL d   1       5.234   5.288   0.859  0.00  0.00     0.026 A 
ATOM     21  C   UNL d   1       6.583   5.008   0.664  0.00  0.00     0.034 A 
ATOM     22  C   UNL d   1       6.977   3.754   0.205  0.00  0.00     0.026 A 
ATOM     23 CL   UNL d   1       7.768   6.207   1.003  0.00  0.00    -0.084 Cl
ATOM     24  C   UNL d   1       6.011   2.773  -0.049  0.00  0.00     0.031 A 
ENDBRANCH  15  18
ENDBRANCH   4  14
BRANCH   3  25
ATOM     25  S   UNL d   1       1.568  -3.517   0.151  0.00  0.00    -0.126 SA
ATOM     26  C   UNL d   1       0.514  -4.229  -1.127  0.00  0.00     0.096 C 
ENDBRANCH   3  25
BRANCH  10  27
ATOM     27  O   UNL d   1      -2.907  -2.939   0.640  0.00  0.00    -0.285 OA
ATOM     28  C   UNL d   1      -3.131  -4.046   1.503  0.00  0.00     0.237 C 
ENDBRANCH  10  27
TORSDOF 4
