REMARK  6 active torsions:
REMARK  status: ('A' for Active; 'I' for Inactive)
REMARK    1  A    between atoms: C_3  and  S_1 
REMARK    2  A    between atoms: O_7  and  S_1 
REMARK    3  A    between atoms: S_2  and  C_8 
REMARK    4  A    between atoms: C_19  and  S_2 
REMARK    5  A    between atoms: N_4  and  C_5 
REMARK    6  A    between atoms: C_6  and  O_7 
ROOT
ATOM      1  C   UNL d   1       2.221   2.041   2.281  0.00  0.00     0.137 A 
ATOM      2  C   UNL d   1       0.916   1.852   1.793  0.00  0.00     0.124 A 
ATOM      3  C   UNL d   1       0.081   2.921   3.824  0.00  0.00     0.067 A 
ATOM      4  C   UNL d   1      -0.153   2.326   2.574  0.00  0.00     0.064 A 
ATOM      5  C   UNL d   1       2.447   2.575   3.566  0.00  0.00     0.040 A 
ATOM      6  C   UNL d   1       1.373   3.004   4.343  0.00  0.00     0.026 A 
ENDROOT
BRANCH   2   7
ATOM      7  O   UNL d   1       0.516   1.292   0.598  0.00  0.00    -0.226 OA
BRANCH   7   8
ATOM      8  S   UNL d   1       1.218  -0.030  -0.059  0.00  0.00     0.306 S 
ATOM      9  O   UNL d   1       1.648   0.314  -1.398  0.00  0.00    -0.193 OA
ATOM     10  O   UNL d   1       2.135  -0.613   0.905  0.00  0.00    -0.193 OA
BRANCH   8  11
ATOM     11  C   UNL d   1      -0.016  -1.272  -0.284  0.00  0.00     0.125 A 
ATOM     12  C   UNL d   1      -1.315  -1.114   0.170  0.00  0.00     0.143 A 
ATOM     13  C   UNL d   1      -2.233  -2.151   0.023  0.00  0.00     0.086 A 
ATOM     14  F   UNL d   1      -1.716   0.015   0.766  0.00  0.00    -0.204 F 
ATOM     15  C   UNL d   1      -1.835  -3.340  -0.583  0.00  0.00     0.119 A 
ATOM     16  C   UNL d   1      -0.537  -3.507  -1.053  0.00  0.00     0.044 A 
ATOM     17  F   UNL d   1      -2.713  -4.342  -0.710  0.00  0.00    -0.206 F 
ATOM     18  C   UNL d   1       0.380  -2.468  -0.906  0.00  0.00     0.032 A 
ENDBRANCH   8  11
ENDBRANCH   7   8
ENDBRANCH   2   7
BRANCH   1  19
ATOM     19  N   UNL d   1       3.408   1.850   1.456  0.00  0.00    -0.113 N 
ATOM     20  O   UNL d   1       3.344   2.247   0.286  0.00  0.00    -0.532 OA
ATOM     21  O   UNL d   1       4.415   1.376   2.000  0.00  0.00    -0.532 OA
ENDBRANCH   1  19
BRANCH   3  22
ATOM     22  S   UNL d   1      -1.285   3.518   4.804  0.00  0.00     0.206 S 
ATOM     23  O   UNL d   1      -2.484   2.880   4.292  0.00  0.00    -0.217 OA
ATOM     24  O   UNL d   1      -0.906   3.353   6.196  0.00  0.00    -0.217 OA
BRANCH  22  25
ATOM     25  C   UNL d   1      -1.429   5.265   4.491  0.00  0.00     0.064 A 
ATOM     26  C   UNL d   1      -2.297   5.719   3.493  0.00  0.00     0.024 A 
ATOM     27  C   UNL d   1      -2.458   7.090   3.292  0.00  0.00     0.002 A 
ATOM     28  C   UNL d   1      -1.764   8.002   4.089  0.00  0.00     0.000 A 
ATOM     29  C   UNL d   1      -0.907   7.546   5.092  0.00  0.00     0.002 A 
ATOM     30  C   UNL d   1      -0.740   6.176   5.301  0.00  0.00     0.024 A 
ENDBRANCH  22  25
ENDBRANCH   3  22
TORSDOF 6
