REMARK  3 active torsions:
REMARK  status: ('A' for Active; 'I' for Inactive)
REMARK    1  A    between atoms: S_2  and  C_1 
REMARK    2  A    between atoms: C_11  and  S_2 
REMARK    3  A    between atoms: C_14  and  C_11 
ROOT
ATOM      1  C   UNL d   1      -1.815  -1.340  -0.088  0.00  0.00     0.135 C 
ATOM      2  C   UNL d   1      -2.130   0.091   0.042  0.00  0.00     0.310 C 
ATOM      3  C   UNL d   1      -0.552  -1.791  -0.059  0.00  0.00     0.044 C 
ATOM      4  O   UNL d   1      -1.048   0.972  -0.038  0.00  0.00    -0.274 OA
ATOM      5  C   UNL d   1       0.555  -0.853   0.016  0.00  0.00    -0.001 A 
ATOM      6  C   UNL d   1       0.282   0.510  -0.022  0.00  0.00     0.089 A 
ATOM      7  O   UNL d   1      -3.260   0.511   0.254  0.00  0.00    -0.258 OA
ATOM      8  C   UNL d   1       1.884  -1.277   0.070  0.00  0.00     0.014 A 
ATOM      9  C   UNL d   1       1.302   1.460  -0.023  0.00  0.00     0.038 A 
ATOM     10  C   UNL d   1       2.917  -0.336   0.081  0.00  0.00     0.001 A 
ATOM     11  C   UNL d   1       2.627   1.030   0.029  0.00  0.00     0.003 A 
ENDROOT
BRANCH   1  12
ATOM     12  S   UNL d   1      -3.099  -2.480  -0.312  0.00  0.00     0.181 S 
ATOM     13  O   UNL d   1      -4.223  -1.869  -0.991  0.00  0.00    -0.222 OA
ATOM     14  O   UNL d   1      -2.535  -3.705  -0.863  0.00  0.00    -0.222 OA
BRANCH  12  15
ATOM     15  C   UNL d   1      -3.600  -2.872   1.360  0.00  0.00     0.145 C 
BRANCH  15  16
ATOM     16  C   UNL d   1      -4.705  -3.927   1.358  0.00  0.00     0.011 C 
ATOM     17  C   UNL d   1      -5.113  -4.340   2.762  0.00  0.00     0.006 C 
ENDBRANCH  15  16
ENDBRANCH  12  15
ENDBRANCH   1  12
TORSDOF 3
