REMARK  3 active torsions:
REMARK  status: ('A' for Active; 'I' for Inactive)
REMARK    1  A    between atoms: N_2  and  C_1 
REMARK    2  A    between atoms: C_6  and  C_3 
REMARK    3  A    between atoms: O_15  and  C_6 
ROOT
ATOM      1  C   UNL d   1       1.453   0.845  -0.034  0.00  0.00     0.069 C 
ATOM      2  C   UNL d   1       0.182   1.376   0.186  0.00  0.00     0.107 C 
ATOM      3  S   UNL d   1      -1.015   0.140   0.239  0.00  0.00    -0.094 SA
ATOM      4  C   UNL d   1       1.374  -0.560  -0.325  0.00  0.00     0.039 C 
ATOM      5  C   UNL d   1       0.105  -1.070  -0.180  0.00  0.00     0.053 C 
ENDROOT
BRANCH   1   6
ATOM      6  N   UNL d   1       2.655   1.560  -0.007  0.00  0.00    -0.244 N 
ATOM      7  C   UNL d   1       3.756   1.262  -0.752  0.00  0.00     0.255 A 
ATOM      8  C   UNL d   1       4.796   2.232  -0.383  0.00  0.00     0.080 A 
ATOM      9  O   UNL d   1       3.939   0.406  -1.601  0.00  0.00    -0.268 OA
ATOM     10  C   UNL d   1       4.317   2.995   0.598  0.00  0.00     0.080 A 
ATOM     11  C   UNL d   1       2.953   2.542   0.894  0.00  0.00     0.255 A 
ATOM     12  O   UNL d   1       2.320   2.966   1.847  0.00  0.00    -0.268 OA
ENDBRANCH   1   6
BRANCH   2  13
ATOM     13  C   UNL d   1      -0.281   2.750   0.296  0.00  0.00     0.302 C 
ATOM     14  O   UNL d   1      -1.346   3.120   0.778  0.00  0.00    -0.259 OA
BRANCH  13  15
ATOM     15  O   UNL d   1       0.606   3.590  -0.318  0.00  0.00    -0.322 OA
ATOM     16  C   UNL d   1       0.299   4.982  -0.224  0.00  0.00     0.213 C 
ENDBRANCH  13  15
ENDBRANCH   2  13
TORSDOF 3
