REMARK  5 active torsions:
REMARK  status: ('A' for Active; 'I' for Inactive)
REMARK    1  A    between atoms: C_2  and  C_1 
REMARK    2  A    between atoms: C_13  and  C_8 
REMARK    3  A    between atoms: C_22  and  C_10 
REMARK    4  A    between atoms: O_17  and  C_22 
REMARK    5  A    between atoms: C_18  and  O_17 
ROOT
ATOM      1  C   UNL d   1      -1.470   2.263  -0.070  0.00  0.00     0.075 A 
ATOM      2  N   UNL d   1      -2.439   2.494   0.886  0.00  0.00    -0.349 N 
ATOM      3  HN  UNL d   1      -2.722   1.826   1.603  1.00  0.00     0.166 HD
ATOM      4  C   UNL d   1      -2.946   3.703   0.738  0.00  0.00     0.075 A 
ATOM      5  C   UNL d   1      -1.256   3.308  -0.947  0.00  0.00     0.084 A 
ATOM      6  S   UNL d   1      -2.306   4.612  -0.574  0.00  0.00    -0.084 SA
ENDROOT
BRANCH   1   7
ATOM      7  C   UNL d   1      -0.711   0.982  -0.099  0.00  0.00     0.128 A 
ATOM      8  C   UNL d   1       0.324   0.649  -0.940  0.00  0.00     0.074 A 
ATOM      9  C   UNL d   1       0.730  -0.653  -0.546  0.00  0.00     0.068 A 
ATOM     10  N   UNL d   1      -0.028  -1.084   0.474  0.00  0.00    -0.260 N 
ATOM     11  O   UNL d   1      -0.926  -0.067   0.746  0.00  0.00    -0.235 OA
ATOM     12  HN  UNL d   1       0.043  -1.982   0.952  1.00  0.00     0.195 HD
BRANCH   9  13
ATOM     13  C   UNL d   1       1.817  -1.454  -1.105  0.00  0.00    -0.006 A 
ATOM     14  C   UNL d   1       2.259  -1.235  -2.418  0.00  0.00     0.039 A 
ATOM     15  C   UNL d   1       3.325  -1.972  -2.948  0.00  0.00     0.056 A 
ATOM     16 CL   UNL d   1       3.807  -1.624  -4.571  0.00  0.00    -0.083 Cl
ATOM     17  C   UNL d   1       3.961  -2.942  -2.167  0.00  0.00     0.055 A 
ATOM     18  C   UNL d   1       3.522  -3.174  -0.862  0.00  0.00     0.026 A 
ATOM     19 CL   UNL d   1       5.289  -3.877  -2.752  0.00  0.00    -0.083 Cl
ATOM     20  C   UNL d   1       2.455  -2.437  -0.335  0.00  0.00     0.015 A 
ENDBRANCH   9  13
ENDBRANCH   1   7
BRANCH   4  21
ATOM     21  C   UNL d   1      -3.935   4.316   1.682  0.00  0.00     0.240 C 
BRANCH  21  22
ATOM     22  O   UNL d   1      -5.242   4.153   1.127  0.00  0.00    -0.343 OA
BRANCH  22  23
ATOM     23  C   UNL d   1      -6.271   4.630   1.902  0.00  0.00     0.090 A 
ATOM     24  C   UNL d   1      -7.417   5.112   1.250  0.00  0.00     0.067 A 
ATOM     25 CL   UNL d   1      -7.519   5.159  -0.475  0.00  0.00    -0.081 Cl
ATOM     26  C   UNL d   1      -8.508   5.587   1.986  0.00  0.00     0.026 A 
ATOM     27  C   UNL d   1      -8.470   5.574   3.380  0.00  0.00     0.002 A 
ATOM     28  C   UNL d   1      -7.349   5.079   4.035  0.00  0.00     0.003 A 
ATOM     29  C   UNL d   1      -6.258   4.604   3.304  0.00  0.00     0.038 A 
ENDBRANCH  22  23
ENDBRANCH  21  22
ENDBRANCH   4  21
TORSDOF 5
