REMARK  5 active torsions:
REMARK  status: ('A' for Active; 'I' for Inactive)
REMARK    1  A    between atoms: C_4  and  N_1 
REMARK    2  A    between atoms: C_2  and  C_11 
REMARK    3  A    between atoms: O_20  and  C_2 
REMARK    4  A    between atoms: N_6  and  O_20 
REMARK    5  A    between atoms: C_23  and  C_22 
ROOT
ATOM      1  N   UNL d   1      -1.653  -5.452  -5.165  0.00  0.00    -0.268 N 
ATOM      2  HN  UNL d   1      -2.261  -5.024  -5.863  1.00  0.00     0.194 HD
ATOM      3  C   UNL d   1      -1.267  -6.687  -5.182  0.00  0.00     0.126 C 
ENDROOT
BRANCH   1   4
ATOM      4  O   UNL d   1      -1.117  -4.781  -4.044  0.00  0.00    -0.195 OA
BRANCH   4   5
ATOM      5  C   UNL d   1      -1.482  -3.462  -4.095  0.00  0.00     0.315 C 
ATOM      6  O   UNL d   1      -2.159  -2.902  -4.947  0.00  0.00    -0.257 OA
BRANCH   5   7
ATOM      7  C   UNL d   1      -0.869  -2.707  -2.971  0.00  0.00     0.041 A 
ATOM      8  C   UNL d   1      -0.604  -1.342  -3.173  0.00  0.00     0.020 A 
ATOM      9  C   UNL d   1      -0.033  -0.567  -2.159  0.00  0.00     0.037 A 
ATOM     10  C   UNL d   1       0.264  -1.160  -0.926  0.00  0.00     0.102 A 
ATOM     11  C   UNL d   1      -0.016  -2.517  -0.704  0.00  0.00     0.037 A 
ATOM     12  C   UNL d   1      -0.582  -3.290  -1.729  0.00  0.00     0.020 A 
BRANCH  10  13
ATOM     13  N   UNL d   1       0.876  -0.352   0.139  0.00  0.00    -0.116 N 
ATOM     14  O   UNL d   1       1.129  -0.916   1.213  0.00  0.00    -0.532 OA
ATOM     15  O   UNL d   1       1.107   0.840  -0.102  0.00  0.00    -0.532 OA
ENDBRANCH  10  13
ENDBRANCH   5   7
ENDBRANCH   4   5
ENDBRANCH   1   4
BRANCH   3  16
ATOM     16  C   UNL d   1      -1.692  -7.615  -6.254  0.00  0.00    -0.016 A 
ATOM     17  C   UNL d   1      -1.272  -8.950  -6.199  0.00  0.00     0.052 A 
ATOM     18  C   UNL d   1      -1.701  -9.793  -7.204  0.00  0.00     0.105 A 
ATOM     19  O   UNL d   1      -1.405 -11.117  -7.309  0.00  0.00    -0.323 OA
ATOM     20  C   UNL d   1      -2.505  -9.355  -8.232  0.00  0.00     0.105 A 
ATOM     21  C   UNL d   1      -2.144 -11.470  -8.499  0.00  0.00     0.352 A 
ATOM     22  O   UNL d   1      -2.812 -10.347  -9.110  0.00  0.00    -0.323 OA
ATOM     23  C   UNL d   1      -2.926  -8.046  -8.315  0.00  0.00     0.040 A 
ATOM     24  C   UNL d   1      -2.515  -7.165  -7.309  0.00  0.00     0.016 A 
ENDBRANCH   3  16
TORSDOF 5
