REMARK  4 active torsions:
REMARK  status: ('A' for Active; 'I' for Inactive)
REMARK    1  A    between atoms: C_2  and  C_1 
REMARK    2  A    between atoms: S_3  and  C_4 
REMARK    3  A    between atoms: C_5  and  S_3 
REMARK    4  A    between atoms: C_11  and  C_5 
ROOT
ATOM      1  C   UNL d   1       0.159  -8.274   4.489  0.00  0.00     0.065 A 
ATOM      2  C   UNL d   1      -0.506  -5.589   4.371  0.00  0.00     0.099 A 
ATOM      3  N   UNL d   1       0.792  -5.940   4.582  0.00  0.00    -0.358 N 
ATOM      4  HN  UNL d   1       1.518  -5.231   4.688  1.00  0.00     0.166 HD
ATOM      5  C   UNL d   1      -1.519  -6.543   4.242  0.00  0.00     0.068 A 
ATOM      6  C   UNL d   1      -1.175  -7.897   4.302  0.00  0.00     0.044 A 
ATOM      7  C   UNL d   1       1.090  -7.259   4.646  0.00  0.00     0.105 A 
ATOM      8 CL   UNL d   1      -3.173  -6.144   3.949  0.00  0.00    -0.081 Cl
ENDROOT
BRANCH   2   9
ATOM      9  S   UNL d   1      -0.751  -3.857   4.059  0.00  0.00    -0.028 SA
BRANCH   9  10
ATOM     10  C   UNL d   1      -1.048  -3.242   5.677  0.00  0.00     0.225 C 
ATOM     11  O   UNL d   1      -1.540  -3.926   6.568  0.00  0.00    -0.279 OA
BRANCH  10  12
ATOM     12  C   UNL d   1      -0.804  -1.784   5.862  0.00  0.00     0.021 A 
ATOM     13  C   UNL d   1       0.308  -1.139   5.303  0.00  0.00     0.016 A 
ATOM     14  C   UNL d   1       0.444   0.248   5.413  0.00  0.00     0.007 A 
ATOM     15  C   UNL d   1      -0.520   1.007   6.089  0.00  0.00    -0.062 A 
ATOM     16  C   UNL d   1      -1.605   0.353   6.687  0.00  0.00     0.007 A 
ATOM     17  C   UNL d   1      -0.424   2.505   6.100  0.00  0.00     0.048 C 
ATOM     18  C   UNL d   1      -1.741  -1.036   6.585  0.00  0.00     0.016 A 
ENDBRANCH  10  12
ENDBRANCH   9  10
ENDBRANCH   2   9
BRANCH   1  19
ATOM     19  C   UNL d   1       0.610  -9.701   4.492  0.00  0.00     0.418 C 
ATOM     20  F   UNL d   1      -0.397 -10.590   4.272  0.00  0.00    -0.166 F 
ATOM     21  F   UNL d   1       1.184 -10.066   5.670  0.00  0.00    -0.166 F 
ATOM     22  F   UNL d   1       1.542  -9.949   3.529  0.00  0.00    -0.166 F 
ENDBRANCH   1  19
TORSDOF 4
