REMARK  5 active torsions:
REMARK  status: ('A' for Active; 'I' for Inactive)
REMARK    1  A    between atoms: N_2  and  C_1 
REMARK    2  A    between atoms: C_5  and  S_12 
REMARK    3  A    between atoms: N_6  and  C_11 
REMARK    4  A    between atoms: C_14  and  C_7 
REMARK    5  A    between atoms: S_12  and  C_9 
ROOT
ATOM      1  C   UNL d   1       0.875   0.266  -1.606  0.00  0.00     0.122 A 
ATOM      2  C   UNL d   1       0.091  -0.257  -2.653  0.00  0.00     0.073 A 
ATOM      3  C   UNL d   1       1.067   1.647  -1.438  0.00  0.00     0.040 A 
ATOM      4  C   UNL d   1      -0.545   0.628  -3.530  0.00  0.00     0.105 A 
ATOM      5  C   UNL d   1       0.401   2.507  -2.332  0.00  0.00     0.024 A 
ATOM      6  C   UNL d   1      -0.403   2.010  -3.366  0.00  0.00     0.037 A 
ENDROOT
BRANCH   3   7
ATOM      7  S   UNL d   1       1.978   2.447  -0.128  0.00  0.00    -0.063 SA
BRANCH   7   8
ATOM      8  C   UNL d   1       3.630   1.955  -0.454  0.00  0.00     0.117 A 
ATOM      9  N   UNL d   1       3.980   1.094  -1.386  0.00  0.00    -0.347 N 
ATOM     10  C   UNL d   1       5.362   0.879  -1.345  0.00  0.00     0.024 A 
ATOM     11  HN  UNL d   1       3.338   0.649  -2.042  1.00  0.00     0.167 HD
ATOM     12  C   UNL d   1       6.019   1.620  -0.375  0.00  0.00     0.078 A 
ATOM     13  S   UNL d   1       4.914   2.589   0.492  0.00  0.00    -0.075 SA
BRANCH  10  14
ATOM     14  C   UNL d   1       6.026  -0.112  -2.298  0.00  0.00    -0.008 C 
ATOM     15  C   UNL d   1       5.009  -0.729  -3.276  0.00  0.00     0.021 C 
ATOM     16  C   UNL d   1       7.120   0.593  -3.128  0.00  0.00     0.021 C 
ATOM     17  C   UNL d   1       6.681  -1.258  -1.497  0.00  0.00     0.021 C 
ENDBRANCH  10  14
ENDBRANCH   7   8
ENDBRANCH   3   7
BRANCH   1  18
ATOM     18  N   UNL d   1       1.401  -0.694  -0.646  0.00  0.00    -0.114 N 
ATOM     19  O   UNL d   1       2.003  -1.677  -1.104  0.00  0.00    -0.532 OA
ATOM     20  O   UNL d   1       1.124  -0.517   0.547  0.00  0.00    -0.532 OA
ENDBRANCH   1  18
BRANCH   4  21
ATOM     21  N   UNL d   1      -1.395   0.108  -4.611  0.00  0.00    -0.116 N 
ATOM     22  O   UNL d   1      -1.501  -1.121  -4.714  0.00  0.00    -0.532 OA
ATOM     23  O   UNL d   1      -1.954   0.931  -5.348  0.00  0.00    -0.532 OA
ENDBRANCH   4  21
TORSDOF 5
