REMARK  5 active torsions:
REMARK  status: ('A' for Active; 'I' for Inactive)
REMARK    1  A    between atoms: C_8  and  C_1 
REMARK    2  A    between atoms: C_9  and  N_6 
REMARK    3  A    between atoms: C_10  and  C_9 
REMARK       I    between atoms: N_14  and  C_10 
REMARK       I    between atoms: C_11  and  N_12 
REMARK    4  A    between atoms: C_15  and  C_11 
REMARK    5  A    between atoms: N_12  and  N_14 
ROOT
ATOM      1  C   UNL d   1       3.272   0.770   0.070  0.00  0.00     0.257 C 
ATOM      2  N   UNL d   1       3.300  -0.580  -0.188  0.00  0.00    -0.266 N 
ATOM      3  O   UNL d   1       4.325   1.407   0.197  0.00  0.00    -0.270 OA
ATOM      4  H   UNL d   1       2.482  -1.125  -0.469  0.00  0.00     0.190 HD
ENDROOT
BRANCH   1   5
ATOM      5  C   UNL d   1       1.946   1.469   0.217  0.00  0.00     0.271 C 
BRANCH   5   6
ATOM      6  N   UNL d   1       0.764   0.681  -0.051  0.00  0.00    -0.207 N 
ATOM      7  N   UNL d   1       0.609   0.007  -1.212  0.00  0.00    -0.268 N 
ATOM      8  C   UNL d   1      -0.734  -0.089  -1.253  0.00  0.00     0.151 A 
ATOM      9  HN  UNL d   1       1.310  -0.332  -1.871  1.00  0.00     0.190 HD
ATOM     10  N   UNL d   1      -1.337   0.427  -0.135  0.00  0.00    -0.266 N 
ATOM     11  N   UNL d   1      -0.371   0.914   0.631  0.00  0.00    -0.002 NA
ATOM     12  HN  UNL d   1      -2.337   0.436   0.068  1.00  0.00     0.186 HD
BRANCH   8  13
ATOM     13  C   UNL d   1      -1.484  -0.602  -2.437  0.00  0.00     0.051 A 
ATOM     14  S   UNL d   1      -3.182  -0.510  -2.596  0.00  0.00    -0.098 SA
ATOM     15  C   UNL d   1      -3.129  -1.146  -4.185  0.00  0.00     0.050 A 
ATOM     16  C   UNL d   1      -1.846  -1.472  -4.566  0.00  0.00     0.009 A 
ATOM     17  C   UNL d   1      -0.893  -1.161  -3.551  0.00  0.00     0.023 A 
ENDBRANCH   8  13
ENDBRANCH   5   6
ENDBRANCH   1   5
BRANCH   2  18
ATOM     18  N   UNL d   1       4.553  -1.173  -0.416  0.00  0.00    -0.263 N 
ATOM     19  C   UNL d   1       4.710  -2.508  -0.096  0.00  0.00     0.270 C 
ATOM     20  O   UNL d   1       3.789  -3.225   0.286  0.00  0.00    -0.266 OA
ATOM     21  H   UNL d   1       5.348  -0.533  -0.427  0.00  0.00     0.190 HD
BRANCH  19  22
ATOM     22  C   UNL d   1       6.083  -3.058  -0.236  0.00  0.00     0.033 A 
ATOM     23  C   UNL d   1       6.478  -4.107   0.606  0.00  0.00     0.019 A 
ATOM     24  C   UNL d   1       7.738  -4.696   0.455  0.00  0.00     0.025 A 
ATOM     25  C   UNL d   1       8.596  -4.243  -0.547  0.00  0.00     0.034 A 
ATOM     26  C   UNL d   1       8.213  -3.199  -1.388  0.00  0.00     0.025 A 
ATOM     27 CL   UNL d   1      10.130  -4.992  -0.761  0.00  0.00    -0.084 Cl
ATOM     28  C   UNL d   1       6.956  -2.603  -1.234  0.00  0.00     0.019 A 
ENDBRANCH  19  22
ENDBRANCH   2  18
TORSDOF 5
