REMARK  4 active torsions:
REMARK  status: ('A' for Active; 'I' for Inactive)
REMARK    1  A    between atoms: C_7  and  N_1 
REMARK    2  A    between atoms: C_12  and  C_5 
REMARK    3  A    between atoms: C_18  and  C_12 
REMARK    4  A    between atoms: O_17  and  C_18 
ROOT
ATOM      1  N   UNL d   1       0.613   1.100   0.010  0.00  0.00    -0.224 N 
ATOM      2  N   UNL d   1      -0.771   1.139   0.057  0.00  0.00    -0.299 N 
ATOM      3  HN  UNL d   1      -1.358   1.973   0.087  1.00  0.00     0.187 HD
ATOM      4  C   UNL d   1       1.141  -0.201  -0.051  0.00  0.00     0.253 C 
ATOM      5  C   UNL d   1      -0.059  -1.097   0.119  0.00  0.00     0.129 C 
ATOM      6  C   UNL d   1      -1.173  -0.094   0.057  0.00  0.00     0.013 C 
ATOM      7  O   UNL d   1       2.291  -0.594  -0.145  0.00  0.00    -0.270 OA
ATOM      8  C   UNL d   1      -2.607  -0.502   0.021  0.00  0.00     0.066 C 
ENDROOT
BRANCH   1   9
ATOM      9  C   UNL d   1       1.329   2.321   0.023  0.00  0.00     0.059 A 
ATOM     10  C   UNL d   1       2.716   2.365  -0.177  0.00  0.00     0.033 A 
ATOM     11  C   UNL d   1       3.409   3.582  -0.167  0.00  0.00     0.026 A 
ATOM     12  C   UNL d   1       2.722   4.770   0.059  0.00  0.00     0.034 A 
ATOM     13  C   UNL d   1       1.347   4.750   0.276  0.00  0.00     0.026 A 
ATOM     14 CL   UNL d   1       3.571   6.264   0.064  0.00  0.00    -0.084 Cl
ATOM     15  C   UNL d   1       0.657   3.534   0.253  0.00  0.00     0.033 A 
ENDBRANCH   1   9
BRANCH   5  16
ATOM     16  C   UNL d   1      -0.007  -1.826   1.461  0.00  0.00     0.046 C 
BRANCH  16  17
ATOM     17  C   UNL d   1       0.014  -0.903   2.682  0.00  0.00     0.165 C 
BRANCH  17  18
ATOM     18  O   UNL d   1       0.017  -1.705   3.856  0.00  0.00    -0.401 OA
ATOM     19  H   UNL d   1       0.068  -1.097   4.614  0.00  0.00     0.209 HD
ENDBRANCH  17  18
ENDBRANCH  16  17
ENDBRANCH   5  16
TORSDOF 4
