REMARK  3 active torsions:
REMARK  status: ('A' for Active; 'I' for Inactive)
REMARK    1  A    between atoms: C_2  and  C_1 
REMARK    2  A    between atoms: O_10  and  C_2 
REMARK    3  A    between atoms: C_9  and  O_10 
ROOT
ATOM      1  C   UNL d   1       3.397   3.665  -0.068  0.00  0.00     0.046 A 
ATOM      2  C   UNL d   1       2.647   4.456   0.827  0.00  0.00    -0.037 A 
ATOM      3  C   UNL d   1       2.752   2.784  -0.962  0.00  0.00    -0.037 A 
ATOM      4  C   UNL d   1       0.608   3.486  -0.063  0.00  0.00     0.080 A 
ATOM      5  C   UNL d   1       1.247   4.350   0.824  0.00  0.00     0.045 A 
ATOM      6  C   UNL d   1       1.347   2.703  -0.945  0.00  0.00     0.045 A 
ATOM      7 CL   UNL d   1       5.129   3.772  -0.040  0.00  0.00    -0.083 Cl
ATOM      8  C   UNL d   1       3.478   1.887  -1.929  0.00  0.00     0.050 C 
ATOM      9  C   UNL d   1       3.304   5.393   1.805  0.00  0.00     0.050 C 
ENDROOT
BRANCH   4  10
ATOM     10  O   UNL d   1      -0.792   3.383   0.079  0.00  0.00    -0.273 OA
BRANCH  10  11
ATOM     11  C   UNL d   1      -1.641   3.114  -0.996  0.00  0.00     0.324 C 
ATOM     12  O   UNL d   1      -1.299   3.034  -2.170  0.00  0.00    -0.257 OA
BRANCH  11  13
ATOM     13  C   UNL d   1      -2.990   2.942  -0.524  0.00  0.00     0.175 A 
ATOM     14  O   UNL d   1      -3.264   3.058   0.809  0.00  0.00    -0.232 OA
ATOM     15  N   UNL d   1      -4.617   2.846   1.026  0.00  0.00    -0.272 N 
ATOM     16  C   UNL d   1      -5.135   2.605  -0.179  0.00  0.00     0.117 A 
ATOM     17  HN  UNL d   1      -5.111   2.870   1.918  1.00  0.00     0.194 HD
ATOM     18  C   UNL d   1      -4.161   2.653  -1.191  0.00  0.00     0.065 A 
ENDBRANCH  11  13
ENDBRANCH  10  11
ENDBRANCH   4  10
TORSDOF 3
