REMARK  4 active torsions:
REMARK  status: ('A' for Active; 'I' for Inactive)
REMARK    1  A    between atoms: C_7  and  C_4 
REMARK       I    between atoms: C_5  and  N_10 
REMARK    2  A    between atoms: C_6  and  C_5 
REMARK    3  A    between atoms: C_11  and  C_7 
REMARK    4  A    between atoms: N_10  and  N_13 
REMARK       I    between atoms: N_13  and  C_11 
ROOT
ATOM      1  C   UNL d   1       1.461  -0.463   2.137  0.00  0.00     0.129 C 
ENDROOT
BRANCH   1   2
ATOM      2  C   UNL d   1       1.677  -0.700   0.642  0.00  0.00     0.153 C 
ATOM      3  C   UNL d   1       1.558   0.601  -0.139  0.00  0.00     0.236 C 
ATOM      4  N   UNL d   1       0.317   1.169  -0.265  0.00  0.00    -0.325 N 
ATOM      5  O   UNL d   1       2.549   1.219  -0.526  0.00  0.00    -0.272 OA
ATOM      6  C   UNL d   1      -0.909   0.506  -0.089  0.00  0.00     0.051 A 
ATOM      7  H   UNL d   1       0.316   2.114  -0.631  0.00  0.00     0.169 HD
ATOM      8  C   UNL d   1      -0.990  -0.890   0.033  0.00  0.00     0.028 A 
ATOM      9  C   UNL d   1      -2.074   1.278  -0.078  0.00  0.00     0.031 A 
ATOM     10  S   UNL d   1       0.466  -1.921   0.015  0.00  0.00    -0.113 SA
ATOM     11  C   UNL d   1      -2.244  -1.500   0.135  0.00  0.00     0.021 A 
ATOM     12  C   UNL d   1      -3.405  -0.725   0.159  0.00  0.00     0.002 A 
ATOM     13  C   UNL d   1      -3.319   0.662   0.063  0.00  0.00     0.002 A 
ENDBRANCH   1   2
BRANCH   1  14
ATOM     14  C   UNL d   1       2.567   0.390   2.717  0.00  0.00     0.237 C 
ATOM     15  N   UNL d   1       2.260   1.728   2.822  0.00  0.00    -0.267 N 
ATOM     16  H   UNL d   1       1.419   2.164   2.450  0.00  0.00     0.190 HD
ATOM     17  O   UNL d   1       3.638  -0.085   3.083  0.00  0.00    -0.272 OA
BRANCH  15  18
ATOM     18  N   UNL d   1       3.216   2.589   3.376  0.00  0.00    -0.263 N 
ATOM     19  C   UNL d   1       3.139   3.949   3.130  0.00  0.00     0.277 C 
ATOM     20  O   UNL d   1       2.248   4.409   2.412  0.00  0.00    -0.265 OA
ATOM     21  H   UNL d   1       4.007   2.166   3.856  0.00  0.00     0.190 HD
BRANCH  19  22
ATOM     22  C   UNL d   1       4.142   4.778   3.787  0.00  0.00     0.074 A 
ATOM     23  S   UNL d   1       5.178   4.163   5.010  0.00  0.00    -0.097 SA
ATOM     24  C   UNL d   1       5.887   5.695   5.282  0.00  0.00     0.050 A 
ATOM     25  C   UNL d   1       5.375   6.657   4.442  0.00  0.00     0.009 A 
ATOM     26  C   UNL d   1       4.371   6.127   3.579  0.00  0.00     0.025 A 
ENDBRANCH  19  22
ENDBRANCH  15  18
ENDBRANCH   1  14
TORSDOF 4
