REMARK  5 active torsions:
REMARK  status: ('A' for Active; 'I' for Inactive)
REMARK    1  A    between atoms: C_8  and  C_1 
REMARK    2  A    between atoms: S_9  and  C_3 
REMARK    3  A    between atoms: C_7  and  C_10 
REMARK    4  A    between atoms: O_15  and  C_8 
REMARK    5  A    between atoms: C_10  and  S_9 
ROOT
ATOM      1  C   UNL d   1      -0.005  -1.218   0.014  0.00  0.00     0.127 A 
ATOM      2  N   UNL d   1       0.786  -0.078   0.044  0.00  0.00    -0.326 N 
ATOM      3  C   UNL d   1      -0.059   1.011   0.106  0.00  0.00     0.147 A 
ATOM      4  N   UNL d   1      -1.318   0.649   0.087  0.00  0.00    -0.344 N 
ATOM      5  HN  UNL d   1      -2.138   1.255   0.112  1.00  0.00     0.167 HD
ATOM      6  C   UNL d   1      -1.296  -0.717   0.027  0.00  0.00     0.126 A 
ATOM      7  C   UNL d   1       2.229  -0.011   0.002  0.00  0.00     0.159 C 
ENDROOT
BRANCH   3   8
ATOM      8  S   UNL d   1       0.489   2.659   0.198  0.00  0.00    -0.089 SA
BRANCH   8   9
ATOM      9  C   UNL d   1      -1.112   3.535   0.217  0.00  0.00     0.124 C 
BRANCH   9  10
ATOM     10  C   UNL d   1      -0.965   5.045   0.227  0.00  0.00    -0.005 A 
ATOM     11  C   UNL d   1      -0.846   5.777  -0.973  0.00  0.00     0.042 A 
ATOM     12 CL   UNL d   1      -0.819   5.006  -2.523  0.00  0.00    -0.084 Cl
ATOM     13  C   UNL d   1      -0.755   7.176  -0.969  0.00  0.00     0.024 A 
ATOM     14  C   UNL d   1      -0.773   7.880   0.230  0.00  0.00     0.003 A 
ATOM     15  C   UNL d   1      -0.873   7.181   1.428  0.00  0.00     0.024 A 
ATOM     16  C   UNL d   1      -0.964   5.781   1.429  0.00  0.00     0.042 A 
ATOM     17 CL   UNL d   1      -1.089   5.019   2.978  0.00  0.00    -0.084 Cl
ENDBRANCH   9  10
ENDBRANCH   8   9
ENDBRANCH   3   8
BRANCH   1  18
ATOM     18  C   UNL d   1       0.410  -2.601  -0.019  0.00  0.00     0.311 C 
ATOM     19  O   UNL d   1       1.562  -3.010  -0.019  0.00  0.00    -0.258 OA
BRANCH  18  20
ATOM     20  O   UNL d   1      -0.692  -3.407  -0.044  0.00  0.00    -0.321 OA
ATOM     21  C   UNL d   1      -0.415  -4.808  -0.059  0.00  0.00     0.213 C 
ENDBRANCH  18  20
ENDBRANCH   1  18
TORSDOF 5
