REMARK  7 active torsions:
REMARK  status: ('A' for Active; 'I' for Inactive)
REMARK    1  A    between atoms: N_2  and  C_1 
REMARK    2  A    between atoms: S_12  and  C_3 
REMARK    3  A    between atoms: C_6  and  O_16 
REMARK    4  A    between atoms: C_10  and  C_6 
REMARK    5  A    between atoms: C_20  and  S_12 
REMARK    6  A    between atoms: O_16  and  C_21 
REMARK    7  A    between atoms: C_21  and  C_20 
ROOT
ATOM      1  C   UNL d   1       0.914   5.471  -0.073  0.00  0.00     0.189 C 
ENDROOT
BRANCH   1   2
ATOM      2  O   UNL d   1       2.068   6.299   0.167  0.00  0.00    -0.317 OA
BRANCH   2   3
ATOM      3  C   UNL d   1       2.872   6.507  -0.903  0.00  0.00     0.293 C 
ATOM      4  O   UNL d   1       2.704   6.043  -2.022  0.00  0.00    -0.259 OA
BRANCH   3   5
ATOM      5  C   UNL d   1       4.014   7.390  -0.543  0.00  0.00     0.039 A 
ATOM      6  C   UNL d   1       4.905   7.766  -1.559  0.00  0.00     0.019 A 
ATOM      7  C   UNL d   1       5.989   8.602  -1.275  0.00  0.00     0.025 A 
ATOM      8  C   UNL d   1       6.185   9.062   0.026  0.00  0.00     0.034 A 
ATOM      9  C   UNL d   1       5.310   8.691   1.045  0.00  0.00     0.025 A 
ATOM     10 CL   UNL d   1       7.515  10.096   0.374  0.00  0.00    -0.084 Cl
ATOM     11  C   UNL d   1       4.225   7.855   0.763  0.00  0.00     0.019 A 
ENDBRANCH   3   5
ENDBRANCH   2   3
ENDBRANCH   1   2
BRANCH   1  12
ATOM     12  C   UNL d   1       1.266   3.982  -0.080  0.00  0.00     0.107 C 
BRANCH  12  13
ATOM     13  S   UNL d   1       1.739   3.444   1.599  0.00  0.00    -0.118 SA
BRANCH  13  14
ATOM     14  C   UNL d   1       2.384   1.828   1.297  0.00  0.00     0.074 A 
ATOM     15  C   UNL d   1       1.746   0.617   1.061  0.00  0.00     0.127 A 
ATOM     16  C   UNL d   1       2.691  -0.472   1.002  0.00  0.00     0.045 A 
ATOM     17  C   UNL d   1       3.991  -0.063   1.181  0.00  0.00     0.053 A 
ATOM     18  S   UNL d   1       4.095   1.624   1.393  0.00  0.00    -0.092 SA
BRANCH  15  19
ATOM     19  N   UNL d   1       0.319   0.407   0.919  0.00  0.00    -0.114 N 
ATOM     20  O   UNL d   1      -0.432   1.387   0.921  0.00  0.00    -0.532 OA
ATOM     21  O   UNL d   1      -0.050  -0.767   0.778  0.00  0.00    -0.532 OA
ENDBRANCH  15  19
ENDBRANCH  13  14
ENDBRANCH  12  13
ENDBRANCH   1  12
TORSDOF 7
