REMARK  8 active torsions:
REMARK  status: ('A' for Active; 'I' for Inactive)
REMARK    1  A    between atoms: S_9  and  C_2 
REMARK    2  A    between atoms: C_13  and  C_3 
REMARK    3  A    between atoms: C_8  and  S_12 
REMARK    4  A    between atoms: C_20  and  S_9 
REMARK    5  A    between atoms: C_11  and  C_20 
REMARK       I    between atoms: N_14  and  C_11 
REMARK    6  A    between atoms: S_12  and  C_13 
REMARK    7  A    between atoms: C_24  and  N_14 
REMARK    8  A    between atoms: C_25  and  C_17 
ROOT
ATOM      1  N   UNL d   1      -0.643   0.198  -1.409  0.00  0.00    -0.319 N 
ATOM      2  C   UNL d   1       0.348   0.958  -0.846  0.00  0.00     0.162 A 
ATOM      3  C   UNL d   1      -0.642  -0.991  -0.702  0.00  0.00     0.109 A 
ATOM      4  N   UNL d   1       0.984   0.252   0.056  0.00  0.00    -0.278 N 
ATOM      5  HN  UNL d   1       1.795   0.556   0.594  1.00  0.00     0.189 HD
ATOM      6  N   UNL d   1       0.366  -0.970   0.147  0.00  0.00    -0.286 N 
ATOM      7  HN  UNL d   1       0.640  -1.732   0.768  1.00  0.00     0.188 HD
ATOM      8  C   UNL d   1      -1.527   0.544  -2.490  0.00  0.00     0.159 C 
ENDROOT
BRANCH   2   9
ATOM      9  S   UNL d   1       0.644   2.628  -1.218  0.00  0.00    -0.083 SA
BRANCH   9  10
ATOM     10  C   UNL d   1       2.149   2.893  -0.236  0.00  0.00     0.185 C 
BRANCH  10  11
ATOM     11  C   UNL d   1       2.671   4.324  -0.194  0.00  0.00     0.231 C 
ATOM     12  N   UNL d   1       1.840   5.314  -0.685  0.00  0.00    -0.327 N 
ATOM     13  H   UNL d   1       0.920   5.015  -0.987  0.00  0.00     0.169 HD
ATOM     14  O   UNL d   1       3.780   4.521   0.309  0.00  0.00    -0.272 OA
BRANCH  12  15
ATOM     15  C   UNL d   1       2.139   6.691  -0.819  0.00  0.00     0.034 A 
ATOM     16  C   UNL d   1       3.392   7.240  -0.542  0.00  0.00     0.030 A 
ATOM     17  C   UNL d   1       3.640   8.605  -0.735  0.00  0.00     0.010 A 
ATOM     18  C   UNL d   1       2.640   9.462  -1.207  0.00  0.00    -0.055 A 
ATOM     19  C   UNL d   1       1.377   8.915  -1.468  0.00  0.00     0.010 A 
ATOM     20  C   UNL d   1       1.130   7.545  -1.278  0.00  0.00     0.030 A 
BRANCH  18  21
ATOM     21  C   UNL d   1       2.918  10.933  -1.463  0.00  0.00     0.010 C 
ATOM     22  C   UNL d   1       3.362  11.667  -0.194  0.00  0.00     0.015 C 
ATOM     23  C   UNL d   1       3.955  11.112  -2.577  0.00  0.00     0.015 C 
ENDBRANCH  18  21
ENDBRANCH  12  15
ENDBRANCH  10  11
ENDBRANCH   9  10
ENDBRANCH   2   9
BRANCH   3  24
ATOM     24  C   UNL d   1      -1.688  -2.054  -0.779  0.00  0.00     0.158 C 
BRANCH  24  25
ATOM     25  S   UNL d   1      -1.591  -3.043  -2.295  0.00  0.00    -0.115 SA
BRANCH  25  26
ATOM     26  C   UNL d   1      -3.070  -4.006  -2.254  0.00  0.00     0.041 A 
ATOM     27  S   UNL d   1      -4.008  -4.320  -0.856  0.00  0.00    -0.095 SA
ATOM     28  C   UNL d   1      -5.123  -5.280  -1.725  0.00  0.00     0.051 A 
ATOM     29  C   UNL d   1      -4.791  -5.371  -3.057  0.00  0.00     0.009 A 
ATOM     30  C   UNL d   1      -3.606  -4.637  -3.361  0.00  0.00     0.026 A 
ENDBRANCH  25  26
ENDBRANCH  24  25
ENDBRANCH   3  24
TORSDOF 8
