REMARK  3 active torsions:
REMARK  status: ('A' for Active; 'I' for Inactive)
REMARK    1  A    between atoms: C_3  and  C_4 
REMARK    2  A    between atoms: C_4  and  C_8 
REMARK    3  A    between atoms: O_15  and  C_5 
ROOT
ATOM      1  C   UNL d   1      -4.104  -1.251   0.136  0.00  0.00    -0.058 A 
ATOM      2  C   UNL d   1      -5.519  -3.573  -0.584  0.00  0.00     0.068 A 
ATOM      3  C   UNL d   1      -3.615  -2.520   0.473  0.00  0.00     0.010 A 
ATOM      4  C   UNL d   1      -5.340  -1.157  -0.513  0.00  0.00     0.010 A 
ATOM      5  C   UNL d   1      -6.046  -2.312  -0.863  0.00  0.00     0.037 A 
ATOM      6  C   UNL d   1      -4.314  -3.675   0.109  0.00  0.00     0.037 A 
ENDROOT
BRANCH   1   7
ATOM      7  C   UNL d   1      -3.298  -0.009   0.442  0.00  0.00     0.043 C 
BRANCH   7   8
ATOM      8  C   UNL d   1      -1.915   0.007  -0.253  0.00  0.00    -0.010 C 
ATOM      9  C   UNL d   1      -2.048  -0.031  -1.787  0.00  0.00     0.012 C 
ATOM     10  C   UNL d   1      -0.694  -0.003  -2.480  0.00  0.00     0.079 C 
ATOM     11  C   UNL d   1       0.129   1.164  -1.991  0.00  0.00     0.127 C 
ATOM     12  O   UNL d   1       0.766   1.874  -2.765  0.00  0.00    -0.298 OA
ATOM     13  C   UNL d   1       0.249   1.318  -0.493  0.00  0.00     0.079 C 
ATOM     14  C   UNL d   1      -1.121   1.256   0.171  0.00  0.00     0.012 C 
ENDBRANCH   7   8
ENDBRANCH   1   7
BRANCH   2  15
ATOM     15  O   UNL d   1      -6.276  -4.637  -0.994  0.00  0.00    -0.356 OA
ATOM     16  C   UNL d   1      -5.534  -5.795  -1.365  0.00  0.00     0.210 C 
ENDBRANCH   2  15
TORSDOF 3
