REMARK  6 active torsions:
REMARK  status: ('A' for Active; 'I' for Inactive)
REMARK    1  A    between atoms: N_3  and  S_1 
REMARK    2  A    between atoms: C_9  and  S_1 
REMARK    3  A    between atoms: C_2  and  C_5 
REMARK    4  A    between atoms: C_5  and  N_3 
REMARK    5  A    between atoms: S_6  and  C_4 
REMARK    6  A    between atoms: C_11  and  S_6 
ROOT
ATOM      1  C   UNL d   1       0.452  -0.630  -3.779  0.00  0.00    -0.001 A 
ATOM      2  C   UNL d   1       0.419  -2.047  -3.756  0.00  0.00     0.015 A 
ATOM      3  C   UNL d   1      -0.096   0.017  -4.914  0.00  0.00     0.043 A 
ATOM      4 CL   UNL d   1      -0.291   1.737  -5.007  0.00  0.00    -0.084 Cl
ATOM      5  C   UNL d   1      -0.023  -2.754  -4.892  0.00  0.00     0.019 A 
ATOM      6  C   UNL d   1      -0.476  -2.090  -6.028  0.00  0.00     0.003 A 
ATOM      7  C   UNL d   1      -0.534  -0.705  -6.029  0.00  0.00     0.024 A 
ENDROOT
BRANCH   1   8
ATOM      8  C   UNL d   1       1.013   0.211  -2.643  0.00  0.00     0.174 C 
BRANCH   8   9
ATOM      9  N   UNL d   1       2.258  -0.296  -2.081  0.00  0.00    -0.311 N 
ATOM     10  H   UNL d   1       2.318  -1.286  -1.849  0.00  0.00     0.172 HD
BRANCH   9  11
ATOM     11  S   UNL d   1       3.208   0.694  -1.128  0.00  0.00     0.259 S 
ATOM     12  O   UNL d   1       3.538   1.869  -1.909  0.00  0.00    -0.201 OA
ATOM     13  O   UNL d   1       4.224  -0.146  -0.541  0.00  0.00    -0.201 OA
BRANCH  11  14
ATOM     14  C   UNL d   1       2.114   1.188   0.178  0.00  0.00     0.079 A 
ATOM     15  C   UNL d   1       1.517   0.204   0.974  0.00  0.00     0.025 A 
ATOM     16  C   UNL d   1       0.692   0.584   2.032  0.00  0.00     0.002 A 
ATOM     17  C   UNL d   1       0.477   1.937   2.297  0.00  0.00     0.000 A 
ATOM     18  C   UNL d   1       1.071   2.915   1.496  0.00  0.00     0.002 A 
ATOM     19  C   UNL d   1       1.888   2.543   0.428  0.00  0.00     0.025 A 
ENDBRANCH  11  14
ENDBRANCH   9  11
ENDBRANCH   8   9
ENDBRANCH   1   8
BRANCH   2  20
ATOM     20  S   UNL d   1       1.044  -3.083  -2.433  0.00  0.00    -0.090 SA
BRANCH  20  21
ATOM     21  C   UNL d   1      -0.145  -3.034  -1.104  0.00  0.00     0.005 A 
ATOM     22  C   UNL d   1      -1.480  -2.642  -1.231  0.00  0.00     0.020 A 
ATOM     23  C   UNL d   1      -2.339  -2.679  -0.120  0.00  0.00     0.025 A 
ATOM     24  C   UNL d   1      -1.867  -3.111   1.119  0.00  0.00     0.034 A 
ATOM     25  C   UNL d   1      -0.545  -3.514   1.259  0.00  0.00     0.025 A 
ATOM     26 CL   UNL d   1      -2.922  -3.157   2.476  0.00  0.00    -0.084 Cl
ATOM     27  C   UNL d   1       0.308  -3.478   0.151  0.00  0.00     0.020 A 
ENDBRANCH  20  21
ENDBRANCH   2  20
TORSDOF 6
