REMARK  3 active torsions:
REMARK  status: ('A' for Active; 'I' for Inactive)
REMARK    1  A    between atoms: C_10  and  C_1 
REMARK    2  A    between atoms: C_12  and  C_5 
REMARK    3  A    between atoms: C_7  and  C_11 
ROOT
ATOM      1  C   UNL d   1      -0.833   0.987  -0.002  0.00  0.00     0.127 A 
ATOM      2  C   UNL d   1      -1.362  -0.277   0.088  0.00  0.00     0.074 A 
ATOM      3  N   UNL d   1       0.890  -0.446  -0.076  0.00  0.00    -0.260 N 
ATOM      4  HN  UNL d   1       1.838  -0.818  -0.127  1.00  0.00     0.195 HD
ATOM      5  C   UNL d   1      -0.250  -1.153   0.006  0.00  0.00     0.068 A 
ATOM      6  O   UNL d   1       0.521   0.887  -0.077  0.00  0.00    -0.235 OA
ENDROOT
BRANCH   5   7
ATOM      7  C   UNL d   1      -0.267  -2.614  -0.047  0.00  0.00    -0.007 A 
ATOM      8  C   UNL d   1       0.758  -3.312  -0.705  0.00  0.00     0.030 A 
ATOM      9  C   UNL d   1       0.715  -4.709  -0.837  0.00  0.00     0.048 A 
ATOM     10  C   UNL d   1      -0.365  -5.411  -0.279  0.00  0.00     0.016 A 
ATOM     11  C   UNL d   1      -1.378  -4.731   0.394  0.00  0.00     0.002 A 
ATOM     12  C   UNL d   1      -1.330  -3.340   0.509  0.00  0.00     0.014 A 
BRANCH   9  13
ATOM     13  C   UNL d   1       1.794  -5.456  -1.581  0.00  0.00     0.417 C 
ATOM     14  F   UNL d   1       2.779  -4.654  -2.073  0.00  0.00    -0.166 F 
ATOM     15  F   UNL d   1       2.419  -6.382  -0.803  0.00  0.00    -0.166 F 
ATOM     16  F   UNL d   1       1.303  -6.139  -2.653  0.00  0.00    -0.166 F 
ENDBRANCH   9  13
ENDBRANCH   5   7
BRANCH   1  17
ATOM     17  C   UNL d   1      -1.414   2.316  -0.065  0.00  0.00     0.071 A 
ATOM     18  N   UNL d   1      -2.761   2.326   0.040  0.00  0.00    -0.344 N 
ATOM     19  C   UNL d   1      -3.365   3.522  -0.052  0.00  0.00     0.077 A 
ATOM     20  HN  UNL d   1      -3.293   1.468   0.182  1.00  0.00     0.167 HD
ATOM     21  C   UNL d   1      -4.857   3.560   0.051  0.00  0.00     0.089 C 
ATOM     22  N   UNL d   1      -2.723   4.688  -0.243  0.00  0.00    -0.356 N 
ATOM     23  C   UNL d   1      -1.383   4.627  -0.340  0.00  0.00     0.091 A 
ATOM     24  HN  UNL d   1      -3.226   5.573  -0.310  1.00  0.00     0.166 HD
ATOM     25  C   UNL d   1      -0.667   3.458  -0.256  0.00  0.00     0.049 A 
ENDBRANCH   1  17
TORSDOF 3
