REMARK  5 active torsions:
REMARK  status: ('A' for Active; 'I' for Inactive)
REMARK       I    between atoms: C_7  and  N_1 
REMARK    1  A    between atoms: C_8  and  C_2 
REMARK    2  A    between atoms: C_9  and  C_6 
REMARK    3  A    between atoms: C_12  and  C_7 
REMARK    4  A    between atoms: O_17  and  C_8 
REMARK    5  A    between atoms: C_20  and  O_17 
ROOT
ATOM      1  N   UNL d   1       0.804  -0.819   0.096  0.00  0.00    -0.213 N 
ATOM      2  C   UNL d   1      -0.502  -1.253   0.213  0.00  0.00     0.137 A 
ATOM      3  N   UNL d   1       0.873   0.539  -0.020  0.00  0.00    -0.289 N 
ATOM      4  HN  UNL d   1       1.714   1.111  -0.093  1.00  0.00     0.188 HD
ATOM      5  C   UNL d   1      -1.288  -0.121   0.080  0.00  0.00     0.070 A 
ATOM      6  C   UNL d   1      -0.393   0.960  -0.020  0.00  0.00     0.068 A 
ATOM      7  C   UNL d   1       2.006  -1.561   0.044  0.00  0.00     0.277 C 
ATOM      8  O   UNL d   1       1.946  -2.731  -0.319  0.00  0.00    -0.265 OA
ENDROOT
BRANCH   2   9
ATOM      9  C   UNL d   1      -0.949  -2.582   0.524  0.00  0.00     0.312 C 
ATOM     10  O   UNL d   1      -2.027  -3.048   0.183  0.00  0.00    -0.258 OA
BRANCH   9  11
ATOM     11  O   UNL d   1      -0.110  -3.140   1.438  0.00  0.00    -0.317 OA
BRANCH  11  12
ATOM     12  C   UNL d   1      -0.611  -4.271   2.166  0.00  0.00     0.175 C 
ATOM     13  C   UNL d   1      -0.016  -5.565   1.651  0.00  0.00     0.034 C 
ENDBRANCH  11  12
ENDBRANCH   9  11
ENDBRANCH   2   9
BRANCH   7  14
ATOM     14  C   UNL d   1       3.329  -0.965   0.393  0.00  0.00     0.034 A 
ATOM     15  C   UNL d   1       3.432  -0.002   1.408  0.00  0.00     0.017 A 
ATOM     16  C   UNL d   1       4.667   0.566   1.719  0.00  0.00     0.001 A 
ATOM     17  C   UNL d   1       5.808   0.159   1.031  0.00  0.00     0.000 A 
ATOM     18  C   UNL d   1       5.719  -0.825   0.044  0.00  0.00     0.001 A 
ATOM     19  C   UNL d   1       4.483  -1.395  -0.272  0.00  0.00     0.017 A 
ENDBRANCH   7  14
BRANCH   6  20
ATOM     20  C   UNL d   1      -0.733   2.420  -0.064  0.00  0.00     0.033 A 
ATOM     21  S   UNL d   1      -2.309   3.051   0.133  0.00  0.00    -0.100 SA
ATOM     22  C   UNL d   1      -1.749   4.664   0.013  0.00  0.00     0.050 A 
ATOM     23  C   UNL d   1      -0.391   4.723  -0.205  0.00  0.00     0.008 A 
ATOM     24  C   UNL d   1       0.199   3.425  -0.244  0.00  0.00     0.021 A 
ENDBRANCH   6  20
TORSDOF 5
