REMARK  5 active torsions:
REMARK  status: ('A' for Active; 'I' for Inactive)
REMARK    1  A    between atoms: N_5  and  C_3 
REMARK    2  A    between atoms: C_10  and  C_4 
REMARK       I    between atoms: C_7  and  N_5 
REMARK    3  A    between atoms: C_6  and  C_10 
REMARK       I    between atoms: N_14  and  C_7 
REMARK    4  A    between atoms: C_11  and  C_18 
REMARK    5  A    between atoms: C_18  and  N_14 
ROOT
ATOM      1  N   UNL d   1       1.160  -0.877   0.335  0.00  0.00    -0.339 N 
ATOM      2  HN  UNL d   1       2.044  -1.381   0.411  1.00  0.00     0.168 HD
ATOM      3  C   UNL d   1       1.040   0.494   0.293  0.00  0.00     0.116 A 
ATOM      4  C   UNL d   1      -0.026  -1.445   0.262  0.00  0.00     0.056 A 
ATOM      5  S   UNL d   1      -1.334  -0.347   0.030  0.00  0.00    -0.085 SA
ATOM      6  C   UNL d   1      -0.227   0.958   0.029  0.00  0.00     0.100 A 
ENDROOT
BRANCH   3   7
ATOM      7  N   UNL d   1       2.208   1.207   0.401  0.00  0.00    -0.294 N 
ATOM      8  C   UNL d   1       2.478   2.480   0.731  0.00  0.00     0.321 C 
ATOM      9  N   UNL d   1       1.722   3.213   1.565  0.00  0.00    -0.342 N 
ATOM     10  O   UNL d   1       3.548   2.979   0.358  0.00  0.00    -0.247 OA
ATOM     11  H   UNL d   1       2.200   4.077   1.782  0.00  0.00     0.164 HD
ATOM     12  H   UNL d   1       3.018   0.676   0.113  0.00  0.00     0.172 HD
BRANCH   9  13
ATOM     13  C   UNL d   1       0.605   2.902   2.436  0.00  0.00     0.129 C 
BRANCH  13  14
ATOM     14  C   UNL d   1       0.951   1.929   3.521  0.00  0.00     0.003 A 
ATOM     15  C   UNL d   1      -0.119   1.011   4.068  0.00  0.00     0.007 A 
ATOM     16  C   UNL d   1       0.394   2.140   4.910  0.00  0.00     0.007 A 
ENDBRANCH  13  14
ENDBRANCH   9  13
ENDBRANCH   3   7
BRANCH   4  17
ATOM     17  C   UNL d   1      -0.254  -2.930   0.228  0.00  0.00     0.107 C 
BRANCH  17  18
ATOM     18  C   UNL d   1      -0.447  -3.604   1.575  0.00  0.00    -0.009 A 
ATOM     19  C   UNL d   1      -1.731  -3.780   2.133  0.00  0.00     0.042 A 
ATOM     20 CL   UNL d   1      -3.161  -3.160   1.384  0.00  0.00    -0.084 Cl
ATOM     21  C   UNL d   1      -1.918  -4.506   3.318  0.00  0.00     0.024 A 
ATOM     22  C   UNL d   1      -0.833  -5.072   3.977  0.00  0.00     0.003 A 
ATOM     23  C   UNL d   1       0.447  -4.883   3.466  0.00  0.00     0.024 A 
ATOM     24  C   UNL d   1       0.641  -4.148   2.288  0.00  0.00     0.042 A 
ATOM     25 CL   UNL d   1       2.276  -3.983   1.747  0.00  0.00    -0.084 Cl
ENDBRANCH  17  18
ENDBRANCH   4  17
TORSDOF 5
