REMARK  6 active torsions:
REMARK  status: ('A' for Active; 'I' for Inactive)
REMARK    1  A    between atoms: S_12  and  C_2 
REMARK    2  A    between atoms: C_6  and  C_3 
REMARK       I    between atoms: N_8  and  C_6 
REMARK    3  A    between atoms: C_7  and  N_9 
REMARK    4  A    between atoms: N_14  and  C_7 
REMARK    5  A    between atoms: N_9  and  N_8 
REMARK    6  A    between atoms: O_16  and  C_10 
ROOT
ATOM      1  C   UNL d   1       0.057  -0.800  -0.018  0.00  0.00     0.002 A 
ATOM      2  C   UNL d   1       1.192  -1.595   0.031  0.00  0.00     0.051 A 
ATOM      3  C   UNL d   1       1.766   0.834   0.093  0.00  0.00     0.082 A 
ATOM      4  C   UNL d   1       0.394   0.614   0.089  0.00  0.00    -0.025 A 
ATOM      5  S   UNL d   1       2.616  -0.652   0.101  0.00  0.00    -0.076 SA
ATOM      6  C   UNL d   1      -1.380  -1.255  -0.136  0.00  0.00     0.153 C 
ATOM      7  C   UNL d   1      -0.669   1.685   0.120  0.00  0.00     0.041 C 
ATOM      8  C   UNL d   1      -2.051   1.115   0.457  0.00  0.00     0.007 C 
ATOM      9  C   UNL d   1      -2.357  -0.104  -0.407  0.00  0.00     0.037 C 
ENDROOT
BRANCH   3  10
ATOM     10  C   UNL d   1       2.499   2.105   0.105  0.00  0.00     0.277 C 
ATOM     11  N   UNL d   1       3.878   2.003  -0.022  0.00  0.00    -0.263 N 
ATOM     12  H   UNL d   1       4.337   1.109  -0.174  0.00  0.00     0.190 HD
ATOM     13  O   UNL d   1       1.962   3.207   0.209  0.00  0.00    -0.265 OA
BRANCH  11  14
ATOM     14  N   UNL d   1       4.686   3.149  -0.006  0.00  0.00    -0.274 N 
ATOM     15  H   UNL d   1       4.178   4.029   0.063  0.00  0.00     0.189 HD
BRANCH  14  16
ATOM     16  C   UNL d   1       5.968   3.125  -0.544  0.00  0.00     0.186 C 
ATOM     17  S   UNL d   1       6.675   1.754  -1.197  0.00  0.00    -0.040 SA
BRANCH  16  18
ATOM     18  N   UNL d   1       6.571   4.363  -0.439  0.00  0.00    -0.370 N 
ATOM     19  C   UNL d   1       7.911   4.727  -0.868  0.00  0.00     0.148 C 
ATOM     20  H   UNL d   1       6.126   5.018   0.189  0.00  0.00     0.161 HD
ENDBRANCH  16  18
ENDBRANCH  14  16
ENDBRANCH  11  14
ENDBRANCH   3  10
BRANCH   2  21
ATOM     21  S   UNL d   1       1.379  -3.345  -0.051  0.00  0.00    -0.126 SA
ATOM     22  C   UNL d   1       0.037  -3.992   0.961  0.00  0.00     0.096 C 
ENDBRANCH   2  21
BRANCH   6  23
ATOM     23  O   UNL d   1      -1.562  -2.206  -1.183  0.00  0.00    -0.391 OA
ATOM     24  H   UNL d   1      -0.984  -1.934  -1.918  0.00  0.00     0.210 HD
ENDBRANCH   6  23
TORSDOF 6
