REMARK  4 active torsions:
REMARK  status: ('A' for Active; 'I' for Inactive)
REMARK    1  A    between atoms: N_2  and  S_1 
REMARK    2  A    between atoms: C_6  and  S_1 
REMARK    3  A    between atoms: C_7  and  C_3 
REMARK    4  A    between atoms: C_10  and  C_12 
ROOT
ATOM      1  N   UNL d   1       0.435  -0.318   1.558  0.00  0.00    -0.177 N 
ATOM      2  C   UNL d   1       0.363  -1.546   2.220  0.00  0.00     0.070 A 
ATOM      3  N   UNL d   1       0.038   0.729   2.344  0.00  0.00    -0.295 N 
ATOM      4  HN  UNL d   1       0.002   1.718   2.100  1.00  0.00     0.187 HD
ATOM      5  C   UNL d   1      -0.110  -1.231   3.485  0.00  0.00     0.051 A 
ATOM      6  C   UNL d   1      -0.290   0.160   3.501  0.00  0.00     0.111 A 
ENDROOT
BRANCH   1   7
ATOM      7  S   UNL d   1       1.017  -0.114  -0.062  0.00  0.00     0.282 S 
ATOM      8  O   UNL d   1       0.096  -0.853  -0.908  0.00  0.00    -0.198 OA
ATOM      9  O   UNL d   1       2.434  -0.428  -0.011  0.00  0.00    -0.198 OA
BRANCH   7  10
ATOM     10  C   UNL d   1       0.823   1.618  -0.394  0.00  0.00     0.081 A 
ATOM     11  C   UNL d   1       1.871   2.500  -0.111  0.00  0.00     0.027 A 
ATOM     12  C   UNL d   1       1.703   3.865  -0.351  0.00  0.00     0.025 A 
ATOM     13  C   UNL d   1       0.500   4.335  -0.880  0.00  0.00     0.034 A 
ATOM     14  C   UNL d   1      -0.536   3.450  -1.183  0.00  0.00     0.025 A 
ATOM     15 CL   UNL d   1       0.291   6.020  -1.159  0.00  0.00    -0.084 Cl
ATOM     16  C   UNL d   1      -0.376   2.084  -0.945  0.00  0.00     0.027 A 
ENDBRANCH   7  10
ENDBRANCH   1   7
BRANCH   2  17
ATOM     17  C   UNL d   1       0.730  -2.778   1.607  0.00  0.00     0.034 C 
ATOM     18  C   UNL d   1       0.638  -3.943   2.272  0.00  0.00     0.021 C 
BRANCH  18  19
ATOM     19  C   UNL d   1       0.995  -5.184   1.663  0.00  0.00     0.004 A 
ATOM     20  S   UNL d   1       0.309  -6.646   2.272  0.00  0.00    -0.102 SA
ATOM     21  C   UNL d   1       1.128  -7.605   1.122  0.00  0.00     0.050 A 
ATOM     22  C   UNL d   1       1.931  -6.851   0.300  0.00  0.00     0.008 A 
ATOM     23  C   UNL d   1       1.855  -5.463   0.612  0.00  0.00     0.019 A 
ENDBRANCH  18  19
ENDBRANCH   2  17
TORSDOF 4
