REMARK  7 active torsions:
REMARK  status: ('A' for Active; 'I' for Inactive)
REMARK    1  A    between atoms: O_4  and  S_1 
REMARK    2  A    between atoms: C_7  and  S_1 
REMARK    3  A    between atoms: S_2  and  C_3 
REMARK    4  A    between atoms: C_10  and  S_2 
REMARK    5  A    between atoms: C_3  and  C_8 
REMARK    6  A    between atoms: N_5  and  O_4 
REMARK    7  A    between atoms: N_19  and  C_8 
ROOT
ATOM      1  N   UNL d   1       0.590   1.762  -1.990  0.00  0.00    -0.236 N 
ATOM      2  HN  UNL d   1       0.230   0.977  -1.446  1.00  0.00     0.197 HD
ATOM      3  C   UNL d   1       0.388   1.916  -3.262  0.00  0.00     0.110 C 
ENDROOT
BRANCH   1   4
ATOM      4  O   UNL d   1       1.370   2.814  -1.445  0.00  0.00    -0.146 OA
BRANCH   4   5
ATOM      5  S   UNL d   1       1.583   2.677   0.186  0.00  0.00     0.318 S 
ATOM      6  O   UNL d   1       2.170   1.384   0.489  0.00  0.00    -0.191 OA
ATOM      7  O   UNL d   1       0.380   3.131   0.861  0.00  0.00    -0.191 OA
BRANCH   5   8
ATOM      8  C   UNL d   1       2.841   3.896   0.543  0.00  0.00     0.090 A 
ATOM      9  C   UNL d   1       2.466   5.218   0.787  0.00  0.00     0.051 A 
ATOM     10  C   UNL d   1       3.431   6.155   1.166  0.00  0.00     0.057 A 
ATOM     11 CL   UNL d   1       2.912   7.774   1.461  0.00  0.00    -0.083 Cl
ATOM     12  C   UNL d   1       4.775   5.763   1.302  0.00  0.00     0.055 A 
ATOM     13  C   UNL d   1       5.140   4.434   1.056  0.00  0.00     0.027 A 
ATOM     14 CL   UNL d   1       6.016   6.862   1.782  0.00  0.00    -0.083 Cl
ATOM     15  C   UNL d   1       4.177   3.496   0.681  0.00  0.00     0.027 A 
ENDBRANCH   5   8
ENDBRANCH   4   5
ENDBRANCH   1   4
BRANCH   3  16
ATOM     16  C   UNL d   1      -0.434   0.845  -3.934  0.00  0.00     0.218 C 
BRANCH  16  17
ATOM     17  S   UNL d   1       0.450  -0.054  -5.181  0.00  0.00     0.158 S 
ATOM     18  O   UNL d   1      -0.504  -1.005  -5.731  0.00  0.00    -0.227 OA
ATOM     19  O   UNL d   1       1.049   0.925  -6.076  0.00  0.00    -0.227 OA
BRANCH  17  20
ATOM     20  C   UNL d   1       1.792  -1.028  -4.392  0.00  0.00     0.053 C 
ATOM     21  C   UNL d   1       1.228  -1.898  -3.263  0.00  0.00     0.031 C 
ATOM     22  C   UNL d   1       2.398  -1.945  -5.474  0.00  0.00     0.031 C 
ATOM     23  C   UNL d   1       2.907  -0.121  -3.860  0.00  0.00     0.031 C 
ENDBRANCH  17  20
ENDBRANCH  16  17
ENDBRANCH   3  16
BRANCH   3  24
ATOM     24  N   UNL d   1       0.814   2.985  -3.999  0.00  0.00    -0.387 N 
ATOM     25  H   UNL d   1       0.746   2.993  -5.016  0.00  0.00     0.157 HD
ATOM     26  H   UNL d   1       1.333   3.734  -3.561  0.00  0.00     0.157 HD
ENDBRANCH   3  24
TORSDOF 7
