REMARK  4 active torsions:
REMARK  status: ('A' for Active; 'I' for Inactive)
REMARK    1  A    between atoms: C_12  and  C_1 
REMARK    2  A    between atoms: C_17  and  C_1 
REMARK    3  A    between atoms: N_3  and  C_8 
REMARK    4  A    between atoms: C_10  and  C_4 
ROOT
ATOM      1  C   UNL d   1      -1.261   1.491   0.177  0.00  0.00     0.119 C 
ATOM      2  O   UNL d   1      -2.433   0.711  -0.128  0.00  0.00    -0.346 OA
ATOM      3  C   UNL d   1      -2.342  -0.646   0.265  0.00  0.00     0.234 C 
ATOM      4  N   UNL d   1      -1.258  -1.319  -0.417  0.00  0.00    -0.262 NA
ATOM      5  C   UNL d   1       0.036   0.669   0.140  0.00  0.00     0.002 A 
ATOM      6  C   UNL d   1      -0.025  -0.710  -0.122  0.00  0.00     0.020 A 
ATOM      7  C   UNL d   1       1.292   1.274   0.338  0.00  0.00     0.012 A 
ATOM      8  C   UNL d   1       1.161  -1.448  -0.219  0.00  0.00     0.024 A 
ATOM      9  C   UNL d   1       2.464   0.522   0.275  0.00  0.00     0.001 A 
ATOM     10  C   UNL d   1       2.398  -0.840  -0.002  0.00  0.00     0.002 A 
ATOM     11  H   UNL d   1      -1.242  -2.314  -0.215  0.00  0.00     0.130 HD
ENDROOT
BRANCH   3  12
ATOM     12  C   UNL d   1      -3.670  -1.325  -0.028  0.00  0.00    -0.015 A 
ATOM     13  C   UNL d   1      -4.114  -1.532  -1.345  0.00  0.00     0.013 A 
ATOM     14  C   UNL d   1      -5.354  -2.130  -1.595  0.00  0.00     0.037 A 
ATOM     15  C   UNL d   1      -6.162  -2.521  -0.521  0.00  0.00     0.102 A 
ATOM     16  C   UNL d   1      -5.737  -2.324   0.799  0.00  0.00     0.037 A 
ATOM     17  C   UNL d   1      -4.497  -1.727   1.038  0.00  0.00     0.013 A 
BRANCH  15  18
ATOM     18  N   UNL d   1      -7.471  -3.137  -0.772  0.00  0.00    -0.116 N 
ATOM     19  O   UNL d   1      -8.161  -3.452   0.209  0.00  0.00    -0.532 OA
ATOM     20  O   UNL d   1      -7.810  -3.310  -1.952  0.00  0.00    -0.532 OA
ENDBRANCH  15  18
ENDBRANCH   3  12
BRANCH   1  21
ATOM     21  C   UNL d   1      -1.212   2.585  -0.933  0.00  0.00    -0.019 A 
ATOM     22  C   UNL d   1      -1.266   3.966  -0.664  0.00  0.00     0.010 A 
ATOM     23  C   UNL d   1      -1.155   4.915  -1.685  0.00  0.00     0.001 A 
ATOM     24  C   UNL d   1      -0.988   4.507  -3.003  0.00  0.00     0.000 A 
ATOM     25  C   UNL d   1      -0.948   3.147  -3.304  0.00  0.00     0.001 A 
ATOM     26  C   UNL d   1      -1.065   2.199  -2.282  0.00  0.00     0.010 A 
ENDBRANCH   1  21
BRANCH   1  27
ATOM     27  C   UNL d   1      -1.463   2.137   1.591  0.00  0.00     0.044 C 
ATOM     28  C   UNL d   1      -1.603   1.207   2.791  0.00  0.00     0.009 C 
ENDBRANCH   1  27
TORSDOF 4
