REMARK  2 active torsions:
REMARK  status: ('A' for Active; 'I' for Inactive)
REMARK    1  A    between atoms: C_3  and  N_4 
REMARK       I    between atoms: C_5  and  N_4 
REMARK    2  A    between atoms: C_9  and  C_5 
ROOT
ATOM      1  N   UNL d   1      -1.140  -1.111  -2.001  0.00  0.00    -0.351 N 
ATOM      2  C   UNL d   1      -1.742  -2.278  -2.425  0.00  0.00     0.252 C 
ATOM      3  O   UNL d   1      -2.263  -3.088  -1.670  0.00  0.00    -0.268 OA
ATOM      4  H   UNL d   1      -0.569  -0.594  -2.654  0.00  0.00     0.163 HD
ENDROOT
BRANCH   1   5
ATOM      5  C   UNL d   1      -1.166  -0.674  -0.610  0.00  0.00     0.094 C 
ATOM      6  C   UNL d   1       0.044  -1.133   0.283  0.00  0.00    -0.016 C 
ATOM      7  C   UNL d   1       0.051  -0.058   1.425  0.00  0.00    -0.035 C 
ATOM      8  C   UNL d   1       1.355  -0.805  -0.479  0.00  0.00     0.012 C 
ATOM      9  C   UNL d   1      -0.033  -2.576   0.747  0.00  0.00     0.018 C 
ATOM     10  C   UNL d   1       0.147   1.095   0.396  0.00  0.00    -0.004 C 
ATOM     11  C   UNL d   1       1.246  -0.109   2.402  0.00  0.00     0.016 C 
ATOM     12  C   UNL d   1      -1.212  -0.013   2.309  0.00  0.00     0.016 C 
ATOM     13  C   UNL d   1       1.398   0.732  -0.438  0.00  0.00     0.006 C 
ATOM     14  C   UNL d   1      -1.079   0.868  -0.516  0.00  0.00     0.031 C 
ENDBRANCH   1   5
BRANCH   2  15
ATOM     15  C   UNL d   1      -1.758  -2.526  -3.899  0.00  0.00     0.032 A 
ATOM     16  C   UNL d   1      -1.803  -3.852  -4.354  0.00  0.00     0.018 A 
ATOM     17  C   UNL d   1      -1.923  -4.127  -5.721  0.00  0.00     0.025 A 
ATOM     18  C   UNL d   1      -2.011  -3.077  -6.633  0.00  0.00     0.034 A 
ATOM     19  C   UNL d   1      -1.959  -1.755  -6.193  0.00  0.00     0.025 A 
ATOM     20 CL   UNL d   1      -2.216  -3.413  -8.308  0.00  0.00    -0.084 Cl
ATOM     21  C   UNL d   1      -1.831  -1.476  -4.826  0.00  0.00     0.018 A 
ENDBRANCH   2  15
TORSDOF 2
