REMARK  7 active torsions:
REMARK  status: ('A' for Active; 'I' for Inactive)
REMARK    1  A    between atoms: C_2  and  S_1 
REMARK    2  A    between atoms: N_7  and  S_1 
REMARK    3  A    between atoms: C_6  and  N_7 
REMARK    4  A    between atoms: N_10  and  C_9 
REMARK    5  A    between atoms: C_12  and  C_13 
REMARK    6  A    between atoms: O_22  and  C_12 
REMARK    7  A    between atoms: C_27  and  O_22 
ROOT
ATOM      1  C   UNL d   1       0.645  -1.562   2.095  0.00  0.00     0.050 A 
ATOM      2  C   UNL d   1       2.003  -1.937   1.884  0.00  0.00     0.052 A 
ATOM      3  C   UNL d   1      -0.167  -2.223   3.033  0.00  0.00     0.044 A 
ATOM      4  C   UNL d   1       0.322  -3.286   3.789  0.00  0.00     0.041 A 
ATOM      5  C   UNL d   1       2.442  -3.040   2.656  0.00  0.00     0.032 A 
ATOM      6  C   UNL d   1       1.635  -3.699   3.596  0.00  0.00     0.020 A 
ENDROOT
BRANCH   1   7
ATOM      7  N   UNL d   1       0.022  -0.463   1.400  0.00  0.00    -0.179 NA
ATOM      8  H   UNL d   1      -0.915  -0.716   1.080  0.00  0.00     0.146 HD
BRANCH   7   9
ATOM      9  S   UNL d   1      -0.115   0.968   2.302  0.00  0.00     0.252 S 
ATOM     10  O   UNL d   1      -1.360   0.910   3.026  0.00  0.00    -0.205 OA
ATOM     11  O   UNL d   1       1.138   1.267   2.946  0.00  0.00    -0.205 OA
BRANCH   9  12
ATOM     12  C   UNL d   1      -0.324   2.293   1.132  0.00  0.00     0.118 A 
ATOM     13  S   UNL d   1      -1.625   2.128   0.027  0.00  0.00    -0.064 SA
ATOM     14  C   UNL d   1      -1.331   3.666  -0.628  0.00  0.00     0.093 A 
ATOM     15 CL   UNL d   1      -2.381   4.266  -1.849  0.00  0.00    -0.075 Cl
ATOM     16  C   UNL d   1      -0.241   4.276  -0.068  0.00  0.00     0.041 A 
ATOM     17  C   UNL d   1       0.366   3.476   0.935  0.00  0.00     0.053 A 
ATOM     18 BR   UNL d   1       0.430   5.989  -0.488  0.00  0.00    -0.049 Br
ENDBRANCH   9  12
ENDBRANCH   7   9
ENDBRANCH   1   7
BRANCH   2  19
ATOM     19  N   UNL d   1       2.870  -1.390   0.921  0.00  0.00    -0.375 N 
ATOM     20  C   UNL d   1       4.319  -1.289   1.237  0.00  0.00     0.149 C 
ATOM     21  C   UNL d   1       5.109  -1.248  -0.080  0.00  0.00     0.187 C 
ATOM     22  O   UNL d   1       4.763  -0.077  -0.832  0.00  0.00    -0.388 OA
ATOM     23  C   UNL d   1       3.373  -0.113  -1.173  0.00  0.00     0.187 C 
ATOM     24  C   UNL d   1       2.447  -0.272   0.048  0.00  0.00     0.149 C 
ENDBRANCH   2  19
BRANCH   4  25
ATOM     25  C   UNL d   1      -0.578  -3.880   4.809  0.00  0.00     0.293 C 
ATOM     26  O   UNL d   1      -1.738  -3.532   4.953  0.00  0.00    -0.259 OA
BRANCH  25  27
ATOM     27  O   UNL d   1       0.105  -4.740   5.602  0.00  0.00    -0.318 OA
BRANCH  27  28
ATOM     28  C   UNL d   1      -0.486  -4.963   6.891  0.00  0.00     0.174 C 
ATOM     29  C   UNL d   1       0.111  -3.944   7.844  0.00  0.00     0.034 C 
ENDBRANCH  27  28
ENDBRANCH  25  27
ENDBRANCH   4  25
TORSDOF 7
