REMARK  3 active torsions:
REMARK  status: ('A' for Active; 'I' for Inactive)
REMARK    1  A    between atoms: N_3  and  C_1 
REMARK    2  A    between atoms: C_7  and  C_2 
REMARK    3  A    between atoms: O_11  and  C_7 
ROOT
ATOM      1  C   UNL d   1       0.123   1.260  -0.008  0.00  0.00     0.144 A 
ATOM      2  C   UNL d   1       1.456  -0.669   0.002  0.00  0.00     0.047 A 
ATOM      3  C   UNL d   1       1.415   0.772  -0.000  0.00  0.00     0.062 A 
ATOM      4  S   UNL d   1      -1.044   0.032  -0.012  0.00  0.00    -0.077 SA
ATOM      5  C   UNL d   1       0.165  -1.178  -0.004  0.00  0.00     0.070 A 
ENDROOT
BRANCH   2   6
ATOM      6  C   UNL d   1       2.617  -1.565   0.010  0.00  0.00     0.176 C 
ATOM      7  O   UNL d   1       2.515  -2.784   0.011  0.00  0.00    -0.646 OA
BRANCH   6   8
ATOM      8  O   UNL d   1       3.830  -0.962   0.015  0.00  0.00    -0.773 OA
ATOM      9  H   UNL d   1       3.812   0.008   0.012  0.00  0.00     0.167 HD
ENDBRANCH   6   8
ENDBRANCH   2   6
BRANCH   1  10
ATOM     10  N   UNL d   1      -0.268   2.647  -0.013  0.00  0.00    -0.108 N 
ATOM     11  O   UNL d   1       0.658   3.471  -0.012  0.00  0.00    -0.531 OA
ATOM     12  O   UNL d   1      -1.474   2.922  -0.018  0.00  0.00    -0.531 OA
ENDBRANCH   1  10
TORSDOF 3
