REMARK  6 active torsions:
REMARK  status: ('A' for Active; 'I' for Inactive)
REMARK    1  A    between atoms: C_10  and  C_3 
REMARK    2  A    between atoms: C_9  and  C_14 
REMARK    3  A    between atoms: S_19  and  C_13 
REMARK    4  A    between atoms: C_15  and  C_28 
REMARK       I    between atoms: N_18  and  C_15 
REMARK    5  A    between atoms: C_21  and  N_18 
REMARK    6  A    between atoms: C_28  and  S_19 
ROOT
ATOM      1  C   UNL d   1      -3.788   0.525  -0.267  0.00  0.00     0.053 A 
ATOM      2  N   UNL d   1      -4.569  -0.306   0.449  0.00  0.00    -0.336 N 
ATOM      3  HN  UNL d   1      -4.171  -1.034   1.042  1.00  0.00     0.168 HD
ATOM      4  C   UNL d   1      -5.892  -0.131   0.346  0.00  0.00     0.145 A 
ATOM      5  N   UNL d   1      -6.499   0.781  -0.422  0.00  0.00    -0.347 N 
ATOM      6  HN  UNL d   1      -7.515   0.857  -0.472  1.00  0.00     0.167 HD
ATOM      7  C   UNL d   1      -4.315   1.508  -1.082  0.00  0.00     0.048 A 
ATOM      8  C   UNL d   1      -5.687   1.589  -1.124  0.00  0.00     0.092 A 
ENDROOT
BRANCH   4   9
ATOM      9  S   UNL d   1      -6.876  -1.349   1.169  0.00  0.00    -0.085 SA
BRANCH   9  10
ATOM     10  C   UNL d   1      -7.858  -1.892  -0.248  0.00  0.00     0.185 C 
BRANCH  10  11
ATOM     11  C   UNL d   1      -7.094  -2.535  -1.399  0.00  0.00     0.231 C 
ATOM     12  N   UNL d   1      -5.751  -2.799  -1.209  0.00  0.00    -0.327 N 
ATOM     13  H   UNL d   1      -5.372  -2.603  -0.287  0.00  0.00     0.169 HD
ATOM     14  O   UNL d   1      -7.729  -2.832  -2.414  0.00  0.00    -0.272 OA
BRANCH  12  15
ATOM     15  C   UNL d   1      -4.868  -3.412  -2.125  0.00  0.00     0.035 A 
ATOM     16  C   UNL d   1      -5.199  -3.666  -3.459  0.00  0.00     0.045 A 
ATOM     17  C   UNL d   1      -4.333  -4.383  -4.300  0.00  0.00     0.050 A 
ATOM     18  C   UNL d   1      -3.103  -4.821  -3.793  0.00  0.00     0.016 A 
ATOM     19  C   UNL d   1      -2.738  -4.521  -2.481  0.00  0.00     0.003 A 
ATOM     20  C   UNL d   1      -3.612  -3.810  -1.654  0.00  0.00     0.029 A 
BRANCH  17  21
ATOM     21  C   UNL d   1      -4.739  -4.710  -5.715  0.00  0.00     0.417 C 
ATOM     22  F   UNL d   1      -5.901  -4.121  -6.111  0.00  0.00    -0.166 F 
ATOM     23  F   UNL d   1      -3.802  -4.327  -6.628  0.00  0.00    -0.166 F 
ATOM     24  F   UNL d   1      -4.916  -6.048  -5.905  0.00  0.00    -0.166 F 
ENDBRANCH  17  21
ENDBRANCH  12  15
ENDBRANCH  10  11
ENDBRANCH   9  10
ENDBRANCH   4   9
BRANCH   1  25
ATOM     25  C   UNL d   1      -2.341   0.259  -0.128  0.00  0.00     0.039 A 
ATOM     26  S   UNL d   1      -1.325   0.509  -1.511  0.00  0.00    -0.079 SA
ATOM     27  C   UNL d   1       0.006   0.003  -0.660  0.00  0.00     0.059 A 
ATOM     28  C   UNL d   1      -0.239  -0.366   0.613  0.00  0.00     0.003 A 
ATOM     29  S   UNL d   1       1.598  -0.129  -1.134  0.00  0.00    -0.074 SA
ATOM     30  C   UNL d   1      -1.611  -0.230   0.979  0.00  0.00    -0.030 A 
ATOM     31  C   UNL d   1       0.931  -0.813   1.304  0.00  0.00    -0.025 A 
ATOM     32  C   UNL d   1      -2.271  -0.516   2.294  0.00  0.00     0.050 C 
ATOM     33  C   UNL d   1       1.100  -1.318   2.698  0.00  0.00     0.051 C 
ATOM     34  C   UNL d   1       2.002  -0.716   0.414  0.00  0.00     0.059 A 
ATOM     35 BR   UNL d   1       3.780  -1.189   0.819  0.00  0.00    -0.042 Br
ENDBRANCH   1  25
TORSDOF 6
