REMARK  4 active torsions:
REMARK  status: ('A' for Active; 'I' for Inactive)
REMARK    1  A    between atoms: N_4  and  C_1 
REMARK    2  A    between atoms: N_5  and  C_2 
REMARK    3  A    between atoms: N_10  and  C_3 
REMARK    4  A    between atoms: C_6  and  C_7 
ROOT
ATOM      1  C   UNL d   1       1.355  -0.259   0.070  0.00  0.00     0.132 A 
ATOM      2  C   UNL d   1      -0.834  -1.119   0.169  0.00  0.00     0.132 A 
ATOM      3  C   UNL d   1       0.544  -1.418   0.008  0.00  0.00     0.097 A 
ATOM      4  C   UNL d   1      -0.517   1.297   0.296  0.00  0.00     0.052 A 
ATOM      5  C   UNL d   1      -1.363   0.189   0.309  0.00  0.00     0.054 A 
ATOM      6  C   UNL d   1       0.854   1.060   0.199  0.00  0.00     0.054 A 
ENDROOT
BRANCH   3   7
ATOM      7  N   UNL d   1       0.996  -2.701  -0.291  0.00  0.00    -0.373 N 
ATOM      8  C   UNL d   1       2.208  -2.950  -1.112  0.00  0.00     0.153 C 
ATOM      9  C   UNL d   1       2.093  -4.296  -1.868  0.00  0.00     0.289 C 
ATOM     10  N   UNL d   1       1.769  -5.445  -1.004  0.00  0.00     0.086 N 
ATOM     11  C   UNL d   1       0.581  -5.135  -0.184  0.00  0.00     0.289 C 
ATOM     12  H   UNL d   1       1.568  -6.254  -1.591  0.00  0.00     0.316 HD
ATOM     13  C   UNL d   1       0.751  -3.833   0.639  0.00  0.00     0.153 C 
ENDBRANCH   3   7
BRANCH   2  14
ATOM     14  N   UNL d   1      -1.847  -2.156   0.120  0.00  0.00    -0.113 N 
ATOM     15  O   UNL d   1      -2.269  -2.570   1.206  0.00  0.00    -0.532 OA
ATOM     16  O   UNL d   1      -2.276  -2.478  -0.995  0.00  0.00    -0.532 OA
ENDBRANCH   2  14
BRANCH   1  17
ATOM     17  N   UNL d   1       2.802  -0.341   0.088  0.00  0.00    -0.113 N 
ATOM     18  O   UNL d   1       3.328  -0.823   1.098  0.00  0.00    -0.532 OA
ATOM     19  O   UNL d   1       3.401   0.133  -0.886  0.00  0.00    -0.532 OA
ENDBRANCH   1  17
BRANCH   4  20
ATOM     20  C   UNL d   1      -1.048   2.709   0.379  0.00  0.00     0.417 C 
ATOM     21  F   UNL d   1      -2.403   2.772   0.453  0.00  0.00    -0.166 F 
ATOM     22  F   UNL d   1      -0.575   3.373   1.467  0.00  0.00    -0.166 F 
ATOM     23  F   UNL d   1      -0.692   3.451  -0.703  0.00  0.00    -0.166 F 
ENDBRANCH   4  20
TORSDOF 4
