REMARK  2 active torsions:
REMARK  status: ('A' for Active; 'I' for Inactive)
REMARK    1  A    between atoms: C_9  and  C_1 
REMARK    2  A    between atoms: C_7  and  N_3 
ROOT
ATOM      1  C   UNL d   1      -0.259  -1.048  -0.049  0.00  0.00     0.115 C 
ATOM      2  N   UNL d   1       0.868   0.762  -0.494  0.00  0.00    -0.014 NA
ATOM      3  N   UNL d   1      -0.399   1.133  -0.174  0.00  0.00    -0.242 N 
ATOM      4  N   UNL d   1       0.975  -0.548  -0.354  0.00  0.00    -0.278 N 
ATOM      5  HN  UNL d   1       1.832  -1.092  -0.456  1.00  0.00     0.184 HD
ATOM      6  C   UNL d   1      -1.173  -0.002   0.006  0.00  0.00     0.060 C 
ATOM      7  C   UNL d   1      -2.652  -0.059   0.113  0.00  0.00     0.072 C 
ENDROOT
BRANCH   3   8
ATOM      8  C   UNL d   1      -0.720   2.511  -0.066  0.00  0.00     0.056 A 
ATOM      9  C   UNL d   1       0.049   3.447  -0.778  0.00  0.00     0.056 A 
ATOM     10  C   UNL d   1      -0.251   4.811  -0.708  0.00  0.00     0.058 A 
ATOM     11 CL   UNL d   1       0.705   5.894  -1.658  0.00  0.00    -0.082 Cl
ATOM     12  C   UNL d   1      -1.299   5.254   0.104  0.00  0.00     0.055 A 
ATOM     13  C   UNL d   1      -2.042   4.328   0.843  0.00  0.00     0.028 A 
ATOM     14 CL   UNL d   1      -1.724   6.922   0.246  0.00  0.00    -0.083 Cl
ATOM     15  C   UNL d   1      -1.757   2.960   0.760  0.00  0.00     0.033 A 
ENDBRANCH   3   8
BRANCH   1  16
ATOM     16  C   UNL d   1      -0.517  -2.474   0.124  0.00  0.00     0.175 C 
ATOM     17  O   UNL d   1      -1.646  -2.901   0.374  0.00  0.00    -0.291 OA
ATOM     18  C   UNL d   1       0.634  -3.437  -0.029  0.00  0.00     0.098 C 
ENDBRANCH   1  16
TORSDOF 2
