REMARK  5 active torsions:
REMARK  status: ('A' for Active; 'I' for Inactive)
REMARK    1  A    between atoms: C_11  and  C_3 
REMARK    2  A    between atoms: N_16  and  C_6 
REMARK    3  A    between atoms: C_12  and  C_10 
REMARK    4  A    between atoms: C_14  and  C_17 
REMARK       I    between atoms: C_15  and  N_16 
REMARK       I    between atoms: N_18  and  C_15 
REMARK    5  A    between atoms: C_21  and  N_18 
ROOT
ATOM      1  C   UNL d   1       0.247  -0.422  -0.299  0.00  0.00     0.156 A 
ATOM      2  N   UNL d   1       0.508   0.960  -0.204  0.00  0.00    -0.233 N 
ATOM      3  C   UNL d   1      -0.446   1.887  -0.612  0.00  0.00     0.144 A 
ATOM      4  N   UNL d   1      -0.936  -0.892  -0.804  0.00  0.00    -0.335 N 
ATOM      5  HN  UNL d   1      -1.126  -1.893  -0.847  1.00  0.00     0.167 HD
ATOM      6  C   UNL d   1       1.398  -1.066   0.121  0.00  0.00     0.099 A 
ATOM      7  C   UNL d   1      -1.617   1.458  -1.123  0.00  0.00     0.071 A 
ATOM      8  N   UNL d   1       1.750   1.188   0.288  0.00  0.00    -0.301 N 
ATOM      9  HN  UNL d   1       2.185   2.090   0.483  1.00  0.00     0.186 HD
ATOM     10  C   UNL d   1      -1.816  -0.024  -1.230  0.00  0.00     0.120 A 
ATOM     11  C   UNL d   1       2.276  -0.018   0.463  0.00  0.00     0.141 A 
ENDROOT
BRANCH   6  12
ATOM     12  N   UNL d   1       1.733  -2.416   0.139  0.00  0.00    -0.304 N 
ATOM     13  C   UNL d   1       0.976  -3.507  -0.195  0.00  0.00     0.325 C 
ATOM     14  N   UNL d   1      -0.351  -3.437   0.109  0.00  0.00    -0.309 N 
ATOM     15  O   UNL d   1       1.546  -4.499  -0.648  0.00  0.00    -0.247 OA
ATOM     16  H   UNL d   1      -0.607  -2.734   0.786  0.00  0.00     0.170 HD
ATOM     17  H   UNL d   1       2.725  -2.625   0.137  0.00  0.00     0.171 HD
BRANCH  14  18
ATOM     18  C   UNL d   1      -1.393  -4.182  -0.466  0.00  0.00     0.037 A 
ATOM     19  C   UNL d   1      -1.245  -4.853  -1.682  0.00  0.00     0.045 A 
ATOM     20  C   UNL d   1      -2.360  -5.402  -2.333  0.00  0.00     0.050 A 
ATOM     21  C   UNL d   1      -3.618  -5.324  -1.717  0.00  0.00     0.016 A 
ATOM     22  C   UNL d   1      -3.760  -4.703  -0.477  0.00  0.00     0.003 A 
ATOM     23  C   UNL d   1      -2.653  -4.118   0.137  0.00  0.00     0.029 A 
BRANCH  20  24
ATOM     24  C   UNL d   1      -2.224  -5.966  -3.725  0.00  0.00     0.417 C 
ATOM     25  F   UNL d   1      -0.965  -6.389  -4.027  0.00  0.00    -0.166 F 
ATOM     26  F   UNL d   1      -3.039  -7.035  -3.948  0.00  0.00    -0.166 F 
ATOM     27  F   UNL d   1      -2.547  -5.049  -4.680  0.00  0.00    -0.166 F 
ENDBRANCH  20  24
ENDBRANCH  14  18
ENDBRANCH   6  12
BRANCH   3  28
ATOM     28  C   UNL d   1      -0.119   3.328  -0.473  0.00  0.00     0.434 C 
ATOM     29  F   UNL d   1       0.611   3.645   0.621  0.00  0.00    -0.165 F 
ATOM     30  F   UNL d   1       0.540   3.795  -1.563  0.00  0.00    -0.165 F 
ATOM     31  F   UNL d   1      -1.260   4.070  -0.380  0.00  0.00    -0.165 F 
ENDBRANCH   3  28
BRANCH  10  32
ATOM     32  C   UNL d   1      -3.136  -0.504  -1.851  0.00  0.00     0.432 C 
ATOM     33  F   UNL d   1      -3.831   0.513  -2.435  0.00  0.00    -0.165 F 
ATOM     34  F   UNL d   1      -2.954  -1.444  -2.815  0.00  0.00    -0.165 F 
ATOM     35  F   UNL d   1      -3.967  -1.042  -0.919  0.00  0.00    -0.165 F 
ENDBRANCH  10  32
TORSDOF 5
