REMARK  3 active torsions:
REMARK  status: ('A' for Active; 'I' for Inactive)
REMARK    1  A    between atoms: C_7  and  C_1 
REMARK    2  A    between atoms: C_13  and  N_2 
REMARK    3  A    between atoms: N_15  and  C_10 
ROOT
ATOM      1  C   UNL d   1      -0.334   1.211  -0.032  0.00  0.00     0.032 C 
ATOM      2  N   UNL d   1       0.994  -0.582  -0.011  0.00  0.00    -0.261 N 
ATOM      3  C   UNL d   1       1.001   0.812  -0.004  0.00  0.00     0.044 C 
ATOM      4  N   UNL d   1      -0.266  -1.060  -0.208  0.00  0.00    -0.304 N 
ATOM      5  HN  UNL d   1      -0.545  -2.029  -0.367  1.00  0.00     0.186 HD
ATOM      6  C   UNL d   1      -1.053   0.007  -0.148  0.00  0.00     0.123 C 
ATOM      7  C   UNL d   1       2.223   1.663  -0.070  0.00  0.00     0.071 C 
ENDROOT
BRANCH   1   8
ATOM      8  C   UNL d   1      -0.803   2.588  -0.058  0.00  0.00     0.049 A 
ATOM      9  N   UNL d   1      -0.007   3.505   0.527  0.00  0.00    -0.332 N 
ATOM     10  C   UNL d   1      -0.380   4.780   0.433  0.00  0.00     0.155 A 
ATOM     11  HN  UNL d   1       0.844   3.234   1.021  1.00  0.00     0.168 HD
ATOM     12  N   UNL d   1      -1.503   5.205  -0.147  0.00  0.00    -0.343 N 
ATOM     13  C   UNL d   1      -2.284   4.262  -0.703  0.00  0.00     0.093 A 
ATOM     14  HN  UNL d   1      -1.756   6.193  -0.168  1.00  0.00     0.167 HD
ATOM     15  C   UNL d   1      -1.983   2.924  -0.689  0.00  0.00     0.047 A 
BRANCH  10  16
ATOM     16  N   UNL d   1       0.443   5.728   1.003  0.00  0.00    -0.274 NA
ATOM     17  H   UNL d   1       0.983   5.311   1.748  0.00  0.00     0.127 HD
ATOM     18  H   UNL d   1      -0.088   6.559   1.219  0.00  0.00     0.127 HD
ENDBRANCH  10  16
ENDBRANCH   1   8
BRANCH   2  19
ATOM     19  C   UNL d   1       2.070  -1.507   0.122  0.00  0.00     0.056 A 
ATOM     20  C   UNL d   1       3.241  -1.183   0.818  0.00  0.00     0.031 A 
ATOM     21  C   UNL d   1       4.285  -2.110   0.905  0.00  0.00     0.002 A 
ATOM     22  C   UNL d   1       4.161  -3.365   0.312  0.00  0.00     0.000 A 
ATOM     23  C   UNL d   1       2.986  -3.708  -0.353  0.00  0.00     0.002 A 
ATOM     24  C   UNL d   1       1.938  -2.789  -0.437  0.00  0.00     0.031 A 
ENDBRANCH   2  19
TORSDOF 3
