REMARK  4 active torsions:
REMARK  status: ('A' for Active; 'I' for Inactive)
REMARK    1  A    between atoms: C_10  and  C_2 
REMARK    2  A    between atoms: N_13  and  C_9 
REMARK    3  A    between atoms: C_15  and  C_10 
REMARK    4  A    between atoms: C_11  and  N_13 
ROOT
ATOM      1  C   UNL d   1      -2.782   5.056   0.121  0.00  0.00     0.106 C 
ATOM      2  C   UNL d   1      -2.740   3.706   0.097  0.00  0.00     0.115 C 
ATOM      3  C   UNL d   1      -4.031   5.742   0.167  0.00  0.00     0.104 C 
ATOM      4  N   UNL d   1      -5.062   6.275   0.197  0.00  0.00    -0.191 NA
ENDROOT
BRANCH   1   5
ATOM      5  C   UNL d   1      -1.463   5.785   0.099  0.00  0.00     0.178 C 
ATOM      6  O   UNL d   1      -0.441   5.155   0.404  0.00  0.00    -0.291 OA
BRANCH   5   7
ATOM      7  C   UNL d   1      -1.354   7.298  -0.241  0.00  0.00     0.015 C 
ATOM      8  C   UNL d   1      -1.611   8.108   1.037  0.00  0.00     0.023 C 
ATOM      9  C   UNL d   1       0.090   7.589  -0.721  0.00  0.00     0.023 C 
ATOM     10  C   UNL d   1      -2.277   7.773  -1.371  0.00  0.00     0.023 C 
ENDBRANCH   5   7
ENDBRANCH   1   5
BRANCH   2  11
ATOM     11  N   UNL d   1      -3.792   2.817   0.085  0.00  0.00    -0.362 N 
ATOM     12  H   UNL d   1      -4.741   3.205   0.092  0.00  0.00     0.165 HD
BRANCH  11  13
ATOM     13  C   UNL d   1      -3.806   1.414   0.038  0.00  0.00     0.061 A 
ATOM     14  C   UNL d   1      -5.044   0.695   0.003  0.00  0.00     0.093 A 
ATOM     15  N   UNL d   1      -6.268   1.253   0.009  0.00  0.00    -0.309 N 
ATOM     16  C   UNL d   1      -5.085  -0.811  -0.046  0.00  0.00     0.069 A 
ATOM     17  S   UNL d   1      -7.358  -0.001  -0.041  0.00  0.00     0.068 SA
ATOM     18  HN  UNL d   1      -6.485   2.249   0.038  1.00  0.00     0.176 HD
ATOM     19  N   UNL d   1      -6.332  -1.306  -0.074  0.00  0.00    -0.310 N 
ATOM     20  HN  UNL d   1      -6.597  -2.290  -0.109  1.00  0.00     0.176 HD
ATOM     21  C   UNL d   1      -3.897  -1.574  -0.060  0.00  0.00     0.032 A 
ATOM     22  C   UNL d   1      -2.703  -0.835  -0.027  0.00  0.00     0.005 A 
ATOM     23  C   UNL d   1      -2.662   0.585   0.019  0.00  0.00     0.032 A 
ENDBRANCH  11  13
ENDBRANCH   2  11
TORSDOF 4
