REMARK  3 active torsions:
REMARK  status: ('A' for Active; 'I' for Inactive)
REMARK    1  A    between atoms: N_3  and  S_1 
REMARK    2  A    between atoms: C_5  and  S_1 
REMARK    3  A    between atoms: C_6  and  N_3 
ROOT
ATOM      1  S   UNL d   1       1.057   0.005  -0.039  0.00  0.00     0.259 S 
ATOM      2  O   UNL d   1       2.346  -0.644  -0.100  0.00  0.00    -0.201 OA
ATOM      3  O   UNL d   1       0.841   1.366  -0.475  0.00  0.00    -0.201 OA
ENDROOT
BRANCH   1   4
ATOM      4  N   UNL d   1       0.492  -0.101   1.556  0.00  0.00    -0.310 N 
ATOM      5  H   UNL d   1      -0.478   0.201   1.645  0.00  0.00     0.172 HD
BRANCH   4   6
ATOM      6  C   UNL d   1       0.945  -1.213   2.416  0.00  0.00     0.108 C 
ATOM      7  C   UNL d   1       0.555  -2.588   1.905  0.00  0.00     0.166 C 
ATOM      8  S   UNL d   1       0.770  -3.649   3.315  0.00  0.00     0.146 S 
ATOM      9  O   UNL d   1       2.130  -4.141   3.311  0.00  0.00    -0.228 OA
ATOM     10  O   UNL d   1      -0.376  -4.530   3.400  0.00  0.00    -0.228 OA
ATOM     11  C   UNL d   1       0.626  -2.377   4.556  0.00  0.00     0.142 C 
ATOM     12  C   UNL d   1       0.292  -1.093   3.799  0.00  0.00     0.041 C 
ENDBRANCH   4   6
ENDBRANCH   1   4
BRANCH   1  13
ATOM     13  C   UNL d   1      -0.130  -1.001  -0.904  0.00  0.00     0.079 A 
ATOM     14  C   UNL d   1      -1.450  -0.542  -1.005  0.00  0.00     0.028 A 
ATOM     15  C   UNL d   1      -2.410  -1.348  -1.617  0.00  0.00     0.044 A 
ATOM     16  C   UNL d   1      -2.040  -2.590  -2.126  0.00  0.00     0.116 A 
ATOM     17  C   UNL d   1      -0.723  -3.034  -2.057  0.00  0.00     0.044 A 
ATOM     18  F   UNL d   1      -2.969  -3.369  -2.694  0.00  0.00    -0.206 F 
ATOM     19  C   UNL d   1       0.247  -2.231  -1.454  0.00  0.00     0.028 A 
ENDBRANCH   1  13
TORSDOF 3
