REMARK  7 active torsions:
REMARK  status: ('A' for Active; 'I' for Inactive)
REMARK    1  A    between atoms: C_3  and  O_6 
REMARK       I    between atoms: N_12  and  C_3 
REMARK    2  A    between atoms: C_13  and  C_4 
REMARK    3  A    between atoms: O_6  and  C_5 
REMARK    4  A    between atoms: C_7  and  C_11 
REMARK    5  A    between atoms: C_24  and  C_14 
REMARK    6  A    between atoms: S_23  and  C_24 
REMARK    7  A    between atoms: C_27  and  S_23 
ROOT
ATOM      1  N   UNL d   1       1.142   0.576   0.033  0.00  0.00    -0.322 N 
ATOM      2  HN  UNL d   1       2.074   0.977  -0.072  1.00  0.00     0.169 HD
ATOM      3  C   UNL d   1       0.041   1.344   0.043  0.00  0.00     0.117 A 
ATOM      4  C   UNL d   1       0.952  -0.751   0.168  0.00  0.00     0.156 A 
ATOM      5  N   UNL d   1      -1.217   0.866   0.134  0.00  0.00    -0.344 N 
ATOM      6  HN  UNL d   1      -2.023   1.491   0.105  1.00  0.00     0.167 HD
ATOM      7  C   UNL d   1      -0.291  -1.329   0.301  0.00  0.00     0.082 A 
ATOM      8  C   UNL d   1      -1.370  -0.468   0.264  0.00  0.00     0.024 A 
ENDROOT
BRANCH   3   9
ATOM      9  C   UNL d   1       0.200   2.812  -0.028  0.00  0.00     0.008 A 
ATOM     10  C   UNL d   1       1.465   3.427   0.005  0.00  0.00     0.016 A 
ATOM     11  C   UNL d   1       1.603   4.823   0.003  0.00  0.00     0.017 A 
ATOM     12  C   UNL d   1       0.474   5.651  -0.041  0.00  0.00     0.048 A 
ATOM     13  C   UNL d   1      -0.790   5.056  -0.111  0.00  0.00     0.017 A 
ATOM     14  C   UNL d   1      -0.921   3.663  -0.107  0.00  0.00     0.016 A 
BRANCH  12  15
ATOM     15  C   UNL d   1       0.595   7.154   0.003  0.00  0.00     0.417 C 
ATOM     16  F   UNL d   1       1.880   7.600   0.077  0.00  0.00    -0.166 F 
ATOM     17  F   UNL d   1       0.054   7.755  -1.093  0.00  0.00    -0.166 F 
ATOM     18  F   UNL d   1      -0.048   7.694   1.077  0.00  0.00    -0.166 F 
ENDBRANCH  12  15
ENDBRANCH   3   9
BRANCH   4  19
ATOM     19  O   UNL d   1       2.139  -1.503   0.006  0.00  0.00    -0.244 OA
BRANCH  19  20
ATOM     20  C   UNL d   1       2.312  -2.840   0.365  0.00  0.00     0.368 C 
ATOM     21  N   UNL d   1       3.529  -3.355  -0.071  0.00  0.00    -0.336 N 
ATOM     22  C   UNL d   1       3.817  -4.764   0.122  0.00  0.00     0.154 C 
ATOM     23  C   UNL d   1       4.440  -2.617  -0.930  0.00  0.00     0.154 C 
ATOM     24  O   UNL d   1       1.484  -3.496   0.986  0.00  0.00    -0.238 OA
ENDBRANCH  19  20
ENDBRANCH   4  19
BRANCH   8  25
ATOM     25  C   UNL d   1      -2.782  -1.001   0.290  0.00  0.00     0.131 C 
BRANCH  25  26
ATOM     26  S   UNL d   1      -3.583  -0.937   1.921  0.00  0.00    -0.163 SA
BRANCH  26  27
ATOM     27  C   UNL d   1      -3.891   0.854   2.111  0.00  0.00     0.069 C 
ATOM     28  C   UNL d   1      -4.719   1.466   0.995  0.00  0.00     0.016 C 
ENDBRANCH  26  27
ENDBRANCH  25  26
ENDBRANCH   8  25
TORSDOF 7
