REMARK  1 active torsions:
REMARK  status: ('A' for Active; 'I' for Inactive)
REMARK    1  A    between atoms: O_11  and  C_1 
ROOT
ATOM      1  C   UNL d   1      -0.779   1.019   1.244  0.00  0.00     0.061 C 
ATOM      2  C   UNL d   1      -1.509   0.267   0.096  0.00  0.00     0.021 C 
ATOM      3  C   UNL d   1       0.745   0.744   1.118  0.00  0.00     0.021 C 
ATOM      4  C   UNL d   1       0.530   0.475  -1.389  0.00  0.00    -0.013 C 
ATOM      5  C   UNL d   1       0.273  -1.528   0.114  0.00  0.00    -0.013 C 
ATOM      6  C   UNL d   1       1.268   1.215  -0.259  0.00  0.00     0.012 C 
ATOM      7  C   UNL d   1       1.022  -0.771   1.227  0.00  0.00     0.012 C 
ATOM      8  C   UNL d   1      -0.983   0.738  -1.280  0.00  0.00     0.012 C 
ATOM      9  C   UNL d   1      -1.240  -1.250   0.200  0.00  0.00     0.012 C 
ATOM     10  C   UNL d   1       0.787  -1.037  -1.250  0.00  0.00     0.009 C 
ATOM     11  C   UNL d   1      -1.325   0.629   2.627  0.00  0.00     0.046 C 
ENDROOT
BRANCH   1  12
ATOM     12  O   UNL d   1      -1.041   2.425   1.162  0.00  0.00    -0.389 OA
ATOM     13  H   UNL d   1      -0.727   2.771   0.311  0.00  0.00     0.210 HD
ENDBRANCH   1  12
TORSDOF 1
