REMARK  2 active torsions:
REMARK  status: ('A' for Active; 'I' for Inactive)
REMARK    1  A    between atoms: C_3  and  C_1 
REMARK       I    between atoms: C_9  and  N_2 
REMARK    2  A    between atoms: C_15  and  C_9 
ROOT
ATOM      1  N   UNL d   1       0.110  -3.432   0.929  0.00  0.00    -0.219 N 
ATOM      2  C   UNL d   1      -0.368  -2.547  -0.043  0.00  0.00     0.080 A 
ATOM      3  C   UNL d   1       0.697  -3.198   2.194  0.00  0.00     0.277 C 
ATOM      4  N   UNL d   1      -0.103  -4.735   0.565  0.00  0.00    -0.302 N 
ATOM      5  HN  UNL d   1       0.222  -5.576   1.043  1.00  0.00     0.186 HD
ATOM      6  C   UNL d   1      -1.004  -3.345  -0.979  0.00  0.00     0.052 A 
ATOM      7  C   UNL d   1      -0.825  -4.664  -0.547  0.00  0.00     0.110 A 
ATOM      8  O   UNL d   1       0.357  -2.186   2.808  0.00  0.00    -0.265 OA
ENDROOT
BRANCH   2   9
ATOM      9  C   UNL d   1      -0.176  -1.115  -0.085  0.00  0.00     0.058 C 
ATOM     10  S   UNL d   1       1.238  -0.353   0.536  0.00  0.00    -0.067 SA
ATOM     11  C   UNL d   1       0.589   1.194   0.193  0.00  0.00     0.092 C 
ATOM     12  C   UNL d   1       1.190   2.441   0.613  0.00  0.00     0.038 A 
ATOM     13  N   UNL d   1      -0.522   1.169  -0.513  0.00  0.00    -0.352 N 
ATOM     14  S   UNL d   1       2.603   2.539   1.587  0.00  0.00    -0.099 SA
ATOM     15  C   UNL d   1       0.712   3.710   0.325  0.00  0.00     0.022 A 
ATOM     16  C   UNL d   1       2.558   4.246   1.624  0.00  0.00     0.050 A 
ATOM     17  C   UNL d   1       1.498   4.749   0.905  0.00  0.00     0.008 A 
ATOM     18  C   UNL d   1      -0.957  -0.138  -0.698  0.00  0.00     0.025 C 
ATOM     19  HN  UNL d   1      -0.998   1.995  -0.876  1.00  0.00     0.166 HD
ATOM     20  C   UNL d   1      -2.195  -0.325  -1.503  0.00  0.00     0.070 C 
ENDBRANCH   2   9
BRANCH   3  21
ATOM     21  C   UNL d   1       1.689  -4.120   2.820  0.00  0.00     0.034 A 
ATOM     22  C   UNL d   1       2.520  -4.933   2.030  0.00  0.00     0.020 A 
ATOM     23  C   UNL d   1       3.474  -5.756   2.630  0.00  0.00     0.043 A 
ATOM     24  C   UNL d   1       3.607  -5.757   4.013  0.00  0.00     0.116 A 
ATOM     25  C   UNL d   1       2.808  -4.943   4.808  0.00  0.00     0.043 A 
ATOM     26  F   UNL d   1       4.525  -6.546   4.585  0.00  0.00    -0.206 F 
ATOM     27  C   UNL d   1       1.850  -4.117   4.212  0.00  0.00     0.020 A 
ENDBRANCH   3  21
TORSDOF 2
