REMARK  3 active torsions:
REMARK  status: ('A' for Active; 'I' for Inactive)
REMARK    1  A    between atoms: N_2  and  S_1 
REMARK    2  A    between atoms: C_8  and  S_1 
REMARK    3  A    between atoms: C_3  and  N_2 
ROOT
ATOM      1  N   UNL d   1       5.161  -1.386  -6.339  0.00  0.00    -0.210 NA
ATOM      2  H   UNL d   1       4.345  -0.782  -6.210  0.00  0.00     0.140 HD
ENDROOT
BRANCH   1   3
ATOM      3  S   UNL d   1       4.548  -2.944  -6.542  0.00  0.00     0.241 S 
ATOM      4  O   UNL d   1       4.971  -3.445  -7.830  0.00  0.00    -0.206 OA
ATOM      5  O   UNL d   1       3.151  -2.852  -6.182  0.00  0.00    -0.206 OA
BRANCH   3   6
ATOM      6  C   UNL d   1       5.335  -3.880  -5.252  0.00  0.00     0.074 A 
ATOM      7  C   UNL d   1       5.236  -3.433  -3.924  0.00  0.00     0.028 A 
ATOM      8  C   UNL d   1       5.938  -4.101  -2.918  0.00  0.00     0.044 A 
ATOM      9  C   UNL d   1       6.701  -5.219  -3.240  0.00  0.00     0.116 A 
ATOM     10  C   UNL d   1       6.760  -5.699  -4.546  0.00  0.00     0.044 A 
ATOM     11  F   UNL d   1       7.400  -5.839  -2.280  0.00  0.00    -0.206 F 
ATOM     12  C   UNL d   1       6.067  -5.031  -5.559  0.00  0.00     0.028 A 
ENDBRANCH   3   6
ENDBRANCH   1   3
BRANCH   1  13
ATOM     13  C   UNL d   1       6.231  -0.816  -7.205  0.00  0.00     0.088 C 
ATOM     14  C   UNL d   1       7.668  -1.361  -6.875  0.00  0.00    -0.026 C 
ATOM     15  C   UNL d   1       8.586  -0.174  -7.215  0.00  0.00     0.016 C 
ATOM     16  C   UNL d   1       7.919  -1.403  -5.357  0.00  0.00     0.011 C 
ATOM     17  C   UNL d   1       8.075  -2.614  -7.627  0.00  0.00     0.017 C 
ATOM     18  C   UNL d   1       7.818   0.807  -6.324  0.00  0.00    -0.004 C 
ATOM     19  C   UNL d   1       6.390   0.744  -6.943  0.00  0.00    -0.026 C 
ATOM     20  C   UNL d   1       7.888   0.080  -4.963  0.00  0.00     0.006 C 
ATOM     21  C   UNL d   1       6.372   1.554  -8.269  0.00  0.00     0.017 C 
ATOM     22  C   UNL d   1       5.311   1.401  -6.061  0.00  0.00     0.017 C 
ENDBRANCH   1  13
TORSDOF 3
