REMARK  4 active torsions:
REMARK  status: ('A' for Active; 'I' for Inactive)
REMARK    1  A    between atoms: C_5  and  C_1 
REMARK    2  A    between atoms: C_7  and  C_2 
REMARK       I    between atoms: N_11  and  C_7 
REMARK    3  A    between atoms: C_8  and  C_10 
REMARK    4  A    between atoms: C_10  and  N_11 
ROOT
ATOM      1  C   UNL d   1      -1.218  -0.649   0.264  0.00  0.00     0.086 A 
ATOM      2  C   UNL d   1       0.015  -1.294  -0.091  0.00  0.00     0.092 A 
ATOM      3  N   UNL d   1      -0.981   0.624   0.623  0.00  0.00    -0.259 N 
ATOM      4  HN  UNL d   1      -1.668   1.296   0.965  1.00  0.00     0.195 HD
ATOM      5  O   UNL d   1       0.358   0.847   0.441  0.00  0.00    -0.241 OA
ATOM      6  C   UNL d   1       0.962  -0.292   0.020  0.00  0.00     0.090 A 
ATOM      7  C   UNL d   1       2.414  -0.165  -0.221  0.00  0.00     0.080 C 
ENDROOT
BRANCH   2   8
ATOM      8  C   UNL d   1       0.249  -2.676  -0.479  0.00  0.00     0.256 C 
ATOM      9  N   UNL d   1       1.417  -3.192   0.036  0.00  0.00    -0.352 N 
ATOM     10  H   UNL d   1       1.811  -2.679   0.814  0.00  0.00     0.163 HD
ATOM     11  O   UNL d   1      -0.548  -3.323  -1.141  0.00  0.00    -0.267 OA
BRANCH   9  12
ATOM     12  C   UNL d   1       1.752  -4.603  -0.003  0.00  0.00     0.165 C 
BRANCH  12  13
ATOM     13  C   UNL d   1       3.227  -4.847   0.268  0.00  0.00     0.003 A 
ATOM     14  C   UNL d   1       3.905  -4.229   1.343  0.00  0.00     0.043 A 
ATOM     15 CL   UNL d   1       3.095  -3.235   2.510  0.00  0.00    -0.084 Cl
ATOM     16  C   UNL d   1       5.282  -4.399   1.538  0.00  0.00     0.024 A 
ATOM     17  C   UNL d   1       6.013  -5.228   0.698  0.00  0.00     0.003 A 
ATOM     18  C   UNL d   1       5.357  -5.911  -0.320  0.00  0.00     0.024 A 
ATOM     19  C   UNL d   1       3.980  -5.732  -0.529  0.00  0.00     0.043 A 
ATOM     20 CL   UNL d   1       3.271  -6.679  -1.791  0.00  0.00    -0.084 Cl
ENDBRANCH  12  13
ENDBRANCH   9  12
ENDBRANCH   2   8
BRANCH   1  21
ATOM     21  C   UNL d   1      -2.583  -1.181   0.344  0.00  0.00     0.037 A 
ATOM     22  C   UNL d   1      -2.886  -2.329   1.103  0.00  0.00     0.048 A 
ATOM     23 CL   UNL d   1      -1.715  -3.162   2.076  0.00  0.00    -0.083 Cl
ATOM     24  C   UNL d   1      -4.198  -2.822   1.175  0.00  0.00     0.025 A 
ATOM     25  C   UNL d   1      -5.240  -2.156   0.539  0.00  0.00     0.003 A 
ATOM     26  C   UNL d   1      -4.972  -0.996  -0.179  0.00  0.00     0.025 A 
ATOM     27  C   UNL d   1      -3.658  -0.518  -0.291  0.00  0.00     0.048 A 
ATOM     28 CL   UNL d   1      -3.460   0.909  -1.258  0.00  0.00    -0.083 Cl
ENDBRANCH   1  21
TORSDOF 4
