REMARK  1 active torsions:
REMARK  status: ('A' for Active; 'I' for Inactive)
REMARK    1  A    between atoms: C_11  and  C_6 
ROOT
ATOM      1  C   UNL d   1       2.068   1.386   0.102  0.00  0.00     0.026 C 
ATOM      2  N   UNL d   1       1.006   1.410  -0.622  0.00  0.00    -0.357 N 
ATOM      3  HN  UNL d   1       0.998   2.107  -1.367  1.00  0.00     0.166 HD
ATOM      4  C   UNL d   1       2.516   0.405   1.135  0.00  0.00     0.055 C 
ATOM      5  S   UNL d   1       0.695  -1.701   1.028  0.00  0.00    -0.117 SA
ATOM      6  C   UNL d   1       2.333  -1.039   0.701  0.00  0.00     0.095 C 
ATOM      7  C   UNL d   1       2.932   2.579   0.151  0.00  0.00    -0.007 A 
ATOM      8  C   UNL d   1      -0.149   0.609  -0.531  0.00  0.00     0.049 A 
ATOM      9  C   UNL d   1      -0.393  -0.628   0.097  0.00  0.00     0.028 A 
ATOM     10  C   UNL d   1       1.983   0.975   2.449  0.00  0.00     0.017 C 
ATOM     11  C   UNL d   1       3.236   3.031   1.454  0.00  0.00    -0.046 A 
ATOM     12  C   UNL d   1       2.586   2.393   2.677  0.00  0.00     0.040 C 
ATOM     13  C   UNL d   1       3.535   3.109  -0.984  0.00  0.00     0.014 A 
ATOM     14  C   UNL d   1      -1.254   1.260  -1.129  0.00  0.00     0.031 A 
ATOM     15  C   UNL d   1      -1.712  -1.153   0.076  0.00  0.00     0.021 A 
ATOM     16  C   UNL d   1       4.183   4.047   1.595  0.00  0.00     0.008 A 
ATOM     17  C   UNL d   1       4.497   4.103  -0.818  0.00  0.00     0.001 A 
ATOM     18  C   UNL d   1      -2.549   0.743  -1.116  0.00  0.00     0.002 A 
ATOM     19  C   UNL d   1      -2.778  -0.478  -0.514  0.00  0.00     0.002 A 
ATOM     20  C   UNL d   1       4.822   4.566   0.463  0.00  0.00     0.001 A 
ENDROOT
BRANCH   6  21
ATOM     21  C   UNL d   1       3.468  -1.840   1.363  0.00  0.00    -0.043 A 
ATOM     22  C   UNL d   1       4.723  -1.882   0.722  0.00  0.00     0.010 A 
ATOM     23  C   UNL d   1       5.853  -2.366   1.385  0.00  0.00     0.024 A 
ATOM     24  C   UNL d   1       5.738  -2.836   2.690  0.00  0.00     0.034 A 
ATOM     25  C   UNL d   1       4.501  -2.845   3.328  0.00  0.00     0.024 A 
ATOM     26 CL   UNL d   1       7.139  -3.370   3.534  0.00  0.00    -0.084 Cl
ATOM     27  C   UNL d   1       3.373  -2.345   2.672  0.00  0.00     0.010 A 
ENDBRANCH   6  21
TORSDOF 1
