REMARK  1 active torsions:
REMARK  status: ('A' for Active; 'I' for Inactive)
REMARK    1  A    between atoms: S_8  and  C_1 
ROOT
ATOM      1  C   UNL d   1      -1.591  -0.539   0.043  0.00  0.00     0.040 C 
ATOM      2  C   UNL d   1      -0.612  -1.395   0.347  0.00  0.00     0.075 C 
ATOM      3  S   UNL d   1      -1.322   1.037  -0.616  0.00  0.00    -0.113 SA
ATOM      4  C   UNL d   1       0.828  -1.126   0.185  0.00  0.00     0.152 C 
ATOM      5  C   UNL d   1       0.400   1.406  -0.139  0.00  0.00     0.013 C 
ATOM      6  C   UNL d   1       1.327   0.202  -0.324  0.00  0.00     0.103 C 
ATOM      7  O   UNL d   1       1.615  -2.048   0.409  0.00  0.00    -0.293 OA
ATOM      8  C   UNL d   1       0.451   1.950   1.298  0.00  0.00     0.027 C 
ATOM      9  C   UNL d   1       0.861   2.522  -1.099  0.00  0.00     0.027 C 
ENDROOT
BRANCH   1  10
ATOM     10  S   UNL d   1      -3.250  -1.036   0.284  0.00  0.00    -0.127 SA
ATOM     11  C   UNL d   1      -3.490  -2.060  -1.189  0.00  0.00     0.096 C 
ENDBRANCH   1  10
TORSDOF 1
