REMARK  2 active torsions:
REMARK  status: ('A' for Active; 'I' for Inactive)
REMARK    1  A    between atoms: N_2  and  C_1 
REMARK       I    between atoms: C_4  and  N_2 
REMARK       I    between atoms: N_8  and  C_4 
REMARK    2  A    between atoms: C_10  and  N_8 
ROOT
ATOM      1  N   UNL d   1       3.270  -1.352  -0.293  0.00  0.00    -0.303 N 
ATOM      2  C   UNL d   1       4.375  -0.561  -0.217  0.00  0.00     0.325 C 
ATOM      3  N   UNL d   1       4.266   0.762  -0.502  0.00  0.00    -0.309 N 
ATOM      4  O   UNL d   1       5.422  -1.145   0.078  0.00  0.00    -0.247 OA
ATOM      5  H   UNL d   1       3.523  -2.319  -0.130  0.00  0.00     0.171 HD
ATOM      6  H   UNL d   1       3.323   1.123  -0.550  0.00  0.00     0.170 HD
ENDROOT
BRANCH   1   7
ATOM      7  C   UNL d   1       1.927  -1.102  -0.451  0.00  0.00     0.079 C 
ATOM      8  S   UNL d   1       1.270   0.452  -0.520  0.00  0.00    -0.072 SA
ATOM      9  C   UNL d   1      -0.341  -0.140  -0.389  0.00  0.00     0.017 A 
ATOM     10  C   UNL d   1      -1.516   0.618  -0.230  0.00  0.00     0.020 A 
ATOM     11  C   UNL d   1      -0.371  -1.535  -0.435  0.00  0.00    -0.016 A 
ATOM     12  C   UNL d   1      -2.732  -0.053  -0.085  0.00  0.00     0.001 A 
ATOM     13  C   UNL d   1      -2.790  -1.439  -0.153  0.00  0.00     0.001 A 
ATOM     14  C   UNL d   1      -1.625  -2.186  -0.348  0.00  0.00     0.013 A 
ATOM     15  C   UNL d   1       0.954  -2.073  -0.513  0.00  0.00     0.050 C 
ENDBRANCH   1   7
BRANCH   3  16
ATOM     16  C   UNL d   1       5.318   1.685  -0.686  0.00  0.00     0.036 A 
ATOM     17  C   UNL d   1       6.667   1.308  -0.753  0.00  0.00     0.032 A 
ATOM     18  C   UNL d   1       7.662   2.256  -1.003  0.00  0.00     0.044 A 
ATOM     19  C   UNL d   1       7.312   3.585  -1.179  0.00  0.00     0.116 A 
ATOM     20  C   UNL d   1       5.985   3.987  -1.099  0.00  0.00     0.044 A 
ATOM     21  F   UNL d   1       8.263   4.490  -1.438  0.00  0.00    -0.206 F 
ATOM     22  C   UNL d   1       4.986   3.037  -0.853  0.00  0.00     0.032 A 
ENDBRANCH   3  16
TORSDOF 2
