REMARK  4 active torsions:
REMARK  status: ('A' for Active; 'I' for Inactive)
REMARK    1  A    between atoms: N_3  and  C_12 
REMARK    2  A    between atoms: O_9  and  C_5 
REMARK    3  A    between atoms: C_15  and  C_8 
REMARK    4  A    between atoms: C_10  and  O_9 
ROOT
ATOM      1  N   UNL d   1      -1.265  -0.018   0.126  0.00  0.00    -0.344 N 
ATOM      2  HN  UNL d   1      -2.284  -0.026   0.174  1.00  0.00     0.167 HD
ATOM      3  C   UNL d   1      -0.553  -1.155  -0.023  0.00  0.00     0.148 A 
ATOM      4  C   UNL d   1       0.832   1.224   0.157  0.00  0.00     0.047 A 
ATOM      5  C   UNL d   1      -0.557   1.134   0.207  0.00  0.00     0.119 A 
ATOM      6  C   UNL d   1       0.832  -1.190  -0.041  0.00  0.00     0.059 A 
ATOM      7  C   UNL d   1       1.529   0.018   0.056  0.00  0.00     0.035 A 
ENDROOT
BRANCH   4   8
ATOM      8  N   UNL d   1       1.436   2.486   0.274  0.00  0.00    -0.364 N 
ATOM      9  C   UNL d   1       2.499   2.758  -0.410  0.00  0.00     0.100 C 
ATOM     10  HN  UNL d   1       1.037   3.188   0.898  1.00  0.00     0.165 HD
BRANCH   9  11
ATOM     11  C   UNL d   1       3.149   4.083  -0.330  0.00  0.00    -0.019 A 
ATOM     12  C   UNL d   1       2.548   5.133   0.369  0.00  0.00     0.036 A 
ATOM     13  C   UNL d   1       3.180   6.373   0.414  0.00  0.00     0.034 A 
ATOM     14 CL   UNL d   1       2.445   7.679   1.261  0.00  0.00    -0.084 Cl
ATOM     15  C   UNL d   1       4.405   6.569  -0.225  0.00  0.00     0.024 A 
ATOM     16  C   UNL d   1       5.004   5.517  -0.920  0.00  0.00     0.003 A 
ATOM     17  C   UNL d   1       4.375   4.272  -0.977  0.00  0.00     0.013 A 
ENDBRANCH   9  11
ENDBRANCH   4   8
BRANCH   3  18
ATOM     18  O   UNL d   1      -1.213  -2.373  -0.148  0.00  0.00    -0.292 OA
BRANCH  18  19
ATOM     19  C   UNL d   1      -2.510  -2.346  -0.597  0.00  0.00     0.094 A 
ATOM     20  C   UNL d   1      -2.947  -1.552  -1.660  0.00  0.00     0.064 A 
ATOM     21  C   UNL d   1      -4.285  -1.589  -2.027  0.00  0.00     0.052 A 
ATOM     22 CL   UNL d   1      -4.869  -0.569  -3.279  0.00  0.00    -0.083 Cl
ATOM     23  C   UNL d   1      -5.133  -2.457  -1.357  0.00  0.00     0.111 A 
ATOM     24  N   UNL d   1      -4.735  -3.284  -0.360  0.00  0.00    -0.371 N 
ATOM     25  C   UNL d   1      -3.429  -3.204  -0.003  0.00  0.00     0.124 A 
ATOM     26  HN  UNL d   1      -5.380  -3.929   0.096  1.00  0.00     0.164 HD
ENDBRANCH  18  19
ENDBRANCH   3  18
TORSDOF 4
