REMARK  5 active torsions:
REMARK  status: ('A' for Active; 'I' for Inactive)
REMARK    1  A    between atoms: C_13  and  C_1 
REMARK    2  A    between atoms: C_3  and  C_2 
REMARK    3  A    between atoms: O_17  and  C_13 
REMARK    4  A    between atoms: C_16  and  N_14 
REMARK    5  A    between atoms: C_24  and  O_17 
ROOT
ATOM      1  C   UNL d   1      -1.506   2.214  -0.037  0.00  0.00     0.077 A 
ATOM      2  N   UNL d   1      -2.454   2.454   0.932  0.00  0.00    -0.334 N 
ATOM      3  HN  UNL d   1      -2.756   1.775   1.631  1.00  0.00     0.168 HD
ATOM      4  C   UNL d   1      -2.916   3.681   0.832  0.00  0.00     0.149 A 
ATOM      5  S   UNL d   1      -2.250   4.592  -0.475  0.00  0.00    -0.063 SA
ATOM      6  C   UNL d   1      -1.280   3.249  -0.916  0.00  0.00     0.085 A 
ATOM      7  N   UNL d   1      -3.818   4.242   1.671  0.00  0.00    -0.337 N 
ATOM      8  H   UNL d   1      -4.070   5.209   1.498  0.00  0.00     0.168 HD
ENDROOT
BRANCH   1   9
ATOM      9  C   UNL d   1      -0.790   0.918  -0.098  0.00  0.00     0.128 A 
ATOM     10  C   UNL d   1      -0.988  -0.152   0.741  0.00  0.00     0.079 A 
ATOM     11  C   UNL d   1      -0.069  -1.133   0.301  0.00  0.00     0.132 A 
ATOM     12  N   UNL d   1       0.643  -0.680  -0.745  0.00  0.00    -0.255 N 
ATOM     13  O   UNL d   1       0.187   0.601  -0.989  0.00  0.00    -0.235 OA
ATOM     14  HN  UNL d   1       1.372  -1.179  -1.254  1.00  0.00     0.195 HD
BRANCH  11  15
ATOM     15  C   UNL d   1       0.165  -2.446   0.902  0.00  0.00     0.311 C 
ATOM     16  O   UNL d   1      -0.445  -2.849   1.885  0.00  0.00    -0.258 OA
BRANCH  15  17
ATOM     17  O   UNL d   1       1.193  -3.114   0.301  0.00  0.00    -0.317 OA
BRANCH  17  18
ATOM     18  C   UNL d   1       1.817  -4.130   1.092  0.00  0.00     0.175 C 
ATOM     19  C   UNL d   1       2.855  -3.463   1.977  0.00  0.00     0.034 C 
ENDBRANCH  17  18
ENDBRANCH  15  17
ENDBRANCH  11  15
ENDBRANCH   1   9
BRANCH   7  20
ATOM     20  C   UNL d   1      -4.852   3.526   2.307  0.00  0.00     0.034 A 
ATOM     21  C   UNL d   1      -5.328   3.972   3.547  0.00  0.00     0.031 A 
ATOM     22  C   UNL d   1      -6.375   3.305   4.193  0.00  0.00     0.026 A 
ATOM     23  C   UNL d   1      -6.966   2.197   3.590  0.00  0.00     0.034 A 
ATOM     24  C   UNL d   1      -6.506   1.737   2.360  0.00  0.00     0.026 A 
ATOM     25 CL   UNL d   1      -8.277   1.396   4.364  0.00  0.00    -0.084 Cl
ATOM     26  C   UNL d   1      -5.448   2.395   1.729  0.00  0.00     0.031 A 
ENDBRANCH   7  20
TORSDOF 5
