REMARK  7 active torsions:
REMARK  status: ('A' for Active; 'I' for Inactive)
REMARK    1  A    between atoms: C_7  and  C_1 
REMARK    2  A    between atoms: C_11  and  C_6 
REMARK    3  A    between atoms: O_16  and  C_7 
REMARK    4  A    between atoms: C_8  and  C_9 
REMARK    5  A    between atoms: O_14  and  C_11 
REMARK    6  A    between atoms: C_15  and  O_14 
REMARK    7  A    between atoms: C_23  and  O_16 
ROOT
ATOM      1  C   UNL d   1       0.153  -1.518   0.479  0.00  0.00     0.104 A 
ATOM      2  C   UNL d   1      -0.680  -0.445   0.183  0.00  0.00     0.029 A 
ATOM      3  N   UNL d   1      -0.098   0.804   0.365  0.00  0.00    -0.354 N 
ATOM      4  HN  UNL d   1      -0.575   1.692   0.207  1.00  0.00     0.166 HD
ATOM      5  S   UNL d   1       1.692  -0.918   0.987  0.00  0.00    -0.067 SA
ATOM      6  C   UNL d   1       1.149   0.689   0.767  0.00  0.00     0.076 A 
ATOM      7  C   UNL d   1      -2.084  -0.420  -0.314  0.00  0.00     0.070 C 
ENDROOT
BRANCH   6   8
ATOM      8  C   UNL d   1       2.033   1.856   1.090  0.00  0.00     0.240 C 
BRANCH   8   9
ATOM      9  O   UNL d   1       2.881   2.100  -0.035  0.00  0.00    -0.345 OA
BRANCH   9  10
ATOM     10  C   UNL d   1       3.725   3.172   0.089  0.00  0.00     0.069 A 
ATOM     11  C   UNL d   1       4.842   3.164  -0.742  0.00  0.00     0.037 A 
ATOM     12  C   UNL d   1       5.778   4.207  -0.687  0.00  0.00     0.011 A 
ATOM     13  C   UNL d   1       5.613   5.296   0.187  0.00  0.00    -0.050 A 
ATOM     14  C   UNL d   1       4.465   5.300   0.993  0.00  0.00     0.011 A 
ATOM     15  C   UNL d   1       3.535   4.255   0.945  0.00  0.00     0.037 A 
BRANCH  13  16
ATOM     16  C   UNL d   1       6.661   6.421   0.244  0.00  0.00    -0.024 C 
ATOM     17  C   UNL d   1       6.299   7.561   1.225  0.00  0.00     0.019 C 
ATOM     18  C   UNL d   1       8.015   5.838   0.702  0.00  0.00     0.019 C 
ATOM     19  C   UNL d   1       6.830   7.061  -1.150  0.00  0.00     0.019 C 
ENDBRANCH  13  16
ENDBRANCH   9  10
ENDBRANCH   8   9
ENDBRANCH   6   8
BRANCH   1  20
ATOM     20  C   UNL d   1      -0.024  -2.952   0.393  0.00  0.00     0.302 C 
ATOM     21  O   UNL d   1       0.826  -3.802   0.629  0.00  0.00    -0.259 OA
BRANCH  20  22
ATOM     22  O   UNL d   1      -1.273  -3.243  -0.064  0.00  0.00    -0.317 OA
BRANCH  22  23
ATOM     23  C   UNL d   1      -1.463  -4.564  -0.587  0.00  0.00     0.174 C 
ATOM     24  C   UNL d   1      -1.063  -4.551  -2.050  0.00  0.00     0.034 C 
ENDBRANCH  22  23
ENDBRANCH  20  22
ENDBRANCH   1  20
TORSDOF 7
