REMARK  7 active torsions:
REMARK  status: ('A' for Active; 'I' for Inactive)
REMARK    1  A    between atoms: C_10  and  C_1 
REMARK    2  A    between atoms: C_2  and  C_3 
REMARK    3  A    between atoms: C_4  and  N_13 
REMARK    4  A    between atoms: N_12  and  C_4 
REMARK    5  A    between atoms: C_5  and  C_6 
REMARK       I    between atoms: C_6  and  N_9 
REMARK    6  A    between atoms: N_9  and  N_12 
REMARK    7  A    between atoms: N_13  and  C_16 
ROOT
ATOM      1  C   UNL d   1      -0.626  -1.131   1.746  0.00  0.00     0.271 C 
ATOM      2  N   UNL d   1      -0.482   0.054   2.455  0.00  0.00    -0.264 N 
ATOM      3  O   UNL d   1      -0.096  -1.337   0.658  0.00  0.00    -0.266 OA
ATOM      4  H   UNL d   1      -0.934   0.233   3.347  0.00  0.00     0.190 HD
ENDROOT
BRANCH   2   5
ATOM      5  N   UNL d   1       0.113   1.138   1.779  0.00  0.00    -0.273 N 
ATOM      6  H   UNL d   1       0.898   0.850   1.193  0.00  0.00     0.189 HD
BRANCH   5   7
ATOM      7  C   UNL d   1       0.192   2.377   2.321  0.00  0.00     0.191 C 
ATOM      8  S   UNL d   1       1.596   3.264   2.102  0.00  0.00    -0.039 SA
BRANCH   7   9
ATOM      9  N   UNL d   1      -0.794   2.930   3.069  0.00  0.00    -0.332 N 
ATOM     10  H   UNL d   1      -0.478   3.773   3.540  0.00  0.00     0.168 HD
BRANCH   9  11
ATOM     11  C   UNL d   1      -2.171   2.659   3.194  0.00  0.00     0.035 A 
ATOM     12  C   UNL d   1      -2.844   3.315   4.233  0.00  0.00     0.045 A 
ATOM     13  C   UNL d   1      -4.189   3.025   4.522  0.00  0.00     0.050 A 
ATOM     14  C   UNL d   1      -4.873   2.111   3.711  0.00  0.00     0.016 A 
ATOM     15  C   UNL d   1      -4.231   1.517   2.627  0.00  0.00     0.003 A 
ATOM     16  C   UNL d   1      -2.889   1.803   2.362  0.00  0.00     0.029 A 
BRANCH  13  17
ATOM     17  C   UNL d   1      -4.868   3.624   5.728  0.00  0.00     0.417 C 
ATOM     18  F   UNL d   1      -4.101   4.539   6.386  0.00  0.00    -0.166 F 
ATOM     19  F   UNL d   1      -5.187   2.678   6.655  0.00  0.00    -0.166 F 
ATOM     20  F   UNL d   1      -6.032   4.260   5.425  0.00  0.00    -0.166 F 
ENDBRANCH  13  17
ENDBRANCH   9  11
ENDBRANCH   7   9
ENDBRANCH   5   7
ENDBRANCH   2   5
BRANCH   1  21
ATOM     21  C   UNL d   1      -1.371  -2.210   2.439  0.00  0.00     0.047 A 
ATOM     22  C   UNL d   1      -2.382  -2.961   1.813  0.00  0.00     0.023 A 
ATOM     23  C   UNL d   1      -2.954  -4.045   2.503  0.00  0.00     0.016 A 
ATOM     24  C   UNL d   1      -2.517  -4.387   3.785  0.00  0.00     0.001 A 
ATOM     25  C   UNL d   1      -1.515  -3.643   4.401  0.00  0.00     0.001 A 
ATOM     26  C   UNL d   1      -0.942  -2.560   3.733  0.00  0.00     0.018 A 
BRANCH  22  27
ATOM     27  C   UNL d   1      -2.940  -2.634   0.462  0.00  0.00     0.108 C 
ATOM     28  N   UNL d   1      -3.052  -1.382   0.153  0.00  0.00    -0.376 N 
ATOM     29  C   UNL d   1      -3.557  -1.031  -1.181  0.00  0.00     0.123 C 
ATOM     30  HN  UNL d   1      -2.795  -0.655   0.820  1.00  0.00     0.161 HD
ATOM     31  C   UNL d   1      -3.382  -2.142  -2.205  0.00  0.00     0.039 C 
ATOM     32  C   UNL d   1      -3.954  -3.421  -1.636  0.00  0.00     0.123 C 
ATOM     33  N   UNL d   1      -3.335  -3.662  -0.359  0.00  0.00    -0.376 N 
ATOM     34  H   UNL d   1      -3.157  -4.622  -0.101  0.00  0.00     0.161 HD
ENDBRANCH  22  27
ENDBRANCH   1  21
TORSDOF 7
