REMARK  1 active torsions:
REMARK  status: ('A' for Active; 'I' for Inactive)
REMARK       I    between atoms: C_11  and  N_2 
REMARK    1  A    between atoms: C_15  and  C_8 
ROOT
ATOM      1  C   UNL d   1      -0.337  -1.236  -0.152  0.00  0.00     0.097 A 
ATOM      2  N   UNL d   1      -1.068  -0.466  -1.055  0.00  0.00    -0.222 N 
ATOM      3  C   UNL d   1      -0.653  -2.528   0.378  0.00  0.00     0.130 A 
ATOM      4  C   UNL d   1      -1.277  -3.622  -0.184  0.00  0.00     0.074 A 
ATOM      5  N   UNL d   1      -0.577  -4.210   1.883  0.00  0.00    -0.260 N 
ATOM      6  HN  UNL d   1      -0.385  -4.738   2.734  1.00  0.00     0.195 HD
ATOM      7  O   UNL d   1      -0.232  -2.903   1.627  0.00  0.00    -0.235 OA
ATOM      8  C   UNL d   1      -1.214  -4.652   0.790  0.00  0.00     0.068 A 
ATOM      9  N   UNL d   1      -0.387   0.677  -1.383  0.00  0.00    -0.302 N 
ATOM     10  HN  UNL d   1      -0.667   1.396  -2.050  1.00  0.00     0.186 HD
ATOM     11  C   UNL d   1      -2.346  -0.687  -1.615  0.00  0.00     0.239 C 
ATOM     12  C   UNL d   1       0.793  -0.499   0.152  0.00  0.00     0.053 A 
ATOM     13  C   UNL d   1       0.718   0.645  -0.644  0.00  0.00     0.110 A 
ATOM     14  O   UNL d   1      -3.035  -1.634  -1.257  0.00  0.00    -0.272 OA
ATOM     15  C   UNL d   1      -2.805   0.339  -2.614  0.00  0.00     0.119 C 
ENDROOT
BRANCH   8  16
ATOM     16  C   UNL d   1      -1.709  -6.024   0.691  0.00  0.00    -0.007 A 
ATOM     17  C   UNL d   1      -1.036  -7.065   1.347  0.00  0.00     0.014 A 
ATOM     18  C   UNL d   1      -1.496  -8.381   1.254  0.00  0.00     0.001 A 
ATOM     19  C   UNL d   1      -2.637  -8.667   0.508  0.00  0.00     0.000 A 
ATOM     20  C   UNL d   1      -3.317  -7.641  -0.147  0.00  0.00     0.001 A 
ATOM     21  C   UNL d   1      -2.854  -6.325  -0.059  0.00  0.00     0.014 A 
ENDBRANCH   8  16
TORSDOF 1
