REMARK  3 active torsions:
REMARK  status: ('A' for Active; 'I' for Inactive)
REMARK    1  A    between atoms: C_2  and  C_1 
REMARK       I    between atoms: N_3  and  C_2 
REMARK    2  A    between atoms: C_6  and  N_3 
REMARK    3  A    between atoms: N_11  and  C_4 
ROOT
ATOM      1  C   UNL d   1       0.869  -0.006   0.007  0.00  0.00     0.127 C 
ATOM      2  C   UNL d   1       0.272   0.042   1.213  0.00  0.00     0.113 C 
ATOM      3  C   UNL d   1       0.171   0.208  -1.211  0.00  0.00     0.106 C 
ATOM      4  N   UNL d   1      -0.350   0.403  -2.228  0.00  0.00    -0.191 NA
ENDROOT
BRANCH   1   5
ATOM      5  C   UNL d   1       2.344  -0.265  -0.037  0.00  0.00     0.268 C 
ATOM      6  N   UNL d   1       3.005   0.358  -1.083  0.00  0.00    -0.322 N 
ATOM      7  H   UNL d   1       2.513   1.077  -1.599  0.00  0.00     0.169 HD
ATOM      8  O   UNL d   1       2.883  -0.941   0.835  0.00  0.00    -0.266 OA
BRANCH   6   9
ATOM      9  C   UNL d   1       4.349   0.136  -1.465  0.00  0.00     0.041 A 
ATOM     10  C   UNL d   1       5.050   1.127  -2.180  0.00  0.00    -0.034 A 
ATOM     11  C   UNL d   1       6.352   0.846  -2.642  0.00  0.00     0.032 A 
ATOM     12  C   UNL d   1       4.524   2.514  -2.439  0.00  0.00     0.050 C 
ATOM     13  C   UNL d   1       6.948  -0.387  -2.388  0.00  0.00     0.034 A 
ATOM     14  C   UNL d   1       6.265  -1.357  -1.667  0.00  0.00     0.026 A 
ATOM     15 CL   UNL d   1       8.536  -0.706  -2.968  0.00  0.00    -0.084 Cl
ATOM     16  C   UNL d   1       4.973  -1.093  -1.205  0.00  0.00     0.032 A 
ENDBRANCH   6   9
ENDBRANCH   1   5
BRANCH   2  17
ATOM     17  N   UNL d   1      -1.063   0.241   1.565  0.00  0.00    -0.397 N 
ATOM     18  C   UNL d   1      -2.163  -0.487   0.916  0.00  0.00     0.148 C 
ATOM     19  C   UNL d   1      -1.417   0.724   2.906  0.00  0.00     0.148 C 
ENDBRANCH   2  17
TORSDOF 3
