REMARK  6 active torsions:
REMARK  status: ('A' for Active; 'I' for Inactive)
REMARK    1  A    between atoms: N_5  and  C_1 
REMARK       I    between atoms: C_7  and  N_8 
REMARK    2  A    between atoms: C_11  and  C_7 
REMARK    3  A    between atoms: C_12  and  C_11 
REMARK    4  A    between atoms: C_19  and  C_12 
REMARK    5  A    between atoms: C_13  and  C_19 
REMARK    6  A    between atoms: O_24  and  C_13 
ROOT
ATOM      1  N   UNL d   1      -4.491   0.159  -0.216  0.00  0.00    -0.360 N 
ATOM      2  C   UNL d   1      -8.177   1.555   0.307  0.00  0.00     0.220 C 
ATOM      3  N   UNL d   1      -6.847   1.890   0.534  0.00  0.00    -0.350 N 
ATOM      4  C   UNL d   1      -5.382   0.786  -1.195  0.00  0.00     0.145 C 
ATOM      5  C   UNL d   1      -5.990   2.087  -0.646  0.00  0.00     0.145 C 
ATOM      6  O   UNL d   1      -8.577   1.366  -0.847  0.00  0.00    -0.273 OA
ATOM      7  C   UNL d   1      -5.287   0.621   2.100  0.00  0.00     0.040 C 
ATOM      8  C   UNL d   1      -5.128  -0.399   0.977  0.00  0.00     0.126 C 
ATOM      9  C   UNL d   1      -6.147   1.863   1.820  0.00  0.00     0.127 C 
ENDROOT
BRANCH   1  10
ATOM     10  C   UNL d   1      -3.126   0.211  -0.294  0.00  0.00     0.147 A 
ATOM     11  N   UNL d   1      -2.334   0.005   0.740  0.00  0.00    -0.336 N 
ATOM     12  C   UNL d   1      -0.997   0.093   0.382  0.00  0.00     0.051 A 
ATOM     13  HN  UNL d   1      -2.663  -0.193   1.684  1.00  0.00     0.168 HD
ATOM     14  C   UNL d   1       0.107  -0.045   1.250  0.00  0.00     0.032 A 
ATOM     15  C   UNL d   1      -0.757   0.336  -0.967  0.00  0.00     0.036 A 
ATOM     16  C   UNL d   1       1.410   0.057   0.745  0.00  0.00     0.026 A 
ATOM     17  C   UNL d   1       1.616   0.285  -0.612  0.00  0.00     0.035 A 
ATOM     18  C   UNL d   1       0.543   0.427  -1.494  0.00  0.00     0.045 A 
ATOM     19 CL   UNL d   1       3.224   0.401  -1.218  0.00  0.00    -0.084 Cl
ATOM     20  S   UNL d   1      -2.264   0.494  -1.771  0.00  0.00    -0.052 SA
ENDBRANCH   1  10
BRANCH   2  21
ATOM     21  C   UNL d   1      -9.153   1.504   1.484  0.00  0.00     0.112 C 
BRANCH  21  22
ATOM     22  C   UNL d   1     -10.470   0.688   1.261  0.00  0.00    -0.030 C 
ATOM     23  C   UNL d   1     -11.312   0.745   2.560  0.00  0.00     0.016 C 
ATOM     24  C   UNL d   1     -11.367   1.299   0.155  0.00  0.00     0.016 C 
BRANCH  22  25
ATOM     25  C   UNL d   1     -10.187  -0.782   0.861  0.00  0.00     0.119 C 
BRANCH  25  26
ATOM     26  C   UNL d   1      -9.328  -1.591   1.810  0.00  0.00     0.140 C 
ATOM     27  O   UNL d   1      -8.929  -1.236   2.904  0.00  0.00    -0.650 OA
BRANCH  26  28
ATOM     28  O   UNL d   1      -9.027  -2.813   1.303  0.00  0.00    -0.776 OA
ATOM     29  H   UNL d   1      -9.408  -2.976   0.419  0.00  0.00     0.167 HD
ENDBRANCH  26  28
ENDBRANCH  25  26
ENDBRANCH  22  25
ENDBRANCH  21  22
ENDBRANCH   2  21
TORSDOF 6
