REMARK  1 active torsions:
REMARK  status: ('A' for Active; 'I' for Inactive)
REMARK    1  A    between atoms: S_11  and  C_2 
ROOT
ATOM      1  C   UNL d   1      -0.705   1.223   0.002  0.00  0.00     0.145 A 
ATOM      2  C   UNL d   1      -1.314   0.016  -0.003  0.00  0.00     0.097 A 
ATOM      3  N   UNL d   1      -0.621  -1.182  -0.004  0.00  0.00    -0.339 N 
ATOM      4  HN  UNL d   1      -1.121  -2.071  -0.008  1.00  0.00     0.167 HD
ATOM      5  C   UNL d   1       0.775   1.222   0.005  0.00  0.00     0.270 A 
ATOM      6  N   UNL d   1       1.380  -0.001   0.005  0.00  0.00    -0.312 N 
ATOM      7  C   UNL d   1       0.669  -1.157  -0.000  0.00  0.00     0.080 A 
ATOM      8  C   UNL d   1      -1.371   2.482   0.004  0.00  0.00     0.108 C 
ATOM      9  N   UNL d   1      -1.921   3.506   0.006  0.00  0.00    -0.191 NA
ATOM     10  O   UNL d   1       1.446   2.249   0.008  0.00  0.00    -0.266 OA
ATOM     11  C   UNL d   1       1.455  -2.439   0.000  0.00  0.00     0.089 C 
ATOM     12  H   UNL d   1       2.391   0.003   0.008  0.00  0.00     0.170 HD
ENDROOT
BRANCH   2  13
ATOM     13  S   UNL d   1      -3.086  -0.041  -0.008  0.00  0.00    -0.115 SA
ATOM     14  C   UNL d   1      -3.401  -1.821  -0.017  0.00  0.00     0.097 C 
ENDBRANCH   2  13
TORSDOF 1
