REMARK  5 active torsions:
REMARK  status: ('A' for Active; 'I' for Inactive)
REMARK    1  A    between atoms: C_2  and  S_1 
REMARK    2  A    between atoms: C_14  and  S_1 
REMARK    3  A    between atoms: C_3  and  N_7 
REMARK    4  A    between atoms: N_7  and  C_4 
REMARK    5  A    between atoms: C_18  and  C_14 
ROOT
ATOM      1  C   UNL d   1       0.486  -0.529   1.490  0.00  0.00     0.154 C 
ATOM      2  C   UNL d   1      -0.293   0.240   2.271  0.00  0.00     0.140 C 
ATOM      3  C   UNL d   1       0.978  -0.104   0.234  0.00  0.00     0.113 C 
ATOM      4  N   UNL d   1       1.384   0.310  -0.771  0.00  0.00    -0.191 NA
ENDROOT
BRANCH   1   5
ATOM      5  S   UNL d   1       0.946  -2.108   2.050  0.00  0.00     0.186 S 
ATOM      6  O   UNL d   1       1.232  -2.958   0.908  0.00  0.00    -0.222 OA
ATOM      7  O   UNL d   1       0.012  -2.563   3.065  0.00  0.00    -0.222 OA
BRANCH   5   8
ATOM      8  C   UNL d   1       2.500  -1.782   2.872  0.00  0.00     0.146 C 
BRANCH   8   9
ATOM      9  C   UNL d   1       3.099  -3.059   3.455  0.00  0.00     0.011 C 
ATOM     10  C   UNL d   1       4.434  -2.794   4.132  0.00  0.00     0.006 C 
ENDBRANCH   8   9
ENDBRANCH   5   8
ENDBRANCH   1   5
BRANCH   2  11
ATOM     11  N   UNL d   1      -0.780   1.500   2.023  0.00  0.00    -0.200 N 
ATOM     12  H   UNL d   1      -0.651   1.942   1.121  0.00  0.00     0.183 HD
BRANCH  11  13
ATOM     13  C   UNL d   1      -1.550   2.297   2.866  0.00  0.00     0.681 A 
ATOM     14  N   UNL d   1      -1.821   1.906   4.122  0.00  0.00    -0.202 N 
ATOM     15  C   UNL d   1      -2.562   2.740   4.876  0.00  0.00     0.107 A 
ATOM     16  HN  UNL d   1      -1.481   1.017   4.488  1.00  0.00     0.183 HD
ATOM     17  C   UNL d   1      -3.041   3.946   4.427  0.00  0.00     0.035 A 
ATOM     18  C   UNL d   1      -2.710   4.258   3.133  0.00  0.00     0.107 A 
ATOM     19  N   UNL d   1      -1.970   3.459   2.341  0.00  0.00    -0.202 N 
ATOM     20  HN  UNL d   1      -1.738   3.725   1.384  1.00  0.00     0.183 HD
ENDBRANCH  11  13
ENDBRANCH   2  11
TORSDOF 5
