REMARK  4 active torsions:
REMARK  status: ('A' for Active; 'I' for Inactive)
REMARK    1  A    between atoms: C_2  and  C_1 
REMARK    2  A    between atoms: S_3  and  C_10 
REMARK    3  A    between atoms: C_9  and  S_3 
REMARK    4  A    between atoms: C_10  and  C_11 
ROOT
ATOM      1  C   UNL d   1       0.539  -0.797   1.163  0.00  0.00     0.047 A 
ATOM      2  C   UNL d   1       1.603  -1.384   1.861  0.00  0.00     0.017 A 
ATOM      3  C   UNL d   1      -0.770  -1.015   1.617  0.00  0.00     0.017 A 
ATOM      4  C   UNL d   1       0.055  -2.369   3.460  0.00  0.00    -0.049 A 
ATOM      5  C   UNL d   1      -1.010  -1.796   2.752  0.00  0.00     0.009 A 
ATOM      6  C   UNL d   1       1.363  -2.164   2.996  0.00  0.00     0.009 A 
ENDROOT
BRANCH   4   7
ATOM      7  C   UNL d   1      -0.199  -3.210   4.689  0.00  0.00     0.117 C 
BRANCH   7   8
ATOM      8  S   UNL d   1      -0.349  -4.977   4.267  0.00  0.00    -0.125 SA
BRANCH   8   9
ATOM      9  C   UNL d   1      -0.825  -5.705   5.830  0.00  0.00     0.000 A 
ATOM     10  C   UNL d   1      -1.679  -6.813   5.796  0.00  0.00     0.019 A 
ATOM     11  C   UNL d   1      -2.060  -7.461   6.975  0.00  0.00     0.008 A 
ATOM     12  C   UNL d   1      -1.586  -7.017   8.213  0.00  0.00    -0.062 A 
ATOM     13  C   UNL d   1      -0.729  -5.913   8.250  0.00  0.00     0.008 A 
ATOM     14  C   UNL d   1      -1.992  -7.727   9.471  0.00  0.00     0.048 C 
ATOM     15  C   UNL d   1      -0.347  -5.266   7.068  0.00  0.00     0.019 A 
ENDBRANCH   8   9
ENDBRANCH   7   8
ENDBRANCH   4   7
BRANCH   1  16
ATOM     16  C   UNL d   1       0.782   0.054  -0.059  0.00  0.00     0.417 C 
ATOM     17  F   UNL d   1       2.100   0.200  -0.373  0.00  0.00    -0.166 F 
ATOM     18  F   UNL d   1       0.294   1.319   0.082  0.00  0.00    -0.166 F 
ATOM     19  F   UNL d   1       0.188  -0.451  -1.176  0.00  0.00    -0.166 F 
ENDBRANCH   1  16
TORSDOF 4
