REMARK  8 active torsions:
REMARK  status: ('A' for Active; 'I' for Inactive)
REMARK    1  A    between atoms: C_6  and  C_1 
REMARK    2  A    between atoms: C_7  and  C_2 
REMARK    3  A    between atoms: O_16  and  C_6 
REMARK    4  A    between atoms: C_9  and  C_15 
REMARK    5  A    between atoms: O_18  and  C_9 
REMARK    6  A    between atoms: O_14  and  C_13 
REMARK    7  A    between atoms: C_15  and  O_14 
REMARK    8  A    between atoms: C_21  and  O_16 
ROOT
ATOM      1  C   UNL d   1      -1.515  -1.387  -0.098  0.00  0.00     0.087 A 
ATOM      2  C   UNL d   1      -2.338  -0.264  -0.085  0.00  0.00     0.103 A 
ATOM      3  C   UNL d   1      -0.168  -0.899  -0.063  0.00  0.00     0.019 A 
ATOM      4  O   UNL d   1      -1.564   0.867  -0.098  0.00  0.00    -0.308 OA
ATOM      5  C   UNL d   1      -0.263   0.483  -0.081  0.00  0.00     0.087 A 
ATOM      6  C   UNL d   1       1.119  -1.470  -0.023  0.00  0.00     0.052 A 
ATOM      7  C   UNL d   1       0.831   1.345  -0.068  0.00  0.00     0.041 A 
ATOM      8  C   UNL d   1       2.247  -0.634  -0.025  0.00  0.00     0.070 A 
ATOM      9  C   UNL d   1       2.102   0.755  -0.041  0.00  0.00     0.039 A 
ENDROOT
BRANCH   2  10
ATOM     10  C   UNL d   1      -3.780  -0.015   0.014  0.00  0.00    -0.001 A 
ATOM     11  C   UNL d   1      -4.648  -0.939   0.617  0.00  0.00     0.014 A 
ATOM     12  C   UNL d   1      -6.018  -0.683   0.731  0.00  0.00     0.001 A 
ATOM     13  C   UNL d   1      -6.543   0.514   0.259  0.00  0.00     0.000 A 
ATOM     14  C   UNL d   1      -5.699   1.451  -0.334  0.00  0.00     0.001 A 
ATOM     15  C   UNL d   1      -4.331   1.186  -0.456  0.00  0.00     0.014 A 
ENDBRANCH   2  10
BRANCH   1  16
ATOM     16  C   UNL d   1      -1.971  -2.758  -0.096  0.00  0.00     0.297 C 
ATOM     17  O   UNL d   1      -2.984  -3.142  -0.669  0.00  0.00    -0.259 OA
BRANCH  16  18
ATOM     18  O   UNL d   1      -1.211  -3.543   0.721  0.00  0.00    -0.318 OA
BRANCH  18  19
ATOM     19  C   UNL d   1      -1.864  -4.720   1.216  0.00  0.00     0.174 C 
ATOM     20  C   UNL d   1      -2.536  -4.364   2.531  0.00  0.00     0.034 C 
ENDBRANCH  18  19
ENDBRANCH  16  18
ENDBRANCH   1  16
BRANCH   8  21
ATOM     21  O   UNL d   1       3.441  -1.296   0.053  0.00  0.00    -0.342 OA
BRANCH  21  22
ATOM     22  C   UNL d   1       4.559  -0.675  -0.574  0.00  0.00     0.286 C 
BRANCH  22  23
ATOM     23  C   UNL d   1       5.756  -1.614  -0.499  0.00  0.00     0.282 C 
ATOM     24  O   UNL d   1       5.771  -2.719   0.021  0.00  0.00    -0.263 OA
BRANCH  23  25
ATOM     25  O   UNL d   1       6.837  -1.027  -1.098  0.00  0.00    -0.325 OA
ATOM     26  C   UNL d   1       8.021  -1.827  -1.047  0.00  0.00     0.213 C 
ENDBRANCH  23  25
ENDBRANCH  22  23
ENDBRANCH  21  22
ENDBRANCH   8  21
TORSDOF 8
