REMARK  7 active torsions:
REMARK  status: ('A' for Active; 'I' for Inactive)
REMARK    1  A    between atoms: C_3  and  C_1 
REMARK    2  A    between atoms: C_4  and  C_1 
REMARK    3  A    between atoms: C_5  and  C_2 
REMARK    4  A    between atoms: C_6  and  C_2 
REMARK    5  A    between atoms: C_7  and  C_10 
REMARK    6  A    between atoms: C_9  and  C_8 
REMARK    7  A    between atoms: C_10  and  C_9 
ROOT
ATOM      1  C   UNL d   1       3.078  -0.786  -0.911  0.00  0.00     0.032 C 
ENDROOT
BRANCH   1   2
ATOM      2  C   UNL d   1       2.232   0.145  -0.077  0.00  0.00    -0.013 C 
ATOM      3  C   UNL d   1       0.880   0.221  -0.139  0.00  0.00    -0.019 C 
BRANCH   3   4
ATOM      4  C   UNL d   1       0.172  -0.761  -1.005  0.00  0.00    -0.025 A 
ATOM      5  C   UNL d   1      -0.142  -2.039  -0.524  0.00  0.00     0.012 A 
ATOM      6  C   UNL d   1      -0.804  -2.955  -1.343  0.00  0.00     0.001 A 
ATOM      7  C   UNL d   1      -1.153  -2.602  -2.645  0.00  0.00     0.000 A 
ATOM      8  C   UNL d   1      -0.850  -1.331  -3.130  0.00  0.00     0.001 A 
ATOM      9  C   UNL d   1      -0.192  -0.410  -2.311  0.00  0.00     0.012 A 
ENDBRANCH   3   4
BRANCH   3  10
ATOM     10  C   UNL d   1       0.146   1.278   0.619  0.00  0.00    -0.025 A 
ATOM     11  C   UNL d   1       0.686   2.554   0.842  0.00  0.00     0.012 A 
ATOM     12  C   UNL d   1      -0.064   3.553   1.470  0.00  0.00     0.001 A 
ATOM     13  C   UNL d   1      -1.370   3.297   1.877  0.00  0.00     0.000 A 
ATOM     14  C   UNL d   1      -1.924   2.038   1.667  0.00  0.00     0.001 A 
ATOM     15  C   UNL d   1      -1.172   1.038   1.046  0.00  0.00     0.012 A 
ENDBRANCH   3  10
ENDBRANCH   1   2
BRANCH   1  16
ATOM     16  C   UNL d   1       4.587  -0.527  -0.817  0.00  0.00     0.032 C 
BRANCH  16  17
ATOM     17  C   UNL d   1       5.421  -1.439  -1.693  0.00  0.00    -0.013 C 
ATOM     18  C   UNL d   1       5.463  -1.483  -3.039  0.00  0.00    -0.019 C 
BRANCH  18  19
ATOM     19  C   UNL d   1       4.624  -0.595  -3.872  0.00  0.00    -0.025 A 
ATOM     20  C   UNL d   1       5.062   0.690  -4.209  0.00  0.00     0.012 A 
ATOM     21  C   UNL d   1       4.253   1.527  -4.979  0.00  0.00     0.001 A 
ATOM     22  C   UNL d   1       3.001   1.087  -5.410  0.00  0.00     0.000 A 
ATOM     23  C   UNL d   1       2.563  -0.196  -5.090  0.00  0.00     0.001 A 
ATOM     24  C   UNL d   1       3.380  -1.041  -4.339  0.00  0.00     0.012 A 
ENDBRANCH  18  19
BRANCH  18  25
ATOM     25  C   UNL d   1       6.375  -2.464  -3.673  0.00  0.00    -0.025 A 
ATOM     26  C   UNL d   1       5.939  -3.765  -3.948  0.00  0.00     0.012 A 
ATOM     27  C   UNL d   1       6.768  -4.652  -4.638  0.00  0.00     0.001 A 
ATOM     28  C   UNL d   1       8.036  -4.246  -5.049  0.00  0.00     0.000 A 
ATOM     29  C   UNL d   1       8.484  -2.957  -4.761  0.00  0.00     0.001 A 
ATOM     30  C   UNL d   1       7.658  -2.068  -4.073  0.00  0.00     0.012 A 
ENDBRANCH  18  25
ENDBRANCH  16  17
ENDBRANCH   1  16
TORSDOF 7
