REMARK  5 active torsions:
REMARK  status: ('A' for Active; 'I' for Inactive)
REMARK    1  A    between atoms: N_2  and  C_1 
REMARK       I    between atoms: N_3  and  C_5 
REMARK       I    between atoms: C_4  and  N_3 
REMARK       I    between atoms: N_10  and  C_4 
REMARK    2  A    between atoms: C_5  and  C_8 
REMARK    3  A    between atoms: O_12  and  C_7 
REMARK    4  A    between atoms: N_9  and  N_10 
REMARK    5  A    between atoms: C_19  and  O_12 
ROOT
ATOM      1  C   UNL d   1       1.926  -0.672   0.785  0.00  0.00     0.137 A 
ATOM      2  C   UNL d   1       0.890  -1.615   0.870  0.00  0.00     0.056 A 
ATOM      3  C   UNL d   1       1.669   0.642   0.392  0.00  0.00     0.109 A 
ATOM      4  C   UNL d   1      -0.443  -1.258   0.544  0.00  0.00     0.035 A 
ATOM      5  C   UNL d   1       0.369   0.976   0.023  0.00  0.00     0.041 A 
ATOM      6  C   UNL d   1      -0.663   0.030   0.070  0.00  0.00     0.020 A 
ENDROOT
BRANCH   4   7
ATOM      7  C   UNL d   1      -1.480  -2.316   0.679  0.00  0.00     0.259 C 
ATOM      8  N   UNL d   1      -2.874  -2.151   0.735  0.00  0.00    -0.279 N 
ATOM      9  C   UNL d   1      -3.898  -1.254   1.040  0.00  0.00     0.315 C 
ATOM     10  H   UNL d   1      -3.221  -3.050   1.060  0.00  0.00     0.173 HD
ATOM     11  N   UNL d   1      -3.819   0.015   0.504  0.00  0.00    -0.174 NA
ATOM     12  O   UNL d   1      -4.831  -1.664   1.730  0.00  0.00    -0.252 OA
ATOM     13  H   UNL d   1      -3.481  -0.020  -0.450  0.00  0.00     0.151 HD
ATOM     14  O   UNL d   1      -1.074  -3.477   0.821  0.00  0.00    -0.267 OA
BRANCH  11  15
ATOM     15  N   UNL d   1      -4.963   0.876   0.683  0.00  0.00    -0.240 NA
ATOM     16  C   UNL d   1      -5.114   1.882  -0.388  0.00  0.00     0.134 C 
ATOM     17  C   UNL d   1      -4.107   3.037  -0.290  0.00  0.00     0.183 C 
ATOM     18  O   UNL d   1      -4.126   3.658   1.000  0.00  0.00    -0.389 OA
ATOM     19  C   UNL d   1      -3.901   2.694   2.038  0.00  0.00     0.183 C 
ATOM     20  C   UNL d   1      -4.948   1.575   1.988  0.00  0.00     0.134 C 
ENDBRANCH  11  15
ENDBRANCH   4   7
BRANCH   1  21
ATOM     21  N   UNL d   1       3.269  -1.116   1.092  0.00  0.00    -0.113 N 
ATOM     22  O   UNL d   1       3.728  -2.027   0.396  0.00  0.00    -0.532 OA
ATOM     23  O   UNL d   1       3.845  -0.571   2.039  0.00  0.00    -0.532 OA
ENDBRANCH   1  21
BRANCH   3  24
ATOM     24  O   UNL d   1       2.540   1.683   0.490  0.00  0.00    -0.308 OA
BRANCH  24  25
ATOM     25  C   UNL d   1       3.626   1.791  -0.344  0.00  0.00     0.076 A 
ATOM     26  C   UNL d   1       3.891   0.984  -1.451  0.00  0.00     0.039 A 
ATOM     27  C   UNL d   1       5.083   1.159  -2.162  0.00  0.00     0.026 A 
ATOM     28  C   UNL d   1       5.986   2.155  -1.786  0.00  0.00     0.034 A 
ATOM     29  C   UNL d   1       5.695   3.000  -0.720  0.00  0.00     0.026 A 
ATOM     30 CL   UNL d   1       7.468   2.333  -2.638  0.00  0.00    -0.084 Cl
ATOM     31  C   UNL d   1       4.516   2.817  -0.002  0.00  0.00     0.039 A 
ENDBRANCH  24  25
ENDBRANCH   3  24
TORSDOF 5
