REMARK  10 active torsions:
REMARK  status: ('A' for Active; 'I' for Inactive)
REMARK    1  A    between atoms: C_3  and  C_1 
REMARK    2  A    between atoms: C_6  and  C_1 
REMARK    3  A    between atoms: C_2  and  C_9 
REMARK    4  A    between atoms: O_10  and  C_2 
REMARK    5  A    between atoms: C_9  and  C_6 
REMARK    6  A    between atoms: C_14  and  C_13 
REMARK    7  A    between atoms: C_15  and  C_14 
REMARK    8  A    between atoms: C_18  and  C_15 
REMARK    9  A    between atoms: C_16  and  C_17 
REMARK   10  A    between atoms: C_17  and  C_18 
ROOT
ATOM      1  C   UNL d   1       0.209  -0.362   1.052  0.00  0.00     0.010 A 
ATOM      2  C   UNL d   1       0.590   0.075   2.327  0.00  0.00     0.015 A 
ATOM      3  C   UNL d   1      -0.927  -1.167   0.919  0.00  0.00     0.015 A 
ATOM      4  C   UNL d   1      -1.664  -1.536   2.046  0.00  0.00     0.008 A 
ATOM      5  C   UNL d   1      -0.148  -0.302   3.455  0.00  0.00     0.008 A 
ATOM      6  C   UNL d   1      -1.269  -1.131   3.326  0.00  0.00    -0.058 A 
ENDROOT
BRANCH   1   7
ATOM      7  C   UNL d   1       1.052   0.016  -0.120  0.00  0.00     0.160 C 
ATOM      8  O   UNL d   1       2.244   0.274   0.052  0.00  0.00    -0.292 OA
BRANCH   7   9
ATOM      9  C   UNL d   1       0.406   0.145  -1.485  0.00  0.00     0.094 C 
BRANCH   9  10
ATOM     10  C   UNL d   1       1.387  -0.177  -2.608  0.00  0.00     0.117 C 
BRANCH  10  11
ATOM     11  C   UNL d   1       0.699  -0.097  -3.948  0.00  0.00     0.139 C 
ATOM     12  O   UNL d   1      -0.475   0.193  -4.118  0.00  0.00    -0.650 OA
BRANCH  11  13
ATOM     13  O   UNL d   1       1.525  -0.397  -4.976  0.00  0.00    -0.776 OA
ATOM     14  H   UNL d   1       2.435  -0.606  -4.699  0.00  0.00     0.167 HD
ENDBRANCH  11  13
ENDBRANCH  10  11
ENDBRANCH   9  10
ENDBRANCH   7   9
ENDBRANCH   1   7
BRANCH   6  15
ATOM     15  C   UNL d   1      -2.031  -1.597   4.544  0.00  0.00     0.038 C 
BRANCH  15  16
ATOM     16  C   UNL d   1      -2.126  -3.124   4.676  0.00  0.00     0.005 C 
BRANCH  16  17
ATOM     17  C   UNL d   1      -0.764  -3.808   4.845  0.00  0.00     0.000 C 
BRANCH  17  18
ATOM     18  C   UNL d   1      -0.930  -5.325   4.966  0.00  0.00    -0.000 C 
BRANCH  18  19
ATOM     19  C   UNL d   1       0.415  -6.032   5.125  0.00  0.00    -0.005 C 
ATOM     20  C   UNL d   1       0.234  -7.538   5.239  0.00  0.00     0.005 C 
ENDBRANCH  18  19
ENDBRANCH  17  18
ENDBRANCH  16  17
ENDBRANCH  15  16
ENDBRANCH   6  15
TORSDOF 10
