REMARK  2 active torsions:
REMARK  status: ('A' for Active; 'I' for Inactive)
REMARK    1  A    between atoms: N_9  and  C_2 
REMARK    2  A    between atoms: C_10  and  C_8 
ROOT
ATOM      1  C   UNL d   1       0.030  -0.644  -0.011  0.00  0.00     0.060 A 
ATOM      2  C   UNL d   1       2.288   0.150   0.004  0.00  0.00     0.151 A 
ATOM      3  C   UNL d   1       0.062   0.698  -0.002  0.00  0.00     0.004 A 
ATOM      4  S   UNL d   1       1.519  -1.385  -0.001  0.00  0.00    -0.058 SA
ATOM      5  C   UNL d   1       1.392   1.233  -0.024  0.00  0.00    -0.009 A 
ATOM      6  C   UNL d   1      -1.239   1.287   0.028  0.00  0.00    -0.029 A 
ATOM      7  S   UNL d   1      -1.489  -1.309  -0.037  0.00  0.00    -0.078 SA
ATOM      8  C   UNL d   1      -2.209   0.260   0.012  0.00  0.00     0.058 A 
ATOM      9  C   UNL d   1       1.834   2.662  -0.077  0.00  0.00     0.052 C 
ATOM     10  C   UNL d   1      -1.625   2.732   0.087  0.00  0.00     0.050 C 
ENDROOT
BRANCH   2  11
ATOM     11  N   UNL d   1       3.741   0.173   0.029  0.00  0.00    -0.108 N 
ATOM     12  O   UNL d   1       4.288   1.278   0.046  0.00  0.00    -0.531 OA
ATOM     13  O   UNL d   1       4.341  -0.910   0.037  0.00  0.00    -0.531 OA
ENDBRANCH   2  11
BRANCH   8  14
ATOM     14  C   UNL d   1      -3.671   0.401  -0.001  0.00  0.00     0.163 C 
ATOM     15  O   UNL d   1      -4.223   1.463  -0.297  0.00  0.00    -0.292 OA
ATOM     16  C   UNL d   1      -4.558  -0.771   0.372  0.00  0.00     0.097 C 
ENDBRANCH   8  14
TORSDOF 2
