REMARK  8 active torsions:
REMARK  status: ('A' for Active; 'I' for Inactive)
REMARK    1  A    between atoms: S_2  and  C_1 
REMARK    2  A    between atoms: N_12  and  S_2 
REMARK       I    between atoms: C_10  and  N_11 
REMARK    3  A    between atoms: N_11  and  C_13 
REMARK    4  A    between atoms: C_22  and  N_12 
REMARK    5  A    between atoms: C_16  and  O_20 
REMARK    6  A    between atoms: C_19  and  C_22 
REMARK    7  A    between atoms: C_25  and  C_19 
REMARK    8  A    between atoms: O_20  and  C_25 
ROOT
ATOM      1  C   UNL d   1       6.036   3.212   0.016  0.00  0.00     0.042 C 
ENDROOT
BRANCH   1   2
ATOM      2  C   UNL d   1       5.591   1.750  -0.013  0.00  0.00     0.106 C 
BRANCH   2   3
ATOM      3  N   UNL d   1       6.093   1.014   1.169  0.00  0.00    -0.214 NA
ATOM      4  H   UNL d   1       7.106   1.016   1.288  0.00  0.00     0.140 HD
BRANCH   3   5
ATOM      5  S   UNL d   1       5.601  -0.604   1.278  0.00  0.00     0.258 S 
ATOM      6  O   UNL d   1       6.214  -1.161   2.465  0.00  0.00    -0.204 OA
ATOM      7  O   UNL d   1       5.780  -1.210  -0.025  0.00  0.00    -0.204 OA
BRANCH   5   8
ATOM      8  C   UNL d   1       3.891  -0.683   1.575  0.00  0.00     0.161 A 
ATOM      9  N   UNL d   1       3.092   0.435   1.739  0.00  0.00    -0.335 N 
ATOM     10  C   UNL d   1       1.871  -0.023   1.924  0.00  0.00     0.079 A 
ATOM     11  HN  UNL d   1       3.387   1.412   1.721  1.00  0.00     0.168 HD
ATOM     12  C   UNL d   1       0.665   0.806   2.163  0.00  0.00     0.089 C 
ATOM     13  N   UNL d   1       1.857  -1.398   1.868  0.00  0.00    -0.348 N 
ATOM     14  C   UNL d   1       3.134  -1.832   1.655  0.00  0.00     0.135 A 
ATOM     15  C   UNL d   1       0.694  -2.242   2.002  0.00  0.00     0.156 C 
ENDBRANCH   5   8
ENDBRANCH   3   5
ENDBRANCH   2   3
ENDBRANCH   1   2
BRANCH   1  16
ATOM     16  C   UNL d   1       7.550   3.311  -0.015  0.00  0.00     0.176 C 
BRANCH  16  17
ATOM     17  O   UNL d   1       7.998   4.669  -0.079  0.00  0.00    -0.351 OA
BRANCH  17  18
ATOM     18  C   UNL d   1       9.370   4.791  -0.042  0.00  0.00     0.070 A 
ATOM     19  C   UNL d   1      10.248   3.705   0.002  0.00  0.00     0.066 A 
ATOM     20  C   UNL d   1      11.626   3.862   0.105  0.00  0.00     0.037 A 
ATOM     21  C   UNL d   1      12.143   5.159   0.085  0.00  0.00     0.029 A 
ATOM     22  C   UNL d   1      11.278   6.262   0.002  0.00  0.00     0.005 A 
ATOM     23  C   UNL d   1       9.893   6.078  -0.041  0.00  0.00     0.037 A 
BRANCH  20  24
ATOM     24  N   UNL d   1      12.498   2.756   0.247  0.00  0.00    -0.327 N 
ATOM     25  C   UNL d   1      12.123   1.419   0.329  0.00  0.00     0.218 C 
ATOM     26  O   UNL d   1      10.989   0.959   0.268  0.00  0.00    -0.274 OA
ATOM     27  C   UNL d   1      13.280   0.471   0.508  0.00  0.00     0.117 C 
ATOM     28  H   UNL d   1      13.479   2.975   0.351  0.00  0.00     0.169 HD
ENDBRANCH  20  24
ENDBRANCH  17  18
ENDBRANCH  16  17
ENDBRANCH   1  16
TORSDOF 8
