REMARK  4 active torsions:
REMARK  status: ('A' for Active; 'I' for Inactive)
REMARK    1  A    between atoms: C_2  and  N_1 
REMARK    2  A    between atoms: O_4  and  C_3 
REMARK    3  A    between atoms: C_5  and  O_4 
REMARK    4  A    between atoms: C_13  and  C_6 
ROOT
ATOM      1  C   UNL d   1      -0.447  -0.951  -1.963  0.00  0.00     0.099 A 
ATOM      2  C   UNL d   1       0.749   0.737  -3.910  0.00  0.00    -0.049 A 
ATOM      3  C   UNL d   1       0.782  -1.295  -2.529  0.00  0.00     0.068 A 
ATOM      4  C   UNL d   1       1.383  -0.439  -3.459  0.00  0.00     0.034 A 
ATOM      5  C   UNL d   1      -1.114   0.188  -2.423  0.00  0.00     0.040 A 
ATOM      6  C   UNL d   1      -0.523   1.018  -3.388  0.00  0.00     0.011 A 
ATOM      7 CL   UNL d   1       1.591  -2.789  -2.196  0.00  0.00    -0.081 Cl
ENDROOT
BRANCH   1   8
ATOM      8  O   UNL d   1      -1.120  -1.702  -1.024  0.00  0.00    -0.290 OA
BRANCH   8   9
ATOM      9  C   UNL d   1      -0.444  -2.057   0.134  0.00  0.00     0.181 A 
ATOM     10  C   UNL d   1      -0.841  -3.173   0.862  0.00  0.00     0.154 A 
ATOM     11  C   UNL d   1      -0.058  -3.573   1.957  0.00  0.00     0.042 A 
ATOM     12  C   UNL d   1       1.082  -2.844   2.288  0.00  0.00     0.020 A 
ATOM     13  C   UNL d   1       1.375  -1.718   1.541  0.00  0.00     0.090 A 
ATOM     14  N   UNL d   1       0.629  -1.299   0.497  0.00  0.00    -0.345 N 
ATOM     15  HN  UNL d   1       0.860  -0.441  -0.004  1.00  0.00     0.167 HD
BRANCH  10  16
ATOM     16  N   UNL d   1      -2.031  -3.946   0.524  0.00  0.00    -0.111 N 
ATOM     17  O   UNL d   1      -2.782  -3.543  -0.373  0.00  0.00    -0.532 OA
ATOM     18  O   UNL d   1      -2.244  -4.973   1.187  0.00  0.00    -0.532 OA
ENDBRANCH  10  16
ENDBRANCH   8   9
ENDBRANCH   1   8
BRANCH   2  19
ATOM     19  C   UNL d   1       1.458   1.645  -4.930  0.00  0.00    -0.024 C 
ATOM     20  C   UNL d   1       0.589   2.820  -5.433  0.00  0.00     0.019 C 
ATOM     21  C   UNL d   1       2.720   2.252  -4.277  0.00  0.00     0.019 C 
ATOM     22  C   UNL d   1       1.877   0.830  -6.175  0.00  0.00     0.019 C 
ENDBRANCH   2  19
TORSDOF 4
