REMARK  2 active torsions:
REMARK  status: ('A' for Active; 'I' for Inactive)
REMARK    1  A    between atoms: C_5  and  C_1 
REMARK    2  A    between atoms: O_11  and  N_6 
ROOT
ATOM      1  C   UNL d   1      -2.127   0.669  -0.078  0.00  0.00    -0.011 A 
ATOM      2  C   UNL d   1      -0.908   1.371  -0.051  0.00  0.00     0.023 A 
ATOM      3  C   UNL d   1       0.296   0.684  -0.016  0.00  0.00    -0.022 A 
ATOM      4  C   UNL d   1       0.335  -0.693   0.008  0.00  0.00     0.075 A 
ATOM      5  O   UNL d   1       1.601  -1.207   0.056  0.00  0.00    -0.350 OA
ATOM      6  C   UNL d   1      -2.050  -0.747  -0.042  0.00  0.00     0.016 A 
ATOM      7  C   UNL d   1      -0.822  -1.433   0.005  0.00  0.00     0.038 A 
ATOM      8  C   UNL d   1       2.443  -0.063  -0.236  0.00  0.00     0.180 C 
ATOM      9  C   UNL d   1       1.672   1.219   0.076  0.00  0.00     0.068 C 
ENDROOT
BRANCH   1  10
ATOM     10  C   UNL d   1      -3.476   1.380  -0.139  0.00  0.00     0.038 C 
ATOM     11  N   UNL d   1      -3.735   2.661  -0.155  0.00  0.00    -0.271 N 
ATOM     12  HN  UNL d   1      -4.689   3.020  -0.205  1.00  0.00     0.194 HD
ATOM     13  C   UNL d   1      -4.759   0.555  -0.202  0.00  0.00     0.071 C 
BRANCH  11  14
ATOM     14  O   UNL d   1      -2.634   3.501  -0.098  0.00  0.00    -0.285 OA
ATOM     15  C   UNL d   1      -3.067   4.852  -0.159  0.00  0.00     0.237 C 
ENDBRANCH  11  14
ENDBRANCH   1  10
TORSDOF 2
