REMARK  3 active torsions:
REMARK  status: ('A' for Active; 'I' for Inactive)
REMARK    1  A    between atoms: C_6  and  C_1 
REMARK    2  A    between atoms: O_9  and  C_6 
REMARK    3  A    between atoms: C_11  and  O_9 
ROOT
ATOM      1  C   UNL d   1      -0.286  -1.214   0.029  0.00  0.00     0.134 A 
ATOM      2  N   UNL d   1      -1.165  -0.151   0.069  0.00  0.00    -0.302 N 
ATOM      3  C   UNL d   1       0.970  -0.729   0.064  0.00  0.00     0.043 A 
ATOM      4  C   UNL d   1      -0.449   1.042   0.116  0.00  0.00     0.325 A 
ATOM      5  N   UNL d   1       0.892   0.648   0.122  0.00  0.00    -0.310 N 
ATOM      6  O   UNL d   1      -0.890   2.176   0.134  0.00  0.00    -0.247 OA
ATOM      7  C   UNL d   1       2.292  -1.402   0.025  0.00  0.00     0.071 C 
ATOM      8  H   UNL d   1      -2.171  -0.223   0.028  0.00  0.00     0.171 HD
ATOM      9  H   UNL d   1       1.663   1.300   0.133  0.00  0.00     0.170 HD
ENDROOT
BRANCH   1  10
ATOM     10  C   UNL d   1      -0.725  -2.620  -0.104  0.00  0.00     0.312 C 
ATOM     11  O   UNL d   1       0.021  -3.584  -0.158  0.00  0.00    -0.258 OA
BRANCH  10  12
ATOM     12  O   UNL d   1      -2.079  -2.645  -0.242  0.00  0.00    -0.317 OA
BRANCH  12  13
ATOM     13  C   UNL d   1      -2.628  -3.895  -0.681  0.00  0.00     0.175 C 
ATOM     14  C   UNL d   1      -2.661  -3.902  -2.199  0.00  0.00     0.034 C 
ENDBRANCH  12  13
ENDBRANCH  10  12
ENDBRANCH   1  10
TORSDOF 3
