REMARK  4 active torsions:
REMARK  status: ('A' for Active; 'I' for Inactive)
REMARK    1  A    between atoms: C_9  and  N_1 
REMARK    2  A    between atoms: S_6  and  C_8 
REMARK    3  A    between atoms: C_10  and  S_6 
REMARK    4  A    between atoms: C_8  and  C_9 
ROOT
ATOM      1  C   UNL d   1       0.881  -3.407   0.008  0.00  0.00     0.167 C 
ENDROOT
BRANCH   1   2
ATOM      2  S   UNL d   1       0.540  -5.139  -0.038  0.00  0.00     0.177 S 
ATOM      3  O   UNL d   1      -0.326  -5.459   1.081  0.00  0.00    -0.223 OA
ATOM      4  O   UNL d   1       0.159  -5.489  -1.393  0.00  0.00    -0.223 OA
BRANCH   2   5
ATOM      5  C   UNL d   1       2.126  -5.891   0.284  0.00  0.00     0.059 A 
ATOM      6  C   UNL d   1       2.493  -6.194   1.600  0.00  0.00     0.025 A 
ATOM      7  C   UNL d   1       3.729  -6.798   1.850  0.00  0.00     0.025 A 
ATOM      8  C   UNL d   1       4.582  -7.103   0.788  0.00  0.00     0.034 A 
ATOM      9  C   UNL d   1       4.206  -6.818  -0.526  0.00  0.00     0.025 A 
ATOM     10 CL   UNL d   1       6.105  -7.839   1.101  0.00  0.00    -0.084 Cl
ATOM     11  C   UNL d   1       2.972  -6.216  -0.784  0.00  0.00     0.025 A 
ENDBRANCH   2   5
ENDBRANCH   1   2
BRANCH   1  12
ATOM     12  C   UNL d   1      -0.394  -2.599  -0.189  0.00  0.00     0.164 C 
BRANCH  12  13
ATOM     13  N   UNL d   1      -0.168  -1.159  -0.160  0.00  0.00    -0.294 N 
ATOM     14  N   UNL d   1       1.089  -0.702   0.025  0.00  0.00    -0.302 N 
ATOM     15  C   UNL d   1       0.974   0.631  -0.012  0.00  0.00     0.041 A 
ATOM     16  HN  UNL d   1       1.938  -1.250   0.163  1.00  0.00     0.187 HD
ATOM     17  C   UNL d   1       2.175   1.485   0.156  0.00  0.00     0.071 C 
ATOM     18  C   UNL d   1      -0.362   1.012  -0.220  0.00  0.00     0.058 A 
ATOM     19  C   UNL d   1      -1.094  -0.151  -0.304  0.00  0.00     0.044 A 
ATOM     20 BR   UNL d   1      -0.985   2.773  -0.349  0.00  0.00    -0.047 Br
ATOM     21  C   UNL d   1      -2.551  -0.349  -0.508  0.00  0.00     0.071 C 
ENDBRANCH  12  13
ENDBRANCH   1  12
TORSDOF 4
