REMARK  3 active torsions:
REMARK  status: ('A' for Active; 'I' for Inactive)
REMARK    1  A    between atoms: S_7  and  C_1 
REMARK    2  A    between atoms: C_2  and  S_7 
REMARK    3  A    between atoms: C_14  and  C_5 
ROOT
ATOM      1  C   UNL d   1       2.084   2.792   0.176  0.00  0.00     0.051 A 
ATOM      2  N   UNL d   1       4.208   2.335  -1.008  0.00  0.00    -0.331 N 
ATOM      3  HN  UNL d   1       4.713   2.005  -1.831  1.00  0.00     0.168 HD
ATOM      4  C   UNL d   1       2.905   2.356  -1.007  0.00  0.00     0.063 A 
ATOM      5  C   UNL d   1       4.898   2.755   0.097  0.00  0.00     0.176 A 
ATOM      6  N   UNL d   1       4.181   3.252   1.156  0.00  0.00    -0.342 N 
ATOM      7  C   UNL d   1       2.814   3.252   1.200  0.00  0.00     0.111 A 
ATOM      8  S   UNL d   1       6.568   2.725   0.221  0.00  0.00    -0.041 SA
ATOM      9  H   UNL d   1       4.720   3.565   1.955  0.00  0.00     0.167 HD
ENDROOT
BRANCH   1  10
ATOM     10  S   UNL d   1       0.366   2.714   0.249  0.00  0.00    -0.050 SA
BRANCH  10  11
ATOM     11  C   UNL d   1       0.190   1.116   0.900  0.00  0.00     0.151 A 
ATOM     12  N   UNL d   1      -1.030   0.558   1.192  0.00  0.00    -0.341 N 
ATOM     13  C   UNL d   1      -0.790  -0.696   1.700  0.00  0.00     0.109 A 
ATOM     14  C   UNL d   1      -2.353   1.109   1.031  0.00  0.00     0.158 C 
ATOM     15  C   UNL d   1       0.578  -0.835   1.682  0.00  0.00     0.107 A 
ATOM     16  N   UNL d   1       1.172   0.293   1.187  0.00  0.00    -0.345 N 
ATOM     17  HN  UNL d   1       2.170   0.460   1.065  1.00  0.00     0.167 HD
ENDBRANCH  10  11
ENDBRANCH   1  10
BRANCH   4  18
ATOM     18  C   UNL d   1       2.257   1.948  -2.293  0.00  0.00    -0.008 A 
ATOM     19  C   UNL d   1       2.822   0.876  -3.004  0.00  0.00     0.015 A 
ATOM     20  C   UNL d   1       2.357   0.545  -4.280  0.00  0.00     0.024 A 
ATOM     21  C   UNL d   1       1.321   1.282  -4.848  0.00  0.00     0.034 A 
ATOM     22  C   UNL d   1       0.754   2.351  -4.155  0.00  0.00     0.024 A 
ATOM     23 CL   UNL d   1       0.764   0.900  -6.430  0.00  0.00    -0.084 Cl
ATOM     24  C   UNL d   1       1.237   2.698  -2.890  0.00  0.00     0.015 A 
ENDBRANCH   4  18
TORSDOF 3
