REMARK  3 active torsions:
REMARK  status: ('A' for Active; 'I' for Inactive)
REMARK    1  A    between atoms: C_2  and  N_1 
REMARK    2  A    between atoms: C_9  and  N_3 
REMARK    3  A    between atoms: C_7  and  C_12 
ROOT
ATOM      1  N   UNL d   1      -1.456  -3.244   5.005  0.00  0.00    -0.365 N 
ATOM      2  HN  UNL d   1      -0.490  -3.016   5.237  1.00  0.00     0.165 HD
ATOM      3  C   UNL d   1      -1.941  -2.920   3.850  0.00  0.00     0.099 C 
ENDROOT
BRANCH   3   4
ATOM      4  C   UNL d   1      -1.122  -2.227   2.834  0.00  0.00    -0.021 A 
ATOM      5  C   UNL d   1       0.158  -1.755   3.147  0.00  0.00     0.015 A 
ATOM      6  C   UNL d   1       0.919  -1.098   2.176  0.00  0.00     0.037 A 
ATOM      7  C   UNL d   1       0.392  -0.921   0.889  0.00  0.00     0.102 A 
ATOM      8  C   UNL d   1      -0.890  -1.396   0.572  0.00  0.00     0.037 A 
ATOM      9  C   UNL d   1      -1.648  -2.048   1.550  0.00  0.00     0.015 A 
BRANCH   7  10
ATOM     10  N   UNL d   1       1.188  -0.234  -0.137  0.00  0.00    -0.116 N 
ATOM     11  O   UNL d   1       0.690  -0.116  -1.266  0.00  0.00    -0.532 OA
ATOM     12  O   UNL d   1       2.307   0.186   0.187  0.00  0.00    -0.532 OA
ENDBRANCH   7  10
ENDBRANCH   3   4
BRANCH   1  13
ATOM     13  C   UNL d   1      -2.270  -3.911   5.937  0.00  0.00     0.033 A 
ATOM     14  C   UNL d   1      -3.184  -4.912   5.593  0.00  0.00     0.053 A 
ATOM     15  C   UNL d   1      -3.931  -5.554   6.582  0.00  0.00     0.036 A 
ATOM     16 CL   UNL d   1      -5.071  -6.765   6.135  0.00  0.00    -0.084 Cl
ATOM     17  C   UNL d   1      -3.761  -5.229   7.925  0.00  0.00     0.024 A 
ATOM     18  C   UNL d   1      -2.835  -4.252   8.282  0.00  0.00     0.004 A 
ATOM     19  C   UNL d   1      -2.097  -3.600   7.291  0.00  0.00     0.029 A 
ENDBRANCH   1  13
TORSDOF 3
