REMARK  5 active torsions:
REMARK  status: ('A' for Active; 'I' for Inactive)
REMARK    1  A    between atoms: C_6  and  C_1 
REMARK    2  A    between atoms: N_8  and  C_12 
REMARK    3  A    between atoms: O_14  and  C_11 
REMARK    4  A    between atoms: C_20  and  O_14 
REMARK    5  A    between atoms: O_27  and  C_21 
ROOT
ATOM      1  C   UNL d   1       3.543   1.502   0.031  0.00  0.00     0.052 A 
ATOM      2  C   UNL d   1       3.908   2.439   1.024  0.00  0.00     0.054 A 
ATOM      3  C   UNL d   1       4.368   1.346  -1.094  0.00  0.00     0.090 A 
ATOM      4  C   UNL d   1       5.074   3.201   0.897  0.00  0.00     0.104 A 
ATOM      5  C   UNL d   1       5.590   2.051  -1.152  0.00  0.00     0.041 A 
ATOM      6  C   UNL d   1       5.928   2.999  -0.184  0.00  0.00     0.039 A 
ENDROOT
BRANCH   1   7
ATOM      7  C   UNL d   1       2.270   0.785   0.295  0.00  0.00     0.165 C 
ATOM      8  N   UNL d   1       1.822   0.673   1.497  0.00  0.00    -0.335 N 
ATOM      9  C   UNL d   1       0.536   0.179   1.678  0.00  0.00     0.051 A 
ATOM     10  HN  UNL d   1       2.397   0.940   2.297  1.00  0.00     0.168 HD
ATOM     11  C   UNL d   1       0.015   0.191   2.974  0.00  0.00     0.030 A 
ATOM     12  C   UNL d   1      -0.250  -0.231   0.606  0.00  0.00     0.072 A 
ATOM     13  C   UNL d   1      -1.301  -0.181   3.211  0.00  0.00     0.003 A 
ATOM     14  C   UNL d   1      -2.106  -0.556   2.137  0.00  0.00     0.008 A 
ATOM     15  C   UNL d   1      -1.604  -0.575   0.820  0.00  0.00    -0.043 A 
ATOM     16  C   UNL d   1      -2.572  -0.978  -0.258  0.00  0.00     0.049 C 
ATOM     17  C   UNL d   1       0.437  -0.260  -0.711  0.00  0.00     0.302 C 
ATOM     18  O   UNL d   1       1.638   0.370  -0.817  0.00  0.00    -0.256 OA
ATOM     19  O   UNL d   1      -0.051  -0.821  -1.682  0.00  0.00    -0.259 OA
ENDBRANCH   1   7
BRANCH   3  20
ATOM     20  O   UNL d   1       4.000   0.489  -2.120  0.00  0.00    -0.310 OA
BRANCH  20  21
ATOM     21  C   UNL d   1       4.376   0.840  -3.405  0.00  0.00     0.076 A 
ATOM     22  C   UNL d   1       4.931  -0.149  -4.216  0.00  0.00     0.040 A 
ATOM     23  C   UNL d   1       5.446   0.184  -5.478  0.00  0.00     0.039 A 
ATOM     24  C   UNL d   1       5.405   1.507  -5.925  0.00  0.00     0.068 A 
ATOM     25  C   UNL d   1       4.770   2.474  -5.144  0.00  0.00     0.039 A 
ATOM     26  C   UNL d   1       4.236   2.142  -3.898  0.00  0.00     0.040 A 
BRANCH  24  27
ATOM     27  O   UNL d   1       5.921   1.968  -7.104  0.00  0.00    -0.356 OA
ATOM     28  C   UNL d   1       6.985   1.206  -7.662  0.00  0.00     0.210 C 
ENDBRANCH  24  27
ENDBRANCH  20  21
ENDBRANCH   3  20
BRANCH   4  29
ATOM     29  N   UNL d   1       5.384   4.228   1.897  0.00  0.00    -0.116 N 
ATOM     30  O   UNL d   1       4.627   4.332   2.872  0.00  0.00    -0.532 OA
ATOM     31  O   UNL d   1       6.380   4.939   1.699  0.00  0.00    -0.532 OA
ENDBRANCH   4  29
TORSDOF 5
