REMARK  4 active torsions:
REMARK  status: ('A' for Active; 'I' for Inactive)
REMARK    1  A    between atoms: C_5  and  C_4 
REMARK    2  A    between atoms: C_8  and  C_5 
REMARK    3  A    between atoms: O_11  and  C_8 
REMARK    4  A    between atoms: C_14  and  O_11 
ROOT
ATOM      1  N   UNL d   1      -1.091   1.316  -0.323  0.00  0.00    -0.349 N 
ATOM      2  C   UNL d   1      -2.331   0.735  -0.413  0.00  0.00     0.092 C 
ATOM      3  S   UNL d   1      -1.217  -1.786  -0.393  0.00  0.00    -0.115 SA
ATOM      4  C   UNL d   1      -2.531  -0.653   0.220  0.00  0.00     0.123 C 
ATOM      5  C   UNL d   1       0.119   0.639  -0.090  0.00  0.00     0.050 A 
ATOM      6  C   UNL d   1       0.203  -0.759  -0.093  0.00  0.00     0.028 A 
ATOM      7  S   UNL d   1      -3.553   1.676  -1.078  0.00  0.00    -0.064 SA
ATOM      8  C   UNL d   1       1.280   1.407   0.057  0.00  0.00     0.031 A 
ATOM      9  C   UNL d   1       1.452  -1.375   0.044  0.00  0.00     0.021 A 
ATOM     10  C   UNL d   1       2.520   0.784   0.206  0.00  0.00     0.002 A 
ATOM     11  C   UNL d   1       2.607  -0.606   0.196  0.00  0.00     0.002 A 
ATOM     12  H   UNL d   1      -1.042   2.297  -0.578  0.00  0.00     0.166 HD
ENDROOT
BRANCH   4  13
ATOM     13  C   UNL d   1      -3.859  -1.362  -0.051  0.00  0.00     0.133 C 
BRANCH  13  14
ATOM     14  C   UNL d   1      -4.984  -0.791   0.776  0.00  0.00     0.260 C 
ATOM     15  O   UNL d   1      -4.852  -0.253   1.865  0.00  0.00    -0.265 OA
BRANCH  14  16
ATOM     16  O   UNL d   1      -6.169  -1.043   0.151  0.00  0.00    -0.322 OA
BRANCH  16  17
ATOM     17  C   UNL d   1      -7.355  -0.633   0.845  0.00  0.00     0.174 C 
ATOM     18  C   UNL d   1      -7.814  -1.748   1.764  0.00  0.00     0.034 C 
ENDBRANCH  16  17
ENDBRANCH  14  16
ENDBRANCH  13  14
ENDBRANCH   4  13
TORSDOF 4
