REMARK  5 active torsions:
REMARK  status: ('A' for Active; 'I' for Inactive)
REMARK    1  A    between atoms: C_5  and  C_4 
REMARK    2  A    between atoms: C_9  and  C_5 
REMARK    3  A    between atoms: C_7  and  O_10 
REMARK    4  A    between atoms: C_12  and  C_7 
REMARK       I    between atoms: N_11  and  C_9 
REMARK    5  A    between atoms: O_10  and  N_11 
ROOT
ATOM      1  C   UNL d   1       2.491   0.497   2.782  0.00  0.00     0.243 C 
ATOM      2  N   UNL d   1       2.043   1.786   2.928  0.00  0.00    -0.225 N 
ATOM      3  O   UNL d   1       3.618   0.108   3.077  0.00  0.00    -0.271 OA
ATOM      4  H   UNL d   1       1.061   2.033   3.025  0.00  0.00     0.198 HD
ENDROOT
BRANCH   1   5
ATOM      5  C   UNL d   1       1.474  -0.431   2.159  0.00  0.00     0.130 C 
BRANCH   5   6
ATOM      6  C   UNL d   1       1.757  -0.596   0.664  0.00  0.00     0.153 C 
ATOM      7  C   UNL d   1       1.591   0.722  -0.084  0.00  0.00     0.236 C 
ATOM      8  N   UNL d   1       0.324   1.211  -0.268  0.00  0.00    -0.325 N 
ATOM      9  O   UNL d   1       2.555   1.421  -0.396  0.00  0.00    -0.272 OA
ATOM     10  C   UNL d   1      -0.866   0.480  -0.131  0.00  0.00     0.051 A 
ATOM     11  H   UNL d   1       0.282   2.163  -0.613  0.00  0.00     0.169 HD
ATOM     12  C   UNL d   1      -0.870  -0.919  -0.017  0.00  0.00     0.028 A 
ATOM     13  C   UNL d   1      -2.071   1.186  -0.136  0.00  0.00     0.031 A 
ATOM     14  S   UNL d   1       0.641  -1.864  -0.040  0.00  0.00    -0.113 SA
ATOM     15  C   UNL d   1      -2.088  -1.598   0.088  0.00  0.00     0.021 A 
ATOM     16  C   UNL d   1      -3.289  -0.887   0.110  0.00  0.00     0.002 A 
ATOM     17  C   UNL d   1      -3.280   0.503   0.003  0.00  0.00     0.002 A 
ENDBRANCH   5   6
ENDBRANCH   1   5
BRANCH   2  18
ATOM     18  O   UNL d   1       2.953   2.654   3.581  0.00  0.00    -0.192 OA
BRANCH  18  19
ATOM     19  C   UNL d   1       2.314   3.667   4.227  0.00  0.00     0.315 C 
ATOM     20  O   UNL d   1       1.099   3.799   4.280  0.00  0.00    -0.257 OA
BRANCH  19  21
ATOM     21  C   UNL d   1       3.299   4.616   4.813  0.00  0.00     0.041 A 
ATOM     22  C   UNL d   1       2.821   5.804   5.386  0.00  0.00     0.019 A 
ATOM     23  C   UNL d   1       3.715   6.742   5.914  0.00  0.00     0.025 A 
ATOM     24  C   UNL d   1       5.085   6.492   5.874  0.00  0.00     0.034 A 
ATOM     25  C   UNL d   1       5.571   5.309   5.319  0.00  0.00     0.025 A 
ATOM     26 CL   UNL d   1       6.186   7.653   6.507  0.00  0.00    -0.084 Cl
ATOM     27  C   UNL d   1       4.680   4.370   4.790  0.00  0.00     0.019 A 
ENDBRANCH  19  21
ENDBRANCH  18  19
ENDBRANCH   2  18
TORSDOF 5
