REMARK  2 active torsions:
REMARK  status: ('A' for Active; 'I' for Inactive)
REMARK    1  A    between atoms: C_7  and  N_1 
REMARK    2  A    between atoms: C_10  and  C_6 
ROOT
ATOM      1  N   UNL d   1      -0.318  -1.101   0.107  0.00  0.00    -0.242 N 
ATOM      2  N   UNL d   1       0.910  -0.607   0.383  0.00  0.00    -0.014 NA
ATOM      3  N   UNL d   1       0.870   0.707   0.259  0.00  0.00    -0.281 N 
ATOM      4  HN  UNL d   1       1.668   1.338   0.336  1.00  0.00     0.184 HD
ATOM      5  C   UNL d   1      -1.225  -0.054  -0.035  0.00  0.00     0.057 C 
ATOM      6  C   UNL d   1      -0.422   1.079   0.010  0.00  0.00     0.080 C 
ATOM      7  C   UNL d   1      -2.701  -0.202  -0.043  0.00  0.00     0.072 C 
ENDROOT
BRANCH   1   8
ATOM      8  C   UNL d   1      -0.501  -2.506   0.026  0.00  0.00     0.058 A 
ATOM      9  C   UNL d   1       0.348  -3.341   0.772  0.00  0.00     0.055 A 
ATOM     10  C   UNL d   1       0.178  -4.726   0.723  0.00  0.00     0.037 A 
ATOM     11 CL   UNL d   1       1.177  -5.740   1.691  0.00  0.00    -0.084 Cl
ATOM     12  C   UNL d   1      -0.799  -5.292  -0.086  0.00  0.00     0.048 A 
ATOM     13  C   UNL d   1      -1.613  -4.461  -0.857  0.00  0.00     0.037 A 
ATOM     14  C   UNL d   1      -1.475  -3.071  -0.802  0.00  0.00     0.055 A 
ATOM     15 CL   UNL d   1      -2.794  -5.156  -1.896  0.00  0.00    -0.084 Cl
ENDBRANCH   1   8
BRANCH   6  16
ATOM     16  C   UNL d   1      -0.819   2.479  -0.052  0.00  0.00    -0.006 A 
ATOM     17  C   UNL d   1      -0.012   3.438   0.586  0.00  0.00     0.014 A 
ATOM     18  C   UNL d   1      -0.356   4.792   0.570  0.00  0.00     0.001 A 
ATOM     19  C   UNL d   1      -1.511   5.210  -0.084  0.00  0.00     0.000 A 
ATOM     20  C   UNL d   1      -2.310   4.275  -0.739  0.00  0.00     0.001 A 
ATOM     21  C   UNL d   1      -1.959   2.920  -0.731  0.00  0.00     0.014 A 
ENDBRANCH   6  16
TORSDOF 2
