REMARK  8 active torsions:
REMARK  status: ('A' for Active; 'I' for Inactive)
REMARK    1  A    between atoms: C_14  and  C_1 
REMARK    2  A    between atoms: C_15  and  C_3 
REMARK    3  A    between atoms: C_17  and  C_6 
REMARK    4  A    between atoms: C_8  and  S_16 
REMARK    5  A    between atoms: S_19  and  C_9 
REMARK    6  A    between atoms: O_20  and  C_14 
REMARK    7  A    between atoms: S_16  and  C_15 
REMARK    8  A    between atoms: C_24  and  O_20 
ROOT
ATOM      1  C   UNL d   1       0.048   1.305  -0.085  0.00  0.00     0.105 A 
ATOM      2  S   UNL d   1      -1.071   0.007  -0.158  0.00  0.00    -0.064 SA
ATOM      3  C   UNL d   1       1.342   0.801  -0.083  0.00  0.00     0.043 A 
ATOM      4  N   UNL d   1       1.410  -0.593  -0.054  0.00  0.00    -0.351 N 
ATOM      5  HN  UNL d   1       2.279  -1.128  -0.030  1.00  0.00     0.166 HD
ATOM      6  C   UNL d   1       0.207  -1.128  -0.062  0.00  0.00     0.085 A 
ENDROOT
BRANCH   3   7
ATOM      7  C   UNL d   1       2.617   1.602  -0.058  0.00  0.00     0.140 C 
BRANCH   7   8
ATOM      8  S   UNL d   1       4.038   0.750  -0.819  0.00  0.00    -0.097 SA
BRANCH   8   9
ATOM      9  C   UNL d   1       3.443   0.572  -2.452  0.00  0.00     0.129 A 
ATOM     10  S   UNL d   1       3.903  -0.717  -3.482  0.00  0.00    -0.038 SA
ATOM     11  C   UNL d   1       2.880  -0.021  -4.669  0.00  0.00     0.128 A 
ATOM     12  N   UNL d   1       2.276   1.086  -4.288  0.00  0.00    -0.287 N 
ATOM     13  N   UNL d   1       2.609   1.433  -2.994  0.00  0.00    -0.287 N 
ATOM     14  HN  UNL d   1       1.639   1.622  -4.878  1.00  0.00     0.188 HD
ATOM     15  HN  UNL d   1       2.250   2.259  -2.515  1.00  0.00     0.188 HD
BRANCH  11  16
ATOM     16  S   UNL d   1       2.662  -0.716  -6.259  0.00  0.00    -0.108 SA
ATOM     17  C   UNL d   1       1.508   0.472  -6.982  0.00  0.00     0.097 C 
ENDBRANCH  11  16
ENDBRANCH   8   9
ENDBRANCH   7   8
ENDBRANCH   3   7
BRANCH   1  18
ATOM     18  C   UNL d   1      -0.391   2.680   0.026  0.00  0.00     0.302 C 
ATOM     19  O   UNL d   1       0.344   3.640   0.218  0.00  0.00    -0.259 OA
BRANCH  18  20
ATOM     20  O   UNL d   1      -1.754   2.749   0.015  0.00  0.00    -0.317 OA
BRANCH  20  21
ATOM     21  C   UNL d   1      -2.338   3.914   0.607  0.00  0.00     0.174 C 
ATOM     22  C   UNL d   1      -2.429   3.691   2.107  0.00  0.00     0.034 C 
ENDBRANCH  20  21
ENDBRANCH  18  20
ENDBRANCH   1  18
BRANCH   6  23
ATOM     23  C   UNL d   1      -0.067  -2.573  -0.045  0.00  0.00    -0.002 A 
ATOM     24  C   UNL d   1       0.876  -3.453  -0.596  0.00  0.00     0.014 A 
ATOM     25  C   UNL d   1       0.642  -4.830  -0.619  0.00  0.00     0.001 A 
ATOM     26  C   UNL d   1      -0.533  -5.346  -0.079  0.00  0.00     0.000 A 
ATOM     27  C   UNL d   1      -1.472  -4.491   0.490  0.00  0.00     0.001 A 
ATOM     28  C   UNL d   1      -1.239  -3.114   0.510  0.00  0.00     0.014 A 
ENDBRANCH   6  23
TORSDOF 8
