REMARK  5 active torsions:
REMARK  status: ('A' for Active; 'I' for Inactive)
REMARK    1  A    between atoms: N_5  and  C_1 
REMARK    2  A    between atoms: C_2  and  C_4 
REMARK       I    between atoms: N_7  and  C_2 
REMARK    3  A    between atoms: C_3  and  N_13 
REMARK    4  A    between atoms: O_25  and  C_6 
REMARK       I    between atoms: C_12  and  N_7 
REMARK       I    between atoms: N_13  and  C_12 
REMARK    5  A    between atoms: O_26  and  C_19 
ROOT
ATOM      1  C   UNL d   1      -1.768  -2.093   1.302  0.00  0.00     0.265 C 
ATOM      2  N   UNL d   1      -2.674  -1.047   1.228  0.00  0.00    -0.274 N 
ATOM      3  C   UNL d   1      -4.015  -0.978   1.532  0.00  0.00     0.341 C 
ATOM      4  N   UNL d   1      -4.575  -2.081   2.091  0.00  0.00    -0.141 N 
ATOM      5  O   UNL d   1      -2.150  -3.244   1.480  0.00  0.00    -0.267 OA
ATOM      6  O   UNL d   1      -4.555   0.115   1.332  0.00  0.00    -0.246 OA
ATOM      7  H   UNL d   1      -2.324  -0.130   0.990  0.00  0.00     0.173 HD
ATOM      8  H   UNL d   1      -4.051  -2.947   2.116  0.00  0.00     0.189 HD
ENDROOT
BRANCH   1   9
ATOM      9  C   UNL d   1      -0.306  -1.729   1.104  0.00  0.00     0.101 A 
ATOM     10  C   UNL d   1       0.148  -0.387   1.026  0.00  0.00     0.119 A 
ATOM     11  C   UNL d   1       1.506  -0.131   0.747  0.00  0.00     0.137 A 
ATOM     12  C   UNL d   1       2.440  -1.159   0.608  0.00  0.00     0.042 A 
ATOM     13  C   UNL d   1       2.011  -2.471   0.741  0.00  0.00     0.040 A 
ATOM     14  C   UNL d   1       0.661  -2.756   1.008  0.00  0.00     0.086 A 
BRANCH  10  15
ATOM     15  O   UNL d   1      -0.764   0.632   1.159  0.00  0.00    -0.352 OA
ATOM     16  C   UNL d   1      -0.497   1.541   2.236  0.00  0.00     0.210 C 
ENDBRANCH  10  15
BRANCH  11  17
ATOM     17  N   UNL d   1       1.987   1.217   0.539  0.00  0.00    -0.113 N 
ATOM     18  O   UNL d   1       1.478   1.876  -0.372  0.00  0.00    -0.532 OA
ATOM     19  O   UNL d   1       2.896   1.608   1.292  0.00  0.00    -0.532 OA
ENDBRANCH  11  17
BRANCH  14  20
ATOM     20  O   UNL d   1       0.328  -4.084   1.077  0.00  0.00    -0.355 OA
ATOM     21  C   UNL d   1       0.766  -4.673   2.304  0.00  0.00     0.210 C 
ENDBRANCH  14  20
ENDBRANCH   1   9
BRANCH   4  22
ATOM     22  C   UNL d   1      -5.770  -2.057   2.810  0.00  0.00     0.689 A 
ATOM     23  N   UNL d   1      -6.460  -0.925   2.880  0.00  0.00    -0.181 N 
ATOM     24  C   UNL d   1      -7.489  -0.904   3.716  0.00  0.00     0.094 A 
ATOM     25  HN  UNL d   1      -6.210  -0.110   2.319  1.00  0.00     0.185 HD
ATOM     26  C   UNL d   1      -8.189   0.404   3.903  0.00  0.00     0.089 C 
ATOM     27  N   UNL d   1      -7.852  -1.933   4.478  0.00  0.00    -0.335 N 
ATOM     28  C   UNL d   1      -7.106  -3.031   4.335  0.00  0.00     0.094 A 
ATOM     29  HN  UNL d   1      -8.640  -1.885   5.124  1.00  0.00     0.168 HD
ATOM     30  N   UNL d   1      -6.068  -3.154   3.500  0.00  0.00    -0.181 N 
ATOM     31  C   UNL d   1      -7.430  -4.188   5.228  0.00  0.00     0.089 C 
ATOM     32  HN  UNL d   1      -5.544  -4.024   3.400  1.00  0.00     0.185 HD
ENDBRANCH   4  22
TORSDOF 5
