REMARK  7 active torsions:
REMARK  status: ('A' for Active; 'I' for Inactive)
REMARK    1  A    between atoms: C_2  and  S_1 
REMARK    2  A    between atoms: C_11  and  S_1 
REMARK    3  A    between atoms: C_3  and  C_2 
REMARK    4  A    between atoms: N_13  and  C_3 
REMARK    5  A    between atoms: C_4  and  O_10 
REMARK       I    between atoms: N_9  and  C_4 
REMARK    6  A    between atoms: O_10  and  N_5 
REMARK    7  A    between atoms: C_14  and  N_9 
ROOT
ATOM      1  C   UNL d   1       1.002  -2.397  -0.324  0.00  0.00     0.089 C 
ATOM      2  N   UNL d   1       2.075  -2.435  -1.051  0.00  0.00    -0.248 N 
ATOM      3  HN  UNL d   1       2.628  -3.278  -1.208  1.00  0.00     0.196 HD
ENDROOT
BRANCH   2   4
ATOM      4  O   UNL d   1       2.387  -1.170  -1.599  0.00  0.00    -0.180 OA
BRANCH   4   5
ATOM      5  C   UNL d   1       3.745  -0.997  -1.597  0.00  0.00     0.387 C 
ATOM      6  N   UNL d   1       4.293  -0.356  -2.680  0.00  0.00    -0.301 N 
ATOM      7  H   UNL d   1       5.290  -0.252  -2.559  0.00  0.00     0.171 HD
ATOM      8  O   UNL d   1       4.478  -1.360  -0.676  0.00  0.00    -0.236 OA
BRANCH   6   9
ATOM      9  C   UNL d   1       3.774  -0.013  -3.943  0.00  0.00     0.036 A 
ATOM     10  C   UNL d   1       2.444  -0.157  -4.337  0.00  0.00     0.029 A 
ATOM     11  C   UNL d   1       2.053   0.167  -5.644  0.00  0.00     0.002 A 
ATOM     12  C   UNL d   1       2.987   0.631  -6.569  0.00  0.00     0.000 A 
ATOM     13  C   UNL d   1       4.314   0.785  -6.186  0.00  0.00     0.002 A 
ATOM     14  C   UNL d   1       4.702   0.471  -4.881  0.00  0.00     0.029 A 
ENDBRANCH   6   9
ENDBRANCH   4   5
ENDBRANCH   2   4
BRANCH   1  15
ATOM     15  C   UNL d   1       0.431  -3.736   0.078  0.00  0.00     0.212 C 
BRANCH  15  16
ATOM     16  S   UNL d   1       0.278  -3.946   1.827  0.00  0.00     0.154 S 
ATOM     17  O   UNL d   1      -0.384  -5.224   2.035  0.00  0.00    -0.227 OA
ATOM     18  O   UNL d   1      -0.326  -2.733   2.354  0.00  0.00    -0.227 OA
BRANCH  16  19
ATOM     19  C   UNL d   1       1.945  -4.073   2.506  0.00  0.00     0.100 C 
ATOM     20  C   UNL d   1       1.851  -4.410   3.996  0.00  0.00     0.026 C 
ATOM     21  C   UNL d   1       2.791  -5.117   1.788  0.00  0.00     0.026 C 
ENDBRANCH  16  19
ENDBRANCH  15  16
ENDBRANCH   1  15
BRANCH   1  22
ATOM     22  N   UNL d   1       0.336  -1.249   0.032  0.00  0.00    -0.290 NA
ATOM     23  H   UNL d   1      -0.198  -1.294   0.906  0.00  0.00     0.125 HD
ATOM     24  H   UNL d   1       0.898  -0.406  -0.029  0.00  0.00     0.125 HD
ENDBRANCH   1  22
TORSDOF 7
