REMARK  5 active torsions:
REMARK  status: ('A' for Active; 'I' for Inactive)
REMARK    1  A    between atoms: C_9  and  C_1 
REMARK    2  A    between atoms: C_7  and  C_2 
REMARK    3  A    between atoms: S_17  and  C_3 
REMARK    4  A    between atoms: C_6  and  C_8 
REMARK       I    between atoms: C_8  and  N_10 
REMARK    5  A    between atoms: N_10  and  C_9 
ROOT
ATOM      1  C   UNL d   1       1.356   0.829   0.122  0.00  0.00    -0.005 A 
ATOM      2  C   UNL d   1       1.396  -0.636   0.011  0.00  0.00    -0.003 A 
ATOM      3  C   UNL d   1       0.039   1.298   0.039  0.00  0.00     0.049 A 
ATOM      4  C   UNL d   1       0.137  -1.167  -0.172  0.00  0.00     0.064 A 
ATOM      5  S   UNL d   1      -1.082   0.001  -0.165  0.00  0.00    -0.093 SA
ENDROOT
BRANCH   1   6
ATOM      6  C   UNL d   1       2.588   1.670   0.271  0.00  0.00     0.164 C 
BRANCH   6   7
ATOM      7  N   UNL d   1       2.997   1.599   1.652  0.00  0.00    -0.352 N 
ATOM      8  C   UNL d   1       3.482   2.650   2.378  0.00  0.00     0.253 C 
ATOM      9  O   UNL d   1       3.618   3.774   1.911  0.00  0.00    -0.268 OA
ATOM     10  H   UNL d   1       3.016   0.673   2.063  0.00  0.00     0.163 HD
BRANCH   8  11
ATOM     11  C   UNL d   1       3.896   2.358   3.786  0.00  0.00     0.053 A 
ATOM     12  C   UNL d   1       3.398   1.313   4.584  0.00  0.00     0.049 A 
ATOM     13 CL   UNL d   1       2.176   0.194   4.078  0.00  0.00    -0.083 Cl
ATOM     14  C   UNL d   1       3.870   1.145   5.892  0.00  0.00     0.025 A 
ATOM     15  C   UNL d   1       4.825   2.008   6.422  0.00  0.00     0.002 A 
ATOM     16  C   UNL d   1       5.320   3.051   5.645  0.00  0.00     0.001 A 
ATOM     17  C   UNL d   1       4.858   3.225   4.337  0.00  0.00     0.019 A 
ENDBRANCH   8  11
ENDBRANCH   6   7
ENDBRANCH   1   6
BRANCH   2  18
ATOM     18  C   UNL d   1       2.585  -1.585   0.095  0.00  0.00     0.016 A 
ATOM     19  S   UNL d   1       4.065  -1.285   0.900  0.00  0.00    -0.101 SA
ATOM     20  C   UNL d   1       4.664  -2.849   0.580  0.00  0.00     0.050 A 
ATOM     21  C   UNL d   1       3.785  -3.585  -0.177  0.00  0.00     0.008 A 
ATOM     22  C   UNL d   1       2.586  -2.861  -0.448  0.00  0.00     0.020 A 
ENDBRANCH   2  18
BRANCH   3  23
ATOM     23  S   UNL d   1      -0.738   2.883   0.075  0.00  0.00    -0.127 SA
ATOM     24  C   UNL d   1       0.468   4.158   0.402  0.00  0.00     0.096 C 
ENDBRANCH   3  23
TORSDOF 5
