REMARK  2 active torsions:
REMARK  status: ('A' for Active; 'I' for Inactive)
REMARK    1  A    between atoms: C_10  and  C_5 
REMARK    2  A    between atoms: C_9  and  C_6 
ROOT
ATOM      1  N   UNL d   1       1.158   1.397  -0.111  0.00  0.00    -0.352 N 
ATOM      2  HN  UNL d   1       1.145   2.414  -0.191  1.00  0.00     0.166 HD
ATOM      3  N   UNL d   1       1.186  -1.394   0.134  0.00  0.00    -0.352 N 
ATOM      4  HN  UNL d   1       1.192  -2.411   0.214  1.00  0.00     0.166 HD
ATOM      5  C   UNL d   1       2.339   0.711  -0.073  0.00  0.00     0.071 A 
ATOM      6  C   UNL d   1       2.353  -0.687   0.097  0.00  0.00     0.071 A 
ATOM      7  C   UNL d   1       0.016   0.695  -0.040  0.00  0.00     0.059 A 
ATOM      8  C   UNL d   1       0.028  -0.712   0.062  0.00  0.00     0.059 A 
ATOM      9  C   UNL d   1      -1.181  -1.397   0.091  0.00  0.00     0.032 A 
ATOM     10  C   UNL d   1      -1.204   1.361  -0.068  0.00  0.00     0.032 A 
ATOM     11  C   UNL d   1      -2.412   0.666  -0.024  0.00  0.00     0.002 A 
ATOM     12  C   UNL d   1      -2.401  -0.721   0.047  0.00  0.00     0.002 A 
ENDROOT
BRANCH   5  13
ATOM     13  C   UNL d   1       3.524   1.582  -0.240  0.00  0.00    -0.007 A 
ATOM     14  C   UNL d   1       3.592   2.823   0.421  0.00  0.00     0.014 A 
ATOM     15  C   UNL d   1       4.717   3.647   0.318  0.00  0.00     0.007 A 
ATOM     16  C   UNL d   1       5.816   3.250  -0.448  0.00  0.00    -0.062 A 
ATOM     17  C   UNL d   1       5.750   2.042  -1.146  0.00  0.00     0.007 A 
ATOM     18  C   UNL d   1       7.029   4.128  -0.533  0.00  0.00     0.048 C 
ATOM     19  C   UNL d   1       4.612   1.232  -1.059  0.00  0.00     0.014 A 
ENDBRANCH   5  13
BRANCH   6  20
ATOM     20  C   UNL d   1       3.557  -1.538   0.269  0.00  0.00    -0.007 A 
ATOM     21  C   UNL d   1       4.663  -1.143   1.045  0.00  0.00     0.015 A 
ATOM     22  C   UNL d   1       5.809  -1.941   1.143  0.00  0.00     0.024 A 
ATOM     23  C   UNL d   1       5.850  -3.176   0.505  0.00  0.00     0.034 A 
ATOM     24  C   UNL d   1       4.752  -3.623  -0.221  0.00  0.00     0.024 A 
ATOM     25 CL   UNL d   1       7.261  -4.152   0.617  0.00  0.00    -0.084 Cl
ATOM     26  C   UNL d   1       3.619  -2.810  -0.337  0.00  0.00     0.015 A 
ENDBRANCH   6  20
TORSDOF 2
