REMARK  3 active torsions:
REMARK  status: ('A' for Active; 'I' for Inactive)
REMARK    1  A    between atoms: N_2  and  C_1 
REMARK    2  A    between atoms: N_8  and  C_5 
REMARK       I    between atoms: C_6  and  N_8 
REMARK       I    between atoms: N_14  and  C_6 
REMARK    3  A    between atoms: C_15  and  N_14 
ROOT
ATOM      1  C   UNL d   1       7.351  -2.310   0.004  0.00  0.00    -0.098 C 
ATOM      2  C   UNL d   1       8.161  -3.201   0.013  0.00  0.00     0.014 C 
ATOM      3  C   UNL d   1       6.415  -1.189   0.011  0.00  0.00     0.217 C 
ENDROOT
BRANCH   3   4
ATOM      4  N   UNL d   1       5.050  -1.653  -0.066  0.00  0.00    -0.333 N 
ATOM      5  C   UNL d   1       4.045  -0.714  -0.021  0.00  0.00     0.321 C 
ATOM      6  N   UNL d   1       2.792  -1.284  -0.009  0.00  0.00    -0.308 N 
ATOM      7  O   UNL d   1       4.290   0.487  -0.014  0.00  0.00    -0.247 OA
ATOM      8  H   UNL d   1       2.731  -2.289  -0.052  0.00  0.00     0.170 HD
ATOM      9  H   UNL d   1       4.858  -2.594   0.240  0.00  0.00     0.165 HD
BRANCH   6  10
ATOM     10  C   UNL d   1       1.598  -0.568   0.002  0.00  0.00     0.045 A 
ATOM     11  C   UNL d   1       1.429   0.853   0.012  0.00  0.00     0.074 A 
ATOM     12  C   UNL d   1       0.103   1.223   0.007  0.00  0.00     0.145 A 
ATOM     13  S   UNL d   1      -0.946  -0.111  -0.001  0.00  0.00    -0.076 SA
ATOM     14  C   UNL d   1       0.373  -1.208  -0.003  0.00  0.00     0.081 A 
BRANCH  12  15
ATOM     15  N   UNL d   1      -0.411   2.569   0.006  0.00  0.00    -0.108 N 
ATOM     16  O   UNL d   1       0.427   3.480   0.012  0.00  0.00    -0.531 OA
ATOM     17  O   UNL d   1      -1.638   2.726   0.000  0.00  0.00    -0.531 OA
ENDBRANCH  12  15
ENDBRANCH   6  10
ENDBRANCH   3   4
TORSDOF 3
