REMARK  3 active torsions:
REMARK  status: ('A' for Active; 'I' for Inactive)
REMARK    1  A    between atoms: N_9  and  C_1 
REMARK    2  A    between atoms: C_5  and  C_6 
REMARK       I    between atoms: C_6  and  N_9 
REMARK    3  A    between atoms: C_16  and  C_8 
ROOT
ATOM      1  C   UNL d   1       3.320  -1.069  -0.016  0.00  0.00     0.255 C 
ATOM      2  N   UNL d   1       1.950  -1.493   0.183  0.00  0.00    -0.310 N 
ATOM      3  O   UNL d   1       3.612   0.117   0.003  0.00  0.00    -0.270 OA
ATOM      4  H   UNL d   1       1.763  -2.484   0.246  0.00  0.00     0.170 HD
ENDROOT
BRANCH   2   5
ATOM      5  C   UNL d   1       0.865  -0.618   0.181  0.00  0.00     0.124 A 
ATOM      6  C   UNL d   1       0.843   0.745  -0.002  0.00  0.00     0.081 A 
ATOM      7  C   UNL d   1      -0.525   1.134   0.048  0.00  0.00     0.062 A 
ATOM      8  N   UNL d   1      -1.304   0.063   0.268  0.00  0.00    -0.298 N 
ATOM      9  N   UNL d   1      -0.450  -0.971   0.321  0.00  0.00    -0.285 N 
ATOM     10  HN  UNL d   1      -2.319   0.041   0.371  1.00  0.00     0.187 HD
ATOM     11  H   UNL d   1      -0.843  -1.897   0.449  0.00  0.00     0.188 HD
BRANCH   7  12
ATOM     12  C   UNL d   1      -1.070   2.486  -0.100  0.00  0.00    -0.008 A 
ATOM     13  C   UNL d   1      -0.415   3.439  -0.895  0.00  0.00     0.014 A 
ATOM     14  C   UNL d   1      -0.915   4.740  -1.005  0.00  0.00     0.001 A 
ATOM     15  C   UNL d   1      -2.074   5.103  -0.323  0.00  0.00     0.000 A 
ATOM     16  C   UNL d   1      -2.741   4.164   0.461  0.00  0.00     0.001 A 
ATOM     17  C   UNL d   1      -2.245   2.861   0.567  0.00  0.00     0.014 A 
ENDBRANCH   7  12
ENDBRANCH   2   5
BRANCH   1  18
ATOM     18  C   UNL d   1       4.343  -2.157  -0.359  0.00  0.00     0.245 C 
ATOM     19  O   UNL d   1       4.328  -3.336   0.441  0.00  0.00    -0.331 OA
ATOM     20  C   UNL d   1       3.627  -4.381  -0.099  0.00  0.00     0.103 A 
ATOM     21  C   UNL d   1       3.636  -5.585   0.596  0.00  0.00     0.040 A 
ATOM     22  C   UNL d   1       2.880  -4.260  -1.274  0.00  0.00     0.102 A 
ATOM     23  C   UNL d   1       2.822  -6.634   0.166  0.00  0.00     0.003 A 
ATOM     24  C   UNL d   1       1.979  -6.463  -0.935  0.00  0.00     0.003 A 
ATOM     25  C   UNL d   1       2.011  -5.273  -1.662  0.00  0.00     0.039 A 
ATOM     26  O   UNL d   1       2.946  -3.143  -2.065  0.00  0.00    -0.345 OA
ATOM     27  C   UNL d   1       4.193  -2.463  -1.843  0.00  0.00     0.218 C 
ENDBRANCH   1  18
TORSDOF 3
