REMARK  5 active torsions:
REMARK  status: ('A' for Active; 'I' for Inactive)
REMARK    1  A    between atoms: N_2  and  S_1 
REMARK    2  A    between atoms: C_10  and  S_1 
REMARK    3  A    between atoms: C_3  and  N_2 
REMARK       I    between atoms: C_4  and  N_11 
REMARK    4  A    between atoms: C_5  and  C_4 
REMARK    5  A    between atoms: N_11  and  C_21 
ROOT
ATOM      1  C   UNL d   1       0.588   1.647  -0.369  0.00  0.00     0.075 A 
ATOM      2  C   UNL d   1      -0.733   1.807  -0.792  0.00  0.00     0.027 A 
ATOM      3  C   UNL d   1       1.388   2.761  -0.118  0.00  0.00     0.027 A 
ATOM      4  C   UNL d   1      -0.446   4.221  -0.753  0.00  0.00     0.035 A 
ATOM      5  C   UNL d   1       0.871   4.045  -0.320  0.00  0.00     0.031 A 
ATOM      6  C   UNL d   1      -1.243   3.092  -0.990  0.00  0.00     0.031 A 
ENDROOT
BRANCH   1   7
ATOM      7  S   UNL d   1       1.213   0.018  -0.035  0.00  0.00     0.248 S 
ATOM      8  O   UNL d   1       2.262   0.158   0.953  0.00  0.00    -0.205 OA
ATOM      9  O   UNL d   1       0.087  -0.856   0.224  0.00  0.00    -0.205 OA
BRANCH   7  10
ATOM     10  N   UNL d   1       1.980  -0.417  -1.456  0.00  0.00    -0.151 NA
ATOM     11  H   UNL d   1       2.760  -1.032  -1.255  0.00  0.00     0.149 HD
BRANCH  10  12
ATOM     12  C   UNL d   1       1.129  -0.952  -2.417  0.00  0.00     0.171 A 
ATOM     13  N   UNL d   1       0.362  -0.106  -3.106  0.00  0.00    -0.336 N 
ATOM     14  C   UNL d   1      -0.471  -0.669  -4.000  0.00  0.00     0.009 A 
ATOM     15  HN  UNL d   1       0.405   0.903  -2.965  1.00  0.00     0.168 HD
ATOM     16  C   UNL d   1      -1.320   0.250  -4.827  0.00  0.00     0.068 C 
ATOM     17  C   UNL d   1      -0.559  -2.040  -4.167  0.00  0.00     0.049 A 
ATOM     18  C   UNL d   1       0.275  -2.818  -3.381  0.00  0.00     0.009 A 
ATOM     19  N   UNL d   1       1.154  -2.282  -2.513  0.00  0.00    -0.336 N 
ATOM     20  C   UNL d   1       0.220  -4.313  -3.476  0.00  0.00     0.068 C 
ATOM     21  HN  UNL d   1       1.796  -2.855  -1.966  1.00  0.00     0.168 HD
ENDBRANCH  10  12
ENDBRANCH   7  10
ENDBRANCH   1   7
BRANCH   4  22
ATOM     22  N   UNL d   1      -1.046   5.482  -0.944  0.00  0.00    -0.323 N 
ATOM     23  C   UNL d   1      -0.436   6.721  -0.891  0.00  0.00     0.257 C 
ATOM     24  O   UNL d   1       0.763   6.939  -0.762  0.00  0.00    -0.267 OA
ATOM     25  H   UNL d   1      -2.041   5.468  -1.135  0.00  0.00     0.169 HD
BRANCH  23  26
ATOM     26  C   UNL d   1      -1.336   7.886  -1.127  0.00  0.00     0.054 A 
ATOM     27  C   UNL d   1      -2.634   8.004  -0.613  0.00  0.00     0.049 A 
ATOM     28 CL   UNL d   1      -3.320   6.872   0.498  0.00  0.00    -0.083 Cl
ATOM     29  C   UNL d   1      -3.432   9.097  -0.975  0.00  0.00     0.025 A 
ATOM     30  C   UNL d   1      -2.934  10.085  -1.825  0.00  0.00     0.002 A 
ATOM     31  C   UNL d   1      -1.626  10.003  -2.294  0.00  0.00     0.001 A 
ATOM     32  C   UNL d   1      -0.829   8.912  -1.944  0.00  0.00     0.019 A 
ENDBRANCH  23  26
ENDBRANCH   4  22
TORSDOF 5
