REMARK  5 active torsions:
REMARK  status: ('A' for Active; 'I' for Inactive)
REMARK    1  A    between atoms: C_11  and  N_4 
REMARK    2  A    between atoms: C_14  and  C_5 
REMARK    3  A    between atoms: O_13  and  C_6 
REMARK    4  A    between atoms: C_17  and  C_14 
REMARK    5  A    between atoms: C_18  and  C_17 
ROOT
ATOM      1  C   UNL d   1      -0.327  -0.701   0.101  0.00  0.00     0.145 A 
ATOM      2  C   UNL d   1      -0.334   0.665   0.016  0.00  0.00     0.077 A 
ATOM      3  N   UNL d   1       0.816  -1.414   0.169  0.00  0.00    -0.320 N 
ATOM      4  N   UNL d   1      -1.635  -1.133  -0.021  0.00  0.00    -0.239 N 
ATOM      5  C   UNL d   1       2.160   0.584   0.106  0.00  0.00     0.044 A 
ATOM      6  C   UNL d   1       2.032  -0.767   0.142  0.00  0.00     0.151 A 
ATOM      7  C   UNL d   1       0.891   1.426   0.026  0.00  0.00     0.197 A 
ATOM      8  N   UNL d   1      -2.472  -0.070  -0.231  0.00  0.00    -0.302 N 
ATOM      9  HN  UNL d   1      -3.475  -0.092  -0.411  1.00  0.00     0.186 HD
ATOM     10  C   UNL d   1      -1.679   1.006  -0.147  0.00  0.00     0.127 A 
ATOM     11  O   UNL d   1       0.907   2.645  -0.076  0.00  0.00    -0.287 OA
ATOM     12  H   UNL d   1       0.882  -2.417   0.016  0.00  0.00     0.169 HD
ENDROOT
BRANCH   4  13
ATOM     13  C   UNL d   1      -2.140  -2.458   0.007  0.00  0.00     0.058 A 
ATOM     14  C   UNL d   1      -1.485  -3.465   0.727  0.00  0.00     0.031 A 
ATOM     15  C   UNL d   1      -1.979  -4.770   0.703  0.00  0.00     0.002 A 
ATOM     16  C   UNL d   1      -3.118  -5.074  -0.041  0.00  0.00     0.000 A 
ATOM     17  C   UNL d   1      -3.785  -4.069  -0.741  0.00  0.00     0.002 A 
ATOM     18  C   UNL d   1      -3.311  -2.757  -0.703  0.00  0.00     0.031 A 
ENDBRANCH   4  13
BRANCH   6  19
ATOM     19  O   UNL d   1       3.083  -1.648   0.126  0.00  0.00    -0.346 OA
ATOM     20  H   UNL d   1       3.918  -1.172   0.006  0.00  0.00     0.219 HD
ENDBRANCH   6  19
BRANCH   5  21
ATOM     21  C   UNL d   1       3.452   1.366   0.048  0.00  0.00     0.047 C 
BRANCH  21  22
ATOM     22  C   UNL d   1       3.684   2.370   1.185  0.00  0.00     0.004 C 
BRANCH  22  23
ATOM     23  C   UNL d   1       3.738   1.743   2.578  0.00  0.00    -0.004 C 
ATOM     24  C   UNL d   1       3.923   2.822   3.637  0.00  0.00     0.005 C 
ENDBRANCH  22  23
ENDBRANCH  21  22
ENDBRANCH   5  21
TORSDOF 5
