REMARK  4 active torsions:
REMARK  status: ('A' for Active; 'I' for Inactive)
REMARK    1  A    between atoms: C_7  and  N_1 
REMARK    2  A    between atoms: S_2  and  C_11 
REMARK    3  A    between atoms: N_6  and  S_2 
REMARK    4  A    between atoms: C_12  and  C_16 
ROOT
ATOM      1  S   UNL d   1       6.402  -4.481   0.416  0.00  0.00     0.261 S 
ATOM      2  O   UNL d   1       6.772  -4.825  -0.942  0.00  0.00    -0.200 OA
ATOM      3  O   UNL d   1       7.365  -3.909   1.330  0.00  0.00    -0.200 OA
ENDROOT
BRANCH   1   4
ATOM      4  C   UNL d   1       5.025  -3.360   0.314  0.00  0.00     0.081 A 
ATOM      5  C   UNL d   1       4.814  -2.415   1.320  0.00  0.00     0.027 A 
ATOM      6  C   UNL d   1       3.736  -1.529   1.215  0.00  0.00     0.033 A 
ATOM      7  C   UNL d   1       2.854  -1.607   0.123  0.00  0.00     0.067 A 
ATOM      8  C   UNL d   1       3.107  -2.540  -0.898  0.00  0.00     0.062 A 
ATOM      9  C   UNL d   1       4.204  -3.399  -0.814  0.00  0.00     0.051 A 
ATOM     10 CL   UNL d   1       2.180  -2.587  -2.359  0.00  0.00    -0.082 Cl
BRANCH   7  11
ATOM     11  N   UNL d   1       1.738  -0.742   0.073  0.00  0.00    -0.250 N 
ATOM     12  C   UNL d   1       1.832   0.622   0.153  0.00  0.00     0.232 C 
ATOM     13  C   UNL d   1       0.462   1.211  -0.051  0.00  0.00     0.123 C 
ATOM     14  O   UNL d   1       2.840   1.298   0.303  0.00  0.00    -0.273 OA
ATOM     15  C   UNL d   1      -0.479   0.007   0.003  0.00  0.00     0.050 C 
ATOM     16  C   UNL d   1       0.441  -1.192   0.009  0.00  0.00     0.240 C 
ATOM     17  C   UNL d   1      -1.478  -0.057  -1.152  0.00  0.00     0.020 C 
ATOM     18  C   UNL d   1      -1.386   0.027   1.237  0.00  0.00     0.020 C 
ATOM     19  O   UNL d   1       0.060  -2.357   0.055  0.00  0.00    -0.272 OA
ATOM     20  C   UNL d   1      -2.660   0.794  -0.706  0.00  0.00     0.001 C 
ATOM     21  C   UNL d   1      -2.609   0.839   0.819  0.00  0.00     0.001 C 
ENDBRANCH   7  11
ENDBRANCH   1   4
BRANCH   1  22
ATOM     22  N   UNL d   1       5.728  -5.845   1.135  0.00  0.00    -0.304 N 
ATOM     23  C   UNL d   1       5.390  -5.776   2.587  0.00  0.00     0.155 C 
ATOM     24  C   UNL d   1       5.332  -7.207   3.154  0.00  0.00     0.161 C 
ATOM     25  N   UNL d   1       4.371  -7.997   2.382  0.00  0.00    -0.214 N 
ATOM     26  C   UNL d   1       3.434  -8.772   3.004  0.00  0.00     0.680 A 
ATOM     27  C   UNL d   1       4.569  -8.042   0.933  0.00  0.00     0.161 C 
ATOM     28  N   UNL d   1       3.304  -8.669   4.333  0.00  0.00    -0.186 N 
ATOM     29  N   UNL d   1       2.638  -9.561   2.270  0.00  0.00    -0.202 N 
ATOM     30  C   UNL d   1       2.331  -9.377   4.958  0.00  0.00     0.133 A 
ATOM     31  HN  UNL d   1       3.929  -8.066   4.868  1.00  0.00     0.184 HD
ATOM     32  C   UNL d   1       1.482 -10.211   4.260  0.00  0.00     0.052 A 
ATOM     33  C   UNL d   1       1.684 -10.264   2.905  0.00  0.00     0.108 A 
ATOM     34  HN  UNL d   1       2.753  -9.626   1.259  1.00  0.00     0.183 HD
ATOM     35  C   UNL d   1       4.688  -6.606   0.377  0.00  0.00     0.155 C 
BRANCH  30  36
ATOM     36  C   UNL d   1       2.155  -9.217   6.455  0.00  0.00     0.433 C 
ATOM     37  F   UNL d   1       3.038  -8.354   7.035  0.00  0.00    -0.165 F 
ATOM     38  F   UNL d   1       0.914  -8.751   6.783  0.00  0.00    -0.165 F 
ATOM     39  F   UNL d   1       2.291 -10.396   7.128  0.00  0.00    -0.165 F 
ENDBRANCH  30  36
ENDBRANCH   1  22
TORSDOF 4
