REMARK  4 active torsions:
REMARK  status: ('A' for Active; 'I' for Inactive)
REMARK    1  A    between atoms: C_2  and  C_1 
REMARK       I    between atoms: N_4  and  C_2 
REMARK    2  A    between atoms: C_3  and  N_6 
REMARK       I    between atoms: C_5  and  N_4 
REMARK       I    between atoms: N_6  and  C_5 
REMARK    3  A    between atoms: O_24  and  C_7 
REMARK    4  A    between atoms: O_23  and  C_8 
ROOT
ATOM      1  C   UNL d   1       1.176  -3.911   0.313  0.00  0.00     0.244 C 
ATOM      2  N   UNL d   1       0.356  -4.314   1.353  0.00  0.00    -0.174 NA
ATOM      3  C   UNL d   1      -0.573  -5.325   1.239  0.00  0.00     0.319 C 
ATOM      4  N   UNL d   1      -0.190  -6.410   0.519  0.00  0.00    -0.145 N 
ATOM      5  O   UNL d   1       1.889  -4.666  -0.342  0.00  0.00    -0.273 OA
ATOM      6  O   UNL d   1      -1.663  -5.133   1.772  0.00  0.00    -0.253 OA
ATOM      7  H   UNL d   1      -0.108  -3.560   1.845  0.00  0.00     0.141 HD
ATOM      8  H   UNL d   1       0.779  -6.506   0.253  0.00  0.00     0.188 HD
ENDROOT
BRANCH   1   9
ATOM      9  C   UNL d   1       1.183  -2.442   0.065  0.00  0.00     0.096 A 
ATOM     10  C   UNL d   1      -0.043  -1.808  -0.224  0.00  0.00     0.103 A 
ATOM     11  C   UNL d   1      -0.097  -0.419  -0.357  0.00  0.00     0.047 A 
ATOM     12 BR   UNL d   1      -1.737   0.496  -0.617  0.00  0.00    -0.048 Br
ATOM     13  C   UNL d   1       1.069   0.335  -0.261  0.00  0.00     0.048 A 
ATOM     14  C   UNL d   1       2.296  -0.292  -0.014  0.00  0.00     0.069 A 
ATOM     15  C   UNL d   1       2.372  -1.691   0.129  0.00  0.00     0.108 A 
ATOM     16 CL   UNL d   1       3.651   0.761   0.202  0.00  0.00    -0.081 Cl
BRANCH  10  17
ATOM     17  O   UNL d   1      -1.205  -2.534  -0.269  0.00  0.00    -0.353 OA
ATOM     18  C   UNL d   1      -1.415  -3.085  -1.573  0.00  0.00     0.210 C 
ENDBRANCH  10  17
BRANCH  15  19
ATOM     19  O   UNL d   1       3.525  -2.350   0.473  0.00  0.00    -0.353 OA
ATOM     20  C   UNL d   1       4.623  -2.142  -0.419  0.00  0.00     0.210 C 
ENDBRANCH  15  19
ENDBRANCH   1   9
BRANCH   4  21
ATOM     21  C   UNL d   1      -1.003  -7.490   0.200  0.00  0.00     0.686 A 
ATOM     22  N   UNL d   1      -0.364  -8.549  -0.324  0.00  0.00    -0.196 N 
ATOM     23  C   UNL d   1      -1.116  -9.625  -0.643  0.00  0.00     0.024 A 
ATOM     24  HN  UNL d   1       0.645  -8.541  -0.473  1.00  0.00     0.184 HD
ATOM     25  C   UNL d   1      -0.408 -10.824  -1.199  0.00  0.00     0.068 C 
ATOM     26  C   UNL d   1      -2.489  -9.643  -0.496  0.00  0.00     0.050 A 
ATOM     27  C   UNL d   1      -3.060  -8.509   0.033  0.00  0.00     0.024 A 
ATOM     28  N   UNL d   1      -2.328  -7.432   0.382  0.00  0.00    -0.196 N 
ATOM     29  C   UNL d   1      -4.546  -8.413   0.207  0.00  0.00     0.068 C 
ATOM     30  HN  UNL d   1      -2.770  -6.600   0.772  1.00  0.00     0.184 HD
ENDBRANCH   4  21
TORSDOF 4
