REMARK  4 active torsions:
REMARK  status: ('A' for Active; 'I' for Inactive)
REMARK    1  A    between atoms: C_3  and  C_1 
REMARK    2  A    between atoms: N_11  and  C_8 
REMARK    3  A    between atoms: C_13  and  N_11 
REMARK    4  A    between atoms: C_12  and  C_13 
ROOT
ATOM      1  C   UNL d   1      -0.434   2.427  -0.771  0.00  0.00     0.105 C 
ATOM      2  C   UNL d   1       0.531   3.355  -0.617  0.00  0.00     0.110 C 
ATOM      3  C   UNL d   1      -0.180   1.075  -0.406  0.00  0.00     0.104 C 
ATOM      4  N   UNL d   1      -0.032  -0.047  -0.141  0.00  0.00    -0.191 NA
ENDROOT
BRANCH   1   5
ATOM      5  C   UNL d   1      -1.693   2.803  -1.313  0.00  0.00     0.153 A 
ATOM      6  N   UNL d   1      -2.162   3.950  -1.767  0.00  0.00    -0.269 N 
ATOM      7  N   UNL d   1      -3.465   3.723  -2.139  0.00  0.00    -0.007 NA
ATOM      8  HN  UNL d   1      -1.655   4.834  -1.830  1.00  0.00     0.185 HD
ATOM      9  N   UNL d   1      -3.808   2.464  -1.920  0.00  0.00    -0.007 NA
ATOM     10  N   UNL d   1      -2.714   1.888  -1.407  0.00  0.00    -0.269 N 
ATOM     11  H   UNL d   1      -2.748   0.908  -1.148  0.00  0.00     0.185 HD
ENDBRANCH   1   5
BRANCH   2  12
ATOM     12  N   UNL d   1       1.777   3.196  -0.042  0.00  0.00    -0.392 N 
ATOM     13  H   UNL d   1       1.958   2.315   0.437  0.00  0.00     0.159 HD
BRANCH  12  14
ATOM     14  C   UNL d   1       2.876   4.161  -0.001  0.00  0.00     0.084 C 
ATOM     15  C   UNL d   1       4.173   3.357  -0.189  0.00  0.00     0.033 C 
BRANCH  14  16
ATOM     16  C   UNL d   1       2.845   5.016   1.312  0.00  0.00    -0.031 C 
ATOM     17  C   UNL d   1       2.935   4.144   2.580  0.00  0.00     0.016 C 
ATOM     18  C   UNL d   1       4.025   6.013   1.322  0.00  0.00     0.016 C 
ATOM     19  C   UNL d   1       1.546   5.847   1.387  0.00  0.00     0.016 C 
ENDBRANCH  14  16
ENDBRANCH  12  14
ENDBRANCH   2  12
TORSDOF 4
