REMARK  8 active torsions:
REMARK  status: ('A' for Active; 'I' for Inactive)
REMARK    1  A    between atoms: N_2  and  C_1 
REMARK    2  A    between atoms: C_3  and  C_1 
REMARK    3  A    between atoms: C_6  and  C_1 
REMARK    4  A    between atoms: N_7  and  C_1 
REMARK       I    between atoms: C_4  and  N_2 
REMARK    5  A    between atoms: C_5  and  C_4 
REMARK    6  A    between atoms: O_15  and  C_6 
REMARK    7  A    between atoms: C_14  and  N_7 
REMARK    8  A    between atoms: C_19  and  O_15 
ROOT
ATOM      1  C   UNL d   1       0.962   0.049   0.033  0.00  0.00     0.297 C 
ENDROOT
BRANCH   1   2
ATOM      2  N   UNL d   1       0.549  -1.351   0.202  0.00  0.00    -0.314 N 
ATOM      3  C   UNL d   1       0.425  -1.987   1.405  0.00  0.00     0.255 C 
ATOM      4  O   UNL d   1       0.698  -1.427   2.461  0.00  0.00    -0.268 OA
ATOM      5  H   UNL d   1       0.224  -1.816  -0.638  0.00  0.00     0.166 HD
BRANCH   3   6
ATOM      6  C   UNL d   1      -0.141  -3.380   1.397  0.00  0.00     0.053 A 
ATOM      7  C   UNL d   1      -0.245  -4.226   0.278  0.00  0.00     0.049 A 
ATOM      8 CL   UNL d   1       0.337  -3.837  -1.305  0.00  0.00    -0.083 Cl
ATOM      9  C   UNL d   1      -0.842  -5.491   0.397  0.00  0.00     0.025 A 
ATOM     10  C   UNL d   1      -1.330  -5.933   1.627  0.00  0.00     0.002 A 
ATOM     11  C   UNL d   1      -1.216  -5.118   2.742  0.00  0.00     0.001 A 
ATOM     12  C   UNL d   1      -0.625  -3.856   2.632  0.00  0.00     0.019 A 
ENDBRANCH   3   6
ENDBRANCH   1   2
BRANCH   1  13
ATOM     13  C   UNL d   1       0.171   1.098   0.898  0.00  0.00     0.442 C 
ATOM     14  F   UNL d   1      -0.948   0.588   1.469  0.00  0.00    -0.166 F 
ATOM     15  F   UNL d   1       0.949   1.595   1.900  0.00  0.00    -0.166 F 
ATOM     16  F   UNL d   1      -0.238   2.181   0.185  0.00  0.00    -0.166 F 
ENDBRANCH   1  13
BRANCH   1  17
ATOM     17  C   UNL d   1       0.572   0.438  -1.410  0.00  0.00     0.318 C 
ATOM     18  O   UNL d   1      -0.314  -0.135  -2.043  0.00  0.00    -0.260 OA
BRANCH  17  19
ATOM     19  O   UNL d   1       1.329   1.459  -1.906  0.00  0.00    -0.318 OA
BRANCH  19  20
ATOM     20  C   UNL d   1       1.040   1.855  -3.254  0.00  0.00     0.174 C 
ATOM     21  C   UNL d   1       1.696   0.913  -4.249  0.00  0.00     0.034 C 
ENDBRANCH  19  20
ENDBRANCH  17  19
ENDBRANCH   1  17
BRANCH   1  22
ATOM     22  N   UNL d   1       2.428   0.098   0.263  0.00  0.00    -0.348 N 
ATOM     23  H   UNL d   1       2.691   0.710   1.033  0.00  0.00     0.163 HD
BRANCH  22  24
ATOM     24  C   UNL d   1       3.455  -0.431  -0.483  0.00  0.00     0.030 A 
ATOM     25  C   UNL d   1       3.282  -1.305  -1.562  0.00  0.00     0.029 A 
ATOM     26  C   UNL d   1       4.374  -1.793  -2.292  0.00  0.00     0.002 A 
ATOM     27  C   UNL d   1       5.667  -1.415  -1.956  0.00  0.00     0.000 A 
ATOM     28  C   UNL d   1       5.870  -0.556  -0.882  0.00  0.00     0.002 A 
ATOM     29  C   UNL d   1       4.775  -0.077  -0.156  0.00  0.00     0.029 A 
ENDBRANCH  22  24
ENDBRANCH   1  22
TORSDOF 8
