REMARK  2 active torsions:
REMARK  status: ('A' for Active; 'I' for Inactive)
REMARK    1  A    between atoms: C_2  and  C_1 
REMARK       I    between atoms: N_3  and  C_1 
REMARK    2  A    between atoms: C_4  and  N_3 
ROOT
ATOM      1  C   UNL d   1       0.900   0.074   0.063  0.00  0.00     0.259 C 
ATOM      2  N   UNL d   1       0.120  -0.195   1.174  0.00  0.00    -0.323 N 
ATOM      3  O   UNL d   1       2.129   0.104   0.055  0.00  0.00    -0.267 OA
ATOM      4  H   UNL d   1      -0.872  -0.344   1.019  0.00  0.00     0.169 HD
ENDROOT
BRANCH   2   5
ATOM      5  C   UNL d   1       0.585  -0.386   2.495  0.00  0.00     0.038 A 
ATOM      6  C   UNL d   1       1.866  -0.021   2.919  0.00  0.00     0.053 A 
ATOM      7  C   UNL d   1       2.271  -0.274   4.231  0.00  0.00     0.037 A 
ATOM      8 CL   UNL d   1       3.852   0.185   4.738  0.00  0.00    -0.084 Cl
ATOM      9  C   UNL d   1       1.413  -0.890   5.134  0.00  0.00     0.048 A 
ATOM     10  C   UNL d   1       0.129  -1.228   4.720  0.00  0.00     0.037 A 
ATOM     11  C   UNL d   1      -0.295  -0.964   3.415  0.00  0.00     0.053 A 
ATOM     12 CL   UNL d   1      -0.945  -1.997   5.824  0.00  0.00    -0.084 Cl
ENDBRANCH   2   5
BRANCH   1  13
ATOM     13  C   UNL d   1       0.190   0.319  -1.226  0.00  0.00     0.070 A 
ATOM     14  C   UNL d   1      -1.199   0.410  -1.331  0.00  0.00     0.132 A 
ATOM     15  F   UNL d   1      -1.987   0.217  -0.261  0.00  0.00    -0.205 F 
ATOM     16  C   UNL d   1      -1.810   0.706  -2.549  0.00  0.00     0.043 A 
ATOM     17  C   UNL d   1      -1.031   0.907  -3.688  0.00  0.00     0.003 A 
ATOM     18  C   UNL d   1       0.356   0.797  -3.607  0.00  0.00     0.001 A 
ATOM     19  C   UNL d   1       0.963   0.504  -2.384  0.00  0.00     0.020 A 
ENDBRANCH   1  13
TORSDOF 2
