REMARK  5 active torsions:
REMARK  status: ('A' for Active; 'I' for Inactive)
REMARK    1  A    between atoms: S_7  and  C_1 
REMARK    2  A    between atoms: C_13  and  N_4 
REMARK    3  A    between atoms: C_12  and  S_7 
REMARK    4  A    between atoms: C_10  and  C_12 
REMARK    5  A    between atoms: C_11  and  C_10 
ROOT
ATOM      1  C   UNL d   1       2.341   0.099   0.261  0.00  0.00     0.148 A 
ATOM      2  N   UNL d   1       1.663  -1.024   0.294  0.00  0.00    -0.335 N 
ATOM      3  HN  UNL d   1       2.035  -1.969   0.394  1.00  0.00     0.168 HD
ATOM      4  N   UNL d   1       1.526   1.195   0.061  0.00  0.00    -0.321 N 
ATOM      5  C   UNL d   1       0.350  -0.655   0.166  0.00  0.00     0.062 A 
ATOM      6  C   UNL d   1       0.221   0.730   0.063  0.00  0.00     0.063 A 
ATOM      7  C   UNL d   1      -0.794  -1.467   0.139  0.00  0.00     0.055 A 
ATOM      8  C   UNL d   1      -1.031   1.355  -0.030  0.00  0.00     0.034 A 
ATOM      9  C   UNL d   1      -2.044  -0.853   0.031  0.00  0.00     0.036 A 
ATOM     10  C   UNL d   1      -2.164   0.534  -0.042  0.00  0.00     0.026 A 
ATOM     11 CL   UNL d   1      -3.464  -1.827  -0.008  0.00  0.00    -0.084 Cl
ENDROOT
BRANCH   1  12
ATOM     12  S   UNL d   1       4.061   0.205   0.456  0.00  0.00    -0.086 SA
BRANCH  12  13
ATOM     13  C   UNL d   1       4.521  -1.539   0.719  0.00  0.00     0.166 C 
BRANCH  13  14
ATOM     14  C   UNL d   1       6.014  -1.676   0.997  0.00  0.00     0.169 C 
ATOM     15  O   UNL d   1       6.810  -0.738   0.939  0.00  0.00    -0.291 OA
BRANCH  14  16
ATOM     16  C   UNL d   1       6.562  -3.026   1.361  0.00  0.00     0.011 A 
ATOM     17  C   UNL d   1       5.785  -4.193   1.344  0.00  0.00     0.018 A 
ATOM     18  C   UNL d   1       6.356  -5.420   1.706  0.00  0.00     0.043 A 
ATOM     19  C   UNL d   1       7.696  -5.482   2.080  0.00  0.00     0.116 A 
ATOM     20  C   UNL d   1       8.483  -4.339   2.094  0.00  0.00     0.043 A 
ATOM     21  F   UNL d   1       8.230  -6.657   2.430  0.00  0.00    -0.206 F 
ATOM     22  C   UNL d   1       7.917  -3.114   1.733  0.00  0.00     0.018 A 
ENDBRANCH  14  16
ENDBRANCH  13  14
ENDBRANCH  12  13
ENDBRANCH   1  12
BRANCH   4  23
ATOM     23  C   UNL d   1       1.948   2.576  -0.181  0.00  0.00     0.084 C 
ATOM     24  C   UNL d   1       1.470   3.103  -1.538  0.00  0.00     0.032 C 
ATOM     25  C   UNL d   1       1.559   3.521   0.957  0.00  0.00     0.032 C 
ENDBRANCH   4  23
TORSDOF 5
