REMARK  8 active torsions:
REMARK  status: ('A' for Active; 'I' for Inactive)
REMARK    1  A    between atoms: N_2  and  S_1 
REMARK    2  A    between atoms: C_7  and  S_1 
REMARK    3  A    between atoms: N_8  and  C_4 
REMARK    4  A    between atoms: S_9  and  C_4 
REMARK    5  A    between atoms: C_14  and  N_8 
REMARK    6  A    between atoms: C_10  and  S_11 
REMARK    7  A    between atoms: S_11  and  C_18 
REMARK    8  A    between atoms: C_18  and  C_14 
ROOT
ATOM      1  N   UNL d   1       0.601  -1.355  -3.050  0.00  0.00    -0.260 N 
ATOM      2  HN  UNL d   1      -0.012  -2.045  -2.615  1.00  0.00     0.181 HD
ATOM      3  C   UNL d   1       0.885  -0.304  -2.372  0.00  0.00     0.149 C 
ENDROOT
BRANCH   3   4
ATOM      4  N   UNL d   1       1.643   0.805  -2.694  0.00  0.00    -0.369 N 
ATOM      5  H   UNL d   1       1.962   0.893  -3.660  0.00  0.00     0.161 HD
BRANCH   4   6
ATOM      6  C   UNL d   1       2.087   1.789  -1.711  0.00  0.00     0.132 C 
BRANCH   6   7
ATOM      7  C   UNL d   1       3.160   2.787  -2.159  0.00  0.00     0.094 C 
BRANCH   7   8
ATOM      8  S   UNL d   1       3.623   3.667  -0.604  0.00  0.00    -0.159 SA
BRANCH   8   9
ATOM      9  C   UNL d   1       5.048   4.729  -1.069  0.00  0.00    -0.003 C 
ATOM     10  C   UNL d   1       4.587   5.841  -2.013  0.00  0.00     0.026 C 
ATOM     11  C   UNL d   1       5.537   5.349   0.254  0.00  0.00     0.026 C 
ATOM     12  C   UNL d   1       6.184   3.913  -1.689  0.00  0.00     0.026 C 
ENDBRANCH   8   9
ENDBRANCH   7   8
ENDBRANCH   6   7
ENDBRANCH   4   6
ENDBRANCH   3   4
BRANCH   3  13
ATOM     13  S   UNL d   1       0.161  -0.281  -0.736  0.00  0.00    -0.098 SA
ATOM     14  C   UNL d   1      -0.301  -2.005  -0.507  0.00  0.00     0.099 C 
ENDBRANCH   3  13
BRANCH   1  15
ATOM     15  S   UNL d   1       1.138  -1.666  -4.530  0.00  0.00     0.264 S 
ATOM     16  O   UNL d   1       1.917  -0.551  -5.049  0.00  0.00    -0.200 OA
ATOM     17  O   UNL d   1       0.048  -2.212  -5.312  0.00  0.00    -0.200 OA
BRANCH  15  18
ATOM     18  C   UNL d   1       2.299  -3.003  -4.253  0.00  0.00     0.079 A 
ATOM     19  C   UNL d   1       2.003  -4.305  -4.673  0.00  0.00     0.025 A 
ATOM     20  C   UNL d   1       2.909  -5.336  -4.408  0.00  0.00     0.002 A 
ATOM     21  C   UNL d   1       4.104  -5.062  -3.740  0.00  0.00     0.000 A 
ATOM     22  C   UNL d   1       4.404  -3.759  -3.340  0.00  0.00     0.002 A 
ATOM     23  C   UNL d   1       3.503  -2.724  -3.597  0.00  0.00     0.025 A 
ENDBRANCH  15  18
ENDBRANCH   1  15
TORSDOF 8
