REMARK  3 active torsions:
REMARK  status: ('A' for Active; 'I' for Inactive)
REMARK    1  A    between atoms: C_2  and  C_1 
REMARK    2  A    between atoms: C_8  and  C_2 
REMARK    3  A    between atoms: C_6  and  C_3 
ROOT
ATOM      1  C   UNL d   1       0.878   0.090  -0.019  0.00  0.00     0.092 C 
ATOM      2  C   UNL d   1       0.220  -1.082   0.077  0.00  0.00     0.045 C 
ATOM      3  C   UNL d   1       0.207   1.341  -0.046  0.00  0.00     0.103 C 
ATOM      4  N   UNL d   1      -0.339   2.366  -0.067  0.00  0.00    -0.191 NA
ENDROOT
BRANCH   1   5
ATOM      5  C   UNL d   1       2.375   0.004  -0.094  0.00  0.00     0.177 C 
ATOM      6  O   UNL d   1       2.926  -0.999   0.376  0.00  0.00    -0.291 OA
BRANCH   5   7
ATOM      7  C   UNL d   1       3.235   1.147  -0.701  0.00  0.00     0.015 C 
ATOM      8  C   UNL d   1       3.479   2.213   0.375  0.00  0.00     0.023 C 
ATOM      9  C   UNL d   1       4.602   0.547  -1.106  0.00  0.00     0.023 C 
ATOM     10  C   UNL d   1       2.641   1.775  -1.970  0.00  0.00     0.023 C 
ENDBRANCH   5   7
ENDBRANCH   1   5
BRANCH   2  11
ATOM     11  C   UNL d   1      -1.201  -1.155   0.112  0.00  0.00     0.006 A 
ATOM     12  S   UNL d   1      -2.059  -1.619  -1.304  0.00  0.00    -0.102 SA
ATOM     13  C   UNL d   1      -3.572  -1.407  -0.541  0.00  0.00     0.050 A 
ATOM     14  C   UNL d   1      -3.439  -1.035   0.777  0.00  0.00     0.008 A 
ATOM     15  C   UNL d   1      -2.071  -0.901   1.157  0.00  0.00     0.019 A 
ENDBRANCH   2  11
TORSDOF 3
