REMARK  3 active torsions:
REMARK  status: ('A' for Active; 'I' for Inactive)
REMARK    1  A    between atoms: C_13  and  C_8 
REMARK    2  A    between atoms: O_18  and  C_9 
REMARK    3  A    between atoms: C_12  and  C_11 
ROOT
ATOM      1  C   UNL d   1       0.170  -0.826   0.012  0.00  0.00     0.148 A 
ATOM      2  N   UNL d   1       0.225   0.572   0.010  0.00  0.00    -0.216 N 
ATOM      3  C   UNL d   1       1.476  -1.251   0.011  0.00  0.00     0.077 A 
ATOM      4  N   UNL d   1       1.516   1.011   0.012  0.00  0.00    -0.292 N 
ATOM      5  HN  UNL d   1       1.833   1.980   0.012  1.00  0.00     0.187 HD
ATOM      6  N   UNL d   1      -1.010  -1.518   0.010  0.00  0.00    -0.336 N 
ATOM      7  HN  UNL d   1      -1.025  -2.538   0.010  1.00  0.00     0.167 HD
ATOM      8  C   UNL d   1       2.291  -0.092   0.012  0.00  0.00     0.054 A 
ATOM      9  C   UNL d   1      -0.972   1.331   0.007  0.00  0.00     0.167 A 
ATOM     10  C   UNL d   1      -2.151   0.677   0.004  0.00  0.00     0.092 A 
ATOM     11  C   UNL d   1      -2.115  -0.823   0.007  0.00  0.00     0.122 A 
ATOM     12  I   UNL d   1       1.991  -3.221   0.007  0.00  0.00    -0.038 I 
ENDROOT
BRANCH   8  13
ATOM     13  C   UNL d   1       3.819   0.057   0.004  0.00  0.00    -0.006 C 
ATOM     14  C   UNL d   1       4.426  -0.562  -1.272  0.00  0.00     0.021 C 
ATOM     15  C   UNL d   1       4.261   1.543   0.026  0.00  0.00     0.021 C 
ATOM     16  C   UNL d   1       4.452  -0.601   1.248  0.00  0.00     0.021 C 
ENDBRANCH   8  13
BRANCH   9  17
ATOM     17  O   UNL d   1      -0.848   2.715   0.006  0.00  0.00    -0.339 OA
ATOM     18  C   UNL d   1      -2.042   3.492   0.005  0.00  0.00     0.211 C 
ENDBRANCH   9  17
BRANCH  11  19
ATOM     19  C   UNL d   1      -3.463  -1.547   0.008  0.00  0.00     0.432 C 
ATOM     20  F   UNL d   1      -4.521  -0.687   0.001  0.00  0.00    -0.165 F 
ATOM     21  F   UNL d   1      -3.622  -2.347  -1.081  0.00  0.00    -0.165 F 
ATOM     22  F   UNL d   1      -3.625  -2.335   1.105  0.00  0.00    -0.165 F 
ENDBRANCH  11  19
TORSDOF 3
