REMARK  5 active torsions:
REMARK  status: ('A' for Active; 'I' for Inactive)
REMARK    1  A    between atoms: O_2  and  C_1 
REMARK    2  A    between atoms: C_3  and  O_2 
REMARK    3  A    between atoms: C_5  and  C_3 
REMARK    4  A    between atoms: O_19  and  C_6 
REMARK    5  A    between atoms: C_8  and  C_7 
ROOT
ATOM      1  C   UNL d   1       0.928  -1.121   0.495  0.00  0.00     0.130 A 
ATOM      2  C   UNL d   1       0.450   0.115   0.965  0.00  0.00     0.048 A 
ATOM      3  C   UNL d   1       2.204  -1.197  -0.080  0.00  0.00     0.104 A 
ATOM      4  C   UNL d   1       2.422   1.247   0.076  0.00  0.00    -0.030 A 
ATOM      5  C   UNL d   1       1.185   1.283   0.736  0.00  0.00     0.031 A 
ATOM      6  C   UNL d   1       2.929  -0.012  -0.284  0.00  0.00     0.049 A 
ATOM      7 BR   UNL d   1      -1.163   0.268   1.957  0.00  0.00    -0.048 Br
ENDROOT
BRANCH   1   8
ATOM      8  O   UNL d   1       0.154  -2.286   0.629  0.00  0.00    -0.270 OA
BRANCH   8   9
ATOM      9  C   UNL d   1      -0.954  -2.358  -0.224  0.00  0.00     0.305 C 
ATOM     10  O   UNL d   1      -1.349  -1.442  -0.938  0.00  0.00    -0.258 OA
BRANCH   9  11
ATOM     11  C   UNL d   1      -1.533  -3.691  -0.155  0.00  0.00     0.080 A 
ATOM     12  S   UNL d   1      -3.106  -3.953  -0.791  0.00  0.00    -0.096 SA
ATOM     13  C   UNL d   1      -3.033  -5.632  -0.480  0.00  0.00     0.050 A 
ATOM     14  C   UNL d   1      -1.844  -5.995   0.109  0.00  0.00     0.009 A 
ATOM     15  C   UNL d   1      -0.997  -4.870   0.335  0.00  0.00     0.025 A 
ENDBRANCH   9  11
ENDBRANCH   8   9
ENDBRANCH   1   8
BRANCH   3  16
ATOM     16  O   UNL d   1       2.883  -2.300  -0.516  0.00  0.00    -0.353 OA
ATOM     17  C   UNL d   1       2.466  -3.582  -0.079  0.00  0.00     0.210 C 
ENDBRANCH   3  16
BRANCH   4  18
ATOM     18  C   UNL d   1       3.178   2.536  -0.170  0.00  0.00     0.141 C 
ATOM     19  S   UNL d   1       3.933   2.666  -1.819  0.00  0.00    -0.148 SA
ATOM     20  C   UNL d   1       5.181   3.874  -1.329  0.00  0.00     0.085 C 
ATOM     21  C   UNL d   1       5.779   3.392  -0.021  0.00  0.00     0.085 C 
ATOM     22  S   UNL d   1       4.453   2.844   1.097  0.00  0.00    -0.148 SA
ENDBRANCH   4  18
TORSDOF 5
