REMARK  9 active torsions:
REMARK  status: ('A' for Active; 'I' for Inactive)
REMARK    1  A    between atoms: N_8  and  C_1 
REMARK    2  A    between atoms: S_5  and  C_2 
REMARK    3  A    between atoms: C_10  and  C_3 
REMARK    4  A    between atoms: S_4  and  N_9 
REMARK    5  A    between atoms: C_11  and  S_4 
REMARK    6  A    between atoms: C_19  and  S_5 
REMARK    7  A    between atoms: N_9  and  N_8 
REMARK    8  A    between atoms: O_20  and  C_10 
REMARK    9  A    between atoms: C_26  and  C_19 
ROOT
ATOM      1  C   UNL d   1       1.449   0.761  -0.097  0.00  0.00     0.093 A 
ATOM      2  C   UNL d   1       1.446  -0.683  -0.068  0.00  0.00     0.095 A 
ATOM      3  C   UNL d   1       0.151   1.270   0.009  0.00  0.00     0.109 A 
ATOM      4  S   UNL d   1      -1.005  -0.017   0.121  0.00  0.00    -0.092 SA
ATOM      5  C   UNL d   1       0.184  -1.216   0.067  0.00  0.00     0.076 A 
ENDROOT
BRANCH   1   6
ATOM      6  N   UNL d   1       2.610   1.464  -0.243  0.00  0.00    -0.288 N 
ATOM      7  H   UNL d   1       3.510   0.967  -0.381  0.00  0.00     0.188 HD
BRANCH   6   8
ATOM      8  N   UNL d   1       2.746   2.918  -0.240  0.00  0.00    -0.222 N 
ATOM      9  H   UNL d   1       1.928   3.528  -0.105  0.00  0.00     0.200 HD
BRANCH   8  10
ATOM     10  S   UNL d   1       4.131   3.658  -0.878  0.00  0.00     0.276 S 
ATOM     11  O   UNL d   1       5.264   3.304  -0.051  0.00  0.00    -0.199 OA
ATOM     12  O   UNL d   1       4.141   3.428  -2.308  0.00  0.00    -0.199 OA
BRANCH  10  13
ATOM     13  C   UNL d   1       3.763   5.381  -0.617  0.00  0.00     0.081 A 
ATOM     14  C   UNL d   1       4.306   6.049   0.486  0.00  0.00     0.027 A 
ATOM     15  C   UNL d   1       4.020   7.402   0.680  0.00  0.00     0.025 A 
ATOM     16  C   UNL d   1       3.204   8.078  -0.229  0.00  0.00     0.034 A 
ATOM     17  C   UNL d   1       2.680   7.416  -1.340  0.00  0.00     0.025 A 
ATOM     18 CL   UNL d   1       2.844   9.742   0.022  0.00  0.00    -0.084 Cl
ATOM     19  C   UNL d   1       2.963   6.063  -1.541  0.00  0.00     0.027 A 
ENDBRANCH  10  13
ENDBRANCH   8  10
ENDBRANCH   6   8
ENDBRANCH   1   6
BRANCH   2  20
ATOM     20  S   UNL d   1       2.831  -1.733  -0.172  0.00  0.00     0.178 S 
ATOM     21  O   UNL d   1       3.956  -0.850  -0.415  0.00  0.00    -0.223 OA
ATOM     22  O   UNL d   1       2.722  -2.562   1.009  0.00  0.00    -0.223 OA
BRANCH  20  23
ATOM     23  C   UNL d   1       2.507  -2.710  -1.630  0.00  0.00     0.145 C 
BRANCH  23  24
ATOM     24  C   UNL d   1       3.522  -3.832  -1.806  0.00  0.00     0.011 C 
ATOM     25  C   UNL d   1       3.218  -4.641  -3.057  0.00  0.00     0.006 C 
ENDBRANCH  23  24
ENDBRANCH  20  23
ENDBRANCH   2  20
BRANCH   3  26
ATOM     26  C   UNL d   1      -0.349   2.646   0.031  0.00  0.00     0.302 C 
ATOM     27  O   UNL d   1       0.331   3.668   0.001  0.00  0.00    -0.259 OA
BRANCH  26  28
ATOM     28  O   UNL d   1      -1.716   2.674   0.090  0.00  0.00    -0.322 OA
ATOM     29  C   UNL d   1      -2.311   3.971   0.134  0.00  0.00     0.213 C 
ENDBRANCH  26  28
ENDBRANCH   3  26
TORSDOF 9
