REMARK  4 active torsions:
REMARK  status: ('A' for Active; 'I' for Inactive)
REMARK    1  A    between atoms: C_3  and  N_1 
REMARK    2  A    between atoms: C_2  and  C_6 
REMARK    3  A    between atoms: O_5  and  C_2 
REMARK    4  A    between atoms: C_13  and  O_5 
ROOT
ATOM      1  C   UNL d   1       0.237  -0.321  -1.220  0.00  0.00     0.102 A 
ATOM      2  C   UNL d   1      -1.347  -0.562  -3.526  0.00  0.00     0.039 A 
ATOM      3  C   UNL d   1       0.698  -1.085  -2.297  0.00  0.00     0.037 A 
ATOM      4  C   UNL d   1      -1.014   0.313  -1.281  0.00  0.00     0.037 A 
ATOM      5  C   UNL d   1      -0.096  -1.201  -3.442  0.00  0.00     0.020 A 
ATOM      6  C   UNL d   1      -1.804   0.189  -2.436  0.00  0.00     0.020 A 
ENDROOT
BRANCH   2   7
ATOM      7  C   UNL d   1      -2.104  -0.702  -4.801  0.00  0.00     0.293 C 
ATOM      8  O   UNL d   1      -1.671  -1.354  -5.741  0.00  0.00    -0.259 OA
BRANCH   7   9
ATOM      9  O   UNL d   1      -3.274  -0.005  -4.801  0.00  0.00    -0.313 OA
BRANCH   9  10
ATOM     10  C   UNL d   1      -3.967   0.008  -6.068  0.00  0.00     0.124 C 
ATOM     11  C   UNL d   1      -4.796  -1.262  -6.253  0.00  0.00     0.040 C 
ATOM     12  C   UNL d   1      -4.873   1.234  -6.107  0.00  0.00     0.040 C 
ENDBRANCH   9  10
ENDBRANCH   7   9
ENDBRANCH   2   7
BRANCH   1  13
ATOM     13  N   UNL d   1       1.077  -0.175  -0.021  0.00  0.00    -0.116 N 
ATOM     14  O   UNL d   1       2.165  -0.772  -0.003  0.00  0.00    -0.532 OA
ATOM     15  O   UNL d   1       0.651   0.538   0.897  0.00  0.00    -0.532 OA
ENDBRANCH   1  13
TORSDOF 4
