REMARK  4 active torsions:
REMARK  status: ('A' for Active; 'I' for Inactive)
REMARK    1  A    between atoms: C_2  and  C_1 
REMARK       I    between atoms: N_11  and  C_2 
REMARK    2  A    between atoms: S_3  and  N_8 
REMARK    3  A    between atoms: N_8  and  C_10 
REMARK    4  A    between atoms: C_15  and  N_11 
ROOT
ATOM      1  C   UNL d   1      -4.893   2.213  -0.753  0.00  0.00     0.030 A 
ATOM      2  C   UNL d   1      -3.679   2.877  -0.944  0.00  0.00     0.054 A 
ATOM      3  C   UNL d   1      -2.614   2.698  -0.057  0.00  0.00     0.036 A 
ATOM      4  C   UNL d   1      -5.057   1.335   0.326  0.00  0.00    -0.040 A 
ATOM      5  C   UNL d   1      -4.037   1.264   1.286  0.00  0.00     0.011 A 
ATOM      6  C   UNL d   1      -2.831   1.950   1.103  0.00  0.00     0.030 A 
ATOM      7  C   UNL d   1      -6.262   0.448   0.452  0.00  0.00     0.050 C 
ENDROOT
BRANCH   3   8
ATOM      8  N   UNL d   1      -1.296   3.166  -0.303  0.00  0.00    -0.323 N 
ATOM      9  C   UNL d   1      -0.815   3.560  -1.542  0.00  0.00     0.260 C 
ATOM     10  O   UNL d   1      -1.533   3.752  -2.520  0.00  0.00    -0.267 OA
ATOM     11  H   UNL d   1      -0.631   2.990   0.431  0.00  0.00     0.169 HD
BRANCH   9  12
ATOM     12  C   UNL d   1       0.633   3.700  -1.682  0.00  0.00     0.087 A 
ATOM     13  C   UNL d   1       1.226   3.973  -2.905  0.00  0.00     0.090 A 
ATOM     14  O   UNL d   1       2.570   4.060  -2.765  0.00  0.00    -0.242 OA
ATOM     15  C   UNL d   1       0.706   4.154  -4.279  0.00  0.00     0.080 C 
ATOM     16  N   UNL d   1       2.907   3.824  -1.456  0.00  0.00    -0.265 N 
ATOM     17  C   UNL d   1       1.758   3.586  -0.807  0.00  0.00     0.047 A 
ATOM     18  HN  UNL d   1       3.845   3.830  -1.056  1.00  0.00     0.194 HD
ATOM     19  C   UNL d   1       1.858   3.260   0.635  0.00  0.00     0.071 C 
ENDBRANCH   9  12
ENDBRANCH   3   8
BRANCH   1  20
ATOM     20  N   UNL d   1      -5.916   2.381  -1.740  0.00  0.00    -0.185 NA
ATOM     21  H   UNL d   1      -6.871   2.380  -1.378  0.00  0.00     0.146 HD
BRANCH  20  22
ATOM     22  S   UNL d   1      -5.845   1.393  -3.112  0.00  0.00     0.210 S 
ATOM     23  O   UNL d   1      -4.861   0.347  -2.930  0.00  0.00    -0.211 OA
ATOM     24  O   UNL d   1      -7.223   1.078  -3.424  0.00  0.00    -0.211 OA
ATOM     25  C   UNL d   1      -5.261   2.534  -4.345  0.00  0.00     0.180 C 
ENDBRANCH  20  22
ENDBRANCH   1  20
TORSDOF 4
