REMARK  4 active torsions:
REMARK  status: ('A' for Active; 'I' for Inactive)
REMARK    1  A    between atoms: O_10  and  N_1 
REMARK    2  A    between atoms: N_8  and  C_13 
REMARK    3  A    between atoms: C_20  and  O_10 
REMARK    4  A    between atoms: C_21  and  C_20 
ROOT
ATOM      1  N   UNL d   1      -2.251  -0.159  -0.183  0.00  0.00    -0.153 N 
ATOM      2  C   UNL d   1      -0.217  -0.895   0.297  0.00  0.00     0.129 C 
ATOM      3  C   UNL d   1      -0.154   0.615   0.049  0.00  0.00     0.129 C 
ATOM      4  C   UNL d   1      -1.421  -1.228  -0.504  0.00  0.00     0.258 C 
ATOM      5  C   UNL d   1      -1.586   0.949   0.332  0.00  0.00     0.258 C 
ATOM      6  C   UNL d   1       1.180   0.940   0.700  0.00  0.00     0.159 C 
ATOM      7  C   UNL d   1       1.238  -1.253   0.368  0.00  0.00     0.159 C 
ATOM      8  O   UNL d   1       1.487  -0.273   1.465  0.00  0.00    -0.371 OA
ATOM      9  C   UNL d   1       2.200   0.690  -0.386  0.00  0.00     0.004 C 
ATOM     10  C   UNL d   1       2.169  -0.633  -0.635  0.00  0.00     0.004 C 
ATOM     11  O   UNL d   1      -1.647  -2.253  -1.114  0.00  0.00    -0.270 OA
ATOM     12  O   UNL d   1      -2.024   1.999   0.755  0.00  0.00    -0.270 OA
ENDROOT
BRANCH   1  13
ATOM     13  O   UNL d   1      -3.610  -0.132  -0.487  0.00  0.00    -0.263 OA
BRANCH  13  14
ATOM     14  C   UNL d   1      -4.306  -0.981   0.433  0.00  0.00     0.240 C 
BRANCH  14  15
ATOM     15  C   UNL d   1      -5.798  -0.963   0.192  0.00  0.00    -0.032 A 
ATOM     16  C   UNL d   1      -6.543  -2.134   0.418  0.00  0.00     0.012 A 
ATOM     17  C   UNL d   1      -7.927  -2.150   0.233  0.00  0.00     0.037 A 
ATOM     18  C   UNL d   1      -8.580  -0.981  -0.173  0.00  0.00     0.102 A 
ATOM     19  C   UNL d   1      -7.859   0.202  -0.378  0.00  0.00     0.037 A 
ATOM     20  C   UNL d   1      -6.472   0.208  -0.188  0.00  0.00     0.012 A 
BRANCH  18  21
ATOM     21  N   UNL d   1     -10.032  -1.000  -0.386  0.00  0.00    -0.116 N 
ATOM     22  O   UNL d   1     -10.631  -2.068  -0.192  0.00  0.00    -0.532 OA
ATOM     23  O   UNL d   1     -10.577   0.053  -0.750  0.00  0.00    -0.532 OA
ENDBRANCH  18  21
ENDBRANCH  14  15
ENDBRANCH  13  14
ENDBRANCH   1  13
TORSDOF 4
