REMARK  2 active torsions:
REMARK  status: ('A' for Active; 'I' for Inactive)
REMARK    1  A    between atoms: C_10  and  C_3 
REMARK       I    between atoms: C_9  and  N_8 
REMARK       I    between atoms: N_13  and  C_9 
REMARK    2  A    between atoms: C_14  and  N_13 
ROOT
ATOM      1  S   UNL d   1       1.934   6.600   1.767  0.00  0.00    -0.037 SA
ATOM      2  C   UNL d   1       2.344   5.074   1.131  0.00  0.00     0.169 A 
ATOM      3  C   UNL d   1       3.611   6.959   1.758  0.00  0.00     0.074 A 
ATOM      4  N   UNL d   1       4.370   5.959   1.350  0.00  0.00    -0.296 N 
ATOM      5  HN  UNL d   1       5.388   6.004   1.298  1.00  0.00     0.187 HD
ATOM      6  N   UNL d   1       3.627   4.842   1.001  0.00  0.00    -0.279 N 
ATOM      7  HN  UNL d   1       4.026   3.958   0.684  1.00  0.00     0.189 HD
ATOM      8  N   UNL d   1       1.278   4.289   0.824  0.00  0.00    -0.287 N 
ATOM      9  C   UNL d   1       1.277   3.017   0.345  0.00  0.00     0.326 C 
ATOM     10  N   UNL d   1       2.476   2.361   0.254  0.00  0.00    -0.309 N 
ATOM     11  O   UNL d   1       0.172   2.550   0.078  0.00  0.00    -0.247 OA
ATOM     12  H   UNL d   1       0.357   4.686   0.941  0.00  0.00     0.172 HD
ATOM     13  H   UNL d   1       3.298   2.876   0.553  0.00  0.00     0.170 HD
ENDROOT
BRANCH  10  14
ATOM     14  C   UNL d   1       2.655   0.982  -0.021  0.00  0.00     0.037 A 
ATOM     15  C   UNL d   1       1.635   0.149  -0.494  0.00  0.00     0.036 A 
ATOM     16  C   UNL d   1       1.828  -1.233  -0.633  0.00  0.00    -0.059 A 
ATOM     17  C   UNL d   1       0.690  -2.121  -1.044  0.00  0.00     0.048 C 
ATOM     18  C   UNL d   1       3.067  -1.784  -0.297  0.00  0.00     0.013 A 
ATOM     19  C   UNL d   1       4.115  -0.967   0.141  0.00  0.00    -0.059 A 
ATOM     20  C   UNL d   1       3.905   0.417   0.264  0.00  0.00     0.036 A 
ATOM     21  C   UNL d   1       5.406  -1.593   0.582  0.00  0.00     0.048 C 
ENDBRANCH  10  14
BRANCH   3  22
ATOM     22  C   UNL d   1       4.231   8.305   2.143  0.00  0.00     0.044 A 
ATOM     23  C   UNL d   1       3.726   9.068   3.351  0.00  0.00     0.012 A 
ATOM     24  C   UNL d   1       3.428   9.584   1.985  0.00  0.00     0.012 A 
ENDBRANCH   3  22
TORSDOF 2
