REMARK  3 active torsions:
REMARK  status: ('A' for Active; 'I' for Inactive)
REMARK    1  A    between atoms: C_9  and  C_2 
REMARK    2  A    between atoms: C_10  and  O_12 
REMARK    3  A    between atoms: O_12  and  C_11 
ROOT
ATOM      1  C   UNL d   1      -0.030   1.147   0.274  0.00  0.00     0.181 A 
ATOM      2  C   UNL d   1      -0.027  -0.984   0.308  0.00  0.00     0.177 A 
ATOM      3  O   UNL d   1      -0.889   0.081   0.364  0.00  0.00    -0.272 OA
ATOM      4  N   UNL d   1       1.229   0.768   0.197  0.00  0.00    -0.277 N 
ATOM      5  HN  UNL d   1       2.045   1.377   0.130  1.00  0.00     0.189 HD
ATOM      6  N   UNL d   1       1.231  -0.609   0.224  0.00  0.00    -0.277 N 
ATOM      7  HN  UNL d   1       2.048  -1.219   0.185  1.00  0.00     0.189 HD
ATOM      8  C   UNL d   1      -0.619   2.467   0.207  0.00  0.00     0.094 A 
ATOM      9  C   UNL d   1      -1.840   2.766   0.818  0.00  0.00     0.134 A 
ATOM     10  C   UNL d   1       0.026   3.497  -0.482  0.00  0.00     0.134 A 
ATOM     11  F   UNL d   1      -2.507   1.829   1.509  0.00  0.00    -0.205 F 
ATOM     12  F   UNL d   1       1.189   3.275  -1.112  0.00  0.00    -0.205 F 
ATOM     13  C   UNL d   1      -1.737   5.056   0.057  0.00  0.00     0.006 A 
ATOM     14  C   UNL d   1      -2.398   4.044   0.749  0.00  0.00     0.043 A 
ATOM     15  C   UNL d   1      -0.521   4.779  -0.562  0.00  0.00     0.043 A 
ENDROOT
BRANCH   2  16
ATOM     16  C   UNL d   1      -0.626  -2.306   0.219  0.00  0.00     0.050 A 
ATOM     17  C   UNL d   1      -0.030  -3.340  -0.529  0.00  0.00     0.092 A 
ATOM     18  C   UNL d   1      -0.606  -4.616  -0.554  0.00  0.00     0.038 A 
ATOM     19  C   UNL d   1      -1.790  -4.868   0.142  0.00  0.00     0.003 A 
ATOM     20  C   UNL d   1      -2.398  -3.849   0.871  0.00  0.00     0.001 A 
ATOM     21  C   UNL d   1      -1.824  -2.576   0.903  0.00  0.00     0.018 A 
BRANCH  17  22
ATOM     22  O   UNL d   1       1.188  -3.216  -1.143  0.00  0.00    -0.254 OA
BRANCH  22  23
ATOM     23  C   UNL d   1       1.191  -2.423  -2.329  0.00  0.00     0.530 C 
ATOM     24  F   UNL d   1       0.137  -1.583  -2.421  0.00  0.00    -0.144 F 
ATOM     25  F   UNL d   1       2.329  -1.703  -2.377  0.00  0.00    -0.144 F 
ATOM     26  F   UNL d   1       1.171  -3.241  -3.408  0.00  0.00    -0.144 F 
ENDBRANCH  22  23
ENDBRANCH  17  22
ENDBRANCH   2  16
TORSDOF 3
