REMARK  2 active torsions:
REMARK  status: ('A' for Active; 'I' for Inactive)
REMARK    1  A    between atoms: C_2  and  N_1 
REMARK       I    between atoms: C_3  and  N_1 
REMARK    2  A    between atoms: C_8  and  C_3 
ROOT
ATOM      1  N   UNL d   1       1.129   0.121   0.055  0.00  0.00    -0.308 N 
ATOM      2  C   UNL d   1       2.496   0.285  -0.039  0.00  0.00     0.257 C 
ATOM      3  O   UNL d   1       3.196   1.026   0.645  0.00  0.00    -0.267 OA
ATOM      4  H   UNL d   1       0.683  -0.616  -0.470  0.00  0.00     0.170 HD
ENDROOT
BRANCH   1   5
ATOM      5  C   UNL d   1       0.279   0.871   0.895  0.00  0.00     0.125 A 
ATOM      6  N   UNL d   1       0.789   1.872   1.639  0.00  0.00    -0.351 N 
ATOM      7  C   UNL d   1      -0.045   2.585   2.427  0.00  0.00     0.096 A 
ATOM      8  HN  UNL d   1       1.786   2.088   1.607  1.00  0.00     0.166 HD
ATOM      9  C   UNL d   1      -1.411   2.361   2.516  0.00  0.00    -0.045 A 
ATOM     10  C   UNL d   1      -1.937   1.326   1.743  0.00  0.00     0.031 A 
ATOM     11  C   UNL d   1      -2.263   3.206   3.408  0.00  0.00     0.049 C 
ATOM     12  C   UNL d   1      -1.088   0.572   0.927  0.00  0.00     0.055 A 
ATOM     13 BR   UNL d   1      -1.843  -0.829  -0.108  0.00  0.00    -0.047 Br
ENDBRANCH   1   5
BRANCH   2  14
ATOM     14  C   UNL d   1       3.188  -0.551  -1.065  0.00  0.00     0.032 A 
ATOM     15  C   UNL d   1       2.568  -0.957  -2.254  0.00  0.00     0.017 A 
ATOM     16  C   UNL d   1       3.288  -1.691  -3.202  0.00  0.00     0.001 A 
ATOM     17  C   UNL d   1       4.627  -2.014  -2.975  0.00  0.00     0.000 A 
ATOM     18  C   UNL d   1       5.253  -1.605  -1.800  0.00  0.00     0.001 A 
ATOM     19  C   UNL d   1       4.536  -0.876  -0.849  0.00  0.00     0.017 A 
ENDBRANCH   2  14
TORSDOF 2
