REMARK  7 active torsions:
REMARK  status: ('A' for Active; 'I' for Inactive)
REMARK    1  A    between atoms: N_4  and  S_1 
REMARK    2  A    between atoms: C_13  and  S_1 
REMARK    3  A    between atoms: S_2  and  N_5 
REMARK    4  A    between atoms: C_14  and  S_2 
REMARK    5  A    between atoms: C_3  and  C_6 
REMARK    6  A    between atoms: C_7  and  N_4 
REMARK    7  A    between atoms: N_5  and  C_8 
ROOT
ATOM      1  C   UNL d   1       2.386   0.562  -4.381  0.00  0.00     0.052 A 
ATOM      2  C   UNL d   1       0.884  -0.485  -2.788  0.00  0.00     0.045 A 
ATOM      3  C   UNL d   1       0.065   0.144  -4.960  0.00  0.00     0.045 A 
ATOM      4  C   UNL d   1       2.144   0.022  -3.107  0.00  0.00     0.046 A 
ATOM      5  C   UNL d   1       1.334   0.606  -5.309  0.00  0.00     0.046 A 
ATOM      6  C   UNL d   1      -0.163  -0.410  -3.705  0.00  0.00     0.060 A 
ENDROOT
BRANCH   2   7
ATOM      7  N   UNL d   1       0.648  -1.036  -1.499  0.00  0.00    -0.281 N 
ATOM      8  H   UNL d   1       0.102  -1.895  -1.443  0.00  0.00     0.179 HD
BRANCH   7   9
ATOM      9  S   UNL d   1       0.302   0.011  -0.215  0.00  0.00     0.263 S 
ATOM     10  O   UNL d   1       1.388   0.954  -0.071  0.00  0.00    -0.200 OA
ATOM     11  O   UNL d   1      -0.128  -0.830   0.884  0.00  0.00    -0.200 OA
BRANCH   9  12
ATOM     12  C   UNL d   1      -1.128   0.894  -0.800  0.00  0.00     0.079 A 
ATOM     13  C   UNL d   1      -2.402   0.348  -0.613  0.00  0.00     0.025 A 
ATOM     14  C   UNL d   1      -3.517   1.027  -1.105  0.00  0.00     0.002 A 
ATOM     15  C   UNL d   1      -3.356   2.244  -1.771  0.00  0.00     0.000 A 
ATOM     16  C   UNL d   1      -2.084   2.795  -1.935  0.00  0.00     0.002 A 
ATOM     17  C   UNL d   1      -0.965   2.127  -1.441  0.00  0.00     0.025 A 
ENDBRANCH   9  12
ENDBRANCH   7   9
ENDBRANCH   2   7
BRANCH   1  18
ATOM     18  C   UNL d   1       3.746   1.091  -4.764  0.00  0.00     0.417 C 
ATOM     19  F   UNL d   1       4.676   0.975  -3.777  0.00  0.00    -0.166 F 
ATOM     20  F   UNL d   1       4.268   0.449  -5.845  0.00  0.00    -0.166 F 
ATOM     21  F   UNL d   1       3.712   2.412  -5.093  0.00  0.00    -0.166 F 
ENDBRANCH   1  18
BRANCH   3  22
ATOM     22  N   UNL d   1      -0.986   0.234  -5.909  0.00  0.00    -0.281 N 
ATOM     23  H   UNL d   1      -1.856   0.680  -5.622  0.00  0.00     0.179 HD
BRANCH  22  24
ATOM     24  S   UNL d   1      -1.227  -1.042  -6.989  0.00  0.00     0.263 S 
ATOM     25  O   UNL d   1      -2.355  -0.662  -7.813  0.00  0.00    -0.200 OA
ATOM     26  O   UNL d   1       0.044  -1.416  -7.570  0.00  0.00    -0.200 OA
BRANCH  24  27
ATOM     27  C   UNL d   1      -1.770  -2.375  -5.939  0.00  0.00     0.079 A 
ATOM     28  C   UNL d   1      -3.134  -2.509  -5.654  0.00  0.00     0.025 A 
ATOM     29  C   UNL d   1      -3.575  -3.590  -4.890  0.00  0.00     0.002 A 
ATOM     30  C   UNL d   1      -2.660  -4.532  -4.419  0.00  0.00     0.000 A 
ATOM     31  C   UNL d   1      -1.300  -4.398  -4.709  0.00  0.00     0.002 A 
ATOM     32  C   UNL d   1      -0.851  -3.323  -5.478  0.00  0.00     0.025 A 
ENDBRANCH  24  27
ENDBRANCH  22  24
ENDBRANCH   3  22
TORSDOF 7
