REMARK  5 active torsions:
REMARK  status: ('A' for Active; 'I' for Inactive)
REMARK    1  A    between atoms: C_2  and  S_1 
REMARK    2  A    between atoms: O_7  and  S_1 
REMARK    3  A    between atoms: C_3  and  C_5 
REMARK    4  A    between atoms: C_4  and  C_6 
REMARK    5  A    between atoms: C_15  and  O_7 
ROOT
ATOM      1  C   UNL d   1       0.460   0.181  -1.675  0.00  0.00     0.088 A 
ATOM      2  C   UNL d   1      -0.499  -0.851  -3.655  0.00  0.00     0.050 A 
ATOM      3  C   UNL d   1      -0.370   1.593  -3.468  0.00  0.00     0.050 A 
ATOM      4  C   UNL d   1       0.101  -0.967  -2.391  0.00  0.00     0.042 A 
ATOM      5  C   UNL d   1       0.231   1.456  -2.206  0.00  0.00     0.042 A 
ATOM      6  C   UNL d   1      -0.720   0.433  -4.186  0.00  0.00     0.032 A 
ENDROOT
BRANCH   1   7
ATOM      7  S   UNL d   1       1.057   0.030   0.004  0.00  0.00     0.303 S 
ATOM      8  O   UNL d   1       1.165  -1.387   0.288  0.00  0.00    -0.193 OA
ATOM      9  O   UNL d   1       0.201   0.888   0.800  0.00  0.00    -0.193 OA
BRANCH   7  10
ATOM     10  O   UNL d   1       2.562   0.664  -0.033  0.00  0.00    -0.229 OA
BRANCH  10  11
ATOM     11  C   UNL d   1       3.313   0.815   1.112  0.00  0.00     0.091 A 
ATOM     12  C   UNL d   1       2.939   0.387   2.389  0.00  0.00     0.063 A 
ATOM     13  C   UNL d   1       3.777   0.620   3.489  0.00  0.00     0.058 A 
ATOM     14 CL   UNL d   1       3.235   0.078   5.039  0.00  0.00    -0.082 Cl
ATOM     15  C   UNL d   1       5.000   1.273   3.314  0.00  0.00     0.056 A 
ATOM     16  C   UNL d   1       5.384   1.684   2.036  0.00  0.00     0.028 A 
ATOM     17 CL   UNL d   1       6.074   1.605   4.626  0.00  0.00    -0.083 Cl
ATOM     18  C   UNL d   1       4.544   1.456   0.941  0.00  0.00     0.040 A 
ENDBRANCH  10  11
ENDBRANCH   7  10
ENDBRANCH   1   7
BRANCH   2  19
ATOM     19  C   UNL d   1      -0.945  -2.077  -4.424  0.00  0.00     0.417 C 
ATOM     20  F   UNL d   1      -0.729  -3.243  -3.756  0.00  0.00    -0.166 F 
ATOM     21  F   UNL d   1      -2.274  -2.048  -4.711  0.00  0.00    -0.166 F 
ATOM     22  F   UNL d   1      -0.303  -2.201  -5.617  0.00  0.00    -0.166 F 
ENDBRANCH   2  19
BRANCH   3  23
ATOM     23  C   UNL d   1      -0.687   2.958  -4.041  0.00  0.00     0.417 C 
ATOM     24  F   UNL d   1      -0.343   3.983  -3.215  0.00  0.00    -0.166 F 
ATOM     25  F   UNL d   1      -0.043   3.189  -5.217  0.00  0.00    -0.166 F 
ATOM     26  F   UNL d   1      -2.014   3.112  -4.301  0.00  0.00    -0.166 F 
ENDBRANCH   3  23
TORSDOF 5
