REMARK  7 active torsions:
REMARK  status: ('A' for Active; 'I' for Inactive)
REMARK    1  A    between atoms: C_3  and  S_1 
REMARK    2  A    between atoms: O_6  and  S_1 
REMARK    3  A    between atoms: C_5  and  C_2 
REMARK    4  A    between atoms: C_4  and  N_7 
REMARK    5  A    between atoms: O_17  and  C_5 
REMARK    6  A    between atoms: C_16  and  O_6 
REMARK    7  A    between atoms: N_7  and  C_14 
ROOT
ATOM      1  C   UNL d   1       1.622  -3.687  -3.792  0.00  0.00     0.012 A 
ATOM      2  C   UNL d   1       0.669  -2.203  -1.599  0.00  0.00     0.089 A 
ATOM      3  C   UNL d   1       0.280  -3.763  -3.408  0.00  0.00     0.026 A 
ATOM      4  C   UNL d   1       2.460  -2.789  -3.119  0.00  0.00     0.026 A 
ATOM      5  C   UNL d   1      -0.194  -3.033  -2.313  0.00  0.00     0.040 A 
ATOM      6  C   UNL d   1       1.988  -2.055  -2.027  0.00  0.00     0.040 A 
ENDROOT
BRANCH   1   7
ATOM      7  N   UNL d   1       2.031  -4.384  -4.969  0.00  0.00    -0.262 NA
ATOM      8  H   UNL d   1       1.852  -3.720  -5.733  0.00  0.00     0.133 HD
BRANCH   7   9
ATOM      9  C   UNL d   1       3.334  -4.861  -5.080  0.00  0.00     0.012 C 
ATOM     10  C   UNL d   1       4.374  -4.296  -5.724  0.00  0.00     0.044 C 
ATOM     11  C   UNL d   1       5.683  -5.008  -5.659  0.00  0.00     0.120 C 
ATOM     12  S   UNL d   1       5.309  -6.654  -4.998  0.00  0.00    -0.159 SA
ATOM     13  C   UNL d   1       3.642  -6.196  -4.437  0.00  0.00     0.126 C 
BRANCH  10  14
ATOM     14  C   UNL d   1       4.385  -2.999  -6.427  0.00  0.00     0.291 C 
ATOM     15  O   UNL d   1       5.418  -2.404  -6.698  0.00  0.00    -0.260 OA
BRANCH  14  16
ATOM     16  O   UNL d   1       3.130  -2.587  -6.738  0.00  0.00    -0.323 OA
ATOM     17  C   UNL d   1       3.090  -1.331  -7.418  0.00  0.00     0.213 C 
ENDBRANCH  14  16
ENDBRANCH  10  14
ENDBRANCH   7   9
ENDBRANCH   1   7
BRANCH   2  18
ATOM     18  O   UNL d   1       0.322  -1.487  -0.483  0.00  0.00    -0.229 OA
BRANCH  18  19
ATOM     19  S   UNL d   1      -0.965  -1.897   0.434  0.00  0.00     0.304 S 
ATOM     20  O   UNL d   1      -2.128  -1.240  -0.129  0.00  0.00    -0.193 OA
ATOM     21  O   UNL d   1      -0.983  -3.328   0.680  0.00  0.00    -0.193 OA
BRANCH  19  22
ATOM     22  C   UNL d   1      -0.644  -1.134   2.003  0.00  0.00     0.108 A 
ATOM     23  C   UNL d   1       0.541  -1.381   2.698  0.00  0.00     0.057 A 
ATOM     24 CL   UNL d   1       1.800  -2.412   2.124  0.00  0.00    -0.083 Cl
ATOM     25  C   UNL d   1       0.742  -0.774   3.943  0.00  0.00     0.025 A 
ATOM     26  C   UNL d   1      -0.230   0.070   4.487  0.00  0.00     0.002 A 
ATOM     27  C   UNL d   1      -1.412   0.311   3.791  0.00  0.00     0.002 A 
ATOM     28  C   UNL d   1      -1.624  -0.290   2.551  0.00  0.00     0.027 A 
ENDBRANCH  19  22
ENDBRANCH  18  19
ENDBRANCH   2  18
TORSDOF 7
