REMARK  3 active torsions:
REMARK  status: ('A' for Active; 'I' for Inactive)
REMARK    1  A    between atoms: N_5  and  C_1 
REMARK    2  A    between atoms: O_11  and  C_2 
REMARK    3  A    between atoms: C_12  and  N_9 
ROOT
ATOM      1  N   UNL d   1       0.863   2.645   0.956  0.00  0.00    -0.294 N 
ATOM      2  HN  UNL d   1       0.679   3.220   1.778  1.00  0.00     0.187 HD
ATOM      3  N   UNL d   1       1.040   3.126  -0.180  0.00  0.00    -0.300 N 
ATOM      4  HN  UNL d   1       1.209   2.566  -1.016  1.00  0.00     0.187 HD
ENDROOT
BRANCH   1   5
ATOM      5  C   UNL d   1       0.940   1.248   1.009  0.00  0.00     0.124 A 
ATOM      6  C   UNL d   1       1.239   0.555   2.157  0.00  0.00     0.185 A 
ATOM      7  N   UNL d   1       1.193  -0.762   1.805  0.00  0.00    -0.278 N 
ATOM      8  N   UNL d   1       0.875  -0.974   0.513  0.00  0.00    -0.301 N 
ATOM      9  H   UNL d   1       1.367  -1.562   2.404  0.00  0.00     0.189 HD
ATOM     10  C   UNL d   1       0.712   0.264   0.015  0.00  0.00     0.054 A 
ATOM     11  HN  UNL d   1       0.781  -1.866   0.027  1.00  0.00     0.186 HD
ATOM     12  C   UNL d   1       0.329   0.436  -1.407  0.00  0.00     0.072 C 
BRANCH   6  13
ATOM     13  O   UNL d   1       1.531   0.931   3.397  0.00  0.00    -0.343 OA
ATOM     14  H   UNL d   1       1.523   1.908   3.395  0.00  0.00     0.219 HD
ENDBRANCH   6  13
ENDBRANCH   1   5
BRANCH   3  15
ATOM     15  C   UNL d   1       0.979   4.537  -0.177  0.00  0.00     0.048 A 
ATOM     16  C   UNL d   1       1.786   5.236  -1.081  0.00  0.00     0.031 A 
ATOM     17  C   UNL d   1       1.750   6.634  -1.151  0.00  0.00     0.009 A 
ATOM     18  C   UNL d   1       0.898   7.362  -0.316  0.00  0.00    -0.062 A 
ATOM     19  C   UNL d   1       0.081   6.673   0.585  0.00  0.00     0.009 A 
ATOM     20  C   UNL d   1       0.859   8.860  -0.404  0.00  0.00     0.048 C 
ATOM     21  C   UNL d   1       0.118   5.275   0.649  0.00  0.00     0.031 A 
ENDBRANCH   3  15
TORSDOF 3
