REMARK  4 active torsions:
REMARK  status: ('A' for Active; 'I' for Inactive)
REMARK    1  A    between atoms: C_4  and  C_1 
REMARK    2  A    between atoms: C_3  and  C_2 
REMARK    3  A    between atoms: O_14  and  C_4 
REMARK    4  A    between atoms: C_16  and  O_14 
ROOT
ATOM      1  C   UNL d   1      -0.194  -1.098   0.343  0.00  0.00     0.102 A 
ATOM      2  C   UNL d   1      -1.472  -0.559   0.421  0.00  0.00     0.145 A 
ATOM      3  O   UNL d   1      -1.400   0.769   0.088  0.00  0.00    -0.234 OA
ATOM      4  N   UNL d   1      -0.102   1.146  -0.137  0.00  0.00    -0.264 N 
ATOM      5  HN  UNL d   1       0.236   2.075  -0.388  1.00  0.00     0.194 HD
ATOM      6  C   UNL d   1       0.626   0.043   0.042  0.00  0.00     0.048 A 
ATOM      7  C   UNL d   1       2.106   0.123  -0.068  0.00  0.00     0.071 C 
ENDROOT
BRANCH   1   8
ATOM      8  C   UNL d   1       0.336  -2.437   0.540  0.00  0.00     0.303 C 
ATOM      9  O   UNL d   1       1.547  -2.641   0.508  0.00  0.00    -0.259 OA
BRANCH   8  10
ATOM     10  O   UNL d   1      -0.607  -3.438   0.746  0.00  0.00    -0.275 OA
BRANCH  10  11
ATOM     11  C   UNL d   1      -0.318  -4.790   1.065  0.00  0.00     0.079 A 
ATOM     12  C   UNL d   1      -1.407  -5.528   1.540  0.00  0.00     0.039 A 
ATOM     13  C   UNL d   1      -1.240  -6.865   1.910  0.00  0.00     0.026 A 
ATOM     14  C   UNL d   1       0.015  -7.460   1.799  0.00  0.00     0.034 A 
ATOM     15  C   UNL d   1       1.098  -6.732   1.310  0.00  0.00     0.026 A 
ATOM     16 CL   UNL d   1       0.228  -9.102   2.265  0.00  0.00    -0.084 Cl
ATOM     17  C   UNL d   1       0.932  -5.395   0.934  0.00  0.00     0.039 A 
ENDBRANCH  10  11
ENDBRANCH   8  10
ENDBRANCH   1   8
BRANCH   2  18
ATOM     18  C   UNL d   1      -2.789  -1.131   0.831  0.00  0.00     0.094 A 
ATOM     19  N   UNL d   1      -2.990  -2.375   1.267  0.00  0.00    -0.258 N 
ATOM     20  O   UNL d   1      -4.323  -2.449   1.626  0.00  0.00    -0.242 OA
ATOM     21  HN  UNL d   1      -2.298  -3.123   1.325  1.00  0.00     0.195 HD
ATOM     22  C   UNL d   1      -4.917  -1.246   1.405  0.00  0.00     0.074 A 
ATOM     23  C   UNL d   1      -3.993  -0.382   0.876  0.00  0.00     0.068 A 
ATOM     24  C   UNL d   1      -6.334  -1.127   1.796  0.00  0.00     0.079 C 
ENDBRANCH   2  18
TORSDOF 4
