REMARK  3 active torsions:
REMARK  status: ('A' for Active; 'I' for Inactive)
REMARK    1  A    between atoms: C_7  and  C_3 
REMARK    2  A    between atoms: C_10  and  C_4 
REMARK    3  A    between atoms: O_22  and  C_19 
ROOT
ATOM      1  N   UNL d   1       1.405  -0.602  -0.029  0.00  0.00    -0.349 N 
ATOM      2  HN  UNL d   1       2.291  -1.106  -0.052  1.00  0.00     0.166 HD
ATOM      3  C   UNL d   1       0.214  -1.172  -0.032  0.00  0.00     0.085 A 
ATOM      4  C   UNL d   1       1.284   0.781   0.011  0.00  0.00     0.050 A 
ATOM      5  S   UNL d   1      -1.111  -0.070   0.051  0.00  0.00    -0.081 SA
ATOM      6  C   UNL d   1      -0.018   1.243   0.046  0.00  0.00     0.082 A 
ENDROOT
BRANCH   3   7
ATOM      7  C   UNL d   1      -0.015  -2.627  -0.062  0.00  0.00     0.001 A 
ATOM      8  C   UNL d   1      -1.132  -3.193  -0.703  0.00  0.00     0.054 A 
ATOM      9  C   UNL d   1      -1.266  -4.566  -0.698  0.00  0.00     0.105 A 
ATOM     10  O   UNL d   1      -2.280  -5.263  -1.280  0.00  0.00    -0.323 OA
ATOM     11  C   UNL d   1      -0.349  -5.386  -0.087  0.00  0.00     0.105 A 
ATOM     12  C   UNL d   1      -1.873  -6.618  -0.998  0.00  0.00     0.352 A 
ATOM     13  O   UNL d   1      -0.671  -6.701  -0.204  0.00  0.00    -0.323 OA
ATOM     14  C   UNL d   1       0.760  -4.877   0.551  0.00  0.00     0.040 A 
ATOM     15  C   UNL d   1       0.927  -3.487   0.553  0.00  0.00     0.017 A 
ENDBRANCH   3   7
BRANCH   4  16
ATOM     16  C   UNL d   1       2.450   1.656  -0.032  0.00  0.00    -0.009 A 
ATOM     17  C   UNL d   1       3.616   1.232  -0.684  0.00  0.00     0.016 A 
ATOM     18  C   UNL d   1       4.733   2.073  -0.780  0.00  0.00     0.037 A 
ATOM     19  C   UNL d   1       4.700   3.345  -0.212  0.00  0.00     0.068 A 
ATOM     20  C   UNL d   1       3.545   3.772   0.443  0.00  0.00     0.037 A 
ATOM     21  C   UNL d   1       2.432   2.933   0.544  0.00  0.00     0.016 A 
BRANCH  19  22
ATOM     22  O   UNL d   1       5.708   4.268  -0.264  0.00  0.00    -0.356 OA
ATOM     23  C   UNL d   1       7.022   3.741  -0.397  0.00  0.00     0.210 C 
ENDBRANCH  19  22
ENDBRANCH   4  16
TORSDOF 3
