REMARK  9 active torsions:
REMARK  status: ('A' for Active; 'I' for Inactive)
REMARK    1  A    between atoms: C_8  and  C_1 
REMARK    2  A    between atoms: C_12  and  C_1 
REMARK    3  A    between atoms: C_2  and  C_5 
REMARK    4  A    between atoms: C_3  and  C_9 
REMARK    5  A    between atoms: C_4  and  C_17 
REMARK    6  A    between atoms: C_13  and  C_8 
REMARK    7  A    between atoms: C_10  and  N_20 
REMARK    8  A    between atoms: N_20  and  C_11 
REMARK    9  A    between atoms: N_14  and  C_12 
ROOT
ATOM      1  C   UNL d   1       1.096  -0.003   0.026  0.00  0.00     0.092 C 
ATOM      2  C   UNL d   1       0.478   1.028  -0.575  0.00  0.00     0.115 C 
ENDROOT
BRANCH   2   3
ATOM      3  N   UNL d   1      -0.848   1.367  -0.596  0.00  0.00    -0.351 N 
ATOM      4  H   UNL d   1      -1.488   0.786  -0.051  0.00  0.00     0.166 HD
BRANCH   3   5
ATOM      5  C   UNL d   1      -1.475   2.485  -1.148  0.00  0.00     0.106 A 
ATOM      6  N   UNL d   1      -2.778   2.638  -0.839  0.00  0.00    -0.339 N 
ATOM      7  C   UNL d   1      -3.470   3.701  -1.344  0.00  0.00     0.118 A 
ATOM      8  HN  UNL d   1      -3.244   1.964  -0.231  1.00  0.00     0.167 HD
ATOM      9  C   UNL d   1      -2.870   4.635  -2.186  0.00  0.00     0.050 A 
ATOM     10  C   UNL d   1      -1.523   4.483  -2.512  0.00  0.00     0.053 A 
ATOM     11  C   UNL d   1      -0.827   3.394  -1.973  0.00  0.00     0.064 A 
BRANCH   7  12
ATOM     12  C   UNL d   1      -4.943   3.872  -0.993  0.00  0.00     0.432 C 
ATOM     13  F   UNL d   1      -5.436   2.932  -0.140  0.00  0.00    -0.165 F 
ATOM     14  F   UNL d   1      -5.197   5.078  -0.404  0.00  0.00    -0.165 F 
ATOM     15  F   UNL d   1      -5.745   3.833  -2.097  0.00  0.00    -0.165 F 
ENDBRANCH   7  12
BRANCH  10  16
ATOM     16  C   UNL d   1      -0.811   5.443  -3.428  0.00  0.00     0.417 C 
ATOM     17  F   UNL d   1      -1.615   6.431  -3.908  0.00  0.00    -0.166 F 
ATOM     18  F   UNL d   1       0.229   6.068  -2.813  0.00  0.00    -0.166 F 
ATOM     19  F   UNL d   1      -0.286   4.822  -4.518  0.00  0.00    -0.166 F 
ENDBRANCH  10  16
ENDBRANCH   3   5
ENDBRANCH   2   3
BRANCH   1  20
ATOM     20  C   UNL d   1       0.376  -1.021   0.864  0.00  0.00     0.203 C 
ATOM     21  O   UNL d   1      -0.846  -1.136   0.813  0.00  0.00    -0.286 OA
BRANCH  20  22
ATOM     22  C   UNL d   1       1.159  -1.954   1.739  0.00  0.00     0.016 A 
ATOM     23  C   UNL d   1       2.301  -1.558   2.452  0.00  0.00     0.031 A 
ATOM     24  C   UNL d   1       3.111  -2.499   3.113  0.00  0.00     0.048 A 
ATOM     25  C   UNL d   1       2.687  -3.832   3.168  0.00  0.00     0.016 A 
ATOM     26  C   UNL d   1       1.494  -4.217   2.551  0.00  0.00     0.002 A 
ATOM     27  C   UNL d   1       0.742  -3.288   1.829  0.00  0.00     0.015 A 
BRANCH  24  28
ATOM     28  C   UNL d   1       4.440  -2.095   3.714  0.00  0.00     0.417 C 
ATOM     29  F   UNL d   1       4.748  -0.785   3.518  0.00  0.00    -0.166 F 
ATOM     30  F   UNL d   1       4.487  -2.295   5.058  0.00  0.00    -0.166 F 
ATOM     31  F   UNL d   1       5.479  -2.807   3.193  0.00  0.00    -0.166 F 
ENDBRANCH  24  28
ENDBRANCH  20  22
ENDBRANCH   1  20
BRANCH   1  32
ATOM     32  C   UNL d   1       2.616  -0.003   0.026  0.00  0.00    -0.032 C 
BRANCH  32  33
ATOM     33  N   UNL d   1       3.877  -0.003   0.026  0.00  0.00    -0.365 N 
ATOM     34  HN2 UNL d   1       2.857  -0.003   0.026  1.00  0.00     0.165 HD
ATOM     35  HN1 UNL d   1       4.897  -0.003   0.026  1.00  0.00     0.165 HD
ENDBRANCH  32  33
ENDBRANCH   1  32
TORSDOF 9
