REMARK  2 active torsions:
REMARK  status: ('A' for Active; 'I' for Inactive)
REMARK    1  A    between atoms: N_9  and  C_2 
REMARK    2  A    between atoms: C_7  and  C_3 
ROOT
ATOM      1  C   UNL d   1      -0.617   1.254   0.061  0.00  0.00     0.136 A 
ATOM      2  C   UNL d   1      -1.394   0.140   0.026  0.00  0.00     0.060 A 
ATOM      3  C   UNL d   1       0.650  -1.191   0.001  0.00  0.00     0.093 A 
ATOM      4  C   UNL d   1      -0.686  -1.132  -0.021  0.00  0.00     0.069 A 
ATOM      5  C   UNL d   1       0.874   1.191   0.022  0.00  0.00     0.312 A 
ATOM      6  O   UNL d   1       1.455  -0.047   0.022  0.00  0.00    -0.273 OA
ATOM      7  O   UNL d   1       1.578   2.201  -0.010  0.00  0.00    -0.258 OA
ATOM      8 CL   UNL d   1      -1.257   2.861   0.240  0.00  0.00    -0.075 Cl
ENDROOT
BRANCH   3   9
ATOM      9  C   UNL d   1       1.395  -2.455  -0.010  0.00  0.00     0.020 A 
ATOM     10  C   UNL d   1       1.810  -3.102   1.168  0.00  0.00     0.048 A 
ATOM     11  C   UNL d   1       2.533  -4.296   1.109  0.00  0.00     0.048 A 
ATOM     12 CL   UNL d   1       1.448  -2.457   2.733  0.00  0.00    -0.083 Cl
ATOM     13  C   UNL d   1       2.843  -4.851  -0.130  0.00  0.00     0.035 A 
ATOM     14  C   UNL d   1       2.436  -4.229  -1.308  0.00  0.00     0.025 A 
ATOM     15 CL   UNL d   1       3.737  -6.319  -0.208  0.00  0.00    -0.084 Cl
ATOM     16  C   UNL d   1       1.714  -3.034  -1.248  0.00  0.00     0.017 A 
ENDBRANCH   3   9
BRANCH   2  17
ATOM     17  N   UNL d   1      -2.803   0.068   0.034  0.00  0.00    -0.388 N 
ATOM     18  C   UNL d   1      -3.679   1.034  -0.638  0.00  0.00     0.149 C 
ATOM     19  C   UNL d   1      -3.562  -0.998   0.701  0.00  0.00     0.149 C 
ENDBRANCH   2  17
TORSDOF 2
