REMARK  7 active torsions:
REMARK  status: ('A' for Active; 'I' for Inactive)
REMARK    1  A    between atoms: C_3  and  S_1 
REMARK    2  A    between atoms: O_5  and  S_1 
REMARK    3  A    between atoms: S_2  and  C_4 
REMARK    4  A    between atoms: C_18  and  S_2 
REMARK    5  A    between atoms: C_4  and  C_10 
REMARK    6  A    between atoms: N_7  and  O_5 
REMARK    7  A    between atoms: N_19  and  C_10 
ROOT
ATOM      1  N   UNL d   1       0.791  -2.181  -1.411  0.00  0.00    -0.236 N 
ATOM      2  HN  UNL d   1       0.447  -1.605  -0.643  1.00  0.00     0.197 HD
ATOM      3  C   UNL d   1       0.477  -3.427  -1.592  0.00  0.00     0.111 C 
ENDROOT
BRANCH   1   4
ATOM      4  O   UNL d   1       1.674  -1.726  -2.418  0.00  0.00    -0.146 OA
BRANCH   4   5
ATOM      5  S   UNL d   1       1.609  -0.106  -2.724  0.00  0.00     0.320 S 
ATOM      6  O   UNL d   1       1.524   0.085  -4.161  0.00  0.00    -0.191 OA
ATOM      7  O   UNL d   1       0.623   0.521  -1.861  0.00  0.00    -0.191 OA
BRANCH   5   8
ATOM      8  C   UNL d   1       3.201   0.512  -2.228  0.00  0.00     0.110 A 
ATOM      9  C   UNL d   1       4.375   0.029  -2.801  0.00  0.00     0.059 A 
ATOM     10  C   UNL d   1       5.597   0.616  -2.455  0.00  0.00     0.050 A 
ATOM     11 CL   UNL d   1       4.426  -1.272  -3.933  0.00  0.00    -0.083 Cl
ATOM     12  C   UNL d   1       5.651   1.673  -1.539  0.00  0.00     0.041 A 
ATOM     13  C   UNL d   1       4.478   2.155  -0.940  0.00  0.00    -0.039 A 
ATOM     14 CL   UNL d   1       7.204   2.346  -1.199  0.00  0.00    -0.084 Cl
ATOM     15  C   UNL d   1       3.254   1.559  -1.294  0.00  0.00     0.036 A 
ATOM     16  C   UNL d   1       4.446   3.284   0.053  0.00  0.00     0.050 C 
ENDBRANCH   5   8
ENDBRANCH   4   5
ENDBRANCH   1   4
BRANCH   3  17
ATOM     17  C   UNL d   1      -0.492  -4.042  -0.620  0.00  0.00     0.223 C 
BRANCH  17  18
ATOM     18  S   UNL d   1       0.168  -4.160   1.014  0.00  0.00     0.182 S 
ATOM     19  O   UNL d   1      -0.848  -4.795   1.838  0.00  0.00    -0.222 OA
ATOM     20  O   UNL d   1       1.493  -4.749   0.931  0.00  0.00    -0.222 OA
BRANCH  18  21
ATOM     21  C   UNL d   1       0.332  -2.505   1.637  0.00  0.00     0.059 A 
ATOM     22  C   UNL d   1      -0.812  -1.715   1.790  0.00  0.00     0.023 A 
ATOM     23  C   UNL d   1      -0.695  -0.438   2.341  0.00  0.00     0.002 A 
ATOM     24  C   UNL d   1       0.553   0.038   2.746  0.00  0.00     0.000 A 
ATOM     25  C   UNL d   1       1.690  -0.758   2.596  0.00  0.00     0.002 A 
ATOM     26  C   UNL d   1       1.584  -2.033   2.040  0.00  0.00     0.023 A 
ENDBRANCH  18  21
ENDBRANCH  17  18
ENDBRANCH   3  17
BRANCH   3  27
ATOM     27  N   UNL d   1       0.907  -4.183  -2.654  0.00  0.00    -0.387 N 
ATOM     28  H   UNL d   1       0.375  -5.000  -2.939  0.00  0.00     0.157 HD
ATOM     29  H   UNL d   1       1.331  -3.671  -3.422  0.00  0.00     0.157 HD
ENDBRANCH   3  27
TORSDOF 7
