REMARK  3 active torsions:
REMARK  status: ('A' for Active; 'I' for Inactive)
REMARK    1  A    between atoms: C_6  and  C_2 
REMARK    2  A    between atoms: O_10  and  C_6 
REMARK    3  A    between atoms: C_12  and  O_10 
ROOT
ATOM      1  C   UNL d   1       0.041  -0.596   0.358  0.00  0.00     0.057 A 
ATOM      2  C   UNL d   1       2.298   0.284   0.296  0.00  0.00     0.088 A 
ATOM      3  S   UNL d   1       1.555  -1.263   0.531  0.00  0.00    -0.075 SA
ATOM      4  C   UNL d   1       1.338   1.308   0.133  0.00  0.00    -0.026 A 
ATOM      5  C   UNL d   1       0.032   0.739   0.184  0.00  0.00     0.002 A 
ATOM      6  S   UNL d   1      -1.466  -1.311   0.356  0.00  0.00    -0.093 SA
ATOM      7  C   UNL d   1      -1.280   1.284   0.079  0.00  0.00    -0.043 A 
ATOM      8  C   UNL d   1      -2.196   0.228   0.111  0.00  0.00     0.058 A 
ATOM      9  C   UNL d   1       1.736   2.731  -0.094  0.00  0.00     0.050 C 
ATOM     10  C   UNL d   1      -1.765   2.689  -0.045  0.00  0.00     0.049 C 
ENDROOT
BRANCH   2  11
ATOM     11  C   UNL d   1       3.758   0.409   0.250  0.00  0.00     0.306 C 
ATOM     12  O   UNL d   1       4.366   1.442  -0.023  0.00  0.00    -0.258 OA
BRANCH  11  13
ATOM     13  O   UNL d   1       4.387  -0.804   0.561  0.00  0.00    -0.275 OA
BRANCH  13  14
ATOM     14  C   UNL d   1       5.779  -1.029   0.436  0.00  0.00     0.079 A 
ATOM     15  C   UNL d   1       6.321  -1.979   1.305  0.00  0.00     0.039 A 
ATOM     16  C   UNL d   1       7.657  -2.364   1.168  0.00  0.00     0.026 A 
ATOM     17  C   UNL d   1       8.438  -1.801   0.160  0.00  0.00     0.034 A 
ATOM     18  C   UNL d   1       7.900  -0.841  -0.698  0.00  0.00     0.026 A 
ATOM     19 CL   UNL d   1      10.068  -2.315  -0.045  0.00  0.00    -0.084 Cl
ATOM     20  C   UNL d   1       6.561  -0.454  -0.566  0.00  0.00     0.039 A 
ENDBRANCH  13  14
ENDBRANCH  11  13
ENDBRANCH   2  11
TORSDOF 3
