REMARK  7 active torsions:
REMARK  status: ('A' for Active; 'I' for Inactive)
REMARK    1  A    between atoms: O_4  and  C_1 
REMARK    2  A    between atoms: C_3  and  C_2 
REMARK       I    between atoms: N_8  and  C_3 
REMARK    3  A    between atoms: C_11  and  O_4 
REMARK    4  A    between atoms: C_14  and  N_8 
REMARK    5  A    between atoms: C_9  and  S_10 
REMARK    6  A    between atoms: S_10  and  C_18 
REMARK    7  A    between atoms: C_18  and  C_14 
ROOT
ATOM      1  C   UNL d   1      -0.535   1.055   0.409  0.00  0.00     0.163 A 
ATOM      2  C   UNL d   1       0.848   1.175   0.309  0.00  0.00     0.083 A 
ATOM      3  N   UNL d   1      -1.179  -0.136   0.224  0.00  0.00    -0.346 N 
ATOM      4  HN  UNL d   1      -2.186  -0.213   0.370  1.00  0.00     0.167 HD
ATOM      5  C   UNL d   1       1.569   0.035  -0.086  0.00  0.00     0.023 A 
ATOM      6  C   UNL d   1      -0.456  -1.202  -0.155  0.00  0.00     0.090 A 
ATOM      7  C   UNL d   1       0.909  -1.162  -0.346  0.00  0.00     0.018 A 
ENDROOT
BRANCH   2   8
ATOM      8  C   UNL d   1       1.590   2.398   0.707  0.00  0.00     0.255 C 
ATOM      9  O   UNL d   1       1.182   3.119   1.603  0.00  0.00    -0.268 OA
ATOM     10  N   UNL d   1       2.799   2.604   0.062  0.00  0.00    -0.356 N 
ATOM     11  H   UNL d   1       2.928   2.222  -0.868  0.00  0.00     0.162 HD
BRANCH  10  12
ATOM     12  C   UNL d   1       3.682   3.689   0.456  0.00  0.00     0.133 C 
BRANCH  12  13
ATOM     13  C   UNL d   1       4.998   3.710  -0.332  0.00  0.00     0.094 C 
BRANCH  13  14
ATOM     14  S   UNL d   1       4.679   3.936  -2.123  0.00  0.00    -0.159 SA
BRANCH  14  15
ATOM     15  C   UNL d   1       6.392   4.065  -2.817  0.00  0.00    -0.003 C 
ATOM     16  C   UNL d   1       7.135   2.736  -2.645  0.00  0.00     0.026 C 
ATOM     17  C   UNL d   1       6.234   4.362  -4.318  0.00  0.00     0.026 C 
ATOM     18  C   UNL d   1       7.175   5.212  -2.167  0.00  0.00     0.026 C 
ENDBRANCH  14  15
ENDBRANCH  13  14
ENDBRANCH  12  13
ENDBRANCH  10  12
ENDBRANCH   2   8
BRANCH   1  19
ATOM     19  O   UNL d   1      -1.330   2.179   0.622  0.00  0.00    -0.293 OA
BRANCH  19  20
ATOM     20  C   UNL d   1      -2.602   2.147   0.068  0.00  0.00     0.077 A 
ATOM     21  C   UNL d   1      -3.666   2.627   0.829  0.00  0.00     0.037 A 
ATOM     22  C   UNL d   1      -4.972   2.541   0.336  0.00  0.00     0.003 A 
ATOM     23  C   UNL d   1      -5.214   1.980  -0.921  0.00  0.00     0.000 A 
ATOM     24  C   UNL d   1      -4.149   1.548  -1.705  0.00  0.00     0.003 A 
ATOM     25  C   UNL d   1      -2.844   1.660  -1.226  0.00  0.00     0.037 A 
ENDBRANCH  19  20
ENDBRANCH   1  19
TORSDOF 7
