REMARK  2 active torsions:
REMARK  status: ('A' for Active; 'I' for Inactive)
REMARK    1  A    between atoms: C_4  and  C_3 
REMARK    2  A    between atoms: C_12  and  C_5 
ROOT
ATOM      1  N   UNL d   1       2.219  -0.824   0.592  0.00  0.00    -0.373 N 
ATOM      2  HN  UNL d   1       3.105  -1.103   1.013  1.00  0.00     0.161 HD
ATOM      3  C   UNL d   1       1.070  -1.893   0.155  0.00  0.00     0.179 A 
ATOM      4  C   UNL d   1       1.777   0.935   0.258  0.00  0.00     0.045 A 
ATOM      5  S   UNL d   1      -0.827  -0.814  -0.922  0.00  0.00    -0.111 SA
ATOM      6  C   UNL d   1       0.254   1.183  -0.529  0.00  0.00     0.077 A 
ENDROOT
BRANCH   3   7
ATOM      7  C   UNL d   1       0.625  -3.155   0.325  0.00  0.00     0.186 C 
ATOM      8  O   UNL d   1       0.646  -3.283  -1.181  0.00  0.00    -0.338 OA
ATOM      9  C   UNL d   1       1.299  -2.200  -1.925  0.00  0.00     0.102 A 
ATOM     10  C   UNL d   1       1.845  -2.532  -3.147  0.00  0.00     0.039 A 
ATOM     11  C   UNL d   1       1.364  -0.686  -1.339  0.00  0.00     0.102 A 
ATOM     12  C   UNL d   1       2.442  -1.503  -3.882  0.00  0.00     0.003 A 
ATOM     13  C   UNL d   1       2.475  -0.154  -3.442  0.00  0.00     0.003 A 
ATOM     14  C   UNL d   1       1.950   0.288  -2.210  0.00  0.00     0.039 A 
ATOM     15  O   UNL d   1       0.471  -0.359   0.432  0.00  0.00    -0.346 OA
ATOM     16  C   UNL d   1      -0.040  -1.902   1.242  0.00  0.00     0.211 C 
ENDBRANCH   3   7
BRANCH   4  17
ATOM     17  C   UNL d   1       2.754   1.965   0.569  0.00  0.00    -0.009 A 
ATOM     18  C   UNL d   1       4.058   1.565   0.892  0.00  0.00     0.015 A 
ATOM     19  C   UNL d   1       5.053   2.510   1.141  0.00  0.00     0.024 A 
ATOM     20  C   UNL d   1       4.743   3.864   1.071  0.00  0.00     0.034 A 
ATOM     21  C   UNL d   1       3.448   4.277   0.755  0.00  0.00     0.024 A 
ATOM     22 CL   UNL d   1       5.967   5.035   1.370  0.00  0.00    -0.084 Cl
ATOM     23  C   UNL d   1       2.451   3.327   0.502  0.00  0.00     0.015 A 
ENDBRANCH   4  17
TORSDOF 2
