REMARK  6 active torsions:
REMARK  status: ('A' for Active; 'I' for Inactive)
REMARK    1  A    between atoms: C_7  and  C_1 
REMARK    2  A    between atoms: N_12  and  C_2 
REMARK    3  A    between atoms: O_15  and  C_7 
REMARK    4  A    between atoms: C_16  and  N_12 
REMARK    5  A    between atoms: C_13  and  C_16 
REMARK    6  A    between atoms: C_18  and  O_15 
ROOT
ATOM      1  C   UNL d   1      -0.740   1.412  -0.014  0.00  0.00     0.084 A 
ATOM      2  C   UNL d   1      -1.455   0.218   0.047  0.00  0.00     0.118 A 
ATOM      3  N   UNL d   1      -0.799  -0.974   0.060  0.00  0.00    -0.344 N 
ATOM      4  HN  UNL d   1      -1.331  -1.842   0.107  1.00  0.00     0.167 HD
ATOM      5  C   UNL d   1       0.666   1.356  -0.074  0.00  0.00     0.046 A 
ATOM      6  C   UNL d   1       1.335   0.133  -0.055  0.00  0.00     0.068 A 
ATOM      7  C   UNL d   1       0.564  -1.020   0.011  0.00  0.00     0.027 A 
ATOM      8  N   UNL d   1       3.927   0.094  -0.092  0.00  0.00    -0.191 NA
ATOM      9  C   UNL d   1       2.765   0.109  -0.081  0.00  0.00     0.101 C 
ATOM     10  C   UNL d   1       1.152  -2.403   0.024  0.00  0.00     0.070 C 
ENDROOT
BRANCH   1  11
ATOM     11  C   UNL d   1      -1.302   2.778   0.003  0.00  0.00     0.297 C 
ATOM     12  O   UNL d   1      -0.832   3.682  -0.675  0.00  0.00    -0.259 OA
BRANCH  11  13
ATOM     13  O   UNL d   1      -2.238   2.914   0.968  0.00  0.00    -0.318 OA
BRANCH  13  14
ATOM     14  C   UNL d   1      -2.589   4.263   1.318  0.00  0.00     0.174 C 
ATOM     15  C   UNL d   1      -3.766   4.773   0.507  0.00  0.00     0.034 C 
ENDBRANCH  13  14
ENDBRANCH  11  13
ENDBRANCH   1  11
BRANCH   2  16
ATOM     16  N   UNL d   1      -2.817   0.040   0.137  0.00  0.00    -0.372 N 
ATOM     17  H   UNL d   1      -2.994  -0.960   0.121  0.00  0.00     0.161 HD
BRANCH  16  18
ATOM     18  C   UNL d   1      -3.757   0.842  -0.616  0.00  0.00     0.147 C 
BRANCH  18  19
ATOM     19  C   UNL d   1      -4.923   0.017  -1.090  0.00  0.00    -0.018 C 
ATOM     20  C   UNL d   1      -4.912  -1.243  -1.551  0.00  0.00     0.008 C 
ENDBRANCH  18  19
ENDBRANCH  16  18
ENDBRANCH   2  16
TORSDOF 6
