REMARK  5 active torsions:
REMARK  status: ('A' for Active; 'I' for Inactive)
REMARK    1  A    between atoms: O_13  and  C_5 
REMARK    2  A    between atoms: C_12  and  C_7 
REMARK    3  A    between atoms: O_22  and  C_12 
REMARK    4  A    between atoms: C_14  and  O_13 
REMARK    5  A    between atoms: C_26  and  O_22 
ROOT
ATOM      1  C   UNL d   1       0.139  -0.743  -0.040  0.00  0.00     0.068 A 
ATOM      2  C   UNL d   1       0.126   0.644  -0.062  0.00  0.00     0.137 A 
ATOM      3  N   UNL d   1       2.305   0.000  -0.181  0.00  0.00    -0.301 N 
ATOM      4  HN  UNL d   1       3.322   0.037  -0.248  1.00  0.00     0.187 HD
ATOM      5  C   UNL d   1      -1.090  -1.429   0.070  0.00  0.00     0.109 C 
ATOM      6  N   UNL d   1       1.436   1.033  -0.133  0.00  0.00    -0.280 N 
ATOM      7  C   UNL d   1      -2.226  -0.624   0.267  0.00  0.00     0.089 C 
ATOM      8  C   UNL d   1       1.519  -1.084  -0.119  0.00  0.00     0.039 A 
ATOM      9  N   UNL d   1      -0.952   1.449   0.001  0.00  0.00    -0.349 N 
ATOM     10  HN  UNL d   1      -0.904   2.465  -0.073  1.00  0.00     0.167 HD
ATOM     11  C   UNL d   1      -2.106   0.762   0.175  0.00  0.00     0.110 C 
ATOM     12  C   UNL d   1       1.940   2.382  -0.088  0.00  0.00     0.179 C 
ATOM     13  C   UNL d   1       2.123  -2.439  -0.096  0.00  0.00     0.071 C 
ENDROOT
BRANCH   5  14
ATOM     14  O   UNL d   1      -1.031  -2.801   0.082  0.00  0.00    -0.309 OA
BRANCH  14  15
ATOM     15  C   UNL d   1      -2.019  -3.567  -0.492  0.00  0.00     0.079 A 
ATOM     16  C   UNL d   1      -2.808  -3.187  -1.578  0.00  0.00     0.061 A 
ATOM     17  C   UNL d   1      -3.862  -4.011  -1.978  0.00  0.00     0.038 A 
ATOM     18 CL   UNL d   1      -4.912  -3.494  -3.240  0.00  0.00    -0.084 Cl
ATOM     19  C   UNL d   1      -4.093  -5.234  -1.352  0.00  0.00     0.048 A 
ATOM     20  C   UNL d   1      -3.247  -5.642  -0.327  0.00  0.00     0.038 A 
ATOM     21  C   UNL d   1      -2.208  -4.819   0.102  0.00  0.00     0.061 A 
ATOM     22 CL   UNL d   1      -3.502  -7.160   0.441  0.00  0.00    -0.084 Cl
ENDBRANCH  14  15
ENDBRANCH   5  14
BRANCH   7  23
ATOM     23  C   UNL d   1      -3.572  -1.111   0.606  0.00  0.00     0.297 C 
ATOM     24  O   UNL d   1      -4.588  -0.635   0.134  0.00  0.00    -0.259 OA
BRANCH  23  25
ATOM     25  O   UNL d   1      -3.487  -2.072   1.555  0.00  0.00    -0.318 OA
BRANCH  25  26
ATOM     26  C   UNL d   1      -4.740  -2.633   1.975  0.00  0.00     0.174 C 
ATOM     27  C   UNL d   1      -5.291  -1.831   3.137  0.00  0.00     0.034 C 
ENDBRANCH  25  26
ENDBRANCH  23  25
ENDBRANCH   7  23
TORSDOF 5
