REMARK  3 active torsions:
REMARK  status: ('A' for Active; 'I' for Inactive)
REMARK    1  A    between atoms: C_5  and  C_1 
REMARK    2  A    between atoms: N_6  and  C_10 
REMARK    3  A    between atoms: N_13  and  C_9 
ROOT
ATOM      1  C   UNL d   1       0.291   2.056   1.222  0.00  0.00    -0.013 A 
ATOM      2  C   UNL d   1       0.199   1.427   2.480  0.00  0.00     0.040 A 
ATOM      3  C   UNL d   1       0.694   3.411   1.163  0.00  0.00     0.011 A 
ATOM      4  C   UNL d   1       0.582   2.158   3.620  0.00  0.00     0.030 A 
ATOM      5  C   UNL d   1       1.024   4.127   2.313  0.00  0.00     0.001 A 
ATOM      6  C   UNL d   1       0.978   3.493   3.544  0.00  0.00     0.002 A 
ENDROOT
BRANCH   1   7
ATOM      7  C   UNL d   1       0.079   1.368  -0.109  0.00  0.00     0.154 A 
ATOM      8  C   UNL d   1       1.358   0.880  -0.744  0.00  0.00     0.249 A 
ATOM      9  N   UNL d   1       1.105  -0.442  -1.083  0.00  0.00    -0.270 N 
ATOM     10  O   UNL d   1       2.383   1.506  -0.968  0.00  0.00    -0.271 OA
ATOM     11  N   UNL d   1      -0.138  -0.896  -0.733  0.00  0.00    -0.312 N 
ATOM     12  H   UNL d   1       1.780  -1.051  -1.528  0.00  0.00     0.190 HD
ATOM     13  C   UNL d   1      -0.724   0.102  -0.145  0.00  0.00     0.099 A 
ATOM     14  HN  UNL d   1      -0.523  -1.826  -0.899  1.00  0.00     0.185 HD
ENDBRANCH   1   7
BRANCH   2  15
ATOM     15  N   UNL d   1      -0.203   0.078   2.582  0.00  0.00    -0.352 N 
ATOM     16  C   UNL d   1      -0.913  -0.290   3.599  0.00  0.00     0.178 C 
ATOM     17  HN  UNL d   1       0.062  -0.596   1.864  1.00  0.00     0.166 HD
BRANCH  16  18
ATOM     18  N   UNL d   1      -1.370  -1.556   3.888  0.00  0.00    -0.386 N 
ATOM     19  C   UNL d   1      -1.067  -2.689   3.026  0.00  0.00     0.149 C 
ATOM     20  C   UNL d   1      -1.855  -1.896   5.218  0.00  0.00     0.149 C 
ENDBRANCH  16  18
ENDBRANCH   2  15
TORSDOF 3
