REMARK  2 active torsions:
REMARK  status: ('A' for Active; 'I' for Inactive)
REMARK    1  A    between atoms: C_2  and  S_1 
REMARK    2  A    between atoms: N_3  and  S_1 
ROOT
ATOM      1  S   UNL d   1       1.175   0.085   0.021  0.00  0.00     0.262 S 
ATOM      2  O   UNL d   1       0.262  -0.805   0.699  0.00  0.00    -0.200 OA
ATOM      3  O   UNL d   1       2.575  -0.280  -0.117  0.00  0.00    -0.200 OA
ENDROOT
BRANCH   1   4
ATOM      4  C   UNL d   1       1.121   1.654   0.845  0.00  0.00     0.102 A 
ATOM      5  C   UNL d   1       2.330   2.164   1.351  0.00  0.00     0.050 A 
ATOM      6  C   UNL d   1       2.350   3.390   2.009  0.00  0.00     0.035 A 
ATOM      7 CL   UNL d   1       3.838   4.026   2.588  0.00  0.00    -0.084 Cl
ATOM      8  C   UNL d   1       1.172   4.108   2.190  0.00  0.00     0.025 A 
ATOM      9  C   UNL d   1      -0.031   3.599   1.694  0.00  0.00     0.027 A 
ATOM     10  C   UNL d   1      -0.065   2.372   1.014  0.00  0.00     0.057 A 
ATOM     11 CL   UNL d   1      -1.594   1.867   0.400  0.00  0.00    -0.083 Cl
ENDBRANCH   1   4
BRANCH   1  12
ATOM     12  N   UNL d   1       0.614   0.362  -1.559  0.00  0.00    -0.302 N 
ATOM     13  C   UNL d   1       1.179   1.551  -2.247  0.00  0.00     0.174 C 
ATOM     14  C   UNL d   1       1.301   1.462  -3.747  0.00  0.00    -0.033 A 
ATOM     15  C   UNL d   1       1.234   2.611  -4.545  0.00  0.00     0.009 A 
ATOM     16  C   UNL d   1       1.603   0.225  -4.335  0.00  0.00    -0.049 A 
ATOM     17  C   UNL d   1       1.474   2.526  -5.916  0.00  0.00     0.001 A 
ATOM     18  C   UNL d   1       1.796   1.299  -6.494  0.00  0.00     0.001 A 
ATOM     19  C   UNL d   1       1.862   0.148  -5.707  0.00  0.00     0.008 A 
ATOM     20  C   UNL d   1       1.658  -0.976  -3.432  0.00  0.00     0.060 C 
ATOM     21  C   UNL d   1       0.535  -0.881  -2.395  0.00  0.00     0.140 C 
ENDBRANCH   1  12
TORSDOF 2
