REMARK  3 active torsions:
REMARK  status: ('A' for Active; 'I' for Inactive)
REMARK    1  A    between atoms: S_2  and  N_1 
REMARK    2  A    between atoms: C_6  and  C_3 
REMARK    3  A    between atoms: C_7  and  C_9 
ROOT
ATOM      1  N   UNL d   1       0.914  -0.656  -0.002  0.00  0.00    -0.182 N 
ATOM      2  C   UNL d   1      -0.418  -1.064   0.015  0.00  0.00     0.069 A 
ATOM      3  N   UNL d   1       1.056   0.703  -0.008  0.00  0.00    -0.295 N 
ATOM      4  HN  UNL d   1       1.919   1.245  -0.021  1.00  0.00     0.187 HD
ATOM      5  C   UNL d   1      -1.145   0.115   0.027  0.00  0.00     0.051 A 
ATOM      6  C   UNL d   1      -0.199   1.152   0.008  0.00  0.00     0.111 A 
ENDROOT
BRANCH   2   7
ATOM      7  C   UNL d   1      -0.797  -2.435   0.017  0.00  0.00     0.034 C 
ATOM      8  C   UNL d   1      -1.991  -2.828   0.492  0.00  0.00     0.021 C 
BRANCH   8   9
ATOM      9  C   UNL d   1      -2.372  -4.204   0.504  0.00  0.00     0.004 A 
ATOM     10  S   UNL d   1      -4.046  -4.616   0.556  0.00  0.00    -0.102 SA
ATOM     11  C   UNL d   1      -3.719  -6.291   0.528  0.00  0.00     0.050 A 
ATOM     12  C   UNL d   1      -2.370  -6.552   0.505  0.00  0.00     0.008 A 
ATOM     13  C   UNL d   1      -1.598  -5.354   0.496  0.00  0.00     0.019 A 
ENDBRANCH   8   9
ENDBRANCH   2   7
BRANCH   1  14
ATOM     14  S   UNL d   1       2.267  -1.735  -0.016  0.00  0.00     0.246 S 
ATOM     15  O   UNL d   1       2.145  -2.514   1.203  0.00  0.00    -0.204 OA
ATOM     16  O   UNL d   1       2.225  -2.367  -1.323  0.00  0.00    -0.204 OA
ATOM     17  C   UNL d   1       3.738  -0.754   0.090  0.00  0.00     0.188 C 
ENDBRANCH   1  14
TORSDOF 3
