REMARK  3 active torsions:
REMARK  status: ('A' for Active; 'I' for Inactive)
REMARK    1  A    between atoms: C_9  and  C_3 
REMARK    2  A    between atoms: C_10  and  C_8 
REMARK    3  A    between atoms: O_15  and  C_9 
ROOT
ATOM      1  C   UNL d   1      -0.017  -0.643   0.026  0.00  0.00     0.058 A 
ATOM      2  C   UNL d   1      -0.021   0.699   0.016  0.00  0.00     0.003 A 
ATOM      3  C   UNL d   1      -2.278   0.216   0.017  0.00  0.00     0.086 A 
ATOM      4  C   UNL d   1      -1.332   1.261   0.053  0.00  0.00    -0.025 A 
ATOM      5  C   UNL d   1       1.287   1.265  -0.032  0.00  0.00    -0.029 A 
ATOM      6  S   UNL d   1      -1.524  -1.343   0.025  0.00  0.00    -0.075 SA
ATOM      7  S   UNL d   1       1.493  -1.334   0.038  0.00  0.00    -0.078 SA
ATOM      8  C   UNL d   1       2.240   0.223  -0.024  0.00  0.00     0.058 A 
ATOM      9  C   UNL d   1       1.686   2.706  -0.104  0.00  0.00     0.050 C 
ATOM     10  C   UNL d   1      -1.739   2.698   0.120  0.00  0.00     0.050 C 
ENDROOT
BRANCH   3  11
ATOM     11  C   UNL d   1      -3.736   0.321  -0.021  0.00  0.00     0.183 C 
ATOM     12  O   UNL d   1      -4.380   1.358  -0.040  0.00  0.00    -0.646 OA
BRANCH  11  13
ATOM     13  O   UNL d   1      -4.359  -0.889  -0.041  0.00  0.00    -0.772 OA
ATOM     14  H   UNL d   1      -3.719  -1.626  -0.028  0.00  0.00     0.167 HD
ENDBRANCH  11  13
ENDBRANCH   3  11
BRANCH   8  15
ATOM     15  C   UNL d   1       3.702   0.347  -0.036  0.00  0.00     0.163 C 
ATOM     16  O   UNL d   1       4.272   1.405   0.243  0.00  0.00    -0.292 OA
ATOM     17  C   UNL d   1       4.567  -0.841  -0.399  0.00  0.00     0.097 C 
ENDBRANCH   8  15
TORSDOF 3
