REMARK  4 active torsions:
REMARK  status: ('A' for Active; 'I' for Inactive)
REMARK    1  A    between atoms: S_9  and  C_2 
REMARK    2  A    between atoms: C_12  and  S_9 
REMARK    3  A    between atoms: C_10  and  C_12 
REMARK    4  A    between atoms: O_13  and  C_10 
ROOT
ATOM      1  S   UNL d   1       1.695  -0.875  -0.099  0.00  0.00    -0.045 SA
ATOM      2  C   UNL d   1       2.115   0.774   0.092  0.00  0.00     0.115 A 
ATOM      3  N   UNL d   1       1.121   1.636   0.196  0.00  0.00    -0.343 N 
ATOM      4  HN  UNL d   1       1.215   2.643   0.329  1.00  0.00     0.167 HD
ATOM      5  C   UNL d   1       0.051  -0.442  -0.045  0.00  0.00     0.103 A 
ATOM      6  C   UNL d   1      -0.077   0.938   0.094  0.00  0.00     0.067 A 
ATOM      7  N   UNL d   1      -0.944  -1.347  -0.133  0.00  0.00    -0.358 N 
ATOM      8  HN  UNL d   1      -0.783  -2.349  -0.233  1.00  0.00     0.166 HD
ATOM      9  C   UNL d   1      -1.382   1.459   0.131  0.00  0.00     0.034 A 
ATOM     10  C   UNL d   1      -2.176  -0.795  -0.076  0.00  0.00     0.089 A 
ATOM     11  C   UNL d   1      -2.447   0.561   0.045  0.00  0.00     0.019 A 
ENDROOT
BRANCH   2  12
ATOM     12  S   UNL d   1       3.784   1.296   0.180  0.00  0.00    -0.094 SA
BRANCH  12  13
ATOM     13  C   UNL d   1       3.618   2.963   0.858  0.00  0.00     0.191 C 
BRANCH  13  14
ATOM     14  C   UNL d   1       3.154   2.935   2.294  0.00  0.00     0.149 C 
ATOM     15  O   UNL d   1       3.909   2.975   3.257  0.00  0.00    -0.649 OA
BRANCH  14  16
ATOM     16  O   UNL d   1       1.810   2.873   2.444  0.00  0.00    -0.776 OA
ATOM     17  H   UNL d   1       1.342   2.717   1.590  0.00  0.00     0.167 HD
ENDBRANCH  14  16
ENDBRANCH  13  14
ENDBRANCH  12  13
ENDBRANCH   2  12
TORSDOF 4
