REMARK  7 active torsions:
REMARK  status: ('A' for Active; 'I' for Inactive)
REMARK    1  A    between atoms: C_2  and  S_1 
REMARK    2  A    between atoms: C_9  and  S_1 
REMARK    3  A    between atoms: C_3  and  C_2 
REMARK       I    between atoms: N_7  and  C_3 
REMARK    4  A    between atoms: C_4  and  C_8 
REMARK    5  A    between atoms: O_15  and  C_4 
REMARK    6  A    between atoms: C_14  and  N_7 
REMARK    7  A    between atoms: C_20  and  O_15 
ROOT
ATOM      1  C   UNL d   1       1.931  -1.772  -4.106  0.00  0.00     0.039 A 
ATOM      2  C   UNL d   1       1.648  -3.104  -3.778  0.00  0.00     0.020 A 
ATOM      3  C   UNL d   1       2.008  -0.839  -3.067  0.00  0.00     0.020 A 
ATOM      4  C   UNL d   1       1.460  -2.564  -1.402  0.00  0.00     0.034 A 
ATOM      5  C   UNL d   1       1.776  -1.238  -1.728  0.00  0.00     0.030 A 
ATOM      6  C   UNL d   1       1.417  -3.496  -2.452  0.00  0.00     0.030 A 
ENDROOT
BRANCH   4   7
ATOM      7  N   UNL d   1       1.145  -3.036  -0.092  0.00  0.00    -0.326 N 
ATOM      8  C   UNL d   1       1.110  -2.294   1.068  0.00  0.00     0.236 C 
ATOM      9  O   UNL d   1       1.405  -1.093   1.122  0.00  0.00    -0.272 OA
ATOM     10  H   UNL d   1       0.908  -4.023  -0.036  0.00  0.00     0.169 HD
BRANCH   8  11
ATOM     11  C   UNL d   1       0.602  -2.900   2.353  0.00  0.00     0.243 C 
BRANCH  11  12
ATOM     12  S   UNL d   1       0.663  -4.649   2.519  0.00  0.00     0.156 S 
ATOM     13  O   UNL d   1       2.046  -5.071   2.396  0.00  0.00    -0.227 OA
ATOM     14  O   UNL d   1      -0.335  -5.186   1.613  0.00  0.00    -0.227 OA
BRANCH  12  15
ATOM     15  C   UNL d   1       0.113  -4.949   4.228  0.00  0.00     0.101 C 
ATOM     16  C   UNL d   1      -0.061  -6.444   4.492  0.00  0.00     0.026 C 
ATOM     17  C   UNL d   1       1.077  -4.357   5.254  0.00  0.00     0.026 C 
ENDBRANCH  12  15
ENDBRANCH  11  12
ENDBRANCH   8  11
ENDBRANCH   4   7
BRANCH   1  18
ATOM     18  C   UNL d   1       2.082  -1.425  -5.550  0.00  0.00     0.293 C 
ATOM     19  O   UNL d   1       1.911  -2.247  -6.435  0.00  0.00    -0.259 OA
BRANCH  18  20
ATOM     20  O   UNL d   1       2.381  -0.113  -5.741  0.00  0.00    -0.318 OA
BRANCH  20  21
ATOM     21  C   UNL d   1       2.346   0.325  -7.117  0.00  0.00     0.174 C 
ATOM     22  C   UNL d   1       3.650   0.035  -7.842  0.00  0.00     0.034 C 
ENDBRANCH  20  21
ENDBRANCH  18  20
ENDBRANCH   1  18
TORSDOF 7
