REMARK  5 active torsions:
REMARK  status: ('A' for Active; 'I' for Inactive)
REMARK    1  A    between atoms: C_8  and  C_1 
REMARK    2  A    between atoms: S_12  and  C_5 
REMARK    3  A    between atoms: C_14  and  C_7 
REMARK    4  A    between atoms: O_13  and  C_8 
REMARK    5  A    between atoms: O_15  and  C_14 
ROOT
ATOM      1  C   UNL d   1      -0.734   1.316  -0.018  0.00  0.00     0.065 A 
ATOM      2  C   UNL d   1      -0.807  -1.130  -0.020  0.00  0.00     0.079 A 
ATOM      3  N   UNL d   1       1.300   0.008  -0.051  0.00  0.00    -0.350 N 
ATOM      4  HN  UNL d   1       2.319  -0.032  -0.071  1.00  0.00     0.166 HD
ATOM      5  C   UNL d   1       0.577  -1.137  -0.035  0.00  0.00     0.088 A 
ATOM      6  C   UNL d   1      -1.457   0.108  -0.016  0.00  0.00     0.045 A 
ATOM      7  C   UNL d   1       0.660   1.222  -0.039  0.00  0.00     0.050 A 
ATOM      8  C   UNL d   1      -1.580  -2.331  -0.006  0.00  0.00     0.102 C 
ATOM      9  N   UNL d   1      -2.237  -3.288   0.003  0.00  0.00    -0.191 NA
ENDROOT
BRANCH   5  10
ATOM     10  S   UNL d   1       1.564  -2.609  -0.015  0.00  0.00    -0.124 SA
ATOM     11  H   UNL d   1       2.731  -1.949  -0.007  0.00  0.00     0.108 HD
ENDBRANCH   5  10
BRANCH   1  12
ATOM     12  C   UNL d   1      -1.563   2.554  -0.005  0.00  0.00     0.295 C 
ATOM     13  O   UNL d   1      -2.785   2.510  -0.027  0.00  0.00    -0.259 OA
BRANCH  12  14
ATOM     14  O   UNL d   1      -0.835   3.688   0.010  0.00  0.00    -0.322 OA
ATOM     15  C   UNL d   1      -1.616   4.887   0.001  0.00  0.00     0.213 C 
ENDBRANCH  12  14
ENDBRANCH   1  12
BRANCH   7  16
ATOM     16  C   UNL d   1       1.618   2.387   0.031  0.00  0.00     0.225 C 
BRANCH  16  17
ATOM     17  O   UNL d   1       1.802   2.861   1.369  0.00  0.00    -0.390 OA
ATOM     18  C   UNL d   1       2.521   1.940   2.186  0.00  0.00     0.201 C 
ENDBRANCH  16  17
ENDBRANCH   7  16
TORSDOF 5
