REMARK  3 active torsions:
REMARK  status: ('A' for Active; 'I' for Inactive)
REMARK    1  A    between atoms: N_2  and  S_1 
REMARK    2  A    between atoms: C_9  and  S_1 
REMARK    3  A    between atoms: C_11  and  C_5 
ROOT
ATOM      1  N   UNL d   1       0.185   0.648   2.587  0.00  0.00    -0.188 N 
ATOM      2  N   UNL d   1       0.357   1.738   3.379  0.00  0.00    -0.284 N 
ATOM      3  HN  UNL d   1       0.512   1.757   4.387  1.00  0.00     0.188 HD
ATOM      4  C   UNL d   1       0.277   2.783   2.540  0.00  0.00     0.060 A 
ATOM      5  C   UNL d   1       0.043   0.978   1.260  0.00  0.00     0.131 A 
ATOM      6  C   UNL d   1       0.092   2.349   1.200  0.00  0.00     0.052 A 
ENDROOT
BRANCH   4   7
ATOM      7  C   UNL d   1       0.352   4.160   3.018  0.00  0.00    -0.007 A 
ATOM      8  C   UNL d   1       1.112   4.481   4.153  0.00  0.00     0.023 A 
ATOM      9  C   UNL d   1       1.174   5.800   4.627  0.00  0.00    -0.024 A 
ATOM     10  C   UNL d   1       2.001   6.124   5.835  0.00  0.00     0.044 C 
ATOM     11  C   UNL d   1       0.486   6.802   3.939  0.00  0.00     0.076 A 
ATOM     12  C   UNL d   1       1.592   7.474   6.407  0.00  0.00     0.042 C 
ATOM     13  C   UNL d   1       1.446   8.524   5.295  0.00  0.00     0.061 C 
ATOM     14  O   UNL d   1       0.487   8.120   4.302  0.00  0.00    -0.340 OA
ATOM     15  C   UNL d   1       0.891   9.821   5.903  0.00  0.00     0.046 C 
ATOM     16  C   UNL d   1       2.780   8.843   4.603  0.00  0.00     0.046 C 
ATOM     17  C   UNL d   1      -0.279   6.490   2.816  0.00  0.00     0.038 A 
ATOM     18  C   UNL d   1      -0.343   5.176   2.353  0.00  0.00     0.016 A 
ENDBRANCH   4   7
BRANCH   1  19
ATOM     19  S   UNL d   1      -0.008  -0.984   3.154  0.00  0.00     0.282 S 
ATOM     20  O   UNL d   1       1.086  -1.248   4.061  0.00  0.00    -0.198 OA
ATOM     21  O   UNL d   1      -0.235  -1.782   1.953  0.00  0.00    -0.198 OA
BRANCH  19  22
ATOM     22  C   UNL d   1      -1.517  -0.968   4.096  0.00  0.00     0.081 A 
ATOM     23  C   UNL d   1      -2.571  -1.809   3.711  0.00  0.00     0.027 A 
ATOM     24  C   UNL d   1      -3.764  -1.803   4.439  0.00  0.00     0.025 A 
ATOM     25  C   UNL d   1      -3.894  -0.976   5.553  0.00  0.00     0.034 A 
ATOM     26  C   UNL d   1      -2.840  -0.150   5.947  0.00  0.00     0.025 A 
ATOM     27 CL   UNL d   1      -5.370  -0.960   6.438  0.00  0.00    -0.084 Cl
ATOM     28  C   UNL d   1      -1.647  -0.141   5.216  0.00  0.00     0.027 A 
ENDBRANCH  19  22
ENDBRANCH   1  19
TORSDOF 3
