REMARK  4 active torsions:
REMARK  status: ('A' for Active; 'I' for Inactive)
REMARK    1  A    between atoms: N_2  and  S_1 
REMARK    2  A    between atoms: C_3  and  S_1 
REMARK    3  A    between atoms: C_8  and  N_2 
REMARK    4  A    between atoms: C_4  and  C_8 
ROOT
ATOM      1  S   UNL d   1       1.124   0.129  -0.022  0.00  0.00     0.241 S 
ATOM      2  O   UNL d   1       0.662   1.324  -0.689  0.00  0.00    -0.206 OA
ATOM      3  O   UNL d   1       2.530  -0.180   0.110  0.00  0.00    -0.206 OA
ENDROOT
BRANCH   1   4
ATOM      4  N   UNL d   1       0.387  -1.218  -0.731  0.00  0.00    -0.211 NA
ATOM      5  H   UNL d   1       0.381  -2.022  -0.106  0.00  0.00     0.140 HD
BRANCH   4   6
ATOM      6  C   UNL d   1      -0.917  -0.954  -1.355  0.00  0.00     0.150 C 
BRANCH   6   7
ATOM      7  C   UNL d   1      -1.424  -2.217  -1.982  0.00  0.00    -0.004 A 
ATOM      8  S   UNL d   1      -2.913  -2.893  -1.464  0.00  0.00    -0.105 SA
ATOM      9  C   UNL d   1      -2.855  -4.110  -2.662  0.00  0.00     0.050 A 
ATOM     10  C   UNL d   1      -1.709  -4.032  -3.421  0.00  0.00     0.008 A 
ATOM     11  C   UNL d   1      -0.876  -2.946  -3.022  0.00  0.00     0.016 A 
ENDBRANCH   6   7
ENDBRANCH   4   6
ENDBRANCH   1   4
BRANCH   1  12
ATOM     12  C   UNL d   1       0.437   0.123   1.625  0.00  0.00     0.074 A 
ATOM     13  C   UNL d   1       1.153  -0.480   2.666  0.00  0.00     0.026 A 
ATOM     14  C   UNL d   1       0.654  -0.428   3.970  0.00  0.00     0.025 A 
ATOM     15  C   UNL d   1      -0.550   0.230   4.225  0.00  0.00     0.034 A 
ATOM     16  C   UNL d   1      -1.258   0.842   3.189  0.00  0.00     0.025 A 
ATOM     17 CL   UNL d   1      -1.157   0.301   5.834  0.00  0.00    -0.084 Cl
ATOM     18  C   UNL d   1      -0.759   0.799   1.885  0.00  0.00     0.026 A 
ENDBRANCH   1  12
TORSDOF 4
