REMARK  5 active torsions:
REMARK  status: ('A' for Active; 'I' for Inactive)
REMARK    1  A    between atoms: C_2  and  S_1 
REMARK    2  A    between atoms: C_8  and  S_1 
REMARK    3  A    between atoms: N_23  and  C_5 
REMARK    4  A    between atoms: C_6  and  C_11 
REMARK    5  A    between atoms: C_20  and  C_7 
ROOT
ATOM      1  C   UNL d   1       0.671  -1.141   1.336  0.00  0.00     0.119 A 
ATOM      2  N   UNL d   1       0.562  -3.363   2.162  0.00  0.00    -0.331 N 
ATOM      3  HN  UNL d   1       0.672  -4.368   2.027  1.00  0.00     0.168 HD
ATOM      4  C   UNL d   1       0.788  -2.498   1.158  0.00  0.00     0.102 A 
ATOM      5  C   UNL d   1       0.184  -2.855   3.356  0.00  0.00     0.116 A 
ATOM      6  N   UNL d   1      -0.005  -1.543   3.592  0.00  0.00    -0.350 N 
ATOM      7  HN  UNL d   1      -0.325  -1.201   4.498  1.00  0.00     0.166 HD
ATOM      8  C   UNL d   1       0.249  -0.705   2.567  0.00  0.00     0.117 A 
ENDROOT
BRANCH   1   9
ATOM      9  S   UNL d   1       1.021  -0.004   0.068  0.00  0.00     0.226 S 
ATOM     10  O   UNL d   1       0.863   1.336   0.612  0.00  0.00    -0.216 OA
ATOM     11  O   UNL d   1       0.216  -0.414  -1.074  0.00  0.00    -0.216 OA
BRANCH   9  12
ATOM     12  C   UNL d   1       2.734  -0.160  -0.401  0.00  0.00     0.133 A 
ATOM     13  N   UNL d   1       3.572  -0.545   0.597  0.00  0.00    -0.356 N 
ATOM     14  C   UNL d   1       4.868  -0.721   0.245  0.00  0.00     0.105 A 
ATOM     15  HN  UNL d   1       3.245  -0.693   1.552  1.00  0.00     0.166 HD
ATOM     16  C   UNL d   1       5.360  -0.526  -1.042  0.00  0.00     0.063 A 
ATOM     17  C   UNL d   1       4.455  -0.121  -2.034  0.00  0.00     0.020 A 
ATOM     18  C   UNL d   1       3.114   0.064  -1.715  0.00  0.00     0.043 A 
BRANCH  16  19
ATOM     19  C   UNL d   1       6.809  -0.750  -1.358  0.00  0.00     0.418 C 
ATOM     20  F   UNL d   1       7.546  -1.155  -0.288  0.00  0.00    -0.166 F 
ATOM     21  F   UNL d   1       6.988  -1.701  -2.316  0.00  0.00    -0.166 F 
ATOM     22  F   UNL d   1       7.416   0.373  -1.828  0.00  0.00    -0.166 F 
ENDBRANCH  16  19
ENDBRANCH   9  12
ENDBRANCH   1   9
BRANCH   4  23
ATOM     23  N   UNL d   1       1.175  -3.087  -0.044  0.00  0.00    -0.287 NA
ATOM     24  H   UNL d   1       1.143  -4.097   0.082  0.00  0.00     0.125 HD
ATOM     25  H   UNL d   1       0.582  -2.797  -0.821  0.00  0.00     0.125 HD
ENDBRANCH   4  23
BRANCH   5  26
ATOM     26  C   UNL d   1       0.033  -3.787   4.488  0.00  0.00     0.011 A 
ATOM     27  C   UNL d   1      -0.323  -3.334   5.768  0.00  0.00     0.032 A 
ATOM     28  C   UNL d   1      -0.398  -4.237   6.816  0.00  0.00     0.088 A 
ATOM     29  N   UNL d   1      -0.154  -5.557   6.687  0.00  0.00    -0.375 N 
ATOM     30  C   UNL d   1       0.174  -5.990   5.454  0.00  0.00     0.088 A 
ATOM     31  HN  UNL d   1      -0.215  -6.194   7.481  1.00  0.00     0.164 HD
ATOM     32  C   UNL d   1       0.274  -5.162   4.346  0.00  0.00     0.032 A 
ENDBRANCH   5  26
TORSDOF 5
