REMARK  4 active torsions:
REMARK  status: ('A' for Active; 'I' for Inactive)
REMARK    1  A    between atoms: C_2  and  C_1 
REMARK    2  A    between atoms: O_14  and  C_2 
REMARK    3  A    between atoms: N_4  and  O_14 
REMARK    4  A    between atoms: C_17  and  C_16 
ROOT
ATOM      1  N   UNL d   1      -1.117   4.258  -0.305  0.00  0.00    -0.268 N 
ATOM      2  HN  UNL d   1      -0.246   4.735  -0.536  1.00  0.00     0.194 HD
ATOM      3  C   UNL d   1      -2.226   4.860  -0.019  0.00  0.00     0.126 C 
ENDROOT
BRANCH   1   4
ATOM      4  O   UNL d   1      -1.270   2.855  -0.257  0.00  0.00    -0.195 OA
BRANCH   4   5
ATOM      5  C   UNL d   1      -0.029   2.270  -0.226  0.00  0.00     0.318 C 
ATOM      6  O   UNL d   1       1.053   2.836  -0.232  0.00  0.00    -0.257 OA
BRANCH   5   7
ATOM      7  C   UNL d   1      -0.140   0.790  -0.195  0.00  0.00     0.084 A 
ATOM      8  C   UNL d   1      -0.996   0.129   0.704  0.00  0.00     0.052 A 
ATOM      9 CL   UNL d   1      -2.031   0.948   1.822  0.00  0.00    -0.083 Cl
ATOM     10  C   UNL d   1      -1.011  -1.273   0.767  0.00  0.00     0.025 A 
ATOM     11  C   UNL d   1      -0.166  -2.031  -0.038  0.00  0.00     0.003 A 
ATOM     12  C   UNL d   1       0.692  -1.388  -0.924  0.00  0.00     0.025 A 
ATOM     13  C   UNL d   1       0.703   0.014  -1.010  0.00  0.00     0.052 A 
ATOM     14 CL   UNL d   1       1.780   0.684  -2.189  0.00  0.00    -0.083 Cl
ENDBRANCH   5   7
ENDBRANCH   4   5
ENDBRANCH   1   4
BRANCH   3  15
ATOM     15  C   UNL d   1      -2.308   6.339  -0.006  0.00  0.00    -0.016 A 
ATOM     16  C   UNL d   1      -3.530   6.959   0.282  0.00  0.00     0.052 A 
ATOM     17  C   UNL d   1      -3.554   8.342   0.288  0.00  0.00     0.105 A 
ATOM     18  O   UNL d   1      -4.641   9.117   0.551  0.00  0.00    -0.323 OA
ATOM     19  C   UNL d   1      -2.432   9.093   0.019  0.00  0.00     0.105 A 
ATOM     20  C   UNL d   1      -4.062  10.438   0.469  0.00  0.00     0.352 A 
ATOM     21  O   UNL d   1      -2.673  10.429   0.081  0.00  0.00    -0.323 OA
ATOM     22  C   UNL d   1      -1.221   8.509  -0.272  0.00  0.00     0.040 A 
ATOM     23  C   UNL d   1      -1.159   7.111  -0.283  0.00  0.00     0.016 A 
ENDBRANCH   3  15
TORSDOF 4
