REMARK  11 active torsions:
REMARK  status: ('A' for Active; 'I' for Inactive)
REMARK    1  A    between atoms: C_3  and  C_1 
REMARK    2  A    between atoms: C_6  and  C_1 
REMARK    3  A    between atoms: C_2  and  C_9 
REMARK    4  A    between atoms: O_10  and  C_2 
REMARK    5  A    between atoms: C_9  and  C_6 
REMARK    6  A    between atoms: C_14  and  C_13 
REMARK    7  A    between atoms: C_15  and  C_14 
REMARK    8  A    between atoms: C_18  and  C_15 
REMARK    9  A    between atoms: C_16  and  C_17 
REMARK   10  A    between atoms: C_17  and  C_19 
REMARK   11  A    between atoms: C_19  and  C_18 
ROOT
ATOM      1  C   UNL d   1       0.285   1.165  -0.248  0.00  0.00     0.010 A 
ATOM      2  C   UNL d   1      -1.070   1.171  -0.607  0.00  0.00     0.015 A 
ATOM      3  C   UNL d   1       0.874   2.342   0.222  0.00  0.00     0.015 A 
ATOM      4  C   UNL d   1       0.125   3.516   0.311  0.00  0.00     0.008 A 
ATOM      5  C   UNL d   1      -1.816   2.354  -0.522  0.00  0.00     0.008 A 
ATOM      6  C   UNL d   1      -1.217   3.542  -0.085  0.00  0.00    -0.058 A 
ENDROOT
BRANCH   1   7
ATOM      7  C   UNL d   1       1.081  -0.067  -0.453  0.00  0.00     0.160 C 
ATOM      8  O   UNL d   1       0.781  -0.841  -1.362  0.00  0.00    -0.292 OA
BRANCH   7   9
ATOM      9  C   UNL d   1       2.288  -0.349   0.430  0.00  0.00     0.094 C 
BRANCH   9  10
ATOM     10  C   UNL d   1       3.322  -1.215  -0.274  0.00  0.00     0.117 C 
BRANCH  10  11
ATOM     11  C   UNL d   1       3.940  -0.525  -1.463  0.00  0.00     0.139 C 
ATOM     12  O   UNL d   1       5.078  -0.083  -1.470  0.00  0.00    -0.650 OA
BRANCH  11  13
ATOM     13  O   UNL d   1       3.123  -0.429  -2.538  0.00  0.00    -0.776 OA
ATOM     14  H   UNL d   1       2.221  -0.809  -2.399  0.00  0.00     0.167 HD
ENDBRANCH  11  13
ENDBRANCH  10  11
ENDBRANCH   9  10
ENDBRANCH   7   9
ENDBRANCH   1   7
BRANCH   6  15
ATOM     15  C   UNL d   1      -1.983   4.843  -0.078  0.00  0.00     0.038 C 
BRANCH  15  16
ATOM     16  C   UNL d   1      -1.337   5.942  -0.936  0.00  0.00     0.005 C 
BRANCH  16  17
ATOM     17  C   UNL d   1      -1.257   5.579  -2.422  0.00  0.00     0.000 C 
BRANCH  17  18
ATOM     18  C   UNL d   1      -0.604   6.705  -3.225  0.00  0.00     0.000 C 
BRANCH  18  19
ATOM     19  C   UNL d   1      -0.510   6.348  -4.707  0.00  0.00    -0.000 C 
BRANCH  19  20
ATOM     20  C   UNL d   1       0.143   7.473  -5.507  0.00  0.00    -0.005 C 
ATOM     21  C   UNL d   1       0.232   7.120  -6.983  0.00  0.00     0.005 C 
ENDBRANCH  19  20
ENDBRANCH  18  19
ENDBRANCH  17  18
ENDBRANCH  16  17
ENDBRANCH  15  16
ENDBRANCH   6  15
TORSDOF 11
