REMARK  3 active torsions:
REMARK  status: ('A' for Active; 'I' for Inactive)
REMARK    1  A    between atoms: C_6  and  C_1 
REMARK    2  A    between atoms: O_11  and  C_6 
REMARK    3  A    between atoms: C_14  and  O_11 
ROOT
ATOM      1  C   UNL d   1       3.200   0.684   0.037  0.00  0.00     0.152 A 
ATOM      2  O   UNL d   1       2.726  -0.600   0.056  0.00  0.00    -0.304 OA
ATOM      3  C   UNL d   1       2.136   1.569   0.065  0.00  0.00     0.058 A 
ATOM      4  C   UNL d   1       0.950   0.790   0.062  0.00  0.00     0.002 A 
ATOM      5  C   UNL d   1       1.371  -0.534   0.058  0.00  0.00     0.086 A 
ATOM      6  C   UNL d   1      -0.429   1.057   0.045  0.00  0.00     0.038 A 
ATOM      7  C   UNL d   1       0.515  -1.632   0.040  0.00  0.00     0.040 A 
ATOM      8  C   UNL d   1      -1.315  -0.030   0.025  0.00  0.00     0.035 A 
ATOM      9  C   UNL d   1      -0.855  -1.349   0.022  0.00  0.00     0.026 A 
ATOM     10 CL   UNL d   1      -3.011   0.271  -0.002  0.00  0.00    -0.084 Cl
ENDROOT
BRANCH   1  11
ATOM     11  C   UNL d   1       4.618   0.920  -0.078  0.00  0.00     0.317 C 
ATOM     12  O   UNL d   1       5.142   2.023  -0.187  0.00  0.00    -0.257 OA
BRANCH  11  13
ATOM     13  O   UNL d   1       5.278  -0.269  -0.154  0.00  0.00    -0.316 OA
BRANCH  13  14
ATOM     14  C   UNL d   1       6.591  -0.219  -0.718  0.00  0.00     0.175 C 
ATOM     15  C   UNL d   1       6.462  -0.325  -2.227  0.00  0.00     0.034 C 
ENDBRANCH  13  14
ENDBRANCH  11  13
ENDBRANCH   1  11
TORSDOF 3
