REMARK  6 active torsions:
REMARK  status: ('A' for Active; 'I' for Inactive)
REMARK    1  A    between atoms: C_2  and  S_1 
REMARK    2  A    between atoms: C_18  and  S_1 
REMARK    3  A    between atoms: N_8  and  C_3 
REMARK    4  A    between atoms: C_5  and  C_4 
REMARK    5  A    between atoms: C_6  and  C_5 
REMARK    6  A    between atoms: C_7  and  N_8 
ROOT
ATOM      1  C   UNL d   1      -0.317  -4.465  -2.111  0.00  0.00     0.106 C 
ATOM      2  C   UNL d   1       0.421  -4.222  -1.015  0.00  0.00     0.115 C 
ATOM      3  C   UNL d   1      -0.730  -5.783  -2.444  0.00  0.00     0.104 C 
ATOM      4  N   UNL d   1      -1.091  -6.853  -2.701  0.00  0.00    -0.191 NA
ENDROOT
BRANCH   1   5
ATOM      5  C   UNL d   1      -0.813  -3.296  -2.888  0.00  0.00     0.175 C 
ATOM      6  O   UNL d   1      -0.195  -2.237  -2.947  0.00  0.00    -0.291 OA
BRANCH   5   7
ATOM      7  C   UNL d   1      -2.140  -3.439  -3.557  0.00  0.00     0.061 A 
ATOM      8  C   UNL d   1      -2.245  -3.299  -5.054  0.00  0.00     0.013 A 
ATOM      9  C   UNL d   1      -2.801  -2.223  -4.170  0.00  0.00     0.013 A 
ENDBRANCH   5   7
ENDBRANCH   1   5
BRANCH   2  10
ATOM     10  N   UNL d   1       0.844  -2.998  -0.515  0.00  0.00    -0.363 N 
ATOM     11  H   UNL d   1       1.002  -2.312  -1.273  0.00  0.00     0.165 HD
BRANCH  10  12
ATOM     12  C   UNL d   1       0.482  -2.491   0.699  0.00  0.00     0.060 A 
ATOM     13  C   UNL d   1       0.467  -1.098   1.044  0.00  0.00     0.093 A 
ATOM     14  C   UNL d   1      -0.046  -0.887   2.311  0.00  0.00     0.075 A 
ATOM     15  S   UNL d   1      -0.467  -2.342   3.096  0.00  0.00    -0.110 SA
ATOM     16  C   UNL d   1       0.041  -3.268   1.754  0.00  0.00     0.080 A 
BRANCH  13  17
ATOM     17  S   UNL d   1       1.033   0.220   0.060  0.00  0.00     0.181 S 
ATOM     18  O   UNL d   1       2.018  -0.382  -0.816  0.00  0.00    -0.222 OA
ATOM     19  O   UNL d   1       1.391   1.250   1.017  0.00  0.00    -0.222 OA
BRANCH  17  20
ATOM     20  C   UNL d   1      -0.356   0.782  -0.925  0.00  0.00     0.105 C 
ATOM     21  C   UNL d   1      -1.563   1.176  -0.084  0.00  0.00     0.026 C 
ATOM     22  C   UNL d   1       0.090   1.968  -1.785  0.00  0.00     0.026 C 
ENDBRANCH  17  20
ENDBRANCH  13  17
ENDBRANCH  10  12
ENDBRANCH   2  10
TORSDOF 6
