REMARK  2 active torsions:
REMARK  status: ('A' for Active; 'I' for Inactive)
REMARK    1  A    between atoms: C_2  and  S_1 
REMARK    2  A    between atoms: N_5  and  S_1 
ROOT
ATOM      1  C   UNL d   1       0.600  -0.504  -1.509  0.00  0.00     0.087 A 
ATOM      2  C   UNL d   1      -0.080   0.354  -2.424  0.00  0.00    -0.032 A 
ATOM      3  C   UNL d   1       0.849  -1.869  -1.868  0.00  0.00    -0.032 A 
ATOM      4  C   UNL d   1      -0.578  -0.189  -3.652  0.00  0.00    -0.048 A 
ATOM      5  C   UNL d   1       0.281  -2.407  -3.066  0.00  0.00    -0.048 A 
ATOM      6  C   UNL d   1      -0.417  -1.564  -3.960  0.00  0.00    -0.049 A 
ATOM      7  C   UNL d   1      -0.298   1.836  -2.228  0.00  0.00     0.050 C 
ATOM      8  C   UNL d   1       1.737  -2.798  -1.067  0.00  0.00     0.050 C 
ATOM      9  C   UNL d   1       0.446  -3.872  -3.427  0.00  0.00     0.049 C 
ATOM     10  C   UNL d   1      -1.256   0.689  -4.696  0.00  0.00     0.049 C 
ATOM     11  C   UNL d   1      -0.951  -2.088  -5.281  0.00  0.00     0.049 C 
ENDROOT
BRANCH   1  12
ATOM     12  S   UNL d   1       1.216   0.098   0.102  0.00  0.00     0.244 S 
ATOM     13  O   UNL d   1       0.785   1.447   0.377  0.00  0.00    -0.206 OA
ATOM     14  O   UNL d   1       2.634  -0.209   0.178  0.00  0.00    -0.206 OA
BRANCH  12  15
ATOM     15  N   UNL d   1       0.358  -0.869   1.290  0.00  0.00    -0.205 NA
ATOM     16  C   UNL d   1      -1.104  -0.465   1.361  0.00  0.00     0.117 C 
ATOM     17  C   UNL d   1      -1.919  -1.283   2.362  0.00  0.00     0.089 C 
ATOM     18  S   UNL d   1      -1.319  -1.090   4.065  0.00  0.00    -0.167 SA
ATOM     19  C   UNL d   1       0.403  -1.562   3.738  0.00  0.00     0.089 C 
ATOM     20  C   UNL d   1       1.033  -0.711   2.636  0.00  0.00     0.117 C 
ENDBRANCH  12  15
ENDBRANCH   1  12
TORSDOF 2
