REMARK  2 active torsions:
REMARK  status: ('A' for Active; 'I' for Inactive)
REMARK       I    between atoms: C_3  and  N_1 
REMARK    1  A    between atoms: C_4  and  C_3 
REMARK    2  A    between atoms: C_8  and  C_6 
ROOT
ATOM      1  N   UNL d   1       0.939  -0.640  -0.044  0.00  0.00    -0.217 N 
ATOM      2  C   UNL d   1      -0.369  -1.089   0.043  0.00  0.00     0.095 A 
ATOM      3  C   UNL d   1       2.146  -1.367   0.025  0.00  0.00     0.279 C 
ATOM      4  C   UNL d   1      -0.790  -2.414   0.381  0.00  0.00     0.105 A 
ATOM      5  C   UNL d   1      -2.095  -4.211   0.376  0.00  0.00     0.089 A 
ATOM      6  O   UNL d   1      -1.950  -2.945  -0.114  0.00  0.00    -0.307 OA
ATOM      7  N   UNL d   1       0.995   0.709  -0.274  0.00  0.00    -0.302 N 
ATOM      8  HN  UNL d   1       1.825   1.296  -0.354  1.00  0.00     0.186 HD
ATOM      9  C   UNL d   1      -0.221  -3.340   1.239  0.00  0.00     0.042 A 
ATOM     10  C   UNL d   1      -1.044  -4.491   1.224  0.00  0.00     0.041 A 
ATOM     11  C   UNL d   1      -1.169   0.009  -0.197  0.00  0.00     0.053 A 
ATOM     12  C   UNL d   1      -0.281   1.080  -0.368  0.00  0.00     0.110 A 
ATOM     13  O   UNL d   1       2.129  -2.556  -0.294  0.00  0.00    -0.265 OA
ENDROOT
BRANCH   3  14
ATOM     14  C   UNL d   1       3.444  -0.797   0.450  0.00  0.00     0.056 A 
ATOM     15  C   UNL d   1       3.582   0.025   1.579  0.00  0.00     0.051 A 
ATOM     16  C   UNL d   1       4.850   0.468   1.968  0.00  0.00     0.048 A 
ATOM     17 CL   UNL d   1       2.271   0.420   2.636  0.00  0.00    -0.083 Cl
ATOM     18  C   UNL d   1       5.979   0.049   1.266  0.00  0.00     0.035 A 
ATOM     19  C   UNL d   1       5.858  -0.805   0.173  0.00  0.00     0.025 A 
ATOM     20 CL   UNL d   1       7.538   0.556   1.786  0.00  0.00    -0.084 Cl
ATOM     21  C   UNL d   1       4.592  -1.226  -0.237  0.00  0.00     0.020 A 
ENDBRANCH   3  14
BRANCH   5  22
ATOM     22  C   UNL d   1      -3.270  -4.942  -0.081  0.00  0.00     0.036 A 
ATOM     23  C   UNL d   1      -3.617  -6.189   0.464  0.00  0.00     0.132 A 
ATOM     24  C   UNL d   1      -4.739  -6.889   0.027  0.00  0.00     0.085 A 
ATOM     25  F   UNL d   1      -2.872  -6.745   1.432  0.00  0.00    -0.205 F 
ATOM     26  C   UNL d   1      -5.531  -6.341  -0.967  0.00  0.00     0.119 A 
ATOM     27  C   UNL d   1      -5.222  -5.111  -1.534  0.00  0.00     0.043 A 
ATOM     28  F   UNL d   1      -6.615  -7.006  -1.390  0.00  0.00    -0.206 F 
ATOM     29  C   UNL d   1      -4.094  -4.414  -1.093  0.00  0.00     0.020 A 
ENDBRANCH   5  22
TORSDOF 2
