REMARK  5 active torsions:
REMARK  status: ('A' for Active; 'I' for Inactive)
REMARK    1  A    between atoms: C_15  and  N_1 
REMARK    2  A    between atoms: S_8  and  C_2 
REMARK    3  A    between atoms: N_4  and  C_3 
REMARK    4  A    between atoms: C_7  and  C_14 
REMARK    5  A    between atoms: C_11  and  S_8 
ROOT
ATOM      1  C   UNL d   1       4.015   0.540  -1.841  0.00  0.00     0.120 A 
ATOM      2  C   UNL d   1       3.709   0.705  -0.476  0.00  0.00     0.041 A 
ATOM      3  C   UNL d   1       5.056  -0.335  -2.232  0.00  0.00     0.053 A 
ATOM      4  C   UNL d   1       5.800  -1.052  -1.282  0.00  0.00     0.050 A 
ATOM      5  C   UNL d   1       4.474  -0.014   0.464  0.00  0.00     0.022 A 
ATOM      6  C   UNL d   1       5.499  -0.878   0.071  0.00  0.00     0.017 A 
ENDROOT
BRANCH   2   7
ATOM      7  S   UNL d   1       2.482   1.789   0.245  0.00  0.00    -0.050 SA
BRANCH   7   8
ATOM      8  C   UNL d   1       1.092   0.762   0.146  0.00  0.00     0.168 A 
ATOM      9  N   UNL d   1      -0.218   1.186   0.099  0.00  0.00    -0.312 N 
ATOM     10  C   UNL d   1      -0.944   0.020   0.071  0.00  0.00     0.202 A 
ATOM     11  N   UNL d   1      -0.148  -1.022   0.102  0.00  0.00    -0.294 N 
ATOM     12  N   UNL d   1       1.136  -0.554   0.150  0.00  0.00    -0.279 N 
ATOM     13  HN  UNL d   1      -0.434  -2.001   0.093  1.00  0.00     0.187 HD
ATOM     14  HN  UNL d   1       1.981  -1.125   0.184  1.00  0.00     0.189 HD
BRANCH   9  15
ATOM     15  C   UNL d   1      -0.777   2.550   0.055  0.00  0.00     0.029 C 
ATOM     16  C   UNL d   1      -0.306   3.299  -1.207  0.00  0.00     0.038 C 
ATOM     17  C   UNL d   1      -2.329   2.547  -0.005  0.00  0.00     0.038 C 
ATOM     18  C   UNL d   1      -0.404   3.347   1.323  0.00  0.00     0.038 C 
ENDBRANCH   9  15
ENDBRANCH   7   8
ENDBRANCH   2   7
BRANCH   1  19
ATOM     19  N   UNL d   1       3.311   1.252  -2.926  0.00  0.00    -0.114 N 
ATOM     20  O   UNL d   1       2.431   2.075  -2.648  0.00  0.00    -0.532 OA
ATOM     21  O   UNL d   1       3.659   1.002  -4.090  0.00  0.00    -0.532 OA
ENDBRANCH   1  19
BRANCH   4  22
ATOM     22  C   UNL d   1       6.907  -1.994  -1.695  0.00  0.00     0.417 C 
ATOM     23  F   UNL d   1       7.079  -2.071  -3.043  0.00  0.00    -0.166 F 
ATOM     24  F   UNL d   1       8.114  -1.625  -1.184  0.00  0.00    -0.166 F 
ATOM     25  F   UNL d   1       6.690  -3.267  -1.269  0.00  0.00    -0.166 F 
ENDBRANCH   4  22
TORSDOF 5
