REMARK  7 active torsions:
REMARK  status: ('A' for Active; 'I' for Inactive)
REMARK    1  A    between atoms: O_16  and  C_1 
REMARK    2  A    between atoms: O_17  and  C_3 
REMARK    3  A    between atoms: C_4  and  C_5 
REMARK       I    between atoms: N_11  and  C_4 
REMARK    4  A    between atoms: C_6  and  C_8 
REMARK    5  A    between atoms: C_7  and  C_14 
REMARK    6  A    between atoms: O_18  and  C_7 
REMARK    7  A    between atoms: C_14  and  N_11 
ROOT
ATOM      1  C   UNL d   1       0.838  -1.202   0.021  0.00  0.00     0.118 A 
ATOM      2  C   UNL d   1       0.267   0.085   0.017  0.00  0.00     0.048 A 
ATOM      3  C   UNL d   1       2.255  -1.282   0.029  0.00  0.00     0.103 A 
ATOM      4  C   UNL d   1       2.477   1.153   0.036  0.00  0.00    -0.032 A 
ATOM      5  C   UNL d   1       1.085   1.234   0.019  0.00  0.00     0.033 A 
ATOM      6  C   UNL d   1       3.048  -0.115   0.034  0.00  0.00     0.051 A 
ATOM      7 BR   UNL d   1      -1.593   0.513   0.005  0.00  0.00    -0.048 Br
ENDROOT
BRANCH   4   8
ATOM      8  C   UNL d   1       3.248   2.405  -0.018  0.00  0.00     0.017 C 
ATOM      9  C   UNL d   1       4.464   2.618   0.511  0.00  0.00     0.075 C 
BRANCH   9  10
ATOM     10  C   UNL d   1       5.065   3.974   0.387  0.00  0.00     0.241 C 
ATOM     11  N   UNL d   1       6.295   4.094   0.971  0.00  0.00    -0.348 N 
ATOM     12  H   UNL d   1       6.746   3.318   1.445  0.00  0.00     0.163 HD
ATOM     13  O   UNL d   1       4.504   4.903  -0.181  0.00  0.00    -0.269 OA
BRANCH  11  14
ATOM     14  C   UNL d   1       6.997   5.365   0.945  0.00  0.00     0.232 C 
BRANCH  14  15
ATOM     15  C   UNL d   1       8.341   5.269   1.649  0.00  0.00     0.158 C 
ATOM     16  O   UNL d   1       8.767   4.250   2.177  0.00  0.00    -0.649 OA
BRANCH  15  17
ATOM     17  O   UNL d   1       9.037   6.429   1.643  0.00  0.00    -0.775 OA
ATOM     18  H   UNL d   1       8.586   7.168   1.189  0.00  0.00     0.167 HD
ENDBRANCH  15  17
ENDBRANCH  14  15
ENDBRANCH  11  14
ENDBRANCH   9  10
ENDBRANCH   4   8
BRANCH   3  19
ATOM     19  O   UNL d   1       3.051  -2.406   0.025  0.00  0.00    -0.353 OA
ATOM     20  C   UNL d   1       2.467  -3.700   0.010  0.00  0.00     0.210 C 
ENDBRANCH   3  19
BRANCH   1  21
ATOM     21  O   UNL d   1       0.202  -2.408   0.015  0.00  0.00    -0.352 OA
ATOM     22  C   UNL d   1      -1.202  -2.565  -0.005  0.00  0.00     0.210 C 
ENDBRANCH   1  21
TORSDOF 7
