REMARK  5 active torsions:
REMARK  status: ('A' for Active; 'I' for Inactive)
REMARK    1  A    between atoms: S_3  and  C_1 
REMARK    2  A    between atoms: C_4  and  C_1 
REMARK    3  A    between atoms: C_2  and  O_5 
REMARK    4  A    between atoms: C_12  and  S_3 
REMARK    5  A    between atoms: O_5  and  C_13 
ROOT
ATOM      1  C   UNL d   1       0.232  -0.811   0.775  0.00  0.00     0.021 A 
ATOM      2  C   UNL d   1       0.784  -1.001   2.049  0.00  0.00     0.019 A 
ATOM      3  C   UNL d   1      -1.017  -1.371   0.485  0.00  0.00     0.019 A 
ATOM      4  C   UNL d   1      -1.152  -2.279   2.739  0.00  0.00     0.078 A 
ATOM      5  C   UNL d   1      -1.704  -2.092   1.466  0.00  0.00     0.038 A 
ATOM      6  C   UNL d   1       0.082  -1.704   3.033  0.00  0.00     0.038 A 
ENDROOT
BRANCH   1   7
ATOM      7  C   UNL d   1       1.006  -0.012  -0.209  0.00  0.00     0.224 C 
ATOM      8  O   UNL d   1       2.231   0.013  -0.170  0.00  0.00    -0.279 OA
BRANCH   7   9
ATOM      9  S   UNL d   1       0.092   1.007  -1.320  0.00  0.00    -0.048 SA
BRANCH   9  10
ATOM     10  C   UNL d   1       0.568   0.320  -2.892  0.00  0.00     0.008 A 
ATOM     11  C   UNL d   1      -0.420  -0.192  -3.740  0.00  0.00     0.019 A 
ATOM     12  C   UNL d   1      -0.074  -0.751  -4.973  0.00  0.00     0.008 A 
ATOM     13  C   UNL d   1       1.264  -0.796  -5.381  0.00  0.00    -0.062 A 
ATOM     14  C   UNL d   1       2.246  -0.251  -4.548  0.00  0.00     0.008 A 
ATOM     15  C   UNL d   1       1.630  -1.437  -6.687  0.00  0.00     0.048 C 
ATOM     16  C   UNL d   1       1.899   0.307  -3.314  0.00  0.00     0.019 A 
ENDBRANCH   9  10
ENDBRANCH   7   9
ENDBRANCH   1   7
BRANCH   4  17
ATOM     17  O   UNL d   1      -1.937  -2.970   3.606  0.00  0.00    -0.255 OA
BRANCH  17  18
ATOM     18  C   UNL d   1      -1.343  -3.766   4.623  0.00  0.00     0.530 C 
ATOM     19  F   UNL d   1       0.005  -3.777   4.615  0.00  0.00    -0.144 F 
ATOM     20  F   UNL d   1      -1.764  -3.327   5.829  0.00  0.00    -0.144 F 
ATOM     21  F   UNL d   1      -1.767  -5.043   4.471  0.00  0.00    -0.144 F 
ENDBRANCH  17  18
ENDBRANCH   4  17
TORSDOF 5
