REMARK  11 active torsions:
REMARK  status: ('A' for Active; 'I' for Inactive)
REMARK    1  A    between atoms: C_2  and  C_1 
REMARK    2  A    between atoms: O_9  and  C_6 
REMARK    3  A    between atoms: C_11  and  O_9 
REMARK    4  A    between atoms: C_12  and  C_11 
REMARK    5  A    between atoms: C_18  and  C_12 
REMARK    6  A    between atoms: C_13  and  C_14 
REMARK    7  A    between atoms: C_14  and  C_17 
REMARK    8  A    between atoms: C_15  and  C_19 
REMARK    9  A    between atoms: C_16  and  C_15 
REMARK   10  A    between atoms: C_17  and  C_16 
REMARK   11  A    between atoms: C_19  and  C_18 
ROOT
ATOM      1  O   UNL d   1      -1.958  -1.164   4.551  0.00  0.00    -0.351 OA
ENDROOT
BRANCH   1   2
ATOM      2  C   UNL d   1      -1.189  -0.798   3.481  0.00  0.00     0.068 A 
ATOM      3  C   UNL d   1      -1.661  -1.232   2.239  0.00  0.00     0.037 A 
ATOM      4  C   UNL d   1      -0.963  -0.930   1.070  0.00  0.00     0.018 A 
ATOM      5  C   UNL d   1       0.201  -0.157   1.129  0.00  0.00     0.009 A 
ATOM      6  C   UNL d   1       0.687   0.270   2.372  0.00  0.00     0.018 A 
ATOM      7  C   UNL d   1      -0.010  -0.052   3.539  0.00  0.00     0.037 A 
BRANCH   5   8
ATOM      8  C   UNL d   1       0.929   0.249  -0.105  0.00  0.00     0.155 C 
ATOM      9  O   UNL d   1       2.128   0.502  -0.046  0.00  0.00    -0.293 OA
ATOM     10  C   UNL d   1       0.160   0.376  -1.392  0.00  0.00     0.096 C 
ENDBRANCH   5   8
ENDBRANCH   1   2
BRANCH   1  11
ATOM     11  C   UNL d   1      -1.480  -0.740   5.827  0.00  0.00     0.175 C 
BRANCH  11  12
ATOM     12  C   UNL d   1      -2.435  -1.232   6.904  0.00  0.00     0.027 C 
BRANCH  12  13
ATOM     13  C   UNL d   1      -1.950  -0.787   8.280  0.00  0.00     0.002 C 
BRANCH  13  14
ATOM     14  C   UNL d   1      -2.892  -1.268   9.375  0.00  0.00     0.000 C 
BRANCH  14  15
ATOM     15  C   UNL d   1      -2.396  -0.820  10.745  0.00  0.00     0.000 C 
BRANCH  15  16
ATOM     16  C   UNL d   1      -3.339  -1.303  11.840  0.00  0.00     0.000 C 
BRANCH  16  17
ATOM     17  C   UNL d   1      -2.847  -0.858  13.212  0.00  0.00     0.000 C 
BRANCH  17  18
ATOM     18  C   UNL d   1      -3.792  -1.345  14.303  0.00  0.00    -0.000 C 
BRANCH  18  19
ATOM     19  C   UNL d   1      -3.311  -0.904  15.681  0.00  0.00    -0.005 C 
ATOM     20  C   UNL d   1      -4.254  -1.393  16.765  0.00  0.00     0.005 C 
ENDBRANCH  18  19
ENDBRANCH  17  18
ENDBRANCH  16  17
ENDBRANCH  15  16
ENDBRANCH  14  15
ENDBRANCH  13  14
ENDBRANCH  12  13
ENDBRANCH  11  12
ENDBRANCH   1  11
TORSDOF 11
