REMARK  4 active torsions:
REMARK  status: ('A' for Active; 'I' for Inactive)
REMARK    1  A    between atoms: C_11  and  C_1 
REMARK    2  A    between atoms: C_12  and  C_2 
REMARK    3  A    between atoms: C_8  and  C_3 
REMARK    4  A    between atoms: N_7  and  C_9 
ROOT
ATOM      1  C   UNL d   1       1.284  -1.026   0.154  0.00  0.00     0.022 C 
ATOM      2  C   UNL d   1      -1.307  -0.938   0.086  0.00  0.00     0.022 C 
ATOM      3  C   UNL d   1      -0.022  -1.792  -0.093  0.00  0.00     0.096 C 
ATOM      4  C   UNL d   1       1.271   0.327   0.084  0.00  0.00     0.016 C 
ATOM      5  C   UNL d   1      -1.195   0.411   0.017  0.00  0.00     0.016 C 
ATOM      6  N   UNL d   1       0.063   0.983  -0.104  0.00  0.00    -0.362 N 
ATOM      7  C   UNL d   1      -2.314   1.417   0.045  0.00  0.00     0.069 C 
ATOM      8  C   UNL d   1       2.455   1.260   0.172  0.00  0.00     0.069 C 
ATOM      9  H   UNL d   1       0.112   1.999  -0.151  0.00  0.00     0.165 HD
ENDROOT
BRANCH   3  10
ATOM     10  C   UNL d   1       0.027  -2.434  -1.489  0.00  0.00    -0.043 A 
ATOM     11  C   UNL d   1       0.035  -1.631  -2.646  0.00  0.00     0.044 A 
ATOM     12  C   UNL d   1       0.131  -2.219  -3.915  0.00  0.00     0.103 A 
ATOM     13  C   UNL d   1       0.228  -3.608  -4.047  0.00  0.00     0.036 A 
ATOM     14  C   UNL d   1       0.214  -4.409  -2.905  0.00  0.00     0.003 A 
ATOM     15  C   UNL d   1       0.110  -3.828  -1.637  0.00  0.00     0.008 A 
BRANCH  12  16
ATOM     16  N   UNL d   1       0.130  -1.360  -5.106  0.00  0.00    -0.116 N 
ATOM     17  O   UNL d   1      -0.025  -0.142  -4.945  0.00  0.00    -0.532 OA
ATOM     18  O   UNL d   1       0.267  -1.913  -6.212  0.00  0.00    -0.532 OA
ENDBRANCH  12  16
ENDBRANCH   3  10
BRANCH   2  19
ATOM     19  C   UNL d   1      -2.525  -1.795   0.352  0.00  0.00     0.154 C 
ATOM     20  O   UNL d   1      -2.392  -3.025   0.384  0.00  0.00    -0.293 OA
ATOM     21  C   UNL d   1      -3.898  -1.245   0.636  0.00  0.00     0.096 C 
ENDBRANCH   2  19
BRANCH   1  22
ATOM     22  C   UNL d   1       2.547  -1.823   0.338  0.00  0.00     0.154 C 
ATOM     23  O   UNL d   1       3.629  -1.407  -0.079  0.00  0.00    -0.293 OA
ATOM     24  C   UNL d   1       2.514  -3.161   1.041  0.00  0.00     0.096 C 
ENDBRANCH   1  22
TORSDOF 4
