REMARK  7 active torsions:
REMARK  status: ('A' for Active; 'I' for Inactive)
REMARK    1  A    between atoms: C_2  and  S_1 
REMARK    2  A    between atoms: N_7  and  S_1 
REMARK    3  A    between atoms: C_4  and  C_15 
REMARK    4  A    between atoms: C_15  and  N_7 
REMARK       I    between atoms: C_9  and  N_12 
REMARK    5  A    between atoms: C_19  and  C_9 
REMARK    6  A    between atoms: C_24  and  C_10 
REMARK    7  A    between atoms: N_12  and  C_24 
ROOT
ATOM      1  C   UNL d   1       0.269   0.017  -1.689  0.00  0.00     0.115 A 
ATOM      2  S   UNL d   1       0.008   1.499  -2.508  0.00  0.00    -0.080 SA
ATOM      3  C   UNL d   1      -0.070  -1.060  -2.486  0.00  0.00     0.033 A 
ATOM      4  C   UNL d   1      -0.497   0.710  -3.946  0.00  0.00     0.002 A 
ATOM      5  C   UNL d   1      -0.515  -0.661  -3.780  0.00  0.00     0.018 A 
ENDROOT
BRANCH   1   6
ATOM      6  S   UNL d   1       0.917   0.104  -0.023  0.00  0.00     0.248 S 
ATOM      7  O   UNL d   1       1.647   1.344   0.056  0.00  0.00    -0.205 OA
ATOM      8  O   UNL d   1       1.555  -1.179   0.183  0.00  0.00    -0.205 OA
BRANCH   6   9
ATOM      9  N   UNL d   1      -0.389   0.224   1.038  0.00  0.00    -0.211 NA
ATOM     10  H   UNL d   1      -1.036   0.961   0.760  0.00  0.00     0.140 HD
BRANCH   9  11
ATOM     11  C   UNL d   1      -1.035  -1.040   1.417  0.00  0.00     0.146 C 
BRANCH  11  12
ATOM     12  C   UNL d   1      -2.174  -0.817   2.387  0.00  0.00    -0.007 A 
ATOM     13  C   UNL d   1      -3.509  -0.718   1.959  0.00  0.00     0.087 A 
ATOM     14  C   UNL d   1      -4.543  -0.452   2.871  0.00  0.00     0.003 A 
ATOM     15  O   UNL d   1      -3.765  -0.876   0.621  0.00  0.00    -0.325 OA
ATOM     16  C   UNL d   1      -5.955  -0.315   2.387  0.00  0.00     0.212 C 
ATOM     17  C   UNL d   1      -4.248  -0.344   4.235  0.00  0.00     0.054 A 
ATOM     18  O   UNL d   1      -5.987  -0.110   0.979  0.00  0.00    -0.362 OA
ATOM     19  C   UNL d   1      -5.154  -1.066   0.340  0.00  0.00     0.345 C 
ATOM     20  C   UNL d   1      -2.933  -0.469   4.664  0.00  0.00     0.117 A 
ATOM     21  C   UNL d   1      -1.900  -0.686   3.759  0.00  0.00     0.053 A 
ATOM     22  F   UNL d   1      -2.659  -0.377   5.972  0.00  0.00    -0.206 F 
ENDBRANCH  11  12
ENDBRANCH   9  11
ENDBRANCH   6   9
ENDBRANCH   1   6
BRANCH   4  23
ATOM     23  C   UNL d   1      -0.862   1.495  -5.171  0.00  0.00     0.169 C 
BRANCH  23  24
ATOM     24  N   UNL d   1      -2.254   1.868  -5.059  0.00  0.00    -0.352 N 
ATOM     25  C   UNL d   1      -3.046   2.058  -6.168  0.00  0.00     0.251 C 
ATOM     26  O   UNL d   1      -2.643   1.950  -7.321  0.00  0.00    -0.268 OA
ATOM     27  H   UNL d   1      -2.558   2.254  -4.175  0.00  0.00     0.163 HD
BRANCH  25  28
ATOM     28  C   UNL d   1      -4.470   2.405  -5.899  0.00  0.00     0.032 A 
ATOM     29  C   UNL d   1      -5.180   3.162  -6.840  0.00  0.00     0.018 A 
ATOM     30  C   UNL d   1      -6.537   3.437  -6.640  0.00  0.00     0.025 A 
ATOM     31  C   UNL d   1      -7.186   2.941  -5.509  0.00  0.00     0.034 A 
ATOM     32  C   UNL d   1      -6.486   2.190  -4.566  0.00  0.00     0.025 A 
ATOM     33 CL   UNL d   1      -8.866   3.236  -5.285  0.00  0.00    -0.084 Cl
ATOM     34  C   UNL d   1      -5.128   1.922  -4.758  0.00  0.00     0.018 A 
ENDBRANCH  25  28
ENDBRANCH  23  24
ENDBRANCH   4  23
TORSDOF 7
