REMARK  9 active torsions:
REMARK  status: ('A' for Active; 'I' for Inactive)
REMARK    1  A    between atoms: C_2  and  C_1 
REMARK    2  A    between atoms: C_3  and  C_9 
REMARK    3  A    between atoms: S_10  and  C_4 
REMARK    4  A    between atoms: C_5  and  O_14 
REMARK       I    between atoms: N_11  and  C_5 
REMARK    5  A    between atoms: C_6  and  C_18 
REMARK    6  A    between atoms: N_25  and  C_6 
REMARK    7  A    between atoms: O_14  and  N_7 
REMARK    8  A    between atoms: C_18  and  S_10 
REMARK    9  A    between atoms: C_17  and  N_11 
ROOT
ATOM      1  C   UNL d   1      -1.033   2.789   2.235  0.00  0.00     0.085 C 
ATOM      2  N   UNL d   1      -1.561   2.644   3.423  0.00  0.00    -0.249 N 
ATOM      3  HN  UNL d   1      -1.556   3.333   4.175  1.00  0.00     0.196 HD
ENDROOT
BRANCH   1   4
ATOM      4  C   UNL d   1      -0.381   4.083   1.761  0.00  0.00     0.152 C 
BRANCH   4   5
ATOM      5  S   UNL d   1      -0.832   5.580   2.670  0.00  0.00    -0.104 SA
BRANCH   5   6
ATOM      6  C   UNL d   1      -0.125   6.826   1.587  0.00  0.00     0.085 A 
ATOM      7  C   UNL d   1      -0.132   8.190   1.858  0.00  0.00     0.081 A 
ATOM      8  C   UNL d   1       0.401   9.055   0.874  0.00  0.00     0.020 A 
ATOM      9  C   UNL d   1       0.920   8.556  -0.312  0.00  0.00     0.018 A 
ATOM     10  C   UNL d   1       0.904   7.192  -0.484  0.00  0.00     0.089 A 
ATOM     11  N   UNL d   1       0.403   6.336   0.431  0.00  0.00    -0.360 N 
ATOM     12  HN  UNL d   1       0.420   5.331   0.258  1.00  0.00     0.166 HD
BRANCH   7  13
ATOM     13  C   UNL d   1      -0.664   8.829   3.107  0.00  0.00     0.420 C 
ATOM     14  F   UNL d   1      -1.090   8.005   4.096  0.00  0.00    -0.166 F 
ATOM     15  F   UNL d   1      -1.715   9.658   2.839  0.00  0.00    -0.166 F 
ATOM     16  F   UNL d   1       0.276   9.630   3.693  0.00  0.00    -0.166 F 
ENDBRANCH   7  13
ENDBRANCH   5   6
ENDBRANCH   4   5
ENDBRANCH   1   4
BRANCH   1  17
ATOM     17  N   UNL d   1      -0.980   1.748   1.325  0.00  0.00    -0.290 NA
ATOM     18  H   UNL d   1      -0.203   1.740   0.673  0.00  0.00     0.125 HD
ATOM     19  H   UNL d   1      -1.174   0.840   1.736  0.00  0.00     0.125 HD
ENDBRANCH   1  17
BRANCH   2  20
ATOM     20  O   UNL d   1      -2.144   1.349   3.472  0.00  0.00    -0.180 OA
BRANCH  20  21
ATOM     21  C   UNL d   1      -2.413   0.868   4.732  0.00  0.00     0.387 C 
ATOM     22  N   UNL d   1      -2.155   1.746   5.754  0.00  0.00    -0.301 N 
ATOM     23  H   UNL d   1      -1.882   2.665   5.419  0.00  0.00     0.171 HD
ATOM     24  O   UNL d   1      -2.849  -0.275   4.844  0.00  0.00    -0.236 OA
BRANCH  22  25
ATOM     25  C   UNL d   1      -2.273   1.499   7.136  0.00  0.00     0.037 A 
ATOM     26  C   UNL d   1      -2.532   0.229   7.669  0.00  0.00     0.045 A 
ATOM     27  C   UNL d   1      -2.635   0.023   9.056  0.00  0.00     0.050 A 
ATOM     28  C   UNL d   1      -2.485   1.118   9.915  0.00  0.00     0.016 A 
ATOM     29  C   UNL d   1      -2.221   2.386   9.396  0.00  0.00     0.003 A 
ATOM     30  C   UNL d   1      -2.109   2.573   8.014  0.00  0.00     0.029 A 
BRANCH  27  31
ATOM     31  C   UNL d   1      -2.906  -1.353   9.616  0.00  0.00     0.417 C 
ATOM     32  F   UNL d   1      -2.942  -2.338   8.676  0.00  0.00    -0.166 F 
ATOM     33  F   UNL d   1      -1.961  -1.740  10.518  0.00  0.00    -0.166 F 
ATOM     34  F   UNL d   1      -4.096  -1.422  10.274  0.00  0.00    -0.166 F 
ENDBRANCH  27  31
ENDBRANCH  22  25
ENDBRANCH  20  21
ENDBRANCH   2  20
TORSDOF 9
