REMARK  3 active torsions:
REMARK  status: ('A' for Active; 'I' for Inactive)
REMARK    1  A    between atoms: C_7  and  C_3 
REMARK    2  A    between atoms: C_10  and  C_4 
REMARK    3  A    between atoms: O_11  and  N_8 
ROOT
ATOM      1  N   UNL d   1       4.063  -0.286  -0.010  0.00  0.00    -0.348 N 
ATOM      2  HN  UNL d   1       3.322  -0.986  -0.040  1.00  0.00     0.166 HD
ATOM      3  C   UNL d   1       3.851   1.092  -0.019  0.00  0.00     0.064 A 
ATOM      4  C   UNL d   1       5.354  -0.564   0.043  0.00  0.00     0.084 A 
ATOM      5  S   UNL d   1       6.384   0.818   0.024  0.00  0.00    -0.081 SA
ATOM      6  C   UNL d   1       5.015   1.838  -0.013  0.00  0.00     0.083 A 
ENDROOT
BRANCH   3   7
ATOM      7  C   UNL d   1       2.502   1.665  -0.034  0.00  0.00     0.055 C 
ATOM      8  N   UNL d   1       2.417   2.967  -0.039  0.00  0.00    -0.272 N 
ATOM      9  HN  UNL d   1       3.222   3.593  -0.039  1.00  0.00     0.194 HD
ATOM     10  C   UNL d   1       1.297   0.755  -0.032  0.00  0.00     0.072 C 
BRANCH   8  11
ATOM     11  O   UNL d   1       1.085   3.400  -0.044  0.00  0.00    -0.290 OA
ATOM     12  H   UNL d   1       1.179   4.372  -0.037  0.00  0.00     0.244 HD
ENDBRANCH   8  11
ENDBRANCH   3   7
BRANCH   4  13
ATOM     13  C   UNL d   1       5.916  -1.926   0.062  0.00  0.00    -0.002 A 
ATOM     14  C   UNL d   1       5.228  -2.966  -0.584  0.00  0.00     0.014 A 
ATOM     15  C   UNL d   1       5.741  -4.266  -0.601  0.00  0.00     0.001 A 
ATOM     16  C   UNL d   1       6.946  -4.549   0.039  0.00  0.00     0.000 A 
ATOM     17  C   UNL d   1       7.632  -3.536   0.703  0.00  0.00     0.001 A 
ATOM     18  C   UNL d   1       7.120  -2.235   0.716  0.00  0.00     0.014 A 
ENDBRANCH   4  13
TORSDOF 3
