REMARK  4 active torsions:
REMARK  status: ('A' for Active; 'I' for Inactive)
REMARK    1  A    between atoms: C_5  and  C_3 
REMARK    2  A    between atoms: O_15  and  C_8 
REMARK    3  A    between atoms: O_14  and  C_9 
REMARK    4  A    between atoms: O_16  and  C_13 
ROOT
ATOM      1  C   UNL d   1      -3.211  -1.936  -0.018  0.00  0.00     0.032 A 
ATOM      2  C   UNL d   1      -3.884  -1.443  -1.163  0.00  0.00     0.083 A 
ATOM      3  C   UNL d   1      -3.994  -2.482   1.030  0.00  0.00     0.083 A 
ATOM      4  C   UNL d   1      -5.292  -1.464  -1.214  0.00  0.00     0.074 A 
ATOM      5  C   UNL d   1      -5.394  -2.494   0.936  0.00  0.00     0.074 A 
ATOM      6  C   UNL d   1      -6.052  -1.975  -0.172  0.00  0.00     0.073 A 
ENDROOT
BRANCH   1   7
ATOM      7  C   UNL d   1      -1.749  -1.908   0.095  0.00  0.00     0.035 C 
ATOM      8  C   UNL d   1      -1.020  -0.836   0.438  0.00  0.00     0.045 A 
ATOM      9  C   UNL d   1       0.484  -0.886   0.385  0.00  0.00     0.257 A 
ATOM     10  C   UNL d   1      -1.398   0.537   0.792  0.00  0.00     0.006 A 
ATOM     11  N   UNL d   1       0.893   0.413   0.628  0.00  0.00    -0.322 N 
ATOM     12  O   UNL d   1       1.182  -1.853   0.147  0.00  0.00    -0.267 OA
ATOM     13  C   UNL d   1      -0.195   1.252   0.861  0.00  0.00     0.046 A 
ATOM     14  H   UNL d   1       1.863   0.687   0.634  0.00  0.00     0.169 HD
ATOM     15  C   UNL d   1      -0.149   2.604   1.131  0.00  0.00     0.030 A 
ATOM     16  C   UNL d   1      -1.364   3.253   1.361  0.00  0.00     0.002 A 
ATOM     17  C   UNL d   1      -2.576   2.542   1.328  0.00  0.00     0.001 A 
ATOM     18  C   UNL d   1      -2.599   1.172   1.042  0.00  0.00     0.015 A 
ENDBRANCH   1   7
BRANCH   2  19
ATOM     19  O   UNL d   1      -3.391  -0.902  -2.323  0.00  0.00    -0.355 OA
ATOM     20  C   UNL d   1      -2.013  -0.908  -2.639  0.00  0.00     0.210 C 
ENDBRANCH   2  19
BRANCH   3  21
ATOM     21  O   UNL d   1      -3.550  -3.136   2.153  0.00  0.00    -0.355 OA
ATOM     22  C   UNL d   1      -2.460  -2.581   2.873  0.00  0.00     0.210 C 
ENDBRANCH   3  21
BRANCH   6  23
ATOM     23  O   UNL d   1      -7.417  -2.033  -0.123  0.00  0.00    -0.356 OA
ATOM     24  C   UNL d   1      -8.123  -1.538  -1.256  0.00  0.00     0.210 C 
ENDBRANCH   6  23
TORSDOF 4
