REMARK  7 active torsions:
REMARK  status: ('A' for Active; 'I' for Inactive)
REMARK       I    between atoms: N_4  and  C_1 
REMARK    1  A    between atoms: C_7  and  C_1 
REMARK       I    between atoms: C_2  and  N_3 
REMARK    2  A    between atoms: C_9  and  C_2 
REMARK    3  A    between atoms: N_3  and  C_7 
REMARK    4  A    between atoms: C_10  and  N_4 
REMARK    5  A    between atoms: O_8  and  C_9 
REMARK    6  A    between atoms: C_11  and  O_8 
REMARK    7  A    between atoms: C_12  and  C_10 
ROOT
ATOM      1  C   UNL d   1       4.170  -2.052  -0.389  0.00  0.00     0.242 C 
ATOM      2  N   UNL d   1       3.221  -1.155  -0.845  0.00  0.00    -0.350 N 
ATOM      3  O   UNL d   1       4.443  -2.189   0.799  0.00  0.00    -0.271 OA
ATOM      4  H   UNL d   1       3.197  -0.957  -1.838  0.00  0.00     0.163 HD
ENDROOT
BRANCH   2   5
ATOM      5  C   UNL d   1       2.639  -0.153   0.040  0.00  0.00     0.225 C 
BRANCH   5   6
ATOM      6  C   UNL d   1       1.112  -0.053  -0.045  0.00  0.00     0.235 C 
ATOM      7  N   UNL d   1       0.451  -1.243  -0.240  0.00  0.00    -0.355 N 
ATOM      8  H   UNL d   1       0.993  -2.097  -0.286  0.00  0.00     0.162 HD
ATOM      9  O   UNL d   1       0.528   1.010   0.165  0.00  0.00    -0.272 OA
BRANCH   7  10
ATOM     10  C   UNL d   1      -0.994  -1.321  -0.311  0.00  0.00     0.161 C 
BRANCH  10  11
ATOM     11  C   UNL d   1      -1.577  -2.240   0.733  0.00  0.00    -0.041 A 
ATOM     12  C   UNL d   1      -1.445  -1.944   2.098  0.00  0.00     0.009 A 
ATOM     13  C   UNL d   1      -2.037  -2.762   3.063  0.00  0.00     0.001 A 
ATOM     14  C   UNL d   1      -2.769  -3.883   2.677  0.00  0.00     0.000 A 
ATOM     15  C   UNL d   1      -2.909  -4.188   1.324  0.00  0.00     0.001 A 
ATOM     16  C   UNL d   1      -2.317  -3.371   0.358  0.00  0.00     0.009 A 
ENDBRANCH  10  11
ENDBRANCH   7  10
ENDBRANCH   5   6
ENDBRANCH   2   5
BRANCH   1  17
ATOM     17  C   UNL d   1       4.829  -2.889  -1.486  0.00  0.00     0.278 C 
BRANCH  17  18
ATOM     18  O   UNL d   1       5.942  -2.186  -2.025  0.00  0.00    -0.342 OA
BRANCH  18  19
ATOM     19  C   UNL d   1       6.596  -2.782  -3.072  0.00  0.00     0.069 A 
ATOM     20  C   UNL d   1       6.255  -4.000  -3.664  0.00  0.00     0.037 A 
ATOM     21  C   UNL d   1       6.975  -4.477  -4.764  0.00  0.00     0.003 A 
ATOM     22  C   UNL d   1       8.047  -3.746  -5.272  0.00  0.00     0.000 A 
ATOM     23  C   UNL d   1       8.409  -2.543  -4.672  0.00  0.00     0.003 A 
ATOM     24  C   UNL d   1       7.686  -2.065  -3.575  0.00  0.00     0.037 A 
ENDBRANCH  18  19
ENDBRANCH  17  18
ENDBRANCH   1  17
TORSDOF 7
