REMARK  4 active torsions:
REMARK  status: ('A' for Active; 'I' for Inactive)
REMARK    1  A    between atoms: C_2  and  S_1 
REMARK    2  A    between atoms: N_10  and  S_1 
REMARK    3  A    between atoms: C_18  and  N_10 
REMARK    4  A    between atoms: C_11  and  C_18 
ROOT
ATOM      1  C   UNL d   1       0.540   0.255  -1.542  0.00  0.00     0.087 A 
ATOM      2  C   UNL d   1       0.166  -0.861  -2.355  0.00  0.00    -0.032 A 
ATOM      3  C   UNL d   1       0.481   1.580  -2.070  0.00  0.00    -0.032 A 
ATOM      4  C   UNL d   1      -0.025   1.782  -3.390  0.00  0.00    -0.048 A 
ATOM      5  C   UNL d   1      -0.405  -0.630  -3.638  0.00  0.00    -0.048 A 
ATOM      6  C   UNL d   1      -0.493   0.687  -4.154  0.00  0.00    -0.049 A 
ATOM      7  C   UNL d   1       0.934   2.818  -1.327  0.00  0.00     0.050 C 
ATOM      8  C   UNL d   1       0.331  -2.301  -1.915  0.00  0.00     0.050 C 
ATOM      9  C   UNL d   1      -0.090   3.169  -4.007  0.00  0.00     0.049 C 
ATOM     10  C   UNL d   1      -0.939  -1.770  -4.491  0.00  0.00     0.049 C 
ATOM     11  C   UNL d   1      -1.093   0.887  -5.535  0.00  0.00     0.049 C 
ENDROOT
BRANCH   1  12
ATOM     12  S   UNL d   1       1.003  -0.037   0.197  0.00  0.00     0.242 S 
ATOM     13  O   UNL d   1       0.414  -1.287   0.633  0.00  0.00    -0.206 OA
ATOM     14  O   UNL d   1       0.771   1.147   0.993  0.00  0.00    -0.206 OA
BRANCH  12  15
ATOM     15  N   UNL d   1       2.686  -0.295   0.069  0.00  0.00    -0.212 NA
ATOM     16  H   UNL d   1       2.887  -0.911  -0.720  0.00  0.00     0.140 HD
BRANCH  15  17
ATOM     17  C   UNL d   1       3.516   0.912   0.061  0.00  0.00     0.131 C 
BRANCH  17  18
ATOM     18  C   UNL d   1       4.944   0.492  -0.111  0.00  0.00    -0.022 C 
ATOM     19  C   UNL d   1       5.737   0.941  -1.096  0.00  0.00     0.008 C 
ENDBRANCH  17  18
ENDBRANCH  15  17
ENDBRANCH  12  15
ENDBRANCH   1  12
TORSDOF 4
