REMARK  5 active torsions:
REMARK  status: ('A' for Active; 'I' for Inactive)
REMARK    1  A    between atoms: N_2  and  C_1 
REMARK    2  A    between atoms: N_7  and  C_1 
REMARK    3  A    between atoms: C_11  and  N_2 
REMARK    4  A    between atoms: C_3  and  C_10 
REMARK    5  A    between atoms: C_10  and  N_7 
ROOT
ATOM      1  N   UNL d   1       0.549  -1.051   0.899  0.00  0.00    -0.332 N 
ATOM      2  H   UNL d   1       0.999  -1.956   0.837  0.00  0.00     0.168 HD
ENDROOT
BRANCH   1   3
ATOM      3  C   UNL d   1       1.126  -0.119   0.076  0.00  0.00     0.172 C 
ATOM      4  S   UNL d   1       0.364   1.069  -0.818  0.00  0.00    -0.041 SA
BRANCH   3   5
ATOM      5  N   UNL d   1       2.485  -0.243  -0.070  0.00  0.00    -0.367 N 
ATOM      6  H   UNL d   1       2.868   0.426  -0.728  0.00  0.00     0.161 HD
BRANCH   5   7
ATOM      7  C   UNL d   1       3.397  -0.670   0.976  0.00  0.00     0.126 C 
BRANCH   7   8
ATOM      8  C   UNL d   1       3.843  -2.094   0.867  0.00  0.00     0.003 A 
ATOM      9  C   UNL d   1       4.594  -2.578  -0.350  0.00  0.00     0.007 A 
ATOM     10  C   UNL d   1       3.225  -3.122  -0.052  0.00  0.00     0.007 A 
ENDBRANCH   7   8
ENDBRANCH   5   7
ENDBRANCH   3   5
ENDBRANCH   1   3
BRANCH   1  11
ATOM     11  C   UNL d   1      -0.748  -1.048   1.461  0.00  0.00     0.049 A 
ATOM     12  C   UNL d   1      -1.447  -2.246   1.588  0.00  0.00     0.117 A 
ATOM     13  N   UNL d   1      -2.656  -2.369   2.185  0.00  0.00    -0.373 N 
ATOM     14  C   UNL d   1      -3.189  -1.238   2.696  0.00  0.00     0.088 A 
ATOM     15  HN  UNL d   1      -3.138  -3.265   2.245  1.00  0.00     0.164 HD
ATOM     16  C   UNL d   1      -2.574   0.002   2.629  0.00  0.00     0.019 A 
ATOM     17  C   UNL d   1      -1.336   0.096   1.995  0.00  0.00     0.032 A 
ENDBRANCH   1  11
TORSDOF 5
