REMARK  7 active torsions:
REMARK  status: ('A' for Active; 'I' for Inactive)
REMARK       I    between atoms: N_2  and  C_1 
REMARK    1  A    between atoms: O_5  and  C_1 
REMARK    2  A    between atoms: C_4  and  N_2 
REMARK    3  A    between atoms: C_3  and  C_4 
REMARK       I    between atoms: N_10  and  C_3 
REMARK    4  A    between atoms: C_8  and  C_4 
REMARK    5  A    between atoms: C_9  and  O_5 
REMARK    6  A    between atoms: C_11  and  C_8 
REMARK    7  A    between atoms: C_15  and  N_10 
ROOT
ATOM      1  C   UNL d   1       1.146   1.160   2.182  0.00  0.00     0.179 C 
ENDROOT
BRANCH   1   2
ATOM      2  C   UNL d   1       1.803   2.386   1.500  0.00  0.00     0.240 C 
ATOM      3  O   UNL d   1       1.574   2.691   0.330  0.00  0.00    -0.271 OA
ATOM      4  N   UNL d   1       2.648   3.115   2.314  0.00  0.00    -0.360 N 
ATOM      5  H   UNL d   1       2.881   2.758   3.232  0.00  0.00     0.162 HD
BRANCH   4   6
ATOM      6  C   UNL d   1       3.362   4.285   1.841  0.00  0.00     0.118 C 
ATOM      7  C   UNL d   1       4.733   3.921   1.303  0.00  0.00     0.026 C 
ENDBRANCH   4   6
ENDBRANCH   1   2
BRANCH   1   8
ATOM      8  N   UNL d   1       0.426   0.415   1.155  0.00  0.00    -0.324 N 
ATOM      9  C   UNL d   1       0.347  -0.942   1.149  0.00  0.00     0.362 C 
ATOM     10  O   UNL d   1       0.798  -1.659   2.031  0.00  0.00    -0.238 OA
ATOM     11  H   UNL d   1       0.151   0.898   0.308  0.00  0.00     0.165 HD
BRANCH   9  12
ATOM     12  O   UNL d   1      -0.299  -1.373   0.041  0.00  0.00    -0.294 OA
BRANCH  12  13
ATOM     13  C   UNL d   1      -0.521  -2.799  -0.139  0.00  0.00     0.061 C 
ATOM     14  C   UNL d   1      -1.474  -3.350   0.931  0.00  0.00     0.046 C 
ATOM     15  C   UNL d   1      -1.203  -2.938  -1.509  0.00  0.00     0.046 C 
ATOM     16  C   UNL d   1       0.801  -3.578  -0.185  0.00  0.00     0.046 C 
ENDBRANCH  12  13
ENDBRANCH   9  12
ENDBRANCH   1   8
BRANCH   1  17
ATOM     17  C   UNL d   1       0.214   1.623   3.319  0.00  0.00     0.038 C 
BRANCH  17  18
ATOM     18  C   UNL d   1      -0.465   0.506   4.140  0.00  0.00    -0.020 C 
ATOM     19  C   UNL d   1       0.536  -0.359   4.910  0.00  0.00     0.009 C 
ATOM     20  C   UNL d   1      -1.451   1.124   5.137  0.00  0.00     0.009 C 
ENDBRANCH  17  18
ENDBRANCH   1  17
TORSDOF 7
