REMARK  2 active torsions:
REMARK  status: ('A' for Active; 'I' for Inactive)
REMARK    1  A    between atoms: C_2  and  C_1 
REMARK       I    between atoms: C_8  and  N_5 
REMARK       I    between atoms: N_14  and  C_8 
REMARK    2  A    between atoms: C_17  and  N_14 
ROOT
ATOM      1  C   UNL d   1      -1.468  -2.515  -0.023  0.00  0.00     0.069 A 
ATOM      2  N   UNL d   1      -2.331  -2.962  -0.951  0.00  0.00    -0.289 N 
ATOM      3  HN  UNL d   1      -2.599  -2.513  -1.827  1.00  0.00     0.188 HD
ATOM      4  N   UNL d   1      -2.771  -4.162  -0.449  0.00  0.00    -0.217 N 
ATOM      5  C   UNL d   1      -3.706  -4.970  -1.144  0.00  0.00     0.341 C 
ATOM      6  C   UNL d   1      -1.304  -3.446   1.032  0.00  0.00     0.052 A 
ATOM      7  C   UNL d   1      -2.184  -4.459   0.758  0.00  0.00     0.124 A 
ATOM      8  N   UNL d   1      -3.841  -4.587  -2.454  0.00  0.00    -0.337 N 
ATOM      9  O   UNL d   1      -4.225  -5.916  -0.568  0.00  0.00    -0.245 OA
ATOM     10  H   UNL d   1      -3.343  -3.740  -2.722  0.00  0.00     0.164 HD
ENDROOT
BRANCH   1  11
ATOM     11  C   UNL d   1      -0.774  -1.182  -0.089  0.00  0.00     0.057 A 
ATOM     12  C   UNL d   1      -1.060  -0.124  -0.937  0.00  0.00     0.025 A 
ATOM     13  N   UNL d   1      -0.258   1.002  -0.751  0.00  0.00    -0.357 N 
ATOM     14  C   UNL d   1      -2.139  -0.029  -1.956  0.00  0.00     0.070 C 
ATOM     15  C   UNL d   1       0.599   0.798   0.224  0.00  0.00     0.048 A 
ATOM     16  HN  UNL d   1      -0.328   1.862  -1.295  1.00  0.00     0.166 HD
ATOM     17  S   UNL d   1       0.505  -0.739   0.969  0.00  0.00    -0.073 SA
ATOM     18  C   UNL d   1       1.587   1.807   0.695  0.00  0.00     0.076 C 
ENDBRANCH   1  11
BRANCH   8  19
ATOM     19  C   UNL d   1      -4.700  -5.244  -3.431  0.00  0.00     0.078 C 
ATOM     20  C   UNL d   1      -4.734  -6.772  -3.309  0.00  0.00     0.032 C 
ATOM     21  C   UNL d   1      -6.110  -4.669  -3.398  0.00  0.00     0.032 C 
ENDBRANCH   8  19
TORSDOF 2
