REMARK  7 active torsions:
REMARK  status: ('A' for Active; 'I' for Inactive)
REMARK    1  A    between atoms: C_3  and  C_1 
REMARK    2  A    between atoms: C_6  and  CA_2 
REMARK       I    between atoms: N_7  and  C_3 
REMARK       I    between atoms: C_4  and  N_8 
REMARK    3  A    between atoms: C_5  and  C_4 
REMARK    4  A    between atoms: OXT_19  and  C_6 
REMARK    5  A    between atoms: C_18  and  N_7 
REMARK    6  A    between atoms: N_8  and  C_17 
REMARK    7  A    between atoms: O_20  and  C_13 
ROOT
ATOM      1  C   UNL d   1       3.150  -4.165   0.511  0.00  0.00     0.035 A 
ATOM      2  C   UNL d   1       0.351  -4.025   0.167  0.00  0.00     0.035 A 
ATOM      3  C   UNL d   1       1.100  -4.975  -0.523  0.00  0.00     0.032 A 
ATOM      4  C   UNL d   1       2.388  -3.292   1.283  0.00  0.00     0.032 A 
ATOM      5  C   UNL d   1       0.998  -3.227   1.117  0.00  0.00     0.032 A 
ATOM      6  C   UNL d   1       2.488  -5.043  -0.355  0.00  0.00     0.032 A 
ENDROOT
BRANCH   2   7
ATOM      7  N   UNL d   1      -1.013  -3.736  -0.085  0.00  0.00    -0.322 N 
ATOM      8  C   UNL d   1      -1.770  -4.186  -1.152  0.00  0.00     0.275 C 
ATOM      9  O   UNL d   1      -1.404  -5.105  -1.888  0.00  0.00    -0.266 OA
ATOM     10  H   UNL d   1      -1.374  -2.984   0.499  0.00  0.00     0.169 HD
BRANCH   8  11
ATOM     11  C   UNL d   1      -3.101  -3.535  -1.489  0.00  0.00     0.134 A 
ATOM     12  CA  UNL d   1      -3.781  -2.489  -0.871  0.00  0.00     0.139 A 
ATOM     13  N   UNL d   1      -5.013  -2.028  -1.320  0.00  0.00    -0.357 N 
ATOM     14  C   UNL d   1      -5.515  -2.626  -2.420  0.00  0.00     0.105 A 
ATOM     15  HN  UNL d   1      -5.511  -1.276  -0.842  1.00  0.00     0.165 HD
ATOM     16  C   UNL d   1      -4.846  -3.641  -3.061  0.00  0.00     0.105 A 
ATOM     17  N   UNL d   1      -3.663  -4.106  -2.610  0.00  0.00    -0.358 N 
ATOM     18  HN  UNL d   1      -3.190  -4.870  -3.092  1.00  0.00     0.165 HD
BRANCH  12  19
ATOM     19  C   UNL d   1      -3.325  -1.697   0.308  0.00  0.00     0.196 C 
ATOM     20  O   UNL d   1      -2.263  -1.802   0.889  0.00  0.00    -0.645 OA
BRANCH  19  21
ATOM     21  OXT UNL d   1      -4.271  -0.796   0.674  0.00  0.00    -0.772 OA
ATOM     22  HXT UNL d   1      -5.041  -0.860   0.057  0.00  0.00     0.167 HD
ENDBRANCH  19  21
ENDBRANCH  12  19
ENDBRANCH   8  11
ENDBRANCH   2   7
BRANCH   1  23
ATOM     23  N   UNL d   1       4.562  -4.195   0.507  0.00  0.00    -0.323 N 
ATOM     24  C   UNL d   1       5.417  -3.318   1.150  0.00  0.00     0.259 C 
ATOM     25  O   UNL d   1       5.094  -2.384   1.882  0.00  0.00    -0.267 OA
ATOM     26  H   UNL d   1       4.968  -4.830  -0.167  0.00  0.00     0.169 HD
BRANCH  24  27
ATOM     27  C   UNL d   1       6.870  -3.477   0.849  0.00  0.00     0.065 A 
ATOM     28  C   UNL d   1       7.714  -2.355   0.912  0.00  0.00     0.081 A 
ATOM     29  C   UNL d   1       9.062  -2.460   0.573  0.00  0.00     0.037 A 
ATOM     30  C   UNL d   1       9.591  -3.692   0.193  0.00  0.00     0.003 A 
ATOM     31  C   UNL d   1       8.774  -4.822   0.166  0.00  0.00     0.001 A 
ATOM     32  C   UNL d   1       7.419  -4.719   0.497  0.00  0.00     0.020 A 
BRANCH  28  33
ATOM     33  O   UNL d   1       7.283  -1.112   1.293  0.00  0.00    -0.360 OA
ATOM     34  H   UNL d   1       6.376  -1.212   1.661  0.00  0.00     0.217 HD
ENDBRANCH  28  33
ENDBRANCH  24  27
ENDBRANCH   1  23
TORSDOF 7
