REMARK  5 active torsions:
REMARK  status: ('A' for Active; 'I' for Inactive)
REMARK    1  A    between atoms: C_10  and  C_3 
REMARK    2  A    between atoms: C_11  and  N_4 
REMARK    3  A    between atoms: C_5  and  C_13 
REMARK    4  A    between atoms: C_9  and  C_10 
REMARK    5  A    between atoms: N_23  and  C_12 
ROOT
ATOM      1  N   UNL d   1       1.083  -0.712  -0.221  0.00  0.00    -0.287 N 
ATOM      2  HN  UNL d   1       1.939  -1.183  -0.515  1.00  0.00     0.188 HD
ATOM      3  C   UNL d   1       1.064   0.577   0.002  0.00  0.00     0.149 C 
ATOM      4  N   UNL d   1      -0.087  -1.411  -0.047  0.00  0.00    -0.267 N 
ATOM      5  C   UNL d   1      -0.214   1.274   0.426  0.00  0.00     0.205 C 
ATOM      6  C   UNL d   1      -1.467   0.540   0.214  0.00  0.00     0.076 C 
ATOM      7  C   UNL d   1      -1.309  -0.770   0.020  0.00  0.00     0.120 C 
ATOM      8  O   UNL d   1      -0.201   2.377   0.952  0.00  0.00    -0.286 OA
ENDROOT
BRANCH   4   9
ATOM      9  C   UNL d   1       0.060  -2.830   0.078  0.00  0.00     0.056 A 
ATOM     10  C   UNL d   1      -0.875  -3.608   0.785  0.00  0.00     0.032 A 
ATOM     11  C   UNL d   1      -0.713  -4.991   0.935  0.00  0.00     0.018 A 
ATOM     12  C   UNL d   1       0.394  -5.642   0.379  0.00  0.00     0.048 A 
ATOM     13  C   UNL d   1       1.334  -4.880  -0.327  0.00  0.00     0.018 A 
ATOM     14  C   UNL d   1       1.172  -3.496  -0.466  0.00  0.00     0.032 A 
BRANCH  12  15
ATOM     15  C   UNL d   1       0.584  -7.131   0.535  0.00  0.00     0.417 C 
ATOM     16  F   UNL d   1      -0.378  -7.726   1.296  0.00  0.00    -0.166 F 
ATOM     17  F   UNL d   1       0.573  -7.786  -0.658  0.00  0.00    -0.166 F 
ATOM     18  F   UNL d   1       1.770  -7.446   1.125  0.00  0.00    -0.166 F 
ENDBRANCH  12  15
ENDBRANCH   4   9
BRANCH   3  19
ATOM     19  C   UNL d   1       2.328   1.363  -0.242  0.00  0.00     0.205 C 
ATOM     20  O   UNL d   1       2.228   2.455  -0.796  0.00  0.00    -0.286 OA
BRANCH  19  21
ATOM     21  C   UNL d   1       3.679   0.841   0.098  0.00  0.00     0.074 C 
ATOM     22  C   UNL d   1       3.973  -0.341   0.654  0.00  0.00     0.088 C 
BRANCH  22  23
ATOM     23  N   UNL d   1       5.212  -0.909   0.932  0.00  0.00    -0.398 N 
ATOM     24  C   UNL d   1       6.501  -0.298   0.601  0.00  0.00     0.148 C 
ATOM     25  C   UNL d   1       5.324  -2.288   1.411  0.00  0.00     0.148 C 
ENDBRANCH  22  23
ENDBRANCH  19  21
ENDBRANCH   3  19
TORSDOF 5
