REMARK  3 active torsions:
REMARK  status: ('A' for Active; 'I' for Inactive)
REMARK    1  A    between atoms: C_7  and  C_1 
REMARK    2  A    between atoms: C_8  and  C_3 
REMARK       I    between atoms: N_13  and  C_7 
REMARK    3  A    between atoms: N_15  and  N_13 
ROOT
ATOM      1  C   UNL d   1      -0.145  -1.115  -0.014  0.00  0.00     0.098 A 
ATOM      2  S   UNL d   1       1.415  -0.398  -0.044  0.00  0.00    -0.064 SA
ATOM      3  C   UNL d   1       0.718   1.168  -0.025  0.00  0.00     0.092 A 
ATOM      4  N   UNL d   1      -0.600   1.180  -0.008  0.00  0.00    -0.352 N 
ATOM      5  HN  UNL d   1      -1.171   2.025   0.002  1.00  0.00     0.166 HD
ATOM      6  C   UNL d   1      -1.105  -0.115  -0.006  0.00  0.00     0.029 A 
ATOM      7  C   UNL d   1      -2.584  -0.288   0.007  0.00  0.00     0.070 C 
ENDROOT
BRANCH   1   8
ATOM      8  C   UNL d   1      -0.320  -2.558   0.010  0.00  0.00     0.274 C 
ATOM      9  O   UNL d   1      -1.414  -3.113   0.107  0.00  0.00    -0.266 OA
ATOM     10  N   UNL d   1       0.863  -3.303  -0.075  0.00  0.00    -0.289 N 
ATOM     11  H   UNL d   1       1.741  -2.820  -0.247  0.00  0.00     0.183 HD
BRANCH  10  12
ATOM     12  N   UNL d   1       0.833  -4.712  -0.105  0.00  0.00    -0.247 NA
ATOM     13  H   UNL d   1      -0.154  -4.995  -0.182  0.00  0.00     0.143 HD
ATOM     14  H   UNL d   1       1.123  -5.054   0.816  0.00  0.00     0.143 HD
ENDBRANCH  10  12
ENDBRANCH   1   8
BRANCH   3  15
ATOM     15  C   UNL d   1       1.495   2.387  -0.023  0.00  0.00     0.038 A 
ATOM     16  S   UNL d   1       3.214   2.418  -0.110  0.00  0.00    -0.099 SA
ATOM     17  C   UNL d   1       3.268   4.122  -0.055  0.00  0.00     0.050 A 
ATOM     18  C   UNL d   1       2.012   4.674   0.029  0.00  0.00     0.008 A 
ATOM     19  C   UNL d   1       0.993   3.676   0.048  0.00  0.00     0.022 A 
ENDBRANCH   3  15
TORSDOF 3
