REMARK  6 active torsions:
REMARK  status: ('A' for Active; 'I' for Inactive)
REMARK    1  A    between atoms: N_3  and  S_1 
REMARK    2  A    between atoms: C_6  and  S_1 
REMARK    3  A    between atoms: C_2  and  C_5 
REMARK    4  A    between atoms: C_5  and  N_3 
REMARK    5  A    between atoms: O_9  and  C_4 
REMARK    6  A    between atoms: C_14  and  O_9 
ROOT
ATOM      1  C   UNL d   1       0.434  -2.856   2.845  0.00  0.00     0.016 A 
ATOM      2  C   UNL d   1       0.643  -4.250   2.933  0.00  0.00     0.085 A 
ATOM      3  C   UNL d   1      -0.060  -2.199   3.990  0.00  0.00     0.044 A 
ATOM      4 CL   UNL d   1      -0.312  -0.488   4.051  0.00  0.00    -0.084 Cl
ATOM      5  C   UNL d   1       0.451  -4.920   4.156  0.00  0.00     0.038 A 
ATOM      6  C   UNL d   1      -0.066  -4.256   5.261  0.00  0.00     0.004 A 
ATOM      7  C   UNL d   1      -0.337  -2.899   5.171  0.00  0.00     0.024 A 
ENDROOT
BRANCH   1   8
ATOM      8  C   UNL d   1       0.818  -2.095   1.598  0.00  0.00     0.175 C 
BRANCH   8   9
ATOM      9  N   UNL d   1       0.129  -2.443   0.361  0.00  0.00    -0.311 N 
ATOM     10  H   UNL d   1       0.675  -2.516  -0.492  0.00  0.00     0.172 HD
BRANCH   9  11
ATOM     11  S   UNL d   1      -1.496  -2.171   0.122  0.00  0.00     0.259 S 
ATOM     12  O   UNL d   1      -2.236  -2.832   1.173  0.00  0.00    -0.201 OA
ATOM     13  O   UNL d   1      -1.749  -2.451  -1.275  0.00  0.00    -0.201 OA
BRANCH  11  14
ATOM     14  C   UNL d   1      -1.673  -0.412   0.335  0.00  0.00     0.079 A 
ATOM     15  C   UNL d   1      -1.096   0.456  -0.601  0.00  0.00     0.028 A 
ATOM     16  C   UNL d   1      -1.247   1.835  -0.442  0.00  0.00     0.044 A 
ATOM     17  C   UNL d   1      -1.972   2.328   0.644  0.00  0.00     0.116 A 
ATOM     18  C   UNL d   1      -2.563   1.464   1.562  0.00  0.00     0.044 A 
ATOM     19  F   UNL d   1      -2.110   3.649   0.797  0.00  0.00    -0.206 F 
ATOM     20  C   UNL d   1      -2.423   0.087   1.403  0.00  0.00     0.028 A 
ENDBRANCH  11  14
ENDBRANCH   9  11
ENDBRANCH   8   9
ENDBRANCH   1   8
BRANCH   2  21
ATOM     21  O   UNL d   1       1.097  -4.913   1.801  0.00  0.00    -0.310 OA
BRANCH  21  22
ATOM     22  C   UNL d   1       0.843  -6.266   1.696  0.00  0.00     0.076 A 
ATOM     23  C   UNL d   1      -0.424  -6.817   1.920  0.00  0.00     0.037 A 
ATOM     24  C   UNL d   1      -0.585  -8.203   1.938  0.00  0.00     0.003 A 
ATOM     25  C   UNL d   1       0.502  -9.034   1.668  0.00  0.00     0.000 A 
ATOM     26  C   UNL d   1       1.744  -8.481   1.358  0.00  0.00     0.003 A 
ATOM     27  C   UNL d   1       1.916  -7.094   1.367  0.00  0.00     0.037 A 
ENDBRANCH  21  22
ENDBRANCH   2  21
TORSDOF 6
