REMARK  4 active torsions:
REMARK  status: ('A' for Active; 'I' for Inactive)
REMARK       I    between atoms: N_2  and  C_1 
REMARK    1  A    between atoms: C_5  and  C_1 
REMARK    2  A    between atoms: C_15  and  N_3 
REMARK    3  A    between atoms: C_14  and  C_15 
REMARK    4  A    between atoms: C_25  and  C_24 
ROOT
ATOM      1  C   UNL d   1       0.950   0.063  -0.080  0.00  0.00     0.253 C 
ATOM      2  N   UNL d   1       0.325   1.192   0.468  0.00  0.00    -0.345 N 
ATOM      3  N   UNL d   1      -0.718   3.684   1.689  0.00  0.00     0.095 N 
ATOM      4  O   UNL d   1       1.963   0.133  -0.770  0.00  0.00    -0.267 OA
ATOM      5  C   UNL d   1       0.801   2.508   0.022  0.00  0.00     0.156 C 
ATOM      6  C   UNL d   1      -0.928   1.193   1.234  0.00  0.00     0.156 C 
ATOM      7  C   UNL d   1      -1.061   2.356   2.235  0.00  0.00     0.292 C 
ATOM      8  C   UNL d   1       0.640   3.588   1.107  0.00  0.00     0.292 C 
ENDROOT
BRANCH   1   9
ATOM      9  C   UNL d   1       0.416  -1.294   0.216  0.00  0.00     0.032 A 
ATOM     10  C   UNL d   1      -0.943  -1.603   0.133  0.00  0.00     0.017 A 
ATOM     11  C   UNL d   1      -1.409  -2.858   0.524  0.00  0.00     0.008 A 
ATOM     12  C   UNL d   1      -0.510  -3.859   0.906  0.00  0.00    -0.059 A 
ATOM     13  C   UNL d   1       0.864  -3.580   0.902  0.00  0.00     0.008 A 
ATOM     14  C   UNL d   1       1.326  -2.304   0.561  0.00  0.00     0.017 A 
BRANCH  12  15
ATOM     15  C   UNL d   1      -1.022  -5.221   1.300  0.00  0.00     0.034 C 
ATOM     16  C   UNL d   1      -1.210  -5.362   2.802  0.00  0.00     0.010 C 
ENDBRANCH  12  15
ENDBRANCH   1   9
BRANCH   3  17
ATOM     17  C   UNL d   1      -1.741   4.120   0.723  0.00  0.00     0.311 C 
BRANCH  17  18
ATOM     18  C   UNL d   1      -1.488   5.488   0.131  0.00  0.00    -0.027 A 
ATOM     19  C   UNL d   1      -1.351   5.633  -1.260  0.00  0.00     0.048 A 
ATOM     20  C   UNL d   1      -1.135   6.900  -1.760  0.00  0.00     0.105 A 
ATOM     21  O   UNL d   1      -0.981   7.213  -3.074  0.00  0.00    -0.323 OA
ATOM     22  C   UNL d   1      -1.053   7.998  -0.941  0.00  0.00     0.105 A 
ATOM     23  C   UNL d   1      -0.790   8.640  -2.988  0.00  0.00     0.352 A 
ATOM     24  O   UNL d   1      -0.839   9.146  -1.638  0.00  0.00    -0.323 OA
ATOM     25  C   UNL d   1      -1.183   7.897   0.427  0.00  0.00     0.040 A 
ATOM     26  C   UNL d   1      -1.403   6.626   0.966  0.00  0.00     0.012 A 
ENDBRANCH  17  18
ENDBRANCH   3  17
TORSDOF 4
