REMARK  2 active torsions:
REMARK  status: ('A' for Active; 'I' for Inactive)
REMARK    1  A    between atoms: N_2  and  S_1 
REMARK    2  A    between atoms: C_3  and  S_1 
ROOT
ATOM      1  S   UNL d   1       0.998  -0.032   0.086  0.00  0.00     0.260 S 
ATOM      2  O   UNL d   1       1.308  -1.329   0.657  0.00  0.00    -0.200 OA
ATOM      3  O   UNL d   1       0.363   1.003   0.873  0.00  0.00    -0.200 OA
ENDROOT
BRANCH   1   4
ATOM      4  N   UNL d   1       0.100  -0.241  -1.351  0.00  0.00    -0.307 N 
ATOM      5  C   UNL d   1      -0.436   1.000  -1.954  0.00  0.00     0.135 C 
ATOM      6  C   UNL d   1      -1.478   0.820  -3.052  0.00  0.00     0.021 C 
ATOM      7  C   UNL d   1      -0.994   0.015  -4.253  0.00  0.00     0.002 C 
ATOM      8  C   UNL d   1      -1.163  -1.487  -4.061  0.00  0.00     0.002 C 
ATOM      9  C   UNL d   1      -0.288  -2.071  -2.957  0.00  0.00     0.021 C 
ATOM     10  C   UNL d   1      -0.599  -1.524  -1.562  0.00  0.00     0.135 C 
ENDBRANCH   1   4
BRANCH   1  11
ATOM     11  C   UNL d   1       2.538   0.610  -0.538  0.00  0.00     0.079 A 
ATOM     12  C   UNL d   1       3.019   1.853  -0.123  0.00  0.00     0.026 A 
ATOM     13  C   UNL d   1       4.268   2.291  -0.577  0.00  0.00     0.008 A 
ATOM     14  C   UNL d   1       5.039   1.488  -1.431  0.00  0.00    -0.062 A 
ATOM     15  C   UNL d   1       4.532   0.253  -1.853  0.00  0.00     0.008 A 
ATOM     16  C   UNL d   1       6.392   1.953  -1.889  0.00  0.00     0.048 C 
ATOM     17  C   UNL d   1       3.283  -0.186  -1.412  0.00  0.00     0.026 A 
ENDBRANCH   1  11
TORSDOF 2
