REMARK  3 active torsions:
REMARK  status: ('A' for Active; 'I' for Inactive)
REMARK    1  A    between atoms: C_2  and  C_1 
REMARK       I    between atoms: N_12  and  C_2 
REMARK    2  A    between atoms: C_7  and  C_3 
REMARK    3  A    between atoms: O_15  and  C_9 
ROOT
ATOM      1  C   UNL d   1       0.996   0.460   0.804  0.00  0.00     0.112 C 
ATOM      2  C   UNL d   1       0.350  -0.720   0.880  0.00  0.00     0.039 C 
ATOM      3  C   UNL d   1       0.317   1.706   0.719  0.00  0.00     0.105 C 
ATOM      4  N   UNL d   1      -0.196   2.745   0.649  0.00  0.00    -0.191 NA
ENDROOT
BRANCH   1   5
ATOM      5  C   UNL d   1       2.490   0.430   0.787  0.00  0.00     0.260 C 
ATOM      6  O   UNL d   1       3.134  -0.613   0.858  0.00  0.00    -0.267 OA
ATOM      7  N   UNL d   1       3.136   1.623   0.676  0.00  0.00    -0.365 N 
ATOM      8  H   UNL d   1       2.688   2.529   0.601  0.00  0.00     0.159 HD
ATOM      9  H   UNL d   1       4.147   1.602   0.650  0.00  0.00     0.159 HD
ENDBRANCH   1   5
BRANCH   2  10
ATOM     10  C   UNL d   1      -1.109  -0.832   0.844  0.00  0.00    -0.033 A 
ATOM     11  C   UNL d   1      -1.763  -0.933  -0.387  0.00  0.00     0.033 A 
ATOM     12  C   UNL d   1      -3.168  -0.932  -0.472  0.00  0.00     0.045 A 
ATOM     13 BR   UNL d   1      -3.825  -1.049  -2.253  0.00  0.00    -0.048 Br
ATOM     14  C   UNL d   1      -3.933  -0.841   0.698  0.00  0.00     0.085 A 
ATOM     15  C   UNL d   1      -3.255  -0.768   1.930  0.00  0.00     0.039 A 
ATOM     16  C   UNL d   1      -1.861  -0.761   2.010  0.00  0.00     0.014 A 
BRANCH  14  17
ATOM     17  O   UNL d   1      -5.284  -0.809   0.895  0.00  0.00    -0.355 OA
ATOM     18  C   UNL d   1      -6.186  -0.779  -0.193  0.00  0.00     0.210 C 
ENDBRANCH  14  17
ENDBRANCH   2  10
TORSDOF 3
