REMARK  9 active torsions:
REMARK  status: ('A' for Active; 'I' for Inactive)
REMARK    1  A    between atoms: S_2  and  C_1 
REMARK    2  A    between atoms: C_9  and  S_2 
REMARK    3  A    between atoms: C_8  and  C_4 
REMARK    4  A    between atoms: N_7  and  C_12 
REMARK       I    between atoms: N_18  and  C_8 
REMARK    5  A    between atoms: C_31  and  N_18 
REMARK    6  A    between atoms: C_27  and  C_30 
REMARK    7  A    between atoms: S_29  and  C_32 
REMARK    8  A    between atoms: C_30  and  S_29 
REMARK    9  A    between atoms: C_32  and  C_31 
ROOT
ATOM      1  C   UNL d   1       0.517  -2.490  -0.086  0.00  0.00     0.259 C 
ATOM      2  O   UNL d   1      -0.487  -3.198  -0.095  0.00  0.00    -0.267 OA
ATOM      3  N   UNL d   1       1.781  -3.038  -0.120  0.00  0.00    -0.356 N 
ATOM      4  H   UNL d   1       2.557  -2.413   0.070  0.00  0.00     0.162 HD
ENDROOT
BRANCH   1   5
ATOM      5  C   UNL d   1       0.479  -1.018  -0.057  0.00  0.00     0.080 A 
ATOM      6  C   UNL d   1      -0.634  -0.169  -0.085  0.00  0.00    -0.017 A 
ATOM      7  C   UNL d   1      -0.219   1.223  -0.117  0.00  0.00     0.078 A 
ATOM      8  C   UNL d   1      -2.044  -0.685  -0.110  0.00  0.00     0.051 C 
ATOM      9  C   UNL d   1       1.152   1.358  -0.066  0.00  0.00     0.075 A 
ATOM     10  S   UNL d   1       1.952  -0.132   0.004  0.00  0.00    -0.094 SA
BRANCH   7  11
ATOM     11  S   UNL d   1      -1.228   2.649  -0.195  0.00  0.00     0.207 S 
ATOM     12  O   UNL d   1      -0.367   3.685  -0.727  0.00  0.00    -0.217 OA
ATOM     13  O   UNL d   1      -2.444   2.252  -0.871  0.00  0.00    -0.217 OA
BRANCH  11  14
ATOM     14  C   UNL d   1      -1.596   3.046   1.495  0.00  0.00     0.064 A 
ATOM     15  C   UNL d   1      -0.787   3.960   2.181  0.00  0.00     0.025 A 
ATOM     16  C   UNL d   1      -1.081   4.283   3.508  0.00  0.00     0.025 A 
ATOM     17  C   UNL d   1      -2.184   3.702   4.135  0.00  0.00     0.034 A 
ATOM     18  C   UNL d   1      -3.007   2.814   3.441  0.00  0.00     0.025 A 
ATOM     19 CL   UNL d   1      -2.535   4.088   5.774  0.00  0.00    -0.084 Cl
ATOM     20  C   UNL d   1      -2.720   2.489   2.113  0.00  0.00     0.025 A 
ENDBRANCH  11  14
ENDBRANCH   7  11
ENDBRANCH   1   5
BRANCH   3  21
ATOM     21  C   UNL d   1       2.072  -4.460  -0.087  0.00  0.00     0.133 C 
BRANCH  21  22
ATOM     22  C   UNL d   1       3.452  -4.760  -0.690  0.00  0.00     0.093 C 
BRANCH  22  23
ATOM     23  S   UNL d   1       4.754  -3.864   0.234  0.00  0.00    -0.163 SA
BRANCH  23  24
ATOM     24  C   UNL d   1       6.221  -4.353  -0.734  0.00  0.00     0.112 C 
BRANCH  24  25
ATOM     25  C   UNL d   1       7.459  -3.718  -0.140  0.00  0.00    -0.049 A 
ATOM     26  C   UNL d   1       8.177  -4.374   0.875  0.00  0.00     0.010 A 
ATOM     27  C   UNL d   1       9.262  -3.750   1.498  0.00  0.00     0.036 A 
ATOM     28  C   UNL d   1       9.634  -2.459   1.106  0.00  0.00     0.102 A 
ATOM     29  C   UNL d   1       8.941  -1.798   0.084  0.00  0.00     0.036 A 
ATOM     30  C   UNL d   1       7.857  -2.430  -0.533  0.00  0.00     0.010 A 
BRANCH  28  31
ATOM     31  N   UNL d   1      10.745  -1.783   1.788  0.00  0.00    -0.116 N 
ATOM     32  O   UNL d   1      11.332  -2.401   2.688  0.00  0.00    -0.532 OA
ATOM     33  O   UNL d   1      11.029  -0.631   1.426  0.00  0.00    -0.532 OA
ENDBRANCH  28  31
ENDBRANCH  24  25
ENDBRANCH  23  24
ENDBRANCH  22  23
ENDBRANCH  21  22
ENDBRANCH   3  21
TORSDOF 9
