REMARK  3 active torsions:
REMARK  status: ('A' for Active; 'I' for Inactive)
REMARK    1  A    between atoms: C_2  and  C_1 
REMARK    2  A    between atoms: C_4  and  C_2 
REMARK    3  A    between atoms: N_7  and  C_3 
ROOT
ATOM      1  C   UNL d   1      -0.987   0.209   1.685  0.00  0.00     0.016 A 
ATOM      2  C   UNL d   1      -1.408   1.474   1.257  0.00  0.00     0.039 A 
ATOM      3  C   UNL d   1      -2.676   1.936   1.613  0.00  0.00     0.035 A 
ATOM      4 CL   UNL d   1      -3.185   3.500   1.106  0.00  0.00    -0.084 Cl
ATOM      5  C   UNL d   1      -1.842  -0.578   2.470  0.00  0.00     0.015 A 
ATOM      6  C   UNL d   1      -3.112  -0.110   2.815  0.00  0.00     0.003 A 
ATOM      7  C   UNL d   1      -3.529   1.151   2.388  0.00  0.00     0.024 A 
ENDROOT
BRANCH   1   8
ATOM      8  C   UNL d   1       0.374  -0.308   1.383  0.00  0.00     0.183 C 
ATOM      9  O   UNL d   1       0.938  -1.063   2.169  0.00  0.00    -0.288 OA
BRANCH   8  10
ATOM     10  C   UNL d   1       0.988   0.102   0.091  0.00  0.00     0.072 C 
ATOM     11  C   UNL d   1       2.311   0.013  -0.100  0.00  0.00     0.088 C 
BRANCH  11  12
ATOM     12  N   UNL d   1       3.066   0.359  -1.214  0.00  0.00    -0.398 N 
ATOM     13  C   UNL d   1       2.512   0.857  -2.471  0.00  0.00     0.148 C 
ATOM     14  C   UNL d   1       4.520   0.186  -1.239  0.00  0.00     0.148 C 
ENDBRANCH  11  12
ENDBRANCH   8  10
ENDBRANCH   1   8
TORSDOF 3
