REMARK  4 active torsions:
REMARK  status: ('A' for Active; 'I' for Inactive)
REMARK    1  A    between atoms: C_12  and  C_3 
REMARK    2  A    between atoms: C_11  and  C_6 
REMARK    3  A    between atoms: O_17  and  C_8 
REMARK    4  A    between atoms: O_18  and  C_12 
ROOT
ATOM      1  C   UNL d   1      -0.310  -0.741  -0.002  0.00  0.00     0.069 A 
ATOM      2  C   UNL d   1      -0.267   0.706  -0.001  0.00  0.00     0.032 A 
ATOM      3  C   UNL d   1      -1.595  -1.243  -0.000  0.00  0.00     0.107 A 
ATOM      4  N   UNL d   1       0.826  -1.491  -0.003  0.00  0.00    -0.350 N 
ATOM      5  HN  UNL d   1       0.821  -2.511  -0.003  1.00  0.00     0.166 HD
ATOM      6  C   UNL d   1       1.986  -0.742  -0.004  0.00  0.00     0.119 A 
ATOM      7  S   UNL d   1      -2.740   0.054   0.001  0.00  0.00    -0.093 SA
ATOM      8  C   UNL d   1       0.908   1.460  -0.002  0.00  0.00     0.080 A 
ATOM      9  C   UNL d   1       2.055   0.678  -0.002  0.00  0.00     0.071 A 
ATOM     10  C   UNL d   1      -1.524   1.258  -0.000  0.00  0.00     0.067 A 
ENDROOT
BRANCH   3  11
ATOM     11  C   UNL d   1      -2.124  -2.594  -0.000  0.00  0.00     0.302 C 
ATOM     12  O   UNL d   1      -3.316  -2.888   0.002  0.00  0.00    -0.259 OA
BRANCH  11  13
ATOM     13  O   UNL d   1      -1.129  -3.527  -0.003  0.00  0.00    -0.322 OA
ATOM     14  C   UNL d   1      -1.604  -4.873  -0.003  0.00  0.00     0.213 C 
ENDBRANCH  11  13
ENDBRANCH   3  11
BRANCH   8  15
ATOM     15  O   UNL d   1       1.024   2.822  -0.002  0.00  0.00    -0.360 OA
ATOM     16  H   UNL d   1       0.140   3.223  -0.002  0.00  0.00     0.217 HD
ENDBRANCH   8  15
BRANCH   6  17
ATOM     17  C   UNL d   1       3.326  -1.480  -0.006  0.00  0.00     0.432 C 
ATOM     18  F   UNL d   1       3.225  -2.838  -0.017  0.00  0.00    -0.165 F 
ATOM     19  F   UNL d   1       4.095  -1.156  -1.087  0.00  0.00    -0.165 F 
ATOM     20  F   UNL d   1       4.088  -1.173   1.086  0.00  0.00    -0.165 F 
ENDBRANCH   6  17
TORSDOF 4
