REMARK  5 active torsions:
REMARK  status: ('A' for Active; 'I' for Inactive)
REMARK    1  A    between atoms: C_4  and  C_1 
REMARK       I    between atoms: N_10  and  C_4 
REMARK    2  A    between atoms: C_13  and  C_5 
REMARK    3  A    between atoms: N_15  and  N_10 
REMARK    4  A    between atoms: O_11  and  C_13 
REMARK    5  A    between atoms: C_12  and  O_11 
ROOT
ATOM      1  C   UNL d   1      -0.146  -0.934   0.460  0.00  0.00     0.241 A 
ATOM      2  N   UNL d   1       0.130   0.241   0.990  0.00  0.00    -0.317 N 
ATOM      3  HN  UNL d   1       0.140   0.516   1.972  1.00  0.00     0.169 HD
ATOM      4  C   UNL d   1       0.401   1.002  -0.126  0.00  0.00     0.128 A 
ATOM      5  N   UNL d   1       0.314   0.344  -1.291  0.00  0.00    -0.244 N 
ATOM      6  HN  UNL d   1       0.473   0.701  -2.234  1.00  0.00     0.196 HD
ATOM      7  O   UNL d   1      -0.048  -0.953  -0.901  0.00  0.00    -0.212 OA
ENDROOT
BRANCH   4   8
ATOM      8  C   UNL d   1       0.639   2.475  -0.022  0.00  0.00     0.254 C 
BRANCH   8   9
ATOM      9  O   UNL d   1       2.020   2.779   0.176  0.00  0.00    -0.342 OA
BRANCH   9  10
ATOM     10  C   UNL d   1       2.414   4.091   0.229  0.00  0.00     0.090 A 
ATOM     11  C   UNL d   1       1.714   5.223   0.677  0.00  0.00     0.067 A 
ATOM     12 CL   UNL d   1       0.091   5.233   1.267  0.00  0.00    -0.081 Cl
ATOM     13  C   UNL d   1       2.355   6.473   0.715  0.00  0.00     0.026 A 
ATOM     14  C   UNL d   1       3.681   6.614   0.315  0.00  0.00     0.002 A 
ATOM     15  C   UNL d   1       4.381   5.500  -0.132  0.00  0.00     0.003 A 
ATOM     16  C   UNL d   1       3.753   4.253  -0.168  0.00  0.00     0.038 A 
ENDBRANCH   9  10
ENDBRANCH   8   9
ENDBRANCH   4   8
BRANCH   1  17
ATOM     17  C   UNL d   1      -0.575  -2.112   1.181  0.00  0.00     0.309 C 
ATOM     18  O   UNL d   1      -0.905  -3.183   0.665  0.00  0.00    -0.262 OA
ATOM     19  N   UNL d   1      -0.606  -1.928   2.568  0.00  0.00    -0.287 N 
ATOM     20  H   UNL d   1      -0.243  -1.050   2.948  0.00  0.00     0.183 HD
BRANCH  19  21
ATOM     21  N   UNL d   1      -0.948  -2.988   3.438  0.00  0.00    -0.247 NA
ATOM     22  H   UNL d   1      -1.049  -3.836   2.861  0.00  0.00     0.143 HD
ATOM     23  H   UNL d   1      -1.889  -2.815   3.801  0.00  0.00     0.143 HD
ENDBRANCH  19  21
ENDBRANCH   1  17
TORSDOF 5
