REMARK  7 active torsions:
REMARK  status: ('A' for Active; 'I' for Inactive)
REMARK    1  A    between atoms: C_1  and  O_4 
REMARK    2  A    between atoms: C_2  and  O_6 
REMARK    3  A    between atoms: C_3  and  C_12 
REMARK    4  A    between atoms: C_8  and  O_4 
REMARK    5  A    between atoms: C_9  and  O_6 
REMARK    6  A    between atoms: C_11  and  O_13 
REMARK    7  A    between atoms: O_13  and  C_12 
ROOT
ATOM      1  C   UNL d   1      -0.847  -1.157   0.270  0.00  0.00     0.196 C 
ATOM      2  C   UNL d   1      -1.614   0.153  -0.009  0.00  0.00     0.188 C 
ATOM      3  C   UNL d   1       0.534  -1.134  -0.425  0.00  0.00     0.184 C 
ATOM      4  C   UNL d   1      -0.680   1.328   0.004  0.00  0.00     0.032 C 
ATOM      5  C   UNL d   1       0.650   1.193   0.032  0.00  0.00     0.134 C 
ATOM      6  O   UNL d   1       1.328   0.008  -0.038  0.00  0.00    -0.353 OA
ENDROOT
BRANCH   3   7
ATOM      7  C   UNL d   1       0.475  -1.196  -1.962  0.00  0.00     0.213 C 
BRANCH   7   8
ATOM      8  O   UNL d   1      -0.224  -2.359  -2.428  0.00  0.00    -0.319 OA
BRANCH   8   9
ATOM      9  C   UNL d   1       0.535  -3.486  -2.509  0.00  0.00     0.254 C 
ATOM     10  O   UNL d   1       1.714  -3.566  -2.197  0.00  0.00    -0.266 OA
ATOM     11  C   UNL d   1      -0.274  -4.640  -3.013  0.00  0.00     0.126 C 
ENDBRANCH   8   9
ENDBRANCH   7   8
ENDBRANCH   3   7
BRANCH   1  12
ATOM     12  O   UNL d   1      -0.601  -1.298   1.699  0.00  0.00    -0.311 OA
BRANCH  12  13
ATOM     13  C   UNL d   1      -1.647  -1.727   2.450  0.00  0.00     0.255 C 
ATOM     14  O   UNL d   1      -2.737  -2.057   2.006  0.00  0.00    -0.266 OA
ATOM     15  C   UNL d   1      -1.289  -1.756   3.906  0.00  0.00     0.126 C 
ENDBRANCH  12  13
ENDBRANCH   1  12
BRANCH   2  16
ATOM     16  O   UNL d   1      -2.203   0.092  -1.324  0.00  0.00    -0.309 OA
BRANCH  16  17
ATOM     17  C   UNL d   1      -3.555   0.163  -1.404  0.00  0.00     0.255 C 
ATOM     18  O   UNL d   1      -4.317   0.340  -0.462  0.00  0.00    -0.266 OA
ATOM     19  C   UNL d   1      -4.016  -0.002  -2.820  0.00  0.00     0.126 C 
ENDBRANCH  16  17
ENDBRANCH   2  16
TORSDOF 7
