REMARK  3 active torsions:
REMARK  status: ('A' for Active; 'I' for Inactive)
REMARK    1  A    between atoms: C_11  and  C_1 
REMARK    2  A    between atoms: C_7  and  C_2 
REMARK    3  A    between atoms: N_18  and  C_10 
ROOT
ATOM      1  C   UNL d   1      -0.841   0.973  -0.000  0.00  0.00     0.127 A 
ATOM      2  C   UNL d   1      -0.291  -1.177  -0.021  0.00  0.00     0.069 A 
ATOM      3  C   UNL d   1      -1.376  -0.282   0.150  0.00  0.00     0.074 A 
ATOM      4  N   UNL d   1       0.856  -0.486  -0.148  0.00  0.00    -0.260 N 
ATOM      5  HN  UNL d   1       1.797  -0.872  -0.227  1.00  0.00     0.195 HD
ATOM      6  O   UNL d   1       0.506   0.854  -0.151  0.00  0.00    -0.235 OA
ENDROOT
BRANCH   1   7
ATOM      7  C   UNL d   1      -1.420   2.301  -0.069  0.00  0.00     0.072 A 
ATOM      8  N   UNL d   1      -2.769   2.307   0.009  0.00  0.00    -0.331 N 
ATOM      9  C   UNL d   1      -3.376   3.483  -0.133  0.00  0.00     0.155 A 
ATOM     10  HN  UNL d   1      -3.298   1.449   0.169  1.00  0.00     0.168 HD
ATOM     11  N   UNL d   1      -2.747   4.649  -0.296  0.00  0.00    -0.343 N 
ATOM     12  C   UNL d   1      -1.403   4.604  -0.358  0.00  0.00     0.093 A 
ATOM     13  HN  UNL d   1      -3.257   5.529  -0.370  1.00  0.00     0.167 HD
ATOM     14  C   UNL d   1      -0.676   3.445  -0.251  0.00  0.00     0.049 A 
BRANCH   9  15
ATOM     15  N   UNL d   1      -4.752   3.499  -0.075  0.00  0.00    -0.274 NA
ATOM     16  H   UNL d   1      -5.092   2.706   0.449  0.00  0.00     0.127 HD
ATOM     17  H   UNL d   1      -5.077   4.416   0.198  0.00  0.00     0.127 HD
ENDBRANCH   9  15
ENDBRANCH   1   7
BRANCH   2  18
ATOM     18  C   UNL d   1      -0.312  -2.643  -0.043  0.00  0.00     0.014 A 
ATOM     19  C   UNL d   1      -1.345  -3.394  -0.640  0.00  0.00     0.048 A 
ATOM     20  C   UNL d   1      -1.329  -4.794  -0.592  0.00  0.00     0.048 A 
ATOM     21 CL   UNL d   1      -2.660  -2.685  -1.517  0.00  0.00    -0.083 Cl
ATOM     22  C   UNL d   1      -0.276  -5.457   0.026  0.00  0.00     0.035 A 
ATOM     23  C   UNL d   1       0.771  -4.739   0.594  0.00  0.00     0.025 A 
ATOM     24 CL   UNL d   1      -0.266  -7.176   0.081  0.00  0.00    -0.084 Cl
ATOM     25  C   UNL d   1       0.752  -3.340   0.559  0.00  0.00     0.017 A 
ENDBRANCH   2  18
TORSDOF 3
