REMARK  4 active torsions:
REMARK  status: ('A' for Active; 'I' for Inactive)
REMARK    1  A    between atoms: C_6  and  C_1 
REMARK    2  A    between atoms: C_19  and  N_2 
REMARK    3  A    between atoms: S_8  and  C_6 
REMARK    4  A    between atoms: C_9  and  S_8 
ROOT
ATOM      1  C   UNL d   1      -0.889  -1.762   0.712  0.00  0.00     0.243 C 
ATOM      2  O   UNL d   1      -0.405  -2.876   0.534  0.00  0.00    -0.278 OA
ENDROOT
BRANCH   1   3
ATOM      3  C   UNL d   1      -0.239  -0.508   0.362  0.00  0.00     0.127 A 
ATOM      4  N   UNL d   1       1.059  -0.427  -0.125  0.00  0.00    -0.287 N 
ATOM      5  N   UNL d   1       1.430   0.814  -0.506  0.00  0.00    -0.301 N 
ATOM      6  C   UNL d   1       0.410   1.594  -0.157  0.00  0.00     0.042 A 
ATOM      7  HN  UNL d   1       2.300   1.092  -0.961  1.00  0.00     0.187 HD
ATOM      8  C   UNL d   1      -0.632   0.829   0.406  0.00  0.00     0.067 A 
ATOM      9  C   UNL d   1       0.495   3.061  -0.373  0.00  0.00     0.071 C 
ATOM     10 BR   UNL d   1      -2.198   1.670   1.036  0.00  0.00    -0.046 Br
BRANCH   4  11
ATOM     11  C   UNL d   1       2.092  -1.448  -0.218  0.00  0.00     0.145 C 
ATOM     12  C   UNL d   1       3.116  -1.312   0.899  0.00  0.00     0.028 C 
ENDBRANCH   4  11
ENDBRANCH   1   3
BRANCH   1  13
ATOM     13  S   UNL d   1      -2.508  -1.629   1.387  0.00  0.00    -0.043 SA
BRANCH  13  14
ATOM     14  C   UNL d   1      -2.692  -3.063   2.446  0.00  0.00     0.052 A 
ATOM     15  C   UNL d   1      -1.770  -3.392   3.462  0.00  0.00     0.054 A 
ATOM     16  C   UNL d   1      -2.003  -4.469   4.327  0.00  0.00     0.049 A 
ATOM     17 CL   UNL d   1      -0.338  -2.466   3.781  0.00  0.00    -0.083 Cl
ATOM     18  C   UNL d   1      -3.172  -5.211   4.216  0.00  0.00     0.037 A 
ATOM     19  C   UNL d   1      -4.109  -4.902   3.240  0.00  0.00     0.049 A 
ATOM     20 CL   UNL d   1      -3.477  -6.498   5.315  0.00  0.00    -0.084 Cl
ATOM     21  C   UNL d   1      -3.869  -3.841   2.359  0.00  0.00     0.054 A 
ATOM     22 CL   UNL d   1      -5.119  -3.529   1.194  0.00  0.00    -0.083 Cl
ENDBRANCH  13  14
ENDBRANCH   1  13
TORSDOF 4
