REMARK  4 active torsions:
REMARK  status: ('A' for Active; 'I' for Inactive)
REMARK    1  A    between atoms: N_2  and  C_1 
REMARK    2  A    between atoms: O_8  and  C_4 
REMARK    3  A    between atoms: C_6  and  C_5 
REMARK       I    between atoms: N_13  and  C_6 
REMARK    4  A    between atoms: C_14  and  O_8 
ROOT
ATOM      1  C   UNL d   1       1.391  -0.246   0.224  0.00  0.00     0.137 A 
ATOM      2  C   UNL d   1       0.551  -1.371   0.268  0.00  0.00     0.056 A 
ATOM      3  C   UNL d   1       0.878   1.048   0.092  0.00  0.00     0.109 A 
ATOM      4  C   UNL d   1      -0.834  -1.186   0.215  0.00  0.00     0.034 A 
ATOM      5  C   UNL d   1      -0.511   1.220   0.162  0.00  0.00     0.041 A 
ATOM      6  C   UNL d   1      -1.359   0.112   0.205  0.00  0.00     0.020 A 
ENDROOT
BRANCH   3   7
ATOM      7  O   UNL d   1       1.740   2.104  -0.116  0.00  0.00    -0.308 OA
BRANCH   7   8
ATOM      8  C   UNL d   1       1.307   3.130  -0.929  0.00  0.00     0.076 A 
ATOM      9  C   UNL d   1       1.557   4.430  -0.490  0.00  0.00     0.039 A 
ATOM     10  C   UNL d   1       1.046   5.513  -1.207  0.00  0.00     0.026 A 
ATOM     11  C   UNL d   1       0.300   5.291  -2.364  0.00  0.00     0.034 A 
ATOM     12  C   UNL d   1       0.105   3.996  -2.842  0.00  0.00     0.026 A 
ATOM     13 CL   UNL d   1      -0.399   6.621  -3.201  0.00  0.00    -0.084 Cl
ATOM     14  C   UNL d   1       0.634   2.913  -2.139  0.00  0.00     0.039 A 
ENDBRANCH   7   8
ENDBRANCH   3   7
BRANCH   1  15
ATOM     15  N   UNL d   1       2.823  -0.455   0.319  0.00  0.00    -0.113 N 
ATOM     16  O   UNL d   1       3.308  -1.328  -0.417  0.00  0.00    -0.532 OA
ATOM     17  O   UNL d   1       3.448   0.202   1.159  0.00  0.00    -0.532 OA
ENDBRANCH   1  15
BRANCH   4  18
ATOM     18  C   UNL d   1      -1.793  -2.321   0.174  0.00  0.00     0.249 C 
ATOM     19  O   UNL d   1      -2.959  -2.182   0.514  0.00  0.00    -0.268 OA
ATOM     20  N   UNL d   1      -1.339  -3.513  -0.316  0.00  0.00    -0.366 N 
ATOM     21  H   UNL d   1      -0.475  -3.614  -0.828  0.00  0.00     0.159 HD
ATOM     22  H   UNL d   1      -2.041  -4.232  -0.449  0.00  0.00     0.159 HD
ENDBRANCH   4  18
TORSDOF 4
