REMARK  7 active torsions:
REMARK  status: ('A' for Active; 'I' for Inactive)
REMARK    1  A    between atoms: C_9  and  C_1 
REMARK    2  A    between atoms: S_20  and  C_2 
REMARK    3  A    between atoms: C_6  and  C_3 
REMARK    4  A    between atoms: S_19  and  C_13 
REMARK    5  A    between atoms: C_18  and  C_22 
REMARK    6  A    between atoms: C_21  and  C_18 
REMARK    7  A    between atoms: C_22  and  S_19 
ROOT
ATOM      1  C   UNL d   1       1.417   2.565  -0.094  0.00  0.00     0.048 A 
ATOM      2  N   UNL d   1       1.287   3.399   0.956  0.00  0.00    -0.336 N 
ATOM      3  HN  UNL d   1       0.730   3.135   1.768  1.00  0.00     0.168 HD
ATOM      4  C   UNL d   1       1.909   4.586   0.904  0.00  0.00     0.144 A 
ATOM      5  N   UNL d   1       2.759   4.955  -0.059  0.00  0.00    -0.347 N 
ATOM      6  HN  UNL d   1       3.268   5.838  -0.023  1.00  0.00     0.167 HD
ATOM      7  C   UNL d   1       2.221   2.898  -1.164  0.00  0.00     0.047 A 
ATOM      8  C   UNL d   1       2.901   4.090  -1.077  0.00  0.00     0.092 A 
ENDROOT
BRANCH   1   9
ATOM      9  C   UNL d   1       0.653   1.297  -0.038  0.00  0.00     0.022 A 
ATOM     10  C   UNL d   1      -0.589   1.200   0.589  0.00  0.00     0.054 A 
ATOM     11  S   UNL d   1      -1.249  -0.370   0.489  0.00  0.00    -0.079 SA
ATOM     12  C   UNL d   1       0.072  -0.984  -0.400  0.00  0.00     0.046 A 
ATOM     13  C   UNL d   1       1.044  -0.003  -0.608  0.00  0.00    -0.028 A 
ATOM     14  C   UNL d   1       2.342  -0.269  -1.321  0.00  0.00     0.050 C 
BRANCH  10  15
ATOM     15  S   UNL d   1      -1.577   2.453   1.365  0.00  0.00    -0.126 SA
ATOM     16  C   UNL d   1      -0.928   2.398   3.055  0.00  0.00     0.096 C 
ENDBRANCH  10  15
BRANCH  12  17
ATOM     17  C   UNL d   1       0.092  -2.365  -0.855  0.00  0.00     0.092 A 
ATOM     18  N   UNL d   1       0.680  -2.724  -1.978  0.00  0.00    -0.353 N 
ATOM     19  C   UNL d   1       0.637  -4.101  -2.139  0.00  0.00     0.012 A 
ATOM     20  HN  UNL d   1       1.108  -2.077  -2.640  1.00  0.00     0.166 HD
ATOM     21  C   UNL d   1       1.291  -4.713  -3.322  0.00  0.00     0.068 C 
ATOM     22  C   UNL d   1      -0.020  -4.777  -1.127  0.00  0.00     0.076 A 
ATOM     23  S   UNL d   1      -0.583  -3.668   0.049  0.00  0.00    -0.081 SA
ENDBRANCH  12  17
ENDBRANCH   1   9
BRANCH   4  24
ATOM     24  S   UNL d   1       1.470   5.747   2.173  0.00  0.00    -0.086 SA
BRANCH  24  25
ATOM     25  C   UNL d   1       2.554   7.131   1.728  0.00  0.00     0.166 C 
BRANCH  25  26
ATOM     26  C   UNL d   1       2.236   8.356   2.557  0.00  0.00     0.169 C 
ATOM     27  O   UNL d   1       1.502   9.253   2.138  0.00  0.00    -0.291 OA
BRANCH  26  28
ATOM     28  C   UNL d   1       2.869   8.523   3.903  0.00  0.00     0.011 A 
ATOM     29  C   UNL d   1       3.066   9.827   4.381  0.00  0.00     0.017 A 
ATOM     30  C   UNL d   1       3.599  10.047   5.654  0.00  0.00     0.025 A 
ATOM     31  C   UNL d   1       3.925   8.961   6.463  0.00  0.00     0.034 A 
ATOM     32  C   UNL d   1       3.749   7.659   5.997  0.00  0.00     0.025 A 
ATOM     33 CL   UNL d   1       4.532   9.226   8.050  0.00  0.00    -0.084 Cl
ATOM     34  C   UNL d   1       3.234   7.438   4.715  0.00  0.00     0.017 A 
ENDBRANCH  26  28
ENDBRANCH  25  26
ENDBRANCH  24  25
ENDBRANCH   4  24
TORSDOF 7
