REMARK  6 active torsions:
REMARK  status: ('A' for Active; 'I' for Inactive)
REMARK    1  A    between atoms: N_2  and  C_1 
REMARK    2  A    between atoms: N_3  and  C_1 
REMARK    3  A    between atoms: C_7  and  N_2 
REMARK    4  A    between atoms: C_5  and  N_3 
REMARK    5  A    between atoms: C_12  and  C_7 
REMARK    6  A    between atoms: O_9  and  C_8 
ROOT
ATOM      1  N   UNL d   1       0.172   0.744  -0.842  0.00  0.00    -0.333 N 
ATOM      2  H   UNL d   1      -0.660   0.902  -0.283  0.00  0.00     0.168 HD
ENDROOT
BRANCH   1   3
ATOM      3  C   UNL d   1       1.122  -0.035  -0.179  0.00  0.00     0.172 C 
ATOM      4  S   UNL d   1       2.773   0.234  -0.174  0.00  0.00    -0.041 SA
BRANCH   3   5
ATOM      5  N   UNL d   1       0.453  -1.000   0.558  0.00  0.00    -0.359 N 
ATOM      6  H   UNL d   1      -0.403  -1.299   0.105  0.00  0.00     0.162 HD
BRANCH   5   7
ATOM      7  C   UNL d   1       0.917  -1.896   1.649  0.00  0.00     0.025 C 
ATOM      8  C   UNL d   1      -0.330  -2.634   2.189  0.00  0.00     0.038 C 
ATOM      9  C   UNL d   1       1.883  -2.975   1.126  0.00  0.00     0.038 C 
BRANCH   7  10
ATOM     10  C   UNL d   1       1.574  -1.110   2.817  0.00  0.00     0.026 C 
ATOM     11  C   UNL d   1       0.760   0.071   3.336  0.00  0.00     0.007 C 
ENDBRANCH   7  10
ENDBRANCH   5   7
ENDBRANCH   3   5
ENDBRANCH   1   3
BRANCH   1  12
ATOM     12  C   UNL d   1       0.381   1.667  -1.888  0.00  0.00     0.036 A 
ATOM     13  C   UNL d   1       1.311   1.429  -2.906  0.00  0.00     0.066 A 
ATOM     14  C   UNL d   1       1.511   2.361  -3.923  0.00  0.00     0.070 A 
ATOM     15  C   UNL d   1       0.756   3.533  -3.931  0.00  0.00     0.037 A 
ATOM     16  C   UNL d   1      -0.206   3.763  -2.944  0.00  0.00     0.005 A 
ATOM     17  C   UNL d   1      -0.405   2.821  -1.934  0.00  0.00     0.029 A 
BRANCH  14  18
ATOM     18  O   UNL d   1       2.402   2.231  -4.955  0.00  0.00    -0.356 OA
ATOM     19  C   UNL d   1       3.224   1.068  -4.936  0.00  0.00     0.210 C 
ENDBRANCH  14  18
ENDBRANCH   1  12
TORSDOF 6
