REMARK  2 active torsions:
REMARK  status: ('A' for Active; 'I' for Inactive)
REMARK    1  A    between atoms: C_2  and  S_1 
REMARK    2  A    between atoms: N_5  and  S_1 
ROOT
ATOM      1  S   UNL d   1       1.109  -0.045   0.145  0.00  0.00     0.248 S 
ATOM      2  O   UNL d   1       0.935  -0.094  -1.289  0.00  0.00    -0.206 OA
ATOM      3  O   UNL d   1       2.427  -0.033   0.746  0.00  0.00    -0.206 OA
ENDROOT
BRANCH   1   4
ATOM      4  C   UNL d   1       0.468  -1.528   0.685  0.00  0.00     0.130 A 
ATOM      5  C   UNL d   1       0.970  -2.764   0.348  0.00  0.00     0.097 A 
ATOM      6  O   UNL d   1       0.239  -3.722   0.972  0.00  0.00    -0.241 OA
ATOM      7  C   UNL d   1       2.091  -3.238  -0.485  0.00  0.00     0.081 C 
ATOM      8  N   UNL d   1      -0.748  -3.124   1.732  0.00  0.00    -0.264 N 
ATOM      9  C   UNL d   1      -0.594  -1.801   1.573  0.00  0.00     0.054 A 
ATOM     10  HN  UNL d   1      -1.452  -3.594   2.301  1.00  0.00     0.194 HD
ATOM     11  C   UNL d   1      -1.504  -0.892   2.304  0.00  0.00     0.072 C 
ENDBRANCH   1   4
BRANCH   1  12
ATOM     12  N   UNL d   1       0.234   1.278   0.753  0.00  0.00    -0.202 NA
ATOM     13  C   UNL d   1      -0.962   1.708  -0.045  0.00  0.00     0.134 C 
ATOM     14  C   UNL d   1      -0.570   2.619  -1.220  0.00  0.00     0.183 C 
ATOM     15  O   UNL d   1       0.226   3.733  -0.789  0.00  0.00    -0.389 OA
ATOM     16  C   UNL d   1       1.421   3.281  -0.135  0.00  0.00     0.183 C 
ATOM     17  C   UNL d   1       1.061   2.475   1.114  0.00  0.00     0.134 C 
ENDBRANCH   1  12
TORSDOF 2
