REMARK  7 active torsions:
REMARK  status: ('A' for Active; 'I' for Inactive)
REMARK    1  A    between atoms: C_8  and  C_1 
REMARK    2  A    between atoms: S_9  and  C_3 
REMARK    3  A    between atoms: C_10  and  S_9 
REMARK    4  A    between atoms: C_18  and  C_13 
REMARK    5  A    between atoms: S_19  and  C_14 
REMARK    6  A    between atoms: C_27  and  S_19 
REMARK    7  A    between atoms: C_29  and  C_27 
ROOT
ATOM      1  C   UNL d   1       2.301  -2.794  -0.198  0.00  0.00     0.051 A 
ATOM      2  N   UNL d   1       4.371  -2.412   0.975  0.00  0.00    -0.335 N 
ATOM      3  HN  UNL d   1       4.876  -2.106   1.807  1.00  0.00     0.168 HD
ATOM      4  C   UNL d   1       3.007  -2.377   0.933  0.00  0.00     0.063 A 
ATOM      5  C   UNL d   1       5.036  -2.858  -0.107  0.00  0.00     0.144 A 
ATOM      6  N   UNL d   1       4.446  -3.312  -1.213  0.00  0.00    -0.345 N 
ATOM      7  HN  UNL d   1       4.983  -3.674  -2.000  1.00  0.00     0.167 HD
ATOM      8  C   UNL d   1       3.096  -3.266  -1.230  0.00  0.00     0.111 A 
ENDROOT
BRANCH   1   9
ATOM      9  S   UNL d   1       0.533  -2.768  -0.446  0.00  0.00    -0.049 SA
BRANCH   9  10
ATOM     10  C   UNL d   1       0.354  -1.155  -1.045  0.00  0.00     0.167 A 
ATOM     11  N   UNL d   1      -0.790  -0.404  -0.913  0.00  0.00    -0.312 N 
ATOM     12  C   UNL d   1      -0.557   0.745  -1.644  0.00  0.00     0.209 A 
ATOM     13  C   UNL d   1      -1.953  -0.770  -0.145  0.00  0.00     0.160 C 
ATOM     14  N   UNL d   1       0.680   0.692  -2.116  0.00  0.00    -0.279 N 
ATOM     15  N   UNL d   1       1.244  -0.496  -1.745  0.00  0.00    -0.278 N 
ATOM     16  HN  UNL d   1       1.137   1.420  -2.665  1.00  0.00     0.188 HD
ATOM     17  HN  UNL d   1       2.186  -0.813  -1.973  1.00  0.00     0.189 HD
BRANCH  12  18
ATOM     18  C   UNL d   1      -1.510   1.862  -1.900  0.00  0.00     0.450 C 
ATOM     19  F   UNL d   1      -2.743   1.670  -1.365  0.00  0.00    -0.163 F 
ATOM     20  F   UNL d   1      -1.057   3.038  -1.394  0.00  0.00    -0.163 F 
ATOM     21  F   UNL d   1      -1.711   2.057  -3.230  0.00  0.00    -0.163 F 
ENDBRANCH  12  18
ENDBRANCH   9  10
ENDBRANCH   1   9
BRANCH   4  22
ATOM     22  C   UNL d   1       2.390  -1.774   2.151  0.00  0.00    -0.008 C 
ATOM     23  C   UNL d   1       3.039  -0.718   2.822  0.00  0.00     0.015 C 
ATOM     24  C   UNL d   1       2.421  -0.017   3.866  0.00  0.00     0.024 C 
ATOM     25  C   UNL d   1       1.135  -0.362   4.261  0.00  0.00     0.034 C 
ATOM     26  C   UNL d   1       0.503  -1.456   3.684  0.00  0.00     0.024 C 
ATOM     27 CL   UNL d   1       0.318   0.567   5.454  0.00  0.00    -0.084 Cl
ATOM     28  C   UNL d   1       1.145  -2.176   2.669  0.00  0.00     0.015 C 
ENDBRANCH   4  22
BRANCH   5  29
ATOM     29  S   UNL d   1       6.813  -2.847  -0.028  0.00  0.00    -0.089 SA
BRANCH  29  30
ATOM     30  C   UNL d   1       7.202  -2.573  -1.786  0.00  0.00     0.121 C 
BRANCH  30  31
ATOM     31  C   UNL d   1       8.694  -2.466  -2.034  0.00  0.00    -0.048 A 
ATOM     32  C   UNL d   1       9.455  -3.614  -2.316  0.00  0.00     0.009 A 
ATOM     33  C   UNL d   1      10.828  -3.516  -2.568  0.00  0.00     0.024 A 
ATOM     34  C   UNL d   1      11.453  -2.273  -2.532  0.00  0.00     0.034 A 
ATOM     35  C   UNL d   1      10.716  -1.126  -2.242  0.00  0.00     0.024 A 
ATOM     36 CL   UNL d   1      13.139  -2.151  -2.851  0.00  0.00    -0.084 Cl
ATOM     37  C   UNL d   1       9.343  -1.223  -1.990  0.00  0.00     0.009 A 
ENDBRANCH  30  31
ENDBRANCH  29  30
ENDBRANCH   5  29
TORSDOF 7
