REMARK  7 active torsions:
REMARK  status: ('A' for Active; 'I' for Inactive)
REMARK    1  A    between atoms: C_2  and  C_1 
REMARK       I    between atoms: N_6  and  C_2 
REMARK    2  A    between atoms: C_3  and  O_5 
REMARK    3  A    between atoms: N_9  and  C_3 
REMARK    4  A    between atoms: O_5  and  C_4 
REMARK    5  A    between atoms: C_7  and  N_6 
REMARK    6  A    between atoms: C_23  and  N_9 
REMARK    7  A    between atoms: C_24  and  N_9 
ROOT
ATOM      1  C   UNL d   1       2.574  -1.432  -0.262  0.00  0.00     0.067 A 
ATOM      2  C   UNL d   1       3.026  -0.787   0.897  0.00  0.00     0.094 A 
ATOM      3  C   UNL d   1       1.338  -1.087  -0.804  0.00  0.00     0.039 A 
ATOM      4  C   UNL d   1       2.337   0.283   1.456  0.00  0.00     0.040 A 
ATOM      5  C   UNL d   1       0.619  -0.040  -0.226  0.00  0.00     0.012 A 
ATOM      6  C   UNL d   1       1.132   0.672   0.867  0.00  0.00     0.022 A 
ATOM      7 BR   UNL d   1      -1.078   0.418  -0.922  0.00  0.00    -0.051 Br
ENDROOT
BRANCH   1   8
ATOM      8  C   UNL d   1       3.430  -2.427  -0.955  0.00  0.00     0.259 C 
ATOM      9  N   UNL d   1       4.740  -2.001  -1.094  0.00  0.00    -0.323 N 
ATOM     10  H   UNL d   1       4.951  -1.075  -0.732  0.00  0.00     0.169 HD
ATOM     11  O   UNL d   1       2.934  -3.463  -1.370  0.00  0.00    -0.267 OA
BRANCH   9  12
ATOM     12  C   UNL d   1       5.834  -2.687  -1.657  0.00  0.00     0.038 A 
ATOM     13  C   UNL d   1       5.762  -3.973  -2.185  0.00  0.00     0.053 A 
ATOM     14  C   UNL d   1       6.915  -4.569  -2.703  0.00  0.00     0.037 A 
ATOM     15 CL   UNL d   1       6.832  -6.164  -3.349  0.00  0.00    -0.084 Cl
ATOM     16  C   UNL d   1       8.136  -3.898  -2.699  0.00  0.00     0.048 A 
ATOM     17  C   UNL d   1       8.201  -2.618  -2.175  0.00  0.00     0.037 A 
ATOM     18  C   UNL d   1       7.061  -2.008  -1.653  0.00  0.00     0.053 A 
ATOM     19 CL   UNL d   1       9.700  -1.769  -2.154  0.00  0.00    -0.084 Cl
ENDBRANCH   9  12
ENDBRANCH   1   8
BRANCH   2  20
ATOM     20  O   UNL d   1       4.064  -1.456   1.629  0.00  0.00    -0.283 OA
BRANCH  20  21
ATOM     21  C   UNL d   1       5.196  -1.151   2.396  0.00  0.00     0.217 C 
ATOM     22  S   UNL d   1       5.908   0.345   2.214  0.00  0.00    -0.033 SA
BRANCH  21  23
ATOM     23  N   UNL d   1       5.612  -2.231   3.185  0.00  0.00    -0.353 N 
BRANCH  23  24
ATOM     24  C   UNL d   1       6.857  -2.158   3.972  0.00  0.00     0.121 C 
ATOM     25  C   UNL d   1       7.292  -3.406   4.731  0.00  0.00     0.026 C 
ENDBRANCH  23  24
BRANCH  23  26
ATOM     26  C   UNL d   1       4.800  -3.460   3.216  0.00  0.00     0.121 C 
ATOM     27  C   UNL d   1       5.211  -4.463   2.149  0.00  0.00     0.026 C 
ENDBRANCH  23  26
ENDBRANCH  21  23
ENDBRANCH  20  21
ENDBRANCH   2  20
TORSDOF 7
