REMARK  3 active torsions:
REMARK  status: ('A' for Active; 'I' for Inactive)
REMARK    1  A    between atoms: C_2  and  C_1 
REMARK       I    between atoms: N_6  and  C_2 
REMARK    2  A    between atoms: C_4  and  C_8 
REMARK    3  A    between atoms: C_18  and  N_6 
ROOT
ATOM      1  C   UNL d   1       1.861  -2.938  -0.204  0.00  0.00     0.259 C 
ATOM      2  N   UNL d   1       3.189  -3.178   0.072  0.00  0.00    -0.323 N 
ATOM      3  O   UNL d   1       1.033  -3.806  -0.485  0.00  0.00    -0.267 OA
ATOM      4  H   UNL d   1       3.741  -2.398   0.411  0.00  0.00     0.169 HD
ENDROOT
BRANCH   1   5
ATOM      5  C   UNL d   1       1.329  -1.542  -0.128  0.00  0.00     0.067 A 
ATOM      6  C   UNL d   1       2.062  -0.396   0.141  0.00  0.00     0.090 A 
ATOM      7  C   UNL d   1       1.440   0.852   0.209  0.00  0.00    -0.020 A 
ATOM      8  O   UNL d   1       3.411  -0.325   0.390  0.00  0.00    -0.349 OA
ATOM      9  C   UNL d   1       2.417   1.883   0.622  0.00  0.00     0.068 C 
ATOM     10  C   UNL d   1       0.081   1.011  -0.011  0.00  0.00     0.029 A 
ATOM     11  C   UNL d   1       3.704   1.100   0.382  0.00  0.00     0.180 C 
ATOM     12  C   UNL d   1      -0.661  -0.122  -0.321  0.00  0.00     0.012 A 
ATOM     13  C   UNL d   1      -0.052  -1.381  -0.377  0.00  0.00     0.039 A 
ATOM     14 BR   UNL d   1      -2.517   0.028  -0.652  0.00  0.00    -0.051 Br
ENDBRANCH   1   5
BRANCH   2  15
ATOM     15  C   UNL d   1       3.854  -4.413  -0.150  0.00  0.00     0.035 A 
ATOM     16  C   UNL d   1       3.263  -5.493  -0.816  0.00  0.00     0.030 A 
ATOM     17  C   UNL d   1       3.994  -6.635  -1.154  0.00  0.00     0.018 A 
ATOM     18  C   UNL d   1       5.348  -6.733  -0.827  0.00  0.00     0.048 A 
ATOM     19  C   UNL d   1       5.926  -5.698  -0.075  0.00  0.00     0.018 A 
ATOM     20  C   UNL d   1       5.188  -4.545   0.253  0.00  0.00     0.030 A 
BRANCH  18  21
ATOM     21  C   UNL d   1       6.173  -7.893  -1.328  0.00  0.00     0.417 C 
ATOM     22  F   UNL d   1       5.487  -8.733  -2.154  0.00  0.00    -0.166 F 
ATOM     23  F   UNL d   1       7.255  -7.479  -2.047  0.00  0.00    -0.166 F 
ATOM     24  F   UNL d   1       6.665  -8.671  -0.326  0.00  0.00    -0.166 F 
ENDBRANCH  18  21
ENDBRANCH   2  15
TORSDOF 3
