REMARK  4 active torsions:
REMARK  status: ('A' for Active; 'I' for Inactive)
REMARK    1  A    between atoms: N_2  and  S_1 
REMARK    2  A    between atoms: C_4  and  S_1 
REMARK    3  A    between atoms: S_6  and  N_2 
REMARK    4  A    between atoms: C_13  and  S_6 
ROOT
ATOM      1  S   UNL d   1       0.978   0.109   0.023  0.00  0.00     0.271 S 
ATOM      2  O   UNL d   1      -0.214   0.872   0.343  0.00  0.00    -0.200 OA
ATOM      3  O   UNL d   1       1.984   0.687  -0.846  0.00  0.00    -0.200 OA
ENDROOT
BRANCH   1   4
ATOM      4  N   UNL d   1       0.522  -1.417  -0.534  0.00  0.00    -0.236 N 
ATOM      5  HN  UNL d   1      -0.068  -1.999   0.060  1.00  0.00     0.189 HD
BRANCH   4   6
ATOM      6  S   UNL d   1       0.996  -2.007  -2.009  0.00  0.00     0.061 S 
ATOM      7  O   UNL d   1       2.420  -2.224  -2.093  0.00  0.00    -0.244 OA
ATOM      8  C   UNL d   1       0.134  -3.542  -2.178  0.00  0.00     0.143 C 
BRANCH   6   9
ATOM      9  C   UNL d   1       0.413  -0.914  -3.243  0.00  0.00     0.039 A 
ATOM     10  C   UNL d   1       1.329  -0.285  -4.089  0.00  0.00     0.023 A 
ATOM     11  C   UNL d   1       0.867   0.552  -5.108  0.00  0.00     0.025 A 
ATOM     12  C   UNL d   1      -0.503   0.750  -5.275  0.00  0.00     0.034 A 
ATOM     13  C   UNL d   1      -1.417   0.127  -4.424  0.00  0.00     0.025 A 
ATOM     14 CL   UNL d   1      -1.073   1.762  -6.545  0.00  0.00    -0.084 Cl
ATOM     15  C   UNL d   1      -0.960  -0.706  -3.399  0.00  0.00     0.023 A 
ENDBRANCH   6   9
ENDBRANCH   4   6
ENDBRANCH   1   4
BRANCH   1  16
ATOM     16  C   UNL d   1       1.774  -0.274   1.544  0.00  0.00     0.109 A 
ATOM     17  C   UNL d   1       1.090  -0.888   2.616  0.00  0.00     0.090 A 
ATOM     18  N   UNL d   1      -0.185  -1.309   2.644  0.00  0.00    -0.309 N 
ATOM     19  C   UNL d   1       1.810  -1.147   3.922  0.00  0.00     0.068 A 
ATOM     20  S   UNL d   1      -0.466  -1.905   4.168  0.00  0.00     0.068 SA
ATOM     21  HN  UNL d   1      -0.854  -1.270   1.875  1.00  0.00     0.176 HD
ATOM     22  N   UNL d   1       1.033  -1.718   4.854  0.00  0.00    -0.310 N 
ATOM     23  HN  UNL d   1       1.309  -1.984   5.799  1.00  0.00     0.176 HD
ATOM     24  C   UNL d   1       3.172  -0.798   4.089  0.00  0.00     0.032 A 
ATOM     25  C   UNL d   1       3.800  -0.201   2.983  0.00  0.00     0.004 A 
ATOM     26  C   UNL d   1       3.132   0.055   1.761  0.00  0.00     0.028 A 
ENDBRANCH   1  16
TORSDOF 4
