REMARK  6 active torsions:
REMARK  status: ('A' for Active; 'I' for Inactive)
REMARK    1  A    between atoms: C_3  and  C_1 
REMARK    2  A    between atoms: C_6  and  C_1 
REMARK    3  A    between atoms: C_2  and  C_3 
REMARK    4  A    between atoms: S_14  and  C_4 
REMARK    5  A    between atoms: S_15  and  C_4 
REMARK    6  A    between atoms: N_7  and  C_6 
ROOT
ATOM      1  C   UNL d   1       0.951   0.051  -0.070  0.00  0.00     0.100 C 
ATOM      2  C   UNL d   1       0.335  -0.406  -1.195  0.00  0.00     0.059 C 
ENDROOT
BRANCH   1   3
ATOM      3  C   UNL d   1       0.282   0.864   1.024  0.00  0.00     0.205 C 
ATOM      4  O   UNL d   1      -0.872   1.265   0.951  0.00  0.00    -0.286 OA
BRANCH   3   5
ATOM      5  C   UNL d   1       1.095   1.185   2.204  0.00  0.00     0.047 A 
ATOM      6  C   UNL d   1       0.933   2.327   2.986  0.00  0.00     0.063 A 
ATOM      7  O   UNL d   1       1.855   2.352   3.989  0.00  0.00    -0.326 OA
ATOM      8  C   UNL d   1       0.023   3.497   2.968  0.00  0.00     0.077 C 
ATOM      9  C   UNL d   1       2.584   1.218   3.896  0.00  0.00     0.143 A 
ATOM     10  C   UNL d   1       2.134   0.449   2.852  0.00  0.00     0.042 A 
ENDBRANCH   3   5
ENDBRANCH   1   3
BRANCH   1  11
ATOM     11  C   UNL d   1       2.470   0.051  -0.070  0.00  0.00    -0.031 C 
BRANCH  11  12
ATOM     12  N   UNL d   1       3.732   0.051  -0.070  0.00  0.00    -0.365 N 
ATOM     13  HN2 UNL d   1       2.712   0.051  -0.070  1.00  0.00     0.165 HD
ATOM     14  HN1 UNL d   1       4.752   0.051  -0.070  1.00  0.00     0.165 HD
ENDBRANCH  11  12
ENDBRANCH   1  11
BRANCH   2  15
ATOM     15  S   UNL d   1       1.248  -1.384  -2.363  0.00  0.00    -0.126 SA
ATOM     16  C   UNL d   1       0.002  -2.459  -3.111  0.00  0.00     0.096 C 
ENDBRANCH   2  15
BRANCH   2  17
ATOM     17  S   UNL d   1      -1.282   0.073  -1.682  0.00  0.00    -0.126 SA
ATOM     18  C   UNL d   1      -0.947   1.805  -2.139  0.00  0.00     0.096 C 
ENDBRANCH   2  17
TORSDOF 6
