REMARK  6 active torsions:
REMARK  status: ('A' for Active; 'I' for Inactive)
REMARK    1  A    between atoms: C_7  and  S_1 
REMARK    2  A    between atoms: C_13  and  S_1 
REMARK    3  A    between atoms: C_6  and  C_2 
REMARK    4  A    between atoms: C_5  and  C_7 
REMARK       I    between atoms: N_11  and  C_6 
REMARK       I    between atoms: C_10  and  N_12 
REMARK    5  A    between atoms: C_16  and  C_10 
REMARK    6  A    between atoms: N_12  and  N_11 
ROOT
ATOM      1  C   UNL d   1       1.656   1.482   4.041  0.00  0.00     0.109 A 
ATOM      2  N   UNL d   1       1.282   0.886   2.828  0.00  0.00    -0.348 N 
ATOM      3  HN  UNL d   1       1.288  -0.117   2.644  1.00  0.00     0.166 HD
ATOM      4  C   UNL d   1       0.921   1.813   1.959  0.00  0.00     0.065 A 
ATOM      5  C   UNL d   1       1.542   2.860   4.053  0.00  0.00     0.086 A 
ATOM      6  S   UNL d   1       0.966   3.429   2.550  0.00  0.00    -0.085 SA
ENDROOT
BRANCH   1   7
ATOM      7  C   UNL d   1       2.138   0.710   5.192  0.00  0.00     0.287 C 
ATOM      8  N   UNL d   1       2.166  -0.652   4.985  0.00  0.00    -0.262 N 
ATOM      9  H   UNL d   1       1.798  -1.074   4.134  0.00  0.00     0.190 HD
ATOM     10  O   UNL d   1       2.500   1.228   6.247  0.00  0.00    -0.264 OA
BRANCH   8  11
ATOM     11  N   UNL d   1       2.636  -1.496   6.000  0.00  0.00    -0.263 N 
ATOM     12  C   UNL d   1       2.160  -2.790   6.048  0.00  0.00     0.270 C 
ATOM     13  O   UNL d   1       1.351  -3.243   5.245  0.00  0.00    -0.266 OA
ATOM     14  H   UNL d   1       3.073  -1.043   6.801  0.00  0.00     0.190 HD
BRANCH  12  15
ATOM     15  C   UNL d   1       2.689  -3.645   7.148  0.00  0.00     0.033 A 
ATOM     16  C   UNL d   1       1.870  -4.650   7.679  0.00  0.00     0.019 A 
ATOM     17  C   UNL d   1       2.371  -5.527   8.647  0.00  0.00     0.025 A 
ATOM     18  C   UNL d   1       3.693  -5.406   9.073  0.00  0.00     0.034 A 
ATOM     19  C   UNL d   1       4.514  -4.406   8.552  0.00  0.00     0.025 A 
ATOM     20 CL   UNL d   1       4.326  -6.514  10.228  0.00  0.00    -0.084 Cl
ATOM     21  C   UNL d   1       4.014  -3.522   7.590  0.00  0.00     0.019 A 
ENDBRANCH  12  15
ENDBRANCH   8  11
ENDBRANCH   1   7
BRANCH   4  22
ATOM     22  C   UNL d   1       0.416   1.540   0.587  0.00  0.00     0.210 C 
BRANCH  22  23
ATOM     23  S   UNL d   1       1.775   1.485  -0.556  0.00  0.00     0.181 S 
ATOM     24  O   UNL d   1       2.528   2.723  -0.457  0.00  0.00    -0.222 OA
ATOM     25  O   UNL d   1       1.252   1.061  -1.841  0.00  0.00    -0.222 OA
BRANCH  23  26
ATOM     26  C   UNL d   1       2.823   0.163   0.004  0.00  0.00     0.059 A 
ATOM     27  C   UNL d   1       2.317  -1.142   0.028  0.00  0.00     0.025 A 
ATOM     28  C   UNL d   1       3.127  -2.183   0.481  0.00  0.00     0.025 A 
ATOM     29  C   UNL d   1       4.436  -1.918   0.886  0.00  0.00     0.034 A 
ATOM     30  C   UNL d   1       4.947  -0.620   0.836  0.00  0.00     0.025 A 
ATOM     31 CL   UNL d   1       5.430  -3.204   1.448  0.00  0.00    -0.084 Cl
ATOM     32  C   UNL d   1       4.139   0.429   0.392  0.00  0.00     0.025 A 
ENDBRANCH  23  26
ENDBRANCH  22  23
ENDBRANCH   4  22
TORSDOF 6
