REMARK  5 active torsions:
REMARK  status: ('A' for Active; 'I' for Inactive)
REMARK    1  A    between atoms: S_2  and  C_1 
REMARK       I    between atoms: N_5  and  C_1 
REMARK    2  A    between atoms: C_6  and  S_2 
REMARK    3  A    between atoms: O_11  and  C_3 
REMARK    4  A    between atoms: C_14  and  C_8 
REMARK    5  A    between atoms: C_15  and  C_14 
ROOT
ATOM      1  C   UNL d   1       3.213  -2.754   2.814  0.00  0.00     0.073 A 
ATOM      2  C   UNL d   1       2.347  -1.861   2.172  0.00  0.00     0.056 A 
ATOM      3  C   UNL d   1       1.248  -2.343   1.455  0.00  0.00     0.012 A 
ATOM      4  C   UNL d   1       2.998  -4.137   2.769  0.00  0.00    -0.025 A 
ATOM      5  C   UNL d   1       1.880  -4.606   2.062  0.00  0.00     0.011 A 
ATOM      6  C   UNL d   1       1.018  -3.720   1.409  0.00  0.00     0.019 A 
ENDROOT
BRANCH   3   7
ATOM      7  S   UNL d   1       0.070  -1.216   0.739  0.00  0.00    -0.029 SA
BRANCH   7   8
ATOM      8  C   UNL d   1       0.697  -0.935  -0.889  0.00  0.00     0.286 C 
ATOM      9  N   UNL d   1      -0.081  -0.117  -1.715  0.00  0.00    -0.351 N 
ATOM     10  C   UNL d   1       0.394   0.161  -3.061  0.00  0.00     0.152 C 
ATOM     11  C   UNL d   1      -1.366   0.489  -1.382  0.00  0.00     0.152 C 
ATOM     12  O   UNL d   1       1.759  -1.429  -1.245  0.00  0.00    -0.260 OA
ENDBRANCH   7   8
ENDBRANCH   3   7
BRANCH   1  13
ATOM     13  O   UNL d   1       4.285  -2.269   3.511  0.00  0.00    -0.360 OA
ATOM     14  H   UNL d   1       4.343  -1.310   3.366  0.00  0.00     0.217 HD
ENDBRANCH   1  13
BRANCH   4  15
ATOM     15  C   UNL d   1       3.899  -5.122   3.482  0.00  0.00     0.041 C 
BRANCH  15  16
ATOM     16  C   UNL d   1       4.532  -6.191   2.580  0.00  0.00     0.000 C 
ATOM     17  C   UNL d   1       5.473  -5.617   1.530  0.00  0.00     0.005 C 
ENDBRANCH  15  16
ENDBRANCH   4  15
TORSDOF 5
