REMARK  4 active torsions:
REMARK  status: ('A' for Active; 'I' for Inactive)
REMARK    1  A    between atoms: N_6  and  C_1 
REMARK    2  A    between atoms: C_8  and  C_2 
REMARK    3  A    between atoms: C_13  and  C_5 
REMARK       I    between atoms: C_7  and  N_6 
REMARK    4  A    between atoms: C_9  and  C_7 
ROOT
ATOM      1  C   UNL d   1       1.483  -0.662  -0.094  0.00  0.00     0.049 C 
ATOM      2  C   UNL d   1       0.058   1.223  -0.067  0.00  0.00    -0.007 C 
ATOM      3  S   UNL d   1      -1.019  -0.093   0.119  0.00  0.00    -0.096 SA
ATOM      4  C   UNL d   1       1.342   0.747  -0.269  0.00  0.00     0.045 C 
ATOM      5  C   UNL d   1       0.240  -1.263   0.026  0.00  0.00     0.009 C 
ENDROOT
BRANCH   1   6
ATOM      6  N   UNL d   1       2.687  -1.367  -0.045  0.00  0.00    -0.324 N 
ATOM      7  C   UNL d   1       3.949  -0.790  -0.144  0.00  0.00     0.255 C 
ATOM      8  O   UNL d   1       4.162   0.383  -0.448  0.00  0.00    -0.270 OA
ATOM      9  H   UNL d   1       2.628  -2.355   0.173  0.00  0.00     0.169 HD
BRANCH   7  10
ATOM     10  C   UNL d   1       5.133  -1.702   0.209  0.00  0.00     0.270 C 
ATOM     11 CL   UNL d   1       4.639  -3.363   0.603  0.00  0.00    -0.098 Cl
ATOM     12 CL   UNL d   1       6.286  -1.719  -1.143  0.00  0.00    -0.098 Cl
ENDBRANCH   7  10
ENDBRANCH   1   6
BRANCH   5  13
ATOM     13  C   UNL d   1      -0.132  -2.722   0.042  0.00  0.00     0.044 C 
ATOM     14  C   UNL d   1      -0.190  -3.316   1.439  0.00  0.00     0.010 C 
ENDBRANCH   5  13
BRANCH   2  15
ATOM     15  C   UNL d   1      -0.400   2.686  -0.047  0.00  0.00    -0.018 C 
ATOM     16  C   UNL d   1      -0.987   3.070  -1.416  0.00  0.00     0.020 C 
ATOM     17  C   UNL d   1      -1.447   2.943   1.055  0.00  0.00     0.020 C 
ATOM     18  C   UNL d   1       0.796   3.624   0.248  0.00  0.00     0.020 C 
ENDBRANCH   2  15
TORSDOF 4
