REMARK  5 active torsions:
REMARK  status: ('A' for Active; 'I' for Inactive)
REMARK       I    between atoms: N_11  and  C_1 
REMARK    1  A    between atoms: O_12  and  C_1 
REMARK    2  A    between atoms: N_2  and  C_10 
REMARK    3  A    between atoms: N_3  and  O_12 
REMARK    4  A    between atoms: C_10  and  C_7 
REMARK    5  A    between atoms: C_16  and  N_11 
ROOT
ATOM      1  N   UNL d   1      -1.242   1.054  -0.711  0.00  0.00    -0.264 N 
ATOM      2  HN  UNL d   1      -0.238   1.237  -0.723  1.00  0.00     0.194 HD
ATOM      3  C   UNL d   1      -1.226   0.703   1.699  0.00  0.00     0.051 C 
ATOM      4  C   UNL d   1      -1.947   0.777   0.352  0.00  0.00     0.016 C 
ATOM      5  C   UNL d   1      -1.724  -0.512   2.501  0.00  0.00     0.012 C 
ATOM      6  C   UNL d   1      -3.463   0.581   0.369  0.00  0.00     0.055 C 
ATOM      7  C   UNL d   1      -3.247  -0.643   2.549  0.00  0.00     0.001 C 
ATOM      8  C   UNL d   1      -3.828  -0.678   1.141  0.00  0.00     0.006 C 
ENDROOT
BRANCH   1   9
ATOM      9  O   UNL d   1      -2.084   1.061  -1.838  0.00  0.00    -0.181 OA
BRANCH   9  10
ATOM     10  C   UNL d   1      -1.512   1.514  -3.007  0.00  0.00     0.387 C 
ATOM     11  N   UNL d   1      -0.220   1.977  -2.906  0.00  0.00    -0.301 N 
ATOM     12  H   UNL d   1       0.196   1.837  -1.993  0.00  0.00     0.171 HD
ATOM     13  O   UNL d   1      -2.180   1.460  -4.040  0.00  0.00    -0.236 OA
BRANCH  11  14
ATOM     14  C   UNL d   1       0.529   2.588  -3.938  0.00  0.00     0.037 A 
ATOM     15  C   UNL d   1      -0.054   3.047  -5.127  0.00  0.00     0.031 A 
ATOM     16  C   UNL d   1       0.713   3.669  -6.118  0.00  0.00     0.026 A 
ATOM     17  C   UNL d   1       2.078   3.831  -5.932  0.00  0.00     0.034 A 
ATOM     18  C   UNL d   1       2.681   3.378  -4.760  0.00  0.00     0.026 A 
ATOM     19 CL   UNL d   1       3.020   4.603  -7.147  0.00  0.00    -0.084 Cl
ATOM     20  C   UNL d   1       1.905   2.769  -3.759  0.00  0.00     0.031 A 
ENDBRANCH  11  14
ENDBRANCH   9  10
ENDBRANCH   1   9
BRANCH   3  21
ATOM     21  C   UNL d   1      -1.379   2.007   2.493  0.00  0.00     0.139 C 
BRANCH  21  22
ATOM     22  N   UNL d   1      -0.891   3.182   1.796  0.00  0.00    -0.351 N 
ATOM     23  C   UNL d   1       0.402   3.428   1.434  0.00  0.00     0.182 A 
ATOM     24  N   UNL d   1       0.509   4.563   0.782  0.00  0.00    -0.361 N 
ATOM     25  C   UNL d   1      -0.759   5.082   0.750  0.00  0.00     0.106 A 
ATOM     26  HN  UNL d   1       1.355   4.970   0.383  1.00  0.00     0.166 HD
ATOM     27  C   UNL d   1      -1.644   4.250   1.397  0.00  0.00     0.108 A 
ENDBRANCH  21  22
ENDBRANCH   3  21
TORSDOF 5
