REMARK  6 active torsions:
REMARK  status: ('A' for Active; 'I' for Inactive)
REMARK    1  A    between atoms: C_3  and  C_1 
REMARK    2  A    between atoms: N_20  and  C_3 
REMARK    3  A    between atoms: C_4  and  C_9 
REMARK    4  A    between atoms: O_11  and  N_5 
REMARK    5  A    between atoms: C_7  and  O_11 
REMARK    6  A    between atoms: C_12  and  C_7 
ROOT
ATOM      1  C   UNL d   1       2.256   0.719  -1.841  0.00  0.00     0.127 C 
ATOM      2  N   UNL d   1       1.400   1.308  -2.629  0.00  0.00    -0.243 N 
ATOM      3  HN  UNL d   1       1.482   1.306  -3.646  1.00  0.00     0.196 HD
ENDROOT
BRANCH   2   4
ATOM      4  O   UNL d   1       0.356   1.947  -1.939  0.00  0.00    -0.193 OA
BRANCH   4   5
ATOM      5  C   UNL d   1      -0.700   2.118  -2.790  0.00  0.00     0.315 C 
ATOM      6  O   UNL d   1      -0.787   1.742  -3.954  0.00  0.00    -0.257 OA
BRANCH   5   7
ATOM      7  C   UNL d   1      -1.829   2.795  -2.096  0.00  0.00     0.042 A 
ATOM      8  C   UNL d   1      -1.726   3.343  -0.808  0.00  0.00     0.034 A 
ATOM      9  C   UNL d   1      -2.844   3.942  -0.197  0.00  0.00     0.048 A 
ATOM     10  C   UNL d   1      -4.059   3.998  -0.900  0.00  0.00     0.016 A 
ATOM     11  C   UNL d   1      -4.162   3.466  -2.183  0.00  0.00     0.002 A 
ATOM     12  C   UNL d   1      -3.053   2.867  -2.777  0.00  0.00     0.018 A 
BRANCH   9  13
ATOM     13  C   UNL d   1      -2.766   4.513   1.199  0.00  0.00     0.417 C 
ATOM     14  F   UNL d   1      -1.533   4.389   1.765  0.00  0.00    -0.166 F 
ATOM     15  F   UNL d   1      -3.067   5.839   1.239  0.00  0.00    -0.166 F 
ATOM     16  F   UNL d   1      -3.632   3.904   2.054  0.00  0.00    -0.166 F 
ENDBRANCH   9  13
ENDBRANCH   5   7
ENDBRANCH   4   5
ENDBRANCH   2   4
BRANCH   1  17
ATOM     17  C   UNL d   1       2.161   0.731  -0.293  0.00  0.00     0.222 C 
ATOM     18  O   UNL d   1       2.660  -0.459   0.321  0.00  0.00    -0.333 OA
ATOM     19  C   UNL d   1       4.013  -0.425   0.530  0.00  0.00     0.103 A 
ATOM     20  C   UNL d   1       4.627  -1.649   0.793  0.00  0.00     0.040 A 
ATOM     21  C   UNL d   1       4.779   0.736   0.407  0.00  0.00     0.102 A 
ATOM     22  C   UNL d   1       6.017  -1.722   0.877  0.00  0.00     0.003 A 
ATOM     23  C   UNL d   1       6.787  -0.571   0.711  0.00  0.00     0.003 A 
ATOM     24  C   UNL d   1       6.168   0.660   0.486  0.00  0.00     0.039 A 
ATOM     25  O   UNL d   1       4.244   1.969   0.153  0.00  0.00    -0.345 OA
ATOM     26  C   UNL d   1       2.818   1.980   0.289  0.00  0.00     0.216 C 
ENDBRANCH   1  17
BRANCH   1  27
ATOM     27  N   UNL d   1       3.285   0.046  -2.453  0.00  0.00    -0.385 N 
ATOM     28  H   UNL d   1       3.692  -0.735  -1.949  0.00  0.00     0.157 HD
ATOM     29  H   UNL d   1       3.123  -0.133  -3.438  0.00  0.00     0.157 HD
ENDBRANCH   1  27
TORSDOF 6
