REMARK  7 active torsions:
REMARK  status: ('A' for Active; 'I' for Inactive)
REMARK    1  A    between atoms: N_7  and  S_1 
REMARK    2  A    between atoms: C_10  and  S_1 
REMARK    3  A    between atoms: C_2  and  C_13 
REMARK    4  A    between atoms: C_25  and  N_3 
REMARK    5  A    between atoms: C_8  and  N_7 
REMARK    6  A    between atoms: C_11  and  C_16 
REMARK    7  A    between atoms: C_12  and  C_17 
ROOT
ATOM      1  C   UNL d   1       0.964  -0.332   2.628  0.00  0.00     0.171 A 
ATOM      2  C   UNL d   1       0.288  -1.485   4.458  0.00  0.00     0.049 A 
ATOM      3  N   UNL d   1      -0.041  -0.673   3.432  0.00  0.00    -0.331 N 
ATOM      4  HN  UNL d   1      -0.995  -0.343   3.282  1.00  0.00     0.168 HD
ATOM      5  N   UNL d   1       2.246  -0.682   2.737  0.00  0.00    -0.342 N 
ATOM      6  HN  UNL d   1       2.956  -0.382   2.069  1.00  0.00     0.167 HD
ATOM      7  C   UNL d   1       1.585  -1.901   4.693  0.00  0.00     0.047 A 
ATOM      8  C   UNL d   1       2.531  -1.462   3.795  0.00  0.00     0.093 A 
ENDROOT
BRANCH   1   9
ATOM      9  N   UNL d   1       0.621   0.490   1.555  0.00  0.00    -0.151 NA
ATOM     10  H   UNL d   1      -0.176   1.064   1.822  0.00  0.00     0.149 HD
BRANCH   9  11
ATOM     11  S   UNL d   1       0.158  -0.381   0.196  0.00  0.00     0.248 S 
ATOM     12  O   UNL d   1      -1.129   0.155  -0.183  0.00  0.00    -0.205 OA
ATOM     13  O   UNL d   1       0.373  -1.802   0.355  0.00  0.00    -0.205 OA
BRANCH  11  14
ATOM     14  C   UNL d   1       1.332   0.175  -1.026  0.00  0.00     0.076 A 
ATOM     15  C   UNL d   1       2.693  -0.089  -0.838  0.00  0.00     0.041 A 
ATOM     16  C   UNL d   1       3.627   0.323  -1.801  0.00  0.00     0.050 A 
ATOM     17  C   UNL d   1       3.168   0.986  -2.955  0.00  0.00     0.032 A 
ATOM     18  C   UNL d   1       1.797   1.227  -3.166  0.00  0.00     0.050 A 
ATOM     19  C   UNL d   1       0.881   0.823  -2.182  0.00  0.00     0.041 A 
BRANCH  16  20
ATOM     20  C   UNL d   1       5.105   0.057  -1.623  0.00  0.00     0.417 C 
ATOM     21  F   UNL d   1       5.404  -0.637  -0.491  0.00  0.00    -0.166 F 
ATOM     22  F   UNL d   1       5.627  -0.662  -2.654  0.00  0.00    -0.166 F 
ATOM     23  F   UNL d   1       5.831   1.207  -1.562  0.00  0.00    -0.166 F 
ENDBRANCH  16  20
BRANCH  18  24
ATOM     24  C   UNL d   1       1.332   1.888  -4.444  0.00  0.00     0.417 C 
ATOM     25  F   UNL d   1      -0.021   2.002  -4.537  0.00  0.00    -0.166 F 
ATOM     26  F   UNL d   1       1.827   3.148  -4.586  0.00  0.00    -0.166 F 
ATOM     27  F   UNL d   1       1.727   1.202  -5.551  0.00  0.00    -0.166 F 
ENDBRANCH  18  24
ENDBRANCH  11  14
ENDBRANCH   9  11
ENDBRANCH   1   9
BRANCH   2  28
ATOM     28  C   UNL d   1      -0.801  -1.921   5.322  0.00  0.00     0.032 C 
ATOM     29  C   UNL d   1      -1.954  -1.196   5.605  0.00  0.00     0.044 C 
ATOM     30  N   UNL d   1      -2.728  -2.005   6.436  0.00  0.00    -0.261 N 
ATOM     31  C   UNL d   1      -2.293   0.196   5.199  0.00  0.00     0.071 C 
ATOM     32  N   UNL d   1      -2.027  -3.101   6.840  0.00  0.00    -0.304 N 
ATOM     33  C   UNL d   1      -0.924  -3.088   6.097  0.00  0.00     0.123 C 
ATOM     34  HN  UNL d   1      -2.290  -3.780   7.554  1.00  0.00     0.186 HD
BRANCH  30  35
ATOM     35  C   UNL d   1      -4.074  -1.847   6.878  0.00  0.00     0.056 A 
ATOM     36  C   UNL d   1      -5.005  -1.114   6.132  0.00  0.00     0.031 A 
ATOM     37  C   UNL d   1      -6.322  -0.987   6.579  0.00  0.00     0.002 A 
ATOM     38  C   UNL d   1      -6.726  -1.609   7.758  0.00  0.00     0.000 A 
ATOM     39  C   UNL d   1      -5.813  -2.360   8.495  0.00  0.00     0.002 A 
ATOM     40  C   UNL d   1      -4.493  -2.486   8.056  0.00  0.00     0.031 A 
ENDBRANCH  30  35
ENDBRANCH   2  28
TORSDOF 7
