REMARK  7 active torsions:
REMARK  status: ('A' for Active; 'I' for Inactive)
REMARK    1  A    between atoms: C_3  and  S_1 
REMARK    2  A    between atoms: C_4  and  S_1 
REMARK    3  A    between atoms: S_2  and  C_5 
REMARK    4  A    between atoms: N_13  and  S_2 
REMARK    5  A    between atoms: C_9  and  C_10 
REMARK    6  A    between atoms: C_24  and  N_13 
REMARK    7  A    between atoms: O_31  and  C_26 
ROOT
ATOM      1  C   UNL d   1       0.360  -0.294  -1.734  0.00  0.00     0.107 A 
ATOM      2  C   UNL d   1      -0.511   0.018  -4.030  0.00  0.00     0.116 A 
ATOM      3  S   UNL d   1      -0.160   1.030  -2.692  0.00  0.00    -0.065 SA
ATOM      4  C   UNL d   1       0.225  -1.490  -2.415  0.00  0.00     0.033 A 
ATOM      5  C   UNL d   1      -0.270  -1.309  -3.736  0.00  0.00     0.034 A 
ENDROOT
BRANCH   1   6
ATOM      6  S   UNL d   1       0.974   0.056  -0.090  0.00  0.00     0.230 S 
ATOM      7  O   UNL d   1       1.661  -1.167   0.280  0.00  0.00    -0.215 OA
ATOM      8  O   UNL d   1       1.664   1.329  -0.188  0.00  0.00    -0.215 OA
BRANCH   6   9
ATOM      9  C   UNL d   1      -0.414   0.242   0.993  0.00  0.00     0.155 A 
ATOM     10  N   UNL d   1      -1.631   0.075   0.394  0.00  0.00    -0.354 N 
ATOM     11  C   UNL d   1      -2.716   0.249   1.180  0.00  0.00     0.105 A 
ATOM     12  HN  UNL d   1      -1.715  -0.167  -0.594  1.00  0.00     0.166 HD
ATOM     13  C   UNL d   1      -2.651   0.575   2.529  0.00  0.00     0.065 A 
ATOM     14  C   UNL d   1      -1.381   0.711   3.109  0.00  0.00     0.044 A 
ATOM     15  C   UNL d   1      -0.232   0.541   2.334  0.00  0.00     0.073 A 
ATOM     16 CL   UNL d   1       1.297   0.711   3.101  0.00  0.00    -0.081 Cl
BRANCH  13  17
ATOM     17  C   UNL d   1      -3.920   0.779   3.301  0.00  0.00     0.418 C 
ATOM     18  F   UNL d   1      -3.714   1.100   4.606  0.00  0.00    -0.166 F 
ATOM     19  F   UNL d   1      -4.681   1.780   2.782  0.00  0.00    -0.166 F 
ATOM     20  F   UNL d   1      -4.707  -0.330   3.303  0.00  0.00    -0.166 F 
ENDBRANCH  13  17
ENDBRANCH   6   9
ENDBRANCH   1   6
BRANCH   2  21
ATOM     21  S   UNL d   1      -1.119   0.790  -5.517  0.00  0.00     0.252 S 
ATOM     22  O   UNL d   1      -0.514   2.104  -5.585  0.00  0.00    -0.205 OA
ATOM     23  O   UNL d   1      -0.896  -0.188  -6.561  0.00  0.00    -0.205 OA
BRANCH  21  24
ATOM     24  N   UNL d   1      -2.792   1.032  -5.373  0.00  0.00    -0.181 NA
ATOM     25  H   UNL d   1      -3.075   1.640  -6.143  0.00  0.00     0.146 HD
BRANCH  24  26
ATOM     26  C   UNL d   1      -3.616  -0.128  -5.244  0.00  0.00     0.023 A 
ATOM     27  C   UNL d   1      -3.858  -0.657  -3.978  0.00  0.00     0.027 A 
ATOM     28  C   UNL d   1      -4.713  -1.754  -3.824  0.00  0.00     0.038 A 
ATOM     29  C   UNL d   1      -5.321  -2.329  -4.940  0.00  0.00     0.068 A 
ATOM     30  C   UNL d   1      -5.053  -1.811  -6.209  0.00  0.00     0.038 A 
ATOM     31  C   UNL d   1      -4.187  -0.724  -6.368  0.00  0.00     0.027 A 
BRANCH  29  32
ATOM     32  O   UNL d   1      -6.228  -3.352  -4.910  0.00  0.00    -0.356 OA
ATOM     33  C   UNL d   1      -6.154  -4.227  -3.791  0.00  0.00     0.210 C 
ENDBRANCH  29  32
ENDBRANCH  24  26
ENDBRANCH  21  24
ENDBRANCH   2  21
TORSDOF 7
