REMARK  5 active torsions:
REMARK  status: ('A' for Active; 'I' for Inactive)
REMARK    1  A    between atoms: C_14  and  N_1 
REMARK    2  A    between atoms: C_2  and  C_14 
REMARK    3  A    between atoms: S_16  and  C_8 
REMARK    4  A    between atoms: C_15  and  C_17 
REMARK    5  A    between atoms: C_17  and  S_16 
ROOT
ATOM      1  C   UNL d   1       0.995  -3.313  -0.031  0.00  0.00     0.120 A 
ATOM      2  N   UNL d   1       1.829  -3.225   1.061  0.00  0.00    -0.318 N 
ATOM      3  C   UNL d   1       2.936  -3.963   0.737  0.00  0.00     0.162 A 
ATOM      4  N   UNL d   1       1.536  -4.139  -0.908  0.00  0.00    -0.285 N 
ATOM      5  HN  UNL d   1       1.115  -4.433  -1.790  1.00  0.00     0.188 HD
ATOM      6  N   UNL d   1       2.759  -4.534  -0.431  0.00  0.00    -0.278 N 
ATOM      7  HN  UNL d   1       3.414  -5.159  -0.901  1.00  0.00     0.189 HD
ATOM      8  C   UNL d   1       1.601  -2.492   2.281  0.00  0.00     0.160 C 
ENDROOT
BRANCH   1   9
ATOM      9  C   UNL d   1      -0.300  -2.604  -0.214  0.00  0.00     0.226 C 
BRANCH   9  10
ATOM     10  N   UNL d   1      -0.141  -1.152  -0.240  0.00  0.00    -0.288 N 
ATOM     11  N   UNL d   1      -0.737  -0.425   0.737  0.00  0.00    -0.301 N 
ATOM     12  C   UNL d   1      -0.478   0.849   0.415  0.00  0.00     0.041 A 
ATOM     13  HN  UNL d   1      -1.265  -0.771   1.539  1.00  0.00     0.187 HD
ATOM     14  C   UNL d   1      -1.011   1.956   1.248  0.00  0.00     0.071 C 
ATOM     15  C   UNL d   1       0.309   0.921  -0.747  0.00  0.00     0.058 A 
ATOM     16  C   UNL d   1       0.509  -0.372  -1.170  0.00  0.00     0.044 A 
ATOM     17 BR   UNL d   1       0.932   2.497  -1.545  0.00  0.00    -0.047 Br
ATOM     18  C   UNL d   1       1.246  -0.890  -2.352  0.00  0.00     0.071 C 
ENDBRANCH   9  10
ENDBRANCH   1   9
BRANCH   3  19
ATOM     19  S   UNL d   1       4.353  -4.086   1.724  0.00  0.00    -0.088 SA
BRANCH  19  20
ATOM     20  C   UNL d   1       5.590  -4.518   0.454  0.00  0.00     0.126 C 
BRANCH  20  21
ATOM     21  C   UNL d   1       6.973  -4.703   1.030  0.00  0.00     0.012 A 
ATOM     22  C   UNL d   1       7.433  -5.998   1.305  0.00  0.00     0.125 A 
ATOM     23  F   UNL d   1       6.639  -7.053   1.062  0.00  0.00    -0.205 F 
ATOM     24  C   UNL d   1       8.708  -6.240   1.816  0.00  0.00     0.043 A 
ATOM     25  C   UNL d   1       9.564  -5.175   2.072  0.00  0.00     0.005 A 
ATOM     26  C   UNL d   1       9.131  -3.874   1.813  0.00  0.00     0.024 A 
ATOM     27  C   UNL d   1       7.848  -3.639   1.298  0.00  0.00     0.044 A 
ATOM     28 CL   UNL d   1       7.405  -1.995   0.998  0.00  0.00    -0.084 Cl
ENDBRANCH  20  21
ENDBRANCH  19  20
ENDBRANCH   3  19
TORSDOF 5
