REMARK  4 active torsions:
REMARK  status: ('A' for Active; 'I' for Inactive)
REMARK       I    between atoms: N_2  and  C_1 
REMARK    1  A    between atoms: C_3  and  C_1 
REMARK       I    between atoms: C_4  and  N_6 
REMARK    2  A    between atoms: C_16  and  C_4 
REMARK    3  A    between atoms: N_6  and  C_17 
REMARK    4  A    between atoms: C_18  and  C_16 
ROOT
ATOM      1  C   UNL d   1       0.985  -0.034  -0.005  0.00  0.00     0.277 C 
ATOM      2  N   UNL d   1       0.225  -0.279   1.147  0.00  0.00    -0.346 N 
ATOM      3  C   UNL d   1       0.618   0.328   2.416  0.00  0.00     0.128 C 
ATOM      4  C   UNL d   1      -0.939  -1.156   1.234  0.00  0.00     0.128 C 
ATOM      5  O   UNL d   1       2.075   0.535   0.073  0.00  0.00    -0.265 OA
ATOM      6  C   UNL d   1      -2.143  -0.359   1.718  0.00  0.00     0.045 C 
ATOM      7  C   UNL d   1      -0.545   1.126   3.010  0.00  0.00     0.045 C 
ATOM      8  C   UNL d   1      -1.848   0.312   3.067  0.00  0.00     0.087 C 
ENDROOT
BRANCH   8   9
ATOM      9  N   UNL d   1      -1.829  -0.678   4.143  0.00  0.00    -0.356 N 
ATOM     10  C   UNL d   1      -2.165  -0.348   5.439  0.00  0.00     0.222 C 
ATOM     11  O   UNL d   1      -2.531   0.776   5.777  0.00  0.00    -0.273 OA
ATOM     12  H   UNL d   1      -1.304  -1.533   4.012  0.00  0.00     0.162 HD
BRANCH  10  13
ATOM     13  C   UNL d   1      -2.063  -1.502   6.422  0.00  0.00     0.141 C 
BRANCH  13  14
ATOM     14  C   UNL d   1      -0.704  -1.615   7.065  0.00  0.00    -0.050 A 
ATOM     15  C   UNL d   1      -0.194  -0.561   7.838  0.00  0.00     0.007 A 
ATOM     16  C   UNL d   1       1.056  -0.672   8.450  0.00  0.00     0.001 A 
ATOM     17  C   UNL d   1       1.805  -1.837   8.302  0.00  0.00     0.000 A 
ATOM     18  C   UNL d   1       1.304  -2.894   7.544  0.00  0.00     0.001 A 
ATOM     19  C   UNL d   1       0.055  -2.786   6.930  0.00  0.00     0.007 A 
ENDBRANCH  13  14
ENDBRANCH  10  13
ENDBRANCH   8   9
BRANCH   1  20
ATOM     20  C   UNL d   1       0.474  -0.478  -1.295  0.00  0.00     0.142 A 
ATOM     21  O   UNL d   1      -0.876  -0.522  -1.534  0.00  0.00    -0.317 OA
ATOM     22  C   UNL d   1      -1.054  -0.987  -2.795  0.00  0.00     0.143 A 
ATOM     23  C   UNL d   1       0.159  -1.189  -3.407  0.00  0.00     0.027 A 
ATOM     24  C   UNL d   1       1.143  -0.835  -2.452  0.00  0.00     0.045 A 
ENDBRANCH   1  20
TORSDOF 4
