REMARK  4 active torsions:
REMARK  status: ('A' for Active; 'I' for Inactive)
REMARK    1  A    between atoms: N_8  and  C_1 
REMARK    2  A    between atoms: C_12  and  C_4 
REMARK    3  A    between atoms: C_13  and  C_6 
REMARK    4  A    between atoms: C_7  and  C_9 
REMARK       I    between atoms: C_9  and  N_8 
ROOT
ATOM      1  C   UNL d   1       1.209  -0.735   0.039  0.00  0.00     0.085 A 
ATOM      2  N   UNL d   1       0.117   1.239   0.014  0.00  0.00    -0.300 N 
ATOM      3  HN  UNL d   1      -0.102   2.235   0.027  1.00  0.00     0.187 HD
ATOM      4  C   UNL d   1       1.327   0.686   0.004  0.00  0.00     0.062 A 
ATOM      5  N   UNL d   1      -0.757   0.220   0.003  0.00  0.00    -0.297 N 
ATOM      6  C   UNL d   1      -0.162  -1.032   0.054  0.00  0.00     0.064 A 
ATOM      7  C   UNL d   1      -2.125   0.659  -0.132  0.00  0.00     0.177 C 
ENDROOT
BRANCH   1   8
ATOM      8  N   UNL d   1       2.256  -1.644  -0.083  0.00  0.00    -0.319 N 
ATOM      9  C   UNL d   1       2.832  -2.224   1.052  0.00  0.00     0.264 C 
ATOM     10  O   UNL d   1       2.293  -2.222   2.152  0.00  0.00    -0.267 OA
ATOM     11  H   UNL d   1       2.965  -1.370  -0.749  0.00  0.00     0.169 HD
BRANCH   9  12
ATOM     12  C   UNL d   1       4.156  -2.810   0.825  0.00  0.00     0.094 A 
ATOM     13  C   UNL d   1       4.830  -3.740   1.596  0.00  0.00     0.057 A 
ATOM     14  C   UNL d   1       6.144  -4.013   1.106  0.00  0.00     0.032 A 
ATOM     15 CL   UNL d   1       4.238  -4.538   2.992  0.00  0.00    -0.083 Cl
ATOM     16  C   UNL d   1       6.436  -3.295  -0.029  0.00  0.00     0.052 A 
ATOM     17  S   UNL d   1       5.121  -2.328  -0.519  0.00  0.00    -0.095 SA
ENDBRANCH   9  12
ENDBRANCH   1   8
BRANCH   4  18
ATOM     18  C   UNL d   1       2.553   1.599  -0.007  0.00  0.00    -0.005 C 
ATOM     19  C   UNL d   1       2.152   3.096  -0.064  0.00  0.00     0.021 C 
ATOM     20  C   UNL d   1       3.381   1.401   1.277  0.00  0.00     0.021 C 
ATOM     21  C   UNL d   1       3.439   1.338  -1.240  0.00  0.00     0.021 C 
ENDBRANCH   4  18
BRANCH   6  22
ATOM     22  C   UNL d   1      -0.881  -2.402  -0.028  0.00  0.00    -0.005 C 
ATOM     23  C   UNL d   1      -0.813  -2.903  -1.485  0.00  0.00     0.021 C 
ATOM     24  C   UNL d   1      -0.207  -3.456   0.878  0.00  0.00     0.021 C 
ATOM     25  C   UNL d   1      -2.359  -2.402   0.413  0.00  0.00     0.021 C 
ENDBRANCH   6  22
TORSDOF 4
