REMARK  11 active torsions:
REMARK  status: ('A' for Active; 'I' for Inactive)
REMARK    1  A    between atoms: N_2  and  S_1 
REMARK    2  A    between atoms: C_3  and  S_1 
REMARK    3  A    between atoms: C_7  and  N_2 
REMARK    4  A    between atoms: C_4  and  C_9 
REMARK    5  A    between atoms: C_5  and  C_8 
REMARK    6  A    between atoms: C_6  and  C_7 
REMARK       I    between atoms: N_11  and  C_6 
REMARK    7  A    between atoms: C_29  and  C_7 
REMARK       I    between atoms: C_10  and  N_12 
REMARK    8  A    between atoms: C_18  and  C_10 
REMARK    9  A    between atoms: N_12  and  N_11 
REMARK   10  A    between atoms: C_35  and  C_29 
REMARK   11  A    between atoms: S_34  and  C_35 
ROOT
ATOM      1  C   UNL d   1       1.026   1.901  -1.990  0.00  0.00     0.187 C 
ENDROOT
BRANCH   1   2
ATOM      2  C   UNL d   1       2.556   2.066  -2.077  0.00  0.00     0.259 C 
ATOM      3  N   UNL d   1       3.236   1.190  -2.901  0.00  0.00    -0.265 N 
ATOM      4  H   UNL d   1       2.854   0.325  -3.274  0.00  0.00     0.190 HD
ATOM      5  O   UNL d   1       3.139   3.006  -1.531  0.00  0.00    -0.269 OA
BRANCH   3   6
ATOM      6  N   UNL d   1       4.627   1.366  -3.079  0.00  0.00    -0.263 N 
ATOM      7  C   UNL d   1       5.368   0.277  -3.508  0.00  0.00     0.270 C 
ATOM      8  O   UNL d   1       4.846  -0.811  -3.746  0.00  0.00    -0.266 OA
ATOM      9  H   UNL d   1       5.047   2.185  -2.639  0.00  0.00     0.190 HD
BRANCH   7  10
ATOM     10  C   UNL d   1       6.836   0.464  -3.672  0.00  0.00     0.033 A 
ATOM     11  C   UNL d   1       7.684  -0.635  -3.454  0.00  0.00     0.019 A 
ATOM     12  C   UNL d   1       9.064  -0.526  -3.669  0.00  0.00     0.025 A 
ATOM     13  C   UNL d   1       9.600   0.678  -4.121  0.00  0.00     0.034 A 
ATOM     14  C   UNL d   1       8.768   1.775  -4.349  0.00  0.00     0.025 A 
ATOM     15 CL   UNL d   1      11.289   0.807  -4.417  0.00  0.00    -0.084 Cl
ATOM     16  C   UNL d   1       7.388   1.673  -4.123  0.00  0.00     0.019 A 
ENDBRANCH   7  10
ENDBRANCH   3   6
ENDBRANCH   1   2
BRANCH   1  17
ATOM     17  N   UNL d   1       0.614   0.514  -1.655  0.00  0.00    -0.301 N 
ATOM     18  H   UNL d   1       1.061  -0.258  -2.141  0.00  0.00     0.173 HD
BRANCH  17  19
ATOM     19  S   UNL d   1      -1.004   0.222  -1.234  0.00  0.00     0.259 S 
ATOM     20  O   UNL d   1      -1.620   1.473  -0.866  0.00  0.00    -0.201 OA
ATOM     21  O   UNL d   1      -1.004  -0.931  -0.360  0.00  0.00    -0.201 OA
BRANCH  19  22
ATOM     22  C   UNL d   1      -1.741  -0.345  -2.767  0.00  0.00     0.081 A 
ATOM     23  C   UNL d   1      -1.269  -1.541  -3.322  0.00  0.00     0.041 A 
ATOM     24  C   UNL d   1      -1.886  -2.089  -4.456  0.00  0.00     0.050 A 
ATOM     25  C   UNL d   1      -2.985  -1.420  -5.021  0.00  0.00     0.032 A 
ATOM     26  C   UNL d   1      -3.483  -0.228  -4.461  0.00  0.00     0.050 A 
ATOM     27  C   UNL d   1      -2.845   0.312  -3.328  0.00  0.00     0.041 A 
BRANCH  24  28
ATOM     28  C   UNL d   1      -1.420  -3.407  -5.035  0.00  0.00     0.417 C 
ATOM     29  F   UNL d   1      -0.352  -3.933  -4.374  0.00  0.00    -0.166 F 
ATOM     30  F   UNL d   1      -2.391  -4.358  -5.002  0.00  0.00    -0.166 F 
ATOM     31  F   UNL d   1      -1.039  -3.296  -6.335  0.00  0.00    -0.166 F 
ENDBRANCH  24  28
BRANCH  26  32
ATOM     32  C   UNL d   1      -4.728   0.401  -5.055  0.00  0.00     0.417 C 
ATOM     33  F   UNL d   1      -5.121   1.540  -4.426  0.00  0.00    -0.166 F 
ATOM     34  F   UNL d   1      -4.572   0.725  -6.367  0.00  0.00    -0.166 F 
ATOM     35  F   UNL d   1      -5.796  -0.443  -5.005  0.00  0.00    -0.166 F 
ENDBRANCH  26  32
ENDBRANCH  19  22
ENDBRANCH  17  19
ENDBRANCH   1  17
BRANCH   1  36
ATOM     36  C   UNL d   1       0.353   2.367  -3.282  0.00  0.00     0.045 C 
BRANCH  36  37
ATOM     37  C   UNL d   1       0.517   3.865  -3.521  0.00  0.00     0.076 C 
BRANCH  37  38
ATOM     38  S   UNL d   1      -0.517   4.315  -4.953  0.00  0.00    -0.173 SA
ATOM     39  C   UNL d   1      -0.212   6.095  -4.963  0.00  0.00     0.089 C 
ENDBRANCH  37  38
ENDBRANCH  36  37
ENDBRANCH   1  36
TORSDOF 11
