REMARK  6 active torsions:
REMARK  status: ('A' for Active; 'I' for Inactive)
REMARK    1  A    between atoms: C_10  and  C_1 
REMARK    2  A    between atoms: C_14  and  C_5 
REMARK    3  A    between atoms: S_16  and  C_9 
REMARK    4  A    between atoms: C_11  and  C_20 
REMARK       I    between atoms: N_15  and  C_11 
REMARK    5  A    between atoms: C_21  and  N_15 
REMARK    6  A    between atoms: C_20  and  S_16 
ROOT
ATOM      1  N   UNL d   1      -1.119   3.266  -0.613  0.00  0.00    -0.334 N 
ATOM      2  HN  UNL d   1      -0.354   3.147  -1.278  1.00  0.00     0.168 HD
ATOM      3  C   UNL d   1      -1.730   4.445  -0.441  0.00  0.00     0.145 A 
ATOM      4  C   UNL d   1      -1.573   2.245   0.141  0.00  0.00     0.071 A 
ATOM      5  N   UNL d   1      -2.731   4.684   0.416  0.00  0.00    -0.347 N 
ATOM      6  HN  UNL d   1      -3.160   5.605   0.501  1.00  0.00     0.167 HD
ATOM      7  C   UNL d   1      -2.585   2.389   1.068  0.00  0.00     0.049 A 
ATOM      8  C   UNL d   1      -3.140   3.641   1.158  0.00  0.00     0.092 A 
ENDROOT
BRANCH   3   9
ATOM      9  S   UNL d   1      -0.994   5.818  -1.285  0.00  0.00    -0.085 SA
BRANCH   9  10
ATOM     10  C   UNL d   1      -0.867   6.959   0.119  0.00  0.00     0.185 C 
BRANCH  10  11
ATOM     11  C   UNL d   1       0.018   6.503   1.277  0.00  0.00     0.231 C 
ATOM     12  N   UNL d   1       0.786   5.372   1.076  0.00  0.00    -0.327 N 
ATOM     13  H   UNL d   1       0.790   4.990   0.133  0.00  0.00     0.169 HD
ATOM     14  O   UNL d   1       0.025   7.179   2.308  0.00  0.00    -0.272 OA
BRANCH  12  15
ATOM     15  C   UNL d   1       1.519   4.649   2.042  0.00  0.00     0.034 A 
ATOM     16  C   UNL d   1       1.526   4.967   3.402  0.00  0.00     0.031 A 
ATOM     17  C   UNL d   1       2.245   4.186   4.316  0.00  0.00     0.026 A 
ATOM     18  C   UNL d   1       2.962   3.081   3.872  0.00  0.00     0.034 A 
ATOM     19  C   UNL d   1       2.966   2.750   2.518  0.00  0.00     0.026 A 
ATOM     20 CL   UNL d   1       3.834   2.117   4.997  0.00  0.00    -0.084 Cl
ATOM     21  C   UNL d   1       2.243   3.531   1.608  0.00  0.00     0.031 A 
ENDBRANCH  12  15
ENDBRANCH  10  11
ENDBRANCH   9  10
ENDBRANCH   3   9
BRANCH   4  22
ATOM     22  C   UNL d   1      -0.916   0.979  -0.118  0.00  0.00     0.127 A 
ATOM     23  C   UNL d   1       0.069   0.563  -0.983  0.00  0.00     0.074 A 
ATOM     24  C   UNL d   1       0.201  -0.834  -0.757  0.00  0.00     0.068 A 
ATOM     25  N   UNL d   1      -0.646  -1.218   0.213  0.00  0.00    -0.260 N 
ATOM     26  O   UNL d   1      -1.336  -0.092   0.605  0.00  0.00    -0.235 OA
ATOM     27  HN  UNL d   1      -0.757  -2.160   0.587  1.00  0.00     0.195 HD
BRANCH  24  28
ATOM     28  C   UNL d   1       1.087  -1.792  -1.426  0.00  0.00    -0.007 A 
ATOM     29  C   UNL d   1       1.976  -1.382  -2.433  0.00  0.00     0.015 A 
ATOM     30  C   UNL d   1       2.827  -2.304  -3.054  0.00  0.00     0.024 A 
ATOM     31  C   UNL d   1       2.795  -3.644  -2.676  0.00  0.00     0.034 A 
ATOM     32  C   UNL d   1       1.914  -4.073  -1.689  0.00  0.00     0.024 A 
ATOM     33 CL   UNL d   1       3.853  -4.771  -3.430  0.00  0.00    -0.084 Cl
ATOM     34  C   UNL d   1       1.064  -3.151  -1.069  0.00  0.00     0.015 A 
ENDBRANCH  24  28
ENDBRANCH   4  22
TORSDOF 6
