REMARK  3 active torsions:
REMARK  status: ('A' for Active; 'I' for Inactive)
REMARK       I    between atoms: C_2  and  N_1 
REMARK       I    between atoms: C_4  and  N_1 
REMARK       I    between atoms: N_5  and  C_2 
REMARK    1  A    between atoms: N_3  and  C_7 
REMARK    2  A    between atoms: C_6  and  C_4 
REMARK    3  A    between atoms: C_9  and  N_8 
ROOT
ATOM      1  N   UNL d   1       0.721   0.420   0.664  0.00  0.00    -0.275 N 
ATOM      2  C   UNL d   1       0.371  -0.880   0.929  0.00  0.00     0.325 C 
ATOM      3  C   UNL d   1       0.411   1.039  -0.532  0.00  0.00     0.262 C 
ATOM      4  N   UNL d   1       1.050  -1.506   1.963  0.00  0.00    -0.331 N 
ATOM      5  N   UNL d   1       2.840  -3.310   3.264  0.00  0.00    -0.364 N 
ATOM      6  O   UNL d   1      -0.509  -1.479   0.312  0.00  0.00    -0.247 OA
ATOM      7  O   UNL d   1      -0.512   0.754  -1.282  0.00  0.00    -0.267 OA
ATOM      8  C   UNL d   1       2.156  -0.990   2.791  0.00  0.00     0.147 C 
ATOM      9  C   UNL d   1       0.626  -2.872   2.326  0.00  0.00     0.147 C 
ATOM     10  C   UNL d   1       1.816  -3.846   2.355  0.00  0.00     0.144 C 
ATOM     11  C   UNL d   1       3.341  -1.984   2.863  0.00  0.00     0.144 C 
ATOM     12  H   UNL d   1       1.430   0.845   1.229  0.00  0.00     0.173 HD
ENDROOT
BRANCH   3  13
ATOM     13  C   UNL d   1       1.290   2.167  -0.938  0.00  0.00     0.070 A 
ATOM     14  C   UNL d   1       1.944   2.990  -0.023  0.00  0.00     0.132 A 
ATOM     15  F   UNL d   1       1.795   2.799   1.297  0.00  0.00    -0.205 F 
ATOM     16  C   UNL d   1       2.776   4.019  -0.460  0.00  0.00     0.043 A 
ATOM     17  C   UNL d   1       2.972   4.222  -1.827  0.00  0.00     0.003 A 
ATOM     18  C   UNL d   1       2.322   3.406  -2.753  0.00  0.00     0.001 A 
ATOM     19  C   UNL d   1       1.476   2.390  -2.312  0.00  0.00     0.020 A 
ENDBRANCH   3  13
BRANCH   5  20
ATOM     20  C   UNL d   1       3.621  -4.108   4.070  0.00  0.00     0.103 A 
ATOM     21  N   UNL d   1       4.850  -3.664   4.426  0.00  0.00    -0.350 N 
ATOM     22  C   UNL d   1       5.595  -4.390   5.300  0.00  0.00     0.125 A 
ATOM     23  HN  UNL d   1       5.213  -2.792   4.041  1.00  0.00     0.166 HD
ATOM     24  C   UNL d   1       5.160  -5.575   5.860  0.00  0.00     0.118 A 
ATOM     25  C   UNL d   1       3.906  -6.052   5.505  0.00  0.00     0.041 A 
ATOM     26  C   UNL d   1       3.138  -5.307   4.607  0.00  0.00     0.051 A 
BRANCH  24  27
ATOM     27  N   UNL d   1       5.993  -6.287   6.815  0.00  0.00    -0.114 N 
ATOM     28  O   UNL d   1       7.098  -5.799   7.091  0.00  0.00    -0.532 OA
ATOM     29  O   UNL d   1       5.548  -7.338   7.296  0.00  0.00    -0.532 OA
ENDBRANCH  24  27
ENDBRANCH   5  20
TORSDOF 3
