REMARK  7 active torsions:
REMARK  status: ('A' for Active; 'I' for Inactive)
REMARK    1  A    between atoms: N_6  and  S_1 
REMARK    2  A    between atoms: C_12  and  S_1 
REMARK    3  A    between atoms: C_2  and  C_8 
REMARK    4  A    between atoms: C_10  and  N_6 
REMARK    5  A    between atoms: C_21  and  N_6 
REMARK    6  A    between atoms: C_18  and  C_11 
REMARK    7  A    between atoms: C_19  and  C_21 
ROOT
ATOM      1  C   UNL d   1      -1.540  -1.371  -0.509  0.00  0.00     0.043 A 
ATOM      2  C   UNL d   1      -2.541  -2.029   0.225  0.00  0.00     0.060 A 
ATOM      3  C   UNL d   1      -0.670  -2.118  -1.324  0.00  0.00     0.018 A 
ATOM      4  C   UNL d   1      -2.652  -3.423   0.127  0.00  0.00     0.031 A 
ATOM      5  C   UNL d   1      -0.796  -3.504  -1.415  0.00  0.00     0.001 A 
ATOM      6  C   UNL d   1      -1.791  -4.155  -0.693  0.00  0.00     0.002 A 
ENDROOT
BRANCH   1   7
ATOM      7  C   UNL d   1      -1.383   0.087  -0.567  0.00  0.00     0.165 A 
ATOM      8  N   UNL d   1      -0.965   0.756  -1.595  0.00  0.00    -0.331 N 
ATOM      9  C   UNL d   1      -1.026   2.053  -1.166  0.00  0.00     0.111 A 
ATOM     10  HN  UNL d   1      -0.663   0.401  -2.502  1.00  0.00     0.168 HD
ATOM     11  C   UNL d   1      -0.814   3.162  -1.887  0.00  0.00     0.047 C 
ATOM     12  C   UNL d   1      -1.466   2.099   0.256  0.00  0.00     0.316 A 
ATOM     13  O   UNL d   1      -1.673   0.785   0.554  0.00  0.00    -0.255 OA
ATOM     14  O   UNL d   1      -1.631   3.056   0.985  0.00  0.00    -0.257 OA
BRANCH  11  15
ATOM     15  C   UNL d   1      -0.428   3.199  -3.306  0.00  0.00    -0.034 A 
ATOM     16  C   UNL d   1      -0.989   4.179  -4.138  0.00  0.00     0.013 A 
ATOM     17  C   UNL d   1      -0.625   4.263  -5.487  0.00  0.00     0.024 A 
ATOM     18  C   UNL d   1       0.312   3.376  -6.009  0.00  0.00     0.034 A 
ATOM     19  C   UNL d   1       0.891   2.409  -5.194  0.00  0.00     0.024 A 
ATOM     20 CL   UNL d   1       0.761   3.482  -7.665  0.00  0.00    -0.084 Cl
ATOM     21  C   UNL d   1       0.527   2.324  -3.847  0.00  0.00     0.013 A 
ENDBRANCH  11  15
ENDBRANCH   1   7
BRANCH   2  22
ATOM     22  N   UNL d   1      -3.508  -1.343   1.034  0.00  0.00    -0.267 N 
BRANCH  22  23
ATOM     23  S   UNL d   1      -5.033  -1.033   0.371  0.00  0.00     0.265 S 
ATOM     24  O   UNL d   1      -6.050  -1.475   1.304  0.00  0.00    -0.200 OA
ATOM     25  O   UNL d   1      -5.059  -1.458  -1.012  0.00  0.00    -0.200 OA
BRANCH  23  26
ATOM     26  C   UNL d   1      -5.091   0.751   0.356  0.00  0.00     0.080 A 
ATOM     27  C   UNL d   1      -4.679   1.446  -0.786  0.00  0.00     0.027 A 
ATOM     28  C   UNL d   1      -4.736   2.842  -0.797  0.00  0.00     0.025 A 
ATOM     29  C   UNL d   1      -5.219   3.528   0.318  0.00  0.00     0.034 A 
ATOM     30  C   UNL d   1      -5.668   2.831   1.440  0.00  0.00     0.025 A 
ATOM     31 CL   UNL d   1      -5.272   5.247   0.303  0.00  0.00    -0.084 Cl
ATOM     32  C   UNL d   1      -5.615   1.436   1.458  0.00  0.00     0.027 A 
ENDBRANCH  23  26
ENDBRANCH  22  23
BRANCH  22  33
ATOM     33  C   UNL d   1      -3.252  -1.131   2.466  0.00  0.00     0.168 C 
BRANCH  33  34
ATOM     34  C   UNL d   1      -3.691  -2.319   3.273  0.00  0.00    -0.016 C 
ATOM     35  C   UNL d   1      -2.913  -2.996   4.129  0.00  0.00     0.008 C 
ENDBRANCH  33  34
ENDBRANCH  22  33
ENDBRANCH   2  22
TORSDOF 7
