REMARK  2 active torsions:
REMARK  status: ('A' for Active; 'I' for Inactive)
REMARK       I    between atoms: C_6  and  N_5 
REMARK    1  A    between atoms: O_15  and  C_6 
REMARK    2  A    between atoms: C_20  and  O_15 
ROOT
ATOM      1  C   UNL d   1      -1.985   0.876  -0.085  0.00  0.00     0.056 C 
ATOM      2  N   UNL d   1      -1.059   1.857  -0.324  0.00  0.00    -0.356 N 
ATOM      3  C   UNL d   1      -1.479  -0.314  -0.586  0.00  0.00    -0.019 C 
ATOM      4  C   UNL d   1      -3.074   0.918   0.955  0.00  0.00     0.202 C 
ATOM      5  N   UNL d   1      -3.931   1.893   3.590  0.00  0.00    -0.328 N 
ATOM      6  C   UNL d   1      -4.232   2.263   4.886  0.00  0.00     0.362 C 
ATOM      7  C   UNL d   1      -0.076  -0.114  -0.729  0.00  0.00    -0.001 A 
ATOM      8  C   UNL d   1       0.164   1.251  -0.540  0.00  0.00     0.043 A 
ATOM      9  N   UNL d   1      -4.066  -0.122   0.587  0.00  0.00     0.099 N 
ATOM     10  C   UNL d   1      -3.805   2.266   1.114  0.00  0.00     0.068 C 
ATOM     11  C   UNL d   1      -2.321   0.629   2.282  0.00  0.00     0.068 C 
ATOM     12  C   UNL d   1      -3.229   0.630   3.475  0.00  0.00     0.131 C 
ATOM     13  C   UNL d   1      -4.670   2.321   2.397  0.00  0.00     0.131 C 
ATOM     14  O   UNL d   1      -3.649   1.817   5.864  0.00  0.00    -0.238 OA
ATOM     15  C   UNL d   1      -2.271  -1.580  -0.536  0.00  0.00     0.071 C 
ATOM     16  C   UNL d   1      -3.468  -1.471   0.442  0.00  0.00     0.275 C 
ATOM     17  C   UNL d   1       1.026  -0.979  -0.869  0.00  0.00     0.014 A 
ATOM     18  C   UNL d   1       1.452   1.796  -0.499  0.00  0.00     0.030 A 
ATOM     19  C   UNL d   1       2.322  -0.457  -0.769  0.00  0.00     0.001 A 
ATOM     20  C   UNL d   1       2.529   0.909  -0.592  0.00  0.00     0.002 A 
ATOM     21  H   UNL d   1      -1.155   2.829  -0.068  0.00  0.00     0.166 HD
ATOM     22  H   UNL d   1      -4.454   0.139  -0.320  0.00  0.00     0.317 HD
ENDROOT
BRANCH   6  23
ATOM     23  O   UNL d   1      -5.303   3.101   4.988  0.00  0.00    -0.304 OA
BRANCH  23  24
ATOM     24  C   UNL d   1      -5.805   3.208   6.331  0.00  0.00     0.176 C 
ATOM     25  C   UNL d   1      -5.053   4.257   7.132  0.00  0.00     0.034 C 
ENDBRANCH  23  24
ENDBRANCH   6  23
TORSDOF 2
