REMARK  2 active torsions:
REMARK  status: ('A' for Active; 'I' for Inactive)
REMARK    1  A    between atoms: S_14  and  C_3 
REMARK    2  A    between atoms: C_5  and  C_4 
ROOT
ATOM      1  N   UNL d   1      -0.412  -0.396   0.584  0.00  0.00    -0.336 N 
ATOM      2  HN  UNL d   1      -0.175  -0.570   1.561  1.00  0.00     0.168 HD
ATOM      3  C   UNL d   1      -0.746   0.830   0.161  0.00  0.00     0.141 A 
ATOM      4  C   UNL d   1      -0.398  -1.396  -0.327  0.00  0.00     0.045 A 
ATOM      5  N   UNL d   1      -1.067   1.150  -1.098  0.00  0.00    -0.347 N 
ATOM      6  HN  UNL d   1      -1.320   2.101  -1.369  1.00  0.00     0.167 HD
ATOM      7  C   UNL d   1      -0.702  -1.154  -1.654  0.00  0.00     0.047 A 
ATOM      8  C   UNL d   1      -1.035   0.140  -1.982  0.00  0.00     0.092 A 
ENDROOT
BRANCH   4   9
ATOM      9  C   UNL d   1      -0.090  -2.738   0.226  0.00  0.00    -0.009 A 
ATOM     10  C   UNL d   1       0.567  -2.851   1.472  0.00  0.00     0.023 A 
ATOM     11  C   UNL d   1       0.732  -4.096   2.053  0.00  0.00    -0.022 A 
ATOM     12  C   UNL d   1       1.361  -4.465   3.340  0.00  0.00     0.068 C 
ATOM     13  C   UNL d   1       0.300  -5.241   1.412  0.00  0.00     0.075 A 
ATOM     14  C   UNL d   1       0.786  -5.876   3.469  0.00  0.00     0.180 C 
ATOM     15  O   UNL d   1       0.505  -6.383   2.142  0.00  0.00    -0.350 OA
ATOM     16  C   UNL d   1      -0.287  -5.196   0.169  0.00  0.00     0.038 A 
ATOM     17  C   UNL d   1      -0.489  -3.938  -0.418  0.00  0.00     0.016 A 
ENDBRANCH   4   9
BRANCH   3  18
ATOM     18  S   UNL d   1      -0.773   2.104   1.383  0.00  0.00    -0.107 SA
ATOM     19  H   UNL d   1      -0.434   1.270   2.373  0.00  0.00     0.110 HD
ENDBRANCH   3  18
TORSDOF 2
