REMARK  5 active torsions:
REMARK  status: ('A' for Active; 'I' for Inactive)
REMARK    1  A    between atoms: C_7  and  C_1 
REMARK    2  A    between atoms: C_6  and  C_2 
REMARK    3  A    between atoms: C_9  and  C_5 
REMARK       I    between atoms: N_8  and  C_7 
REMARK    4  A    between atoms: C_18  and  N_8 
REMARK    5  A    between atoms: C_23  and  C_18 
ROOT
ATOM      1  C   UNL d   1       1.169   0.637   0.008  0.00  0.00     0.073 A 
ATOM      2  C   UNL d   1      -0.134   1.118  -0.052  0.00  0.00     0.175 A 
ATOM      3  O   UNL d   1      -1.014   0.065  -0.050  0.00  0.00    -0.304 OA
ATOM      4  C   UNL d   1       1.049  -0.787   0.056  0.00  0.00     0.058 A 
ATOM      5  C   UNL d   1      -0.296  -1.089   0.033  0.00  0.00     0.087 A 
ENDROOT
BRANCH   1   6
ATOM      6  C   UNL d   1       2.366   1.460   0.018  0.00  0.00     0.254 C 
ATOM      7  N   UNL d   1       3.478   0.874   0.579  0.00  0.00    -0.353 N 
ATOM      8  H   UNL d   1       3.423  -0.059   0.956  0.00  0.00     0.163 HD
ATOM      9  O   UNL d   1       2.377   2.598  -0.437  0.00  0.00    -0.268 OA
BRANCH   7  10
ATOM     10  C   UNL d   1       4.718   1.603   0.752  0.00  0.00     0.161 C 
BRANCH  10  11
ATOM     11  C   UNL d   1       5.702   1.350  -0.359  0.00  0.00    -0.038 A 
ATOM     12  C   UNL d   1       5.412   1.734  -1.673  0.00  0.00     0.025 A 
ATOM     13  C   UNL d   1       6.362   1.522  -2.660  0.00  0.00     0.088 A 
ATOM     14  N   UNL d   1       7.569   0.966  -2.431  0.00  0.00    -0.375 N 
ATOM     15  C   UNL d   1       7.840   0.614  -1.157  0.00  0.00     0.088 A 
ATOM     16  HN  UNL d   1       8.243   0.820  -3.182  1.00  0.00     0.164 HD
ATOM     17  C   UNL d   1       6.952   0.781  -0.103  0.00  0.00     0.025 A 
ENDBRANCH  10  11
ENDBRANCH   7  10
ENDBRANCH   1   6
BRANCH   2  18
ATOM     18  C   UNL d   1      -0.763   2.468  -0.073  0.00  0.00     0.440 C 
ATOM     19  F   UNL d   1       0.103   3.500   0.064  0.00  0.00    -0.164 F 
ATOM     20  F   UNL d   1      -1.454   2.684  -1.223  0.00  0.00    -0.164 F 
ATOM     21  F   UNL d   1      -1.659   2.602   0.945  0.00  0.00    -0.164 F 
ENDBRANCH   2  18
BRANCH   5  22
ATOM     22  C   UNL d   1      -1.069  -2.324   0.126  0.00  0.00    -0.002 A 
ATOM     23  C   UNL d   1      -0.510  -3.457   0.737  0.00  0.00     0.016 A 
ATOM     24  C   UNL d   1      -1.254  -4.632   0.887  0.00  0.00     0.024 A 
ATOM     25  C   UNL d   1      -2.563  -4.688   0.416  0.00  0.00     0.034 A 
ATOM     26  C   UNL d   1      -3.129  -3.583  -0.214  0.00  0.00     0.024 A 
ATOM     27 CL   UNL d   1      -3.485  -6.124   0.627  0.00  0.00    -0.084 Cl
ATOM     28  C   UNL d   1      -2.385  -2.405  -0.356  0.00  0.00     0.016 A 
ENDBRANCH   5  22
TORSDOF 5
