REMARK  4 active torsions:
REMARK  status: ('A' for Active; 'I' for Inactive)
REMARK    1  A    between atoms: N_16  and  C_4 
REMARK    2  A    between atoms: O_11  and  C_5 
REMARK    3  A    between atoms: C_8  and  C_13 
REMARK    4  A    between atoms: C_17  and  O_11 
ROOT
ATOM      1  C   UNL d   1       3.042   4.582  -0.784  0.00  0.00     0.100 A 
ATOM      2  C   UNL d   1       2.432   3.325  -0.632  0.00  0.00     0.098 A 
ATOM      3  C   UNL d   1       2.589   5.726  -0.049  0.00  0.00     0.104 C 
ATOM      4  N   UNL d   1       2.227   6.664   0.533  0.00  0.00    -0.191 NA
ATOM      5  C   UNL d   1       4.136   4.697  -1.658  0.00  0.00     0.057 A 
ATOM      6 CL   UNL d   1       4.902   6.215  -1.979  0.00  0.00    -0.083 Cl
ATOM      7  C   UNL d   1       2.972   2.197  -1.266  0.00  0.00     0.039 A 
ATOM      8  C   UNL d   1       4.082   2.318  -2.099  0.00  0.00     0.005 A 
ATOM      9  C   UNL d   1       4.652   3.571  -2.309  0.00  0.00     0.025 A 
ENDROOT
BRANCH   2  10
ATOM     10  O   UNL d   1       1.368   3.062   0.205  0.00  0.00    -0.309 OA
BRANCH  10  11
ATOM     11  C   UNL d   1       0.189   3.761   0.065  0.00  0.00     0.076 A 
ATOM     12  C   UNL d   1      -0.205   4.466  -1.069  0.00  0.00     0.038 A 
ATOM     13  C   UNL d   1      -1.399   5.202  -1.058  0.00  0.00     0.016 A 
ATOM     14  C   UNL d   1      -2.263   5.204   0.054  0.00  0.00    -0.009 A 
ATOM     15  C   UNL d   1      -1.865   4.440   1.167  0.00  0.00     0.016 A 
ATOM     16  C   UNL d   1      -0.659   3.727   1.172  0.00  0.00     0.038 A 
BRANCH  14  17
ATOM     17  C   UNL d   1      -3.530   5.976   0.068  0.00  0.00     0.046 A 
ATOM     18  N   UNL d   1      -3.996   6.344   1.286  0.00  0.00    -0.332 N 
ATOM     19  C   UNL d   1      -5.121   7.066   1.327  0.00  0.00     0.155 A 
ATOM     20  HN  UNL d   1      -3.507   6.080   2.141  1.00  0.00     0.168 HD
ATOM     21  N   UNL d   1      -5.849   7.411   0.263  0.00  0.00    -0.343 N 
ATOM     22  C   UNL d   1      -5.373   7.023  -0.930  0.00  0.00     0.093 A 
ATOM     23  HN  UNL d   1      -6.717   7.939   0.352  1.00  0.00     0.167 HD
ATOM     24  C   UNL d   1      -4.216   6.302  -1.086  0.00  0.00     0.047 A 
BRANCH  19  25
ATOM     25  N   UNL d   1      -5.603   7.440   2.563  0.00  0.00    -0.274 NA
ATOM     26  H   UNL d   1      -5.259   6.808   3.272  0.00  0.00     0.127 HD
ATOM     27  H   UNL d   1      -6.601   7.586   2.509  0.00  0.00     0.127 HD
ENDBRANCH  19  25
ENDBRANCH  14  17
ENDBRANCH  10  11
ENDBRANCH   2  10
TORSDOF 4
