REMARK  3 active torsions:
REMARK  status: ('A' for Active; 'I' for Inactive)
REMARK    1  A    between atoms: S_9  and  C_2 
REMARK    2  A    between atoms: C_14  and  C_3 
REMARK    3  A    between atoms: C_4  and  S_9 
ROOT
ATOM      1  N   UNL d   1       0.932   0.014   0.053  0.00  0.00    -0.315 N 
ATOM      2  C   UNL d   1       0.134   1.119  -0.099  0.00  0.00     0.169 A 
ATOM      3  C   UNL d   1       0.101  -1.078  -0.131  0.00  0.00     0.134 A 
ATOM      4  N   UNL d   1      -1.135  -0.629  -0.277  0.00  0.00    -0.283 N 
ATOM      5  HN  UNL d   1      -1.968  -1.208  -0.381  1.00  0.00     0.188 HD
ATOM      6  N   UNL d   1      -1.111   0.743  -0.267  0.00  0.00    -0.278 N 
ATOM      7  HN  UNL d   1      -1.917   1.360  -0.371  1.00  0.00     0.189 HD
ATOM      8  C   UNL d   1       2.327  -0.024   0.412  0.00  0.00     0.160 C 
ENDROOT
BRANCH   2   9
ATOM      9  S   UNL d   1       0.639   2.766   0.057  0.00  0.00    -0.027 SA
BRANCH   9  10
ATOM     10  C   UNL d   1       1.559   2.910  -1.429  0.00  0.00     0.120 A 
ATOM     11  N   UNL d   1       2.416   1.990  -1.813  0.00  0.00    -0.344 N 
ATOM     12  C   UNL d   1       3.065   2.401  -2.963  0.00  0.00     0.050 A 
ATOM     13  HN  UNL d   1       2.578   1.105  -1.333  1.00  0.00     0.167 HD
ATOM     14  C   UNL d   1       4.049   1.669  -3.658  0.00  0.00     0.032 A 
ATOM     15  C   UNL d   1       2.698   3.661  -3.440  0.00  0.00     0.035 A 
ATOM     16  C   UNL d   1       4.638   2.213  -4.805  0.00  0.00     0.026 A 
ATOM     17  C   UNL d   1       4.255   3.471  -5.257  0.00  0.00     0.035 A 
ATOM     18  C   UNL d   1       3.283   4.220  -4.590  0.00  0.00     0.045 A 
ATOM     19 CL   UNL d   1       4.996   4.122  -6.669  0.00  0.00    -0.084 Cl
ATOM     20  S   UNL d   1       1.493   4.320  -2.401  0.00  0.00    -0.063 SA
ENDBRANCH   9  10
ENDBRANCH   2   9
BRANCH   3  21
ATOM     21  C   UNL d   1       0.475  -2.496  -0.136  0.00  0.00     0.010 A 
ATOM     22  C   UNL d   1      -0.398  -3.444   0.418  0.00  0.00     0.029 A 
ATOM     23  C   UNL d   1      -0.099  -4.822   0.383  0.00  0.00    -0.009 A 
ATOM     24  C   UNL d   1      -0.966  -5.787   0.915  0.00  0.00     0.015 A 
ATOM     25  C   UNL d   1       1.098  -5.272  -0.208  0.00  0.00     0.042 A 
ATOM     26  C   UNL d   1      -0.631  -7.135   0.840  0.00  0.00     0.018 A 
ATOM     27  C   UNL d   1       0.568  -7.473   0.245  0.00  0.00     0.088 A 
ATOM     28  N   UNL d   1       1.431  -6.572  -0.272  0.00  0.00    -0.365 N 
ATOM     29  HN  UNL d   1       2.309  -6.868  -0.697  1.00  0.00     0.165 HD
ATOM     30  C   UNL d   1       1.949  -4.326  -0.758  0.00  0.00     0.031 A 
ATOM     31  C   UNL d   1       1.646  -2.959  -0.740  0.00  0.00     0.017 A 
ENDBRANCH   3  21
TORSDOF 3
