REMARK  4 active torsions:
REMARK  status: ('A' for Active; 'I' for Inactive)
REMARK    1  A    between atoms: C_10  and  N_1 
REMARK    2  A    between atoms: C_8  and  C_4 
REMARK       I    between atoms: N_9  and  C_8 
REMARK    3  A    between atoms: C_15  and  N_9 
REMARK    4  A    between atoms: C_11  and  C_15 
ROOT
ATOM      1  N   UNL d   1      -0.108  -1.208   0.001  0.00  0.00    -0.196 N 
ATOM      2  N   UNL d   1       1.137  -0.692   0.189  0.00  0.00    -0.272 N 
ATOM      3  HN  UNL d   1       2.018  -1.185   0.333  1.00  0.00     0.189 HD
ATOM      4  C   UNL d   1       0.910   0.637   0.137  0.00  0.00     0.141 A 
ATOM      5  N   UNL d   1      -1.107  -0.307  -0.171  0.00  0.00    -0.281 N 
ATOM      6  HN  UNL d   1      -2.096  -0.480  -0.350  1.00  0.00     0.189 HD
ATOM      7  C   UNL d   1      -0.473   0.863  -0.046  0.00  0.00     0.057 A 
ATOM      8  C   UNL d   1      -1.222   2.138  -0.109  0.00  0.00     0.072 C 
ENDROOT
BRANCH   4   9
ATOM      9  C   UNL d   1       1.986   1.628   0.250  0.00  0.00     0.271 C 
ATOM     10  N   UNL d   1       3.232   1.065   0.416  0.00  0.00    -0.355 N 
ATOM     11  H   UNL d   1       3.265   0.051   0.447  0.00  0.00     0.162 HD
ATOM     12  O   UNL d   1       1.782   2.835   0.188  0.00  0.00    -0.266 OA
BRANCH  10  13
ATOM     13  C   UNL d   1       4.445   1.836   0.485  0.00  0.00     0.127 C 
BRANCH  13  14
ATOM     14  C   UNL d   1       5.143   1.559   1.779  0.00  0.00     0.003 A 
ATOM     15  C   UNL d   1       4.527   1.970   3.094  0.00  0.00     0.007 A 
ATOM     16  C   UNL d   1       5.739   2.693   2.578  0.00  0.00     0.007 A 
ENDBRANCH  13  14
ENDBRANCH  10  13
ENDBRANCH   4   9
BRANCH   1  17
ATOM     17  C   UNL d   1      -0.358  -2.605   0.004  0.00  0.00     0.074 A 
ATOM     18  C   UNL d   1       0.660  -3.506   0.348  0.00  0.00     0.033 A 
ATOM     19  C   UNL d   1       0.392  -4.876   0.381  0.00  0.00     0.002 A 
ATOM     20  C   UNL d   1      -0.880  -5.350   0.056  0.00  0.00     0.000 A 
ATOM     21  C   UNL d   1      -1.890  -4.458  -0.303  0.00  0.00     0.002 A 
ATOM     22  C   UNL d   1      -1.634  -3.086  -0.324  0.00  0.00     0.033 A 
ENDBRANCH   1  17
TORSDOF 4
