REMARK  7 active torsions:
REMARK  status: ('A' for Active; 'I' for Inactive)
REMARK    1  A    between atoms: C_5  and  C_1 
REMARK    2  A    between atoms: N_11  and  C_2 
REMARK    3  A    between atoms: C_8  and  N_12 
REMARK    4  A    between atoms: S_14  and  C_8 
REMARK       I    between atoms: C_9  and  N_11 
REMARK       I    between atoms: N_13  and  C_9 
REMARK    5  A    between atoms: C_10  and  C_15 
REMARK    6  A    between atoms: N_12  and  N_13 
REMARK    7  A    between atoms: C_15  and  S_14 
ROOT
ATOM      1  C   UNL d   1       1.947  -2.725  -0.124  0.00  0.00     0.339 C 
ATOM      2  N   UNL d   1       0.660  -2.426   0.118  0.00  0.00    -0.303 N 
ATOM      3  N   UNL d   1       2.974  -1.854   0.009  0.00  0.00    -0.248 N 
ATOM      4  O   UNL d   1       2.219  -3.895  -0.414  0.00  0.00    -0.245 OA
ATOM      5  H   UNL d   1       0.115  -3.270   0.264  0.00  0.00     0.171 HD
ATOM      6  H   UNL d   1       3.863  -2.312  -0.195  0.00  0.00     0.192 HD
ENDROOT
BRANCH   2   7
ATOM      7  C   UNL d   1      -0.108  -1.307  -0.158  0.00  0.00     0.097 A 
ATOM      8  C   UNL d   1      -1.430  -1.081   0.358  0.00  0.00     0.097 A 
ATOM      9  N   UNL d   1      -1.932   0.068  -0.111  0.00  0.00    -0.258 N 
ATOM     10  O   UNL d   1      -0.969   0.592  -0.944  0.00  0.00    -0.240 OA
ATOM     11  HN  UNL d   1      -2.843   0.473   0.105  1.00  0.00     0.195 HD
ATOM     12  C   UNL d   1       0.114  -0.235  -0.993  0.00  0.00     0.101 A 
ATOM     13  C   UNL d   1       1.145   0.187  -1.957  0.00  0.00     0.081 C 
BRANCH   8  14
ATOM     14  C   UNL d   1      -2.184  -1.903   1.304  0.00  0.00     0.038 A 
ATOM     15  C   UNL d   1      -2.462  -1.438   2.603  0.00  0.00     0.048 A 
ATOM     16 CL   UNL d   1      -1.896   0.092   3.188  0.00  0.00    -0.083 Cl
ATOM     17  C   UNL d   1      -3.185  -2.227   3.508  0.00  0.00     0.025 A 
ATOM     18  C   UNL d   1      -3.625  -3.495   3.141  0.00  0.00     0.003 A 
ATOM     19  C   UNL d   1      -3.345  -3.978   1.866  0.00  0.00     0.025 A 
ATOM     20  C   UNL d   1      -2.636  -3.189   0.951  0.00  0.00     0.048 A 
ATOM     21 CL   UNL d   1      -2.340  -3.885  -0.607  0.00  0.00    -0.083 Cl
ENDBRANCH   8  14
ENDBRANCH   2   7
BRANCH   3  22
ATOM     22  N   UNL d   1       3.149  -0.693   0.828  0.00  0.00    -0.276 N 
ATOM     23  C   UNL d   1       2.139  -0.403   1.839  0.00  0.00     0.179 C 
BRANCH  22  24
ATOM     24  C   UNL d   1       4.404  -0.034   0.801  0.00  0.00     0.155 C 
ATOM     25  S   UNL d   1       4.647   1.504   1.434  0.00  0.00    -0.051 SA
BRANCH  24  26
ATOM     26  S   UNL d   1       5.671  -0.978  -0.014  0.00  0.00    -0.094 SA
BRANCH  26  27
ATOM     27  C   UNL d   1       7.265  -0.309   0.530  0.00  0.00     0.125 C 
BRANCH  27  28
ATOM     28  C   UNL d   1       7.734  -0.621   1.932  0.00  0.00     0.012 A 
ATOM     29  C   UNL d   1       7.746  -1.944   2.409  0.00  0.00     0.125 A 
ATOM     30  F   UNL d   1       7.277  -2.939   1.644  0.00  0.00    -0.205 F 
ATOM     31  C   UNL d   1       8.277  -2.285   3.654  0.00  0.00     0.043 A 
ATOM     32  C   UNL d   1       8.838  -1.306   4.465  0.00  0.00     0.005 A 
ATOM     33  C   UNL d   1       8.866   0.011   4.014  0.00  0.00     0.024 A 
ATOM     34  C   UNL d   1       8.331   0.348   2.761  0.00  0.00     0.044 A 
ATOM     35 CL   UNL d   1       8.505   2.001   2.278  0.00  0.00    -0.084 Cl
ENDBRANCH  27  28
ENDBRANCH  26  27
ENDBRANCH  24  26
ENDBRANCH  22  24
ENDBRANCH   3  22
TORSDOF 7
