REMARK  4 active torsions:
REMARK  status: ('A' for Active; 'I' for Inactive)
REMARK    1  A    between atoms: N_2  and  S_1 
REMARK       I    between atoms: C_6  and  N_2 
REMARK    2  A    between atoms: C_4  and  C_8 
REMARK    3  A    between atoms: C_5  and  C_9 
REMARK    4  A    between atoms: C_10  and  C_6 
ROOT
ATOM      1  C   UNL d   1       3.422   0.436  -5.760  0.00  0.00     0.049 A 
ATOM      2  C   UNL d   1       5.824   0.579  -5.321  0.00  0.00     0.049 A 
ATOM      3  C   UNL d   1       4.240   0.502  -3.458  0.00  0.00     0.034 A 
ATOM      4  C   UNL d   1       4.748   0.514  -6.222  0.00  0.00     0.032 A 
ATOM      5  C   UNL d   1       5.554   0.570  -3.945  0.00  0.00     0.033 A 
ATOM      6  C   UNL d   1       3.181   0.446  -4.376  0.00  0.00     0.033 A 
ENDROOT
BRANCH   3   7
ATOM      7  C   UNL d   1       4.031   0.473  -1.966  0.00  0.00     0.261 C 
ATOM      8  N   UNL d   1       2.748   0.584  -1.587  0.00  0.00    -0.306 N 
ATOM      9  HN  UNL d   1       1.983   0.508  -2.258  1.00  0.00     0.176 HD
ATOM     10  O   UNL d   1       5.046   0.327  -1.280  0.00  0.00    -0.267 OA
BRANCH   8  11
ATOM     11  S   UNL d   1       2.493   0.830  -0.113  0.00  0.00    -0.119 SA
ATOM     12  C   UNL d   1       0.735   1.377  -0.275  0.00  0.00     0.153 C 
ATOM     13  C   UNL d   1      -0.208   0.164  -0.184  0.00  0.00     0.173 C 
ATOM     14  O   UNL d   1      -0.884   0.129   1.096  0.00  0.00    -0.352 OA
ATOM     15  O   UNL d   1      -1.203   0.229  -1.233  0.00  0.00    -0.352 OA
ATOM     16  C   UNL d   1       0.612  -1.110  -0.346  0.00  0.00     0.080 C 
ATOM     17  C   UNL d   1      -2.233   0.479   0.798  0.00  0.00     0.197 C 
ATOM     18  C   UNL d   1      -2.434  -0.065  -0.588  0.00  0.00     0.197 C 
ATOM     19  C   UNL d   1       1.947  -0.860   0.331  0.00  0.00     0.090 C 
ENDBRANCH   8  11
ENDBRANCH   3   7
BRANCH   2  20
ATOM     20  C   UNL d   1       7.250   0.652  -5.806  0.00  0.00     0.417 C 
ATOM     21  F   UNL d   1       7.358   0.586  -7.166  0.00  0.00    -0.166 F 
ATOM     22  F   UNL d   1       7.876   1.808  -5.450  0.00  0.00    -0.166 F 
ATOM     23  F   UNL d   1       8.028  -0.361  -5.333  0.00  0.00    -0.166 F 
ENDBRANCH   2  20
BRANCH   1  24
ATOM     24  C   UNL d   1       2.268   0.340  -6.724  0.00  0.00     0.417 C 
ATOM     25  F   UNL d   1       2.666   0.102  -8.011  0.00  0.00    -0.166 F 
ATOM     26  F   UNL d   1       1.400  -0.667  -6.427  0.00  0.00    -0.166 F 
ATOM     27  F   UNL d   1       1.523   1.478  -6.782  0.00  0.00    -0.166 F 
ENDBRANCH   1  24
TORSDOF 4
