REMARK  8 active torsions:
REMARK  status: ('A' for Active; 'I' for Inactive)
REMARK    1  A    between atoms: C_2  and  C_1 
REMARK    2  A    between atoms: C_3  and  O_12 
REMARK       I    between atoms: N_10  and  C_3 
REMARK    3  A    between atoms: C_4  and  C_19 
REMARK    4  A    between atoms: N_20  and  C_4 
REMARK    5  A    between atoms: O_12  and  N_5 
REMARK    6  A    between atoms: S_13  and  C_9 
REMARK    7  A    between atoms: C_22  and  N_10 
REMARK    8  A    between atoms: C_19  and  S_13 
ROOT
ATOM      1  C   UNL d   1      -0.366  -8.212   0.302  0.00  0.00     0.105 C 
ATOM      2  N   UNL d   1      -1.633  -8.488   0.471  0.00  0.00    -0.244 N 
ATOM      3  HN  UNL d   1      -2.069  -9.403   0.356  1.00  0.00     0.196 HD
ENDROOT
BRANCH   1   4
ATOM      4  C   UNL d   1       0.583  -9.351  -0.076  0.00  0.00     0.158 C 
BRANCH   4   5
ATOM      5  S   UNL d   1       2.303  -8.998   0.432  0.00  0.00    -0.105 SA
BRANCH   5   6
ATOM      6  C   UNL d   1       2.143  -9.079   2.207  0.00  0.00     0.069 A 
ATOM      7  C   UNL d   1       3.025  -8.356   3.001  0.00  0.00     0.038 A 
ATOM      8  C   UNL d   1       2.998  -8.545   4.382  0.00  0.00     0.020 A 
ATOM      9  C   UNL d   1       2.096  -9.457   4.937  0.00  0.00     0.063 A 
ATOM     10  C   UNL d   1       1.223 -10.094   4.069  0.00  0.00     0.105 A 
ATOM     11  N   UNL d   1       1.232  -9.930   2.724  0.00  0.00    -0.360 N 
ATOM     12  HN  UNL d   1       0.575 -10.430   2.125  1.00  0.00     0.166 HD
BRANCH   9  13
ATOM     13  C   UNL d   1       2.104  -9.782   6.399  0.00  0.00     0.418 C 
ATOM     14  F   UNL d   1       1.187 -10.723   6.756  0.00  0.00    -0.166 F 
ATOM     15  F   UNL d   1       1.856  -8.698   7.184  0.00  0.00    -0.166 F 
ATOM     16  F   UNL d   1       3.310 -10.268   6.808  0.00  0.00    -0.166 F 
ENDBRANCH   9  13
ENDBRANCH   5   6
ENDBRANCH   4   5
ENDBRANCH   1   4
BRANCH   1  17
ATOM     17  N   UNL d   1       0.141  -6.932   0.381  0.00  0.00    -0.387 N 
ATOM     18  H   UNL d   1       1.026  -6.741  -0.075  0.00  0.00     0.157 HD
ATOM     19  H   UNL d   1      -0.543  -6.184   0.360  0.00  0.00     0.157 HD
ENDBRANCH   1  17
BRANCH   2  20
ATOM     20  O   UNL d   1      -2.293  -7.290   0.840  0.00  0.00    -0.179 OA
BRANCH  20  21
ATOM     21  C   UNL d   1      -3.638  -7.418   1.097  0.00  0.00     0.387 C 
ATOM     22  N   UNL d   1      -4.189  -8.629   0.747  0.00  0.00    -0.301 N 
ATOM     23  H   UNL d   1      -3.508  -9.273   0.365  0.00  0.00     0.171 HD
ATOM     24  O   UNL d   1      -4.236  -6.454   1.570  0.00  0.00    -0.236 OA
BRANCH  22  25
ATOM     25  C   UNL d   1      -5.542  -9.015   0.860  0.00  0.00     0.036 A 
ATOM     26  C   UNL d   1      -6.536  -8.197   1.408  0.00  0.00     0.029 A 
ATOM     27  C   UNL d   1      -7.860  -8.637   1.511  0.00  0.00     0.002 A 
ATOM     28  C   UNL d   1      -8.209  -9.905   1.059  0.00  0.00     0.000 A 
ATOM     29  C   UNL d   1      -7.236 -10.726   0.498  0.00  0.00     0.002 A 
ATOM     30  C   UNL d   1      -5.910 -10.285   0.399  0.00  0.00     0.029 A 
ENDBRANCH  22  25
ENDBRANCH  20  21
ENDBRANCH   2  20
TORSDOF 8
