REMARK  7 active torsions:
REMARK  status: ('A' for Active; 'I' for Inactive)
REMARK    1  A    between atoms: C_8  and  N_1 
REMARK    2  A    between atoms: S_10  and  C_2 
REMARK    3  A    between atoms: C_7  and  O_11 
REMARK    4  A    between atoms: C_9  and  C_7 
REMARK    5  A    between atoms: C_21  and  S_10 
REMARK    6  A    between atoms: O_11  and  C_18 
REMARK    7  A    between atoms: C_16  and  C_21 
ROOT
ATOM      1  C   UNL d   1      -0.886  -2.527  -0.212  0.00  0.00     0.057 A 
ATOM      2  C   UNL d   1      -0.952  -3.103   1.063  0.00  0.00     0.034 A 
ATOM      3  C   UNL d   1      -1.189  -3.292  -1.346  0.00  0.00     0.034 A 
ATOM      4  C   UNL d   1      -1.420  -5.244   0.069  0.00  0.00     0.079 A 
ATOM      5  C   UNL d   1      -1.237  -4.461   1.204  0.00  0.00     0.039 A 
ATOM      6  C   UNL d   1      -1.433  -4.660  -1.202  0.00  0.00     0.039 A 
ENDROOT
BRANCH   1   7
ATOM      7  N   UNL d   1      -0.471  -1.187  -0.368  0.00  0.00    -0.219 N 
ATOM      8  C   UNL d   1       0.466  -0.443   0.330  0.00  0.00     0.177 C 
ATOM      9  N   UNL d   1       0.430   0.797  -0.103  0.00  0.00    -0.264 N 
ATOM     10  N   UNL d   1      -0.468   0.807  -1.139  0.00  0.00    -0.006 NA
ATOM     11  HN  UNL d   1       0.961   1.590   0.258  1.00  0.00     0.186 HD
ATOM     12  N   UNL d   1      -0.955  -0.406  -1.363  0.00  0.00     0.001 NA
BRANCH   8  13
ATOM     13  S   UNL d   1       1.685  -1.071   1.398  0.00  0.00    -0.087 SA
BRANCH  13  14
ATOM     14  C   UNL d   1       2.565  -2.201   0.273  0.00  0.00     0.108 C 
BRANCH  14  15
ATOM     15  C   UNL d   1       3.819  -2.694   0.929  0.00  0.00    -0.026 C 
ATOM     16  C   UNL d   1       4.061  -3.975   1.247  0.00  0.00     0.007 C 
ENDBRANCH  14  15
ENDBRANCH  13  14
ENDBRANCH   8  13
ENDBRANCH   1   7
BRANCH   4  17
ATOM     17  O   UNL d   1      -1.545  -6.653   0.077  0.00  0.00    -0.276 OA
BRANCH  17  18
ATOM     18  C   UNL d   1      -1.291  -7.469   1.169  0.00  0.00     0.288 C 
ATOM     19  O   UNL d   1      -1.075  -7.126   2.321  0.00  0.00    -0.260 OA
BRANCH  18  20
ATOM     20  C   UNL d   1      -1.146  -8.888   0.758  0.00  0.00     0.084 C 
ATOM     21  C   UNL d   1      -1.549  -9.538  -0.353  0.00  0.00    -0.082 C 
ATOM     22  C   UNL d   1      -2.383  -8.980  -1.472  0.00  0.00     0.043 C 
ATOM     23  C   UNL d   1      -1.153 -10.982  -0.545  0.00  0.00     0.043 C 
ENDBRANCH  18  20
ENDBRANCH  17  18
ENDBRANCH   4  17
TORSDOF 7
