REMARK  2 active torsions:
REMARK  status: ('A' for Active; 'I' for Inactive)
REMARK    1  A    between atoms: C_5  and  C_1 
REMARK    2  A    between atoms: N_6  and  C_2 
REMARK       I    between atoms: C_7  and  N_6 
REMARK       I    between atoms: N_10  and  C_7 
ROOT
ATOM      1  C   UNL d   1      -1.462  -0.789  -0.143  0.00  0.00     0.092 A 
ATOM      2  C   UNL d   1      -0.049  -1.038  -0.232  0.00  0.00     0.078 A 
ATOM      3  N   UNL d   1      -1.690   0.528  -0.286  0.00  0.00    -0.258 N 
ATOM      4  HN  UNL d   1      -2.601   0.988  -0.289  1.00  0.00     0.195 HD
ATOM      5  C   UNL d   1       0.514   0.200  -0.426  0.00  0.00     0.096 A 
ATOM      6  O   UNL d   1      -0.467   1.137  -0.428  0.00  0.00    -0.240 OA
ATOM      7  C   UNL d   1       1.869   0.705  -0.715  0.00  0.00     0.081 C 
ENDROOT
BRANCH   2   8
ATOM      8  N   UNL d   1       0.641  -2.245  -0.330  0.00  0.00    -0.206 NA
ATOM      9  C   UNL d   1       1.024  -2.917   0.819  0.00  0.00     0.301 C 
ATOM     10  N   UNL d   1       1.589  -4.186   0.571  0.00  0.00    -0.337 N 
ATOM     11  O   UNL d   1       0.875  -2.467   1.948  0.00  0.00    -0.254 OA
ATOM     12  C   UNL d   1       1.639  -4.818  -0.760  0.00  0.00     0.137 C 
ATOM     13  C   UNL d   1       1.740  -5.079   1.730  0.00  0.00     0.137 C 
ATOM     14  C   UNL d   1       2.849  -5.718  -1.010  0.00  0.00     0.093 C 
ATOM     15  S   UNL d   1       2.966  -7.054   0.209  0.00  0.00    -0.166 SA
ATOM     16  C   UNL d   1       2.966  -5.991   1.683  0.00  0.00     0.093 C 
ATOM     17  H   UNL d   1       0.117  -2.897  -0.897  0.00  0.00     0.138 HD
ENDBRANCH   2   8
BRANCH   1  18
ATOM     18  C   UNL d   1      -2.592  -1.714   0.030  0.00  0.00     0.038 A 
ATOM     19  C   UNL d   1      -3.629  -1.429   0.951  0.00  0.00     0.048 A 
ATOM     20 CL   UNL d   1      -3.619  -0.063   2.022  0.00  0.00    -0.083 Cl
ATOM     21  C   UNL d   1      -4.749  -2.268   1.068  0.00  0.00     0.025 A 
ATOM     22  C   UNL d   1      -4.846  -3.428   0.310  0.00  0.00     0.003 A 
ATOM     23  C   UNL d   1      -3.830  -3.741  -0.583  0.00  0.00     0.025 A 
ATOM     24  C   UNL d   1      -2.731  -2.884  -0.746  0.00  0.00     0.048 A 
ATOM     25 CL   UNL d   1      -1.639  -3.339  -2.014  0.00  0.00    -0.083 Cl
ENDBRANCH   1  18
TORSDOF 2
