REMARK  2 active torsions:
REMARK  status: ('A' for Active; 'I' for Inactive)
REMARK    1  A    between atoms: C_4  and  C_1 
REMARK       I    between atoms: N_8  and  C_4 
REMARK    2  A    between atoms: N_10  and  N_8 
ROOT
ATOM      1  C   UNL d   1       1.076  -0.735  -0.021  0.00  0.00     0.096 A 
ATOM      2  C   UNL d   1       0.999   0.650  -0.006  0.00  0.00     0.063 A 
ATOM      3  S   UNL d   1      -0.496  -1.430  -0.007  0.00  0.00    -0.094 SA
ATOM      4  C   UNL d   1      -0.356   1.142   0.003  0.00  0.00    -0.032 A 
ATOM      5  C   UNL d   1      -1.255   0.093   0.006  0.00  0.00     0.059 A 
ATOM      6 CL   UNL d   1       2.349   1.717  -0.005  0.00  0.00    -0.082 Cl
ATOM      7  C   UNL d   1      -0.787   2.575   0.008  0.00  0.00     0.050 C 
ENDROOT
BRANCH   1   8
ATOM      8  C   UNL d   1       2.264  -1.581  -0.063  0.00  0.00     0.274 C 
ATOM      9  O   UNL d   1       3.423  -1.154  -0.095  0.00  0.00    -0.266 OA
ATOM     10  N   UNL d   1       2.037  -2.960  -0.084  0.00  0.00    -0.289 N 
ATOM     11  H   UNL d   1       1.098  -3.312   0.093  0.00  0.00     0.183 HD
BRANCH  10  12
ATOM     12  N   UNL d   1       3.124  -3.865  -0.126  0.00  0.00    -0.247 NA
ATOM     13  H   UNL d   1       3.982  -3.297  -0.057  0.00  0.00     0.143 HD
ATOM     14  H   UNL d   1       3.168  -4.264  -1.067  0.00  0.00     0.143 HD
ENDBRANCH  10  12
ENDBRANCH   1   8
TORSDOF 2
