REMARK  6 active torsions:
REMARK  status: ('A' for Active; 'I' for Inactive)
REMARK    1  A    between atoms: N_2  and  S_1 
REMARK    2  A    between atoms: C_4  and  S_1 
REMARK    3  A    between atoms: C_3  and  N_2 
REMARK    4  A    between atoms: N_7  and  C_3 
REMARK    5  A    between atoms: N_9  and  N_7 
REMARK    6  A    between atoms: C_10  and  N_9 
ROOT
ATOM      1  N   UNL d   1       0.486   0.556  -1.403  0.00  0.00    -0.256 N 
ATOM      2  H   UNL d   1       1.039   0.342  -0.576  0.00  0.00     0.181 HD
ENDROOT
BRANCH   1   3
ATOM      3  S   UNL d   1      -0.465  -0.705  -1.921  0.00  0.00     0.264 S 
ATOM      4  O   UNL d   1      -0.000  -1.877  -1.212  0.00  0.00    -0.200 OA
ATOM      5  O   UNL d   1      -0.577  -0.712  -3.363  0.00  0.00    -0.200 OA
BRANCH   3   6
ATOM      6  C   UNL d   1      -2.046  -0.265  -1.234  0.00  0.00     0.080 A 
ATOM      7  C   UNL d   1      -2.936   0.529  -1.960  0.00  0.00     0.026 A 
ATOM      8  C   UNL d   1      -4.134   0.936  -1.368  0.00  0.00     0.008 A 
ATOM      9  C   UNL d   1      -4.457   0.532  -0.065  0.00  0.00    -0.062 A 
ATOM     10  C   UNL d   1      -3.587  -0.322   0.625  0.00  0.00     0.008 A 
ATOM     11  C   UNL d   1      -5.719   1.025   0.582  0.00  0.00     0.048 C 
ATOM     12  C   UNL d   1      -2.385  -0.724   0.043  0.00  0.00     0.026 A 
ENDBRANCH   3   6
ENDBRANCH   1   3
BRANCH   1  13
ATOM     13  C   UNL d   1       0.689   1.831  -1.931  0.00  0.00     0.196 C 
ATOM     14  S   UNL d   1       0.023   2.505  -3.301  0.00  0.00    -0.039 SA
BRANCH  13  15
ATOM     15  N   UNL d   1       1.559   2.622  -1.210  0.00  0.00    -0.296 N 
ATOM     16  H   UNL d   1       1.742   3.541  -1.607  0.00  0.00     0.183 HD
BRANCH  15  17
ATOM     17  N   UNL d   1       2.135   2.240   0.025  0.00  0.00    -0.230 NA
ATOM     18  H   UNL d   1       3.150   2.179  -0.112  0.00  0.00     0.147 HD
BRANCH  17  19
ATOM     19  C   UNL d   1       1.859   3.218   1.113  0.00  0.00     0.019 C 
ATOM     20  C   UNL d   1       0.373   3.166   1.501  0.00  0.00     0.033 C 
ATOM     21  C   UNL d   1       2.704   2.805   2.333  0.00  0.00     0.033 C 
ATOM     22  C   UNL d   1       2.258   4.658   0.732  0.00  0.00     0.033 C 
ENDBRANCH  17  19
ENDBRANCH  15  17
ENDBRANCH  13  15
ENDBRANCH   1  13
TORSDOF 6
