REMARK  3 active torsions:
REMARK  status: ('A' for Active; 'I' for Inactive)
REMARK       I    between atoms: N_2  and  C_1 
REMARK    1  A    between atoms: C_4  and  C_1 
REMARK       I    between atoms: C_5  and  N_2 
REMARK    2  A    between atoms: C_3  and  N_6 
REMARK       I    between atoms: N_9  and  C_5 
REMARK    3  A    between atoms: N_6  and  N_9 
ROOT
ATOM      1  C   UNL d   1       1.051   0.012  -0.019  0.00  0.00     0.261 C 
ATOM      2  N   UNL d   1       0.555   0.852   0.960  0.00  0.00    -0.274 N 
ATOM      3  C   UNL d   1       1.208   1.743   1.767  0.00  0.00     0.337 C 
ATOM      4  N   UNL d   1       2.583   1.731   1.753  0.00  0.00    -0.268 N 
ATOM      5  O   UNL d   1       2.229  -0.322  -0.104  0.00  0.00    -0.267 OA
ATOM      6  O   UNL d   1       0.556   2.537   2.448  0.00  0.00    -0.246 OA
ATOM      7  H   UNL d   1      -0.443   1.001   1.000  0.00  0.00     0.173 HD
ATOM      8  H   UNL d   1       3.036   0.864   1.457  0.00  0.00     0.185 HD
ENDROOT
BRANCH   4   9
ATOM      9  N   UNL d   1       3.182   2.395   2.855  0.00  0.00    -0.198 NA
ATOM     10  H   UNL d   1       2.518   3.094   3.226  0.00  0.00     0.153 HD
BRANCH   9  11
ATOM     11  C   UNL d   1       4.444   3.010   2.597  0.00  0.00     0.073 A 
ATOM     12  C   UNL d   1       4.729   4.247   3.218  0.00  0.00     0.073 A 
ATOM     13 CL   UNL d   1       3.529   5.101   4.123  0.00  0.00    -0.081 Cl
ATOM     14  C   UNL d   1       5.999   4.804   3.107  0.00  0.00     0.113 A 
ATOM     15  N   UNL d   1       7.016   4.226   2.433  0.00  0.00    -0.372 N 
ATOM     16  C   UNL d   1       6.741   3.032   1.858  0.00  0.00     0.113 A 
ATOM     17  HN  UNL d   1       7.935   4.663   2.362  1.00  0.00     0.164 HD
ATOM     18  C   UNL d   1       5.505   2.388   1.915  0.00  0.00     0.073 A 
ATOM     19 CL   UNL d   1       5.399   0.821   1.196  0.00  0.00    -0.081 Cl
ENDBRANCH   9  11
ENDBRANCH   4   9
BRANCH   1  20
ATOM     20  C   UNL d   1       0.018  -0.618  -0.898  0.00  0.00     0.054 A 
ATOM     21  C   UNL d   1      -1.120   0.055  -1.370  0.00  0.00     0.049 A 
ATOM     22 CL   UNL d   1      -1.400   1.743  -1.117  0.00  0.00    -0.083 Cl
ATOM     23  C   UNL d   1      -2.089  -0.634  -2.109  0.00  0.00     0.025 A 
ATOM     24  C   UNL d   1      -1.922  -1.988  -2.399  0.00  0.00     0.002 A 
ATOM     25  C   UNL d   1      -0.777  -2.653  -1.968  0.00  0.00     0.001 A 
ATOM     26  C   UNL d   1       0.193  -1.972  -1.224  0.00  0.00     0.019 A 
ENDBRANCH   1  20
TORSDOF 3
