REMARK  8 active torsions:
REMARK  status: ('A' for Active; 'I' for Inactive)
REMARK    1  A    between atoms: C_6  and  C_1 
REMARK    2  A    between atoms: C_5  and  C_2 
REMARK    3  A    between atoms: O_9  and  C_5 
REMARK    4  A    between atoms: C_13  and  O_9 
REMARK    5  A    between atoms: C_22  and  C_13 
REMARK    6  A    between atoms: C_23  and  C_13 
REMARK    7  A    between atoms: S_16  and  C_22 
REMARK    8  A    between atoms: S_17  and  C_23 
ROOT
ATOM      1  C   UNL d   1      -0.286   0.014   1.240  0.00  0.00     0.087 A 
ATOM      2  C   UNL d   1      -0.319  -1.120   0.359  0.00  0.00     0.100 A 
ATOM      3  N   UNL d   1      -1.091   0.980   0.759  0.00  0.00    -0.259 N 
ATOM      4  HN  UNL d   1      -1.291   1.876   1.203  1.00  0.00     0.195 HD
ATOM      5  O   UNL d   1      -1.592   0.539  -0.431  0.00  0.00    -0.241 OA
ATOM      6  C   UNL d   1      -1.156  -0.718  -0.673  0.00  0.00     0.091 A 
ATOM      7  C   UNL d   1      -1.647  -1.292  -1.942  0.00  0.00     0.080 C 
ENDROOT
BRANCH   2   8
ATOM      8  C   UNL d   1       0.350  -2.399   0.433  0.00  0.00     0.298 C 
ATOM      9  O   UNL d   1       1.445  -2.556   0.968  0.00  0.00    -0.259 OA
BRANCH   8  10
ATOM     10  O   UNL d   1      -0.368  -3.378  -0.182  0.00  0.00    -0.310 OA
BRANCH  10  11
ATOM     11  C   UNL d   1       0.175  -4.658  -0.575  0.00  0.00     0.150 C 
BRANCH  11  12
ATOM     12  C   UNL d   1       0.796  -4.571  -1.986  0.00  0.00     0.107 C 
BRANCH  12  13
ATOM     13  S   UNL d   1       2.067  -3.300  -2.322  0.00  0.00    -0.171 SA
ATOM     14  C   UNL d   1       3.431  -3.896  -1.295  0.00  0.00     0.089 C 
ENDBRANCH  12  13
ENDBRANCH  11  12
BRANCH  11  15
ATOM     15  C   UNL d   1       1.034  -5.418   0.447  0.00  0.00     0.107 C 
BRANCH  15  16
ATOM     16  S   UNL d   1       0.042  -5.964   1.882  0.00  0.00    -0.171 SA
ATOM     17  C   UNL d   1       1.357  -6.748   2.851  0.00  0.00     0.089 C 
ENDBRANCH  15  16
ENDBRANCH  11  15
ENDBRANCH  10  11
ENDBRANCH   8  10
ENDBRANCH   2   8
BRANCH   1  18
ATOM     18  C   UNL d   1       0.359   0.262   2.542  0.00  0.00     0.037 A 
ATOM     19  C   UNL d   1       0.968   1.515   2.809  0.00  0.00     0.048 A 
ATOM     20 CL   UNL d   1       1.328   2.684   1.575  0.00  0.00    -0.083 Cl
ATOM     21  C   UNL d   1       1.336   1.888   4.111  0.00  0.00     0.025 A 
ATOM     22  C   UNL d   1       1.175   1.001   5.167  0.00  0.00     0.003 A 
ATOM     23  C   UNL d   1       0.658  -0.266   4.917  0.00  0.00     0.025 A 
ATOM     24  C   UNL d   1       0.232  -0.628   3.627  0.00  0.00     0.048 A 
ATOM     25 CL   UNL d   1      -0.542  -2.174   3.516  0.00  0.00    -0.083 Cl
ENDBRANCH   1  18
TORSDOF 8
