REMARK  4 active torsions:
REMARK  status: ('A' for Active; 'I' for Inactive)
REMARK    1  A    between atoms: N_2  and  S_1 
REMARK    2  A    between atoms: C_4  and  S_1 
REMARK       I    between atoms: C_3  and  N_7 
REMARK       I    between atoms: N_8  and  C_3 
REMARK    3  A    between atoms: N_7  and  C_15 
REMARK    4  A    between atoms: C_16  and  N_8 
ROOT
ATOM      1  C   UNL d   1       1.224  -0.434  -1.997  0.00  0.00     0.079 A 
ATOM      2  C   UNL d   1       1.756  -1.714  -2.183  0.00  0.00     0.027 A 
ATOM      3  C   UNL d   1       0.338   0.083  -2.943  0.00  0.00     0.027 A 
ATOM      4  C   UNL d   1       0.377  -2.021  -4.178  0.00  0.00     0.036 A 
ATOM      5  C   UNL d   1      -0.071  -0.704  -4.030  0.00  0.00     0.031 A 
ATOM      6  C   UNL d   1       1.344  -2.496  -3.277  0.00  0.00     0.031 A 
ENDROOT
BRANCH   4   7
ATOM      7  N   UNL d   1      -0.159  -2.941  -5.119  0.00  0.00    -0.309 N 
ATOM      8  C   UNL d   1      -1.256  -2.734  -5.952  0.00  0.00     0.325 C 
ATOM      9  N   UNL d   1      -1.710  -3.924  -6.511  0.00  0.00    -0.309 N 
ATOM     10  O   UNL d   1      -1.781  -1.641  -6.133  0.00  0.00    -0.247 OA
ATOM     11  H   UNL d   1      -1.181  -4.758  -6.314  0.00  0.00     0.170 HD
ATOM     12  H   UNL d   1       0.215  -3.877  -5.086  0.00  0.00     0.170 HD
BRANCH   9  13
ATOM     13  C   UNL d   1      -2.902  -4.117  -7.259  0.00  0.00     0.036 A 
ATOM     14  C   UNL d   1      -3.789  -3.091  -7.595  0.00  0.00     0.030 A 
ATOM     15  C   UNL d   1      -4.983  -3.363  -8.275  0.00  0.00     0.009 A 
ATOM     16  C   UNL d   1      -5.314  -4.667  -8.648  0.00  0.00    -0.062 A 
ATOM     17  C   UNL d   1      -4.424  -5.697  -8.331  0.00  0.00     0.009 A 
ATOM     18  C   UNL d   1      -6.633  -4.958  -9.303  0.00  0.00     0.048 C 
ATOM     19  C   UNL d   1      -3.227  -5.423  -7.649  0.00  0.00     0.030 A 
ENDBRANCH   9  13
ENDBRANCH   4   7
BRANCH   1  20
ATOM     20  S   UNL d   1       1.353   0.363  -0.395  0.00  0.00     0.261 S 
ATOM     21  O   UNL d   1       0.172   1.190  -0.250  0.00  0.00    -0.200 OA
ATOM     22  O   UNL d   1       1.642  -0.683   0.561  0.00  0.00    -0.200 OA
BRANCH  20  23
ATOM     23  N   UNL d   1       2.681   1.386  -0.452  0.00  0.00    -0.303 N 
ATOM     24  C   UNL d   1       2.630   2.650  -1.220  0.00  0.00     0.161 C 
ATOM     25  C   UNL d   1       3.322   2.476  -2.574  0.00  0.00     0.188 C 
ATOM     26  O   UNL d   1       4.667   1.997  -2.418  0.00  0.00    -0.388 OA
ATOM     27  C   UNL d   1       4.697   0.740  -1.725  0.00  0.00     0.188 C 
ATOM     28  C   UNL d   1       4.054   0.849  -0.342  0.00  0.00     0.161 C 
ENDBRANCH  20  23
ENDBRANCH   1  20
TORSDOF 4
