REMARK  5 active torsions:
REMARK  status: ('A' for Active; 'I' for Inactive)
REMARK    1  A    between atoms: C_2  and  C_1 
REMARK       I    between atoms: N_3  and  C_2 
REMARK    2  A    between atoms: C_6  and  N_3 
REMARK    3  A    between atoms: N_11  and  C_4 
REMARK    4  A    between atoms: O_15  and  C_8 
REMARK    5  A    between atoms: O_16  and  C_13 
ROOT
ATOM      1  C   UNL d   1       4.853   0.345   0.862  0.00  0.00     0.127 C 
ATOM      2  C   UNL d   1       6.095   0.856   0.970  0.00  0.00     0.113 C 
ATOM      3  C   UNL d   1       3.764   0.789   1.649  0.00  0.00     0.106 C 
ATOM      4  N   UNL d   1       2.835   1.148   2.242  0.00  0.00    -0.191 NA
ENDROOT
BRANCH   1   5
ATOM      5  C   UNL d   1       4.594  -0.692  -0.203  0.00  0.00     0.268 C 
ATOM      6  N   UNL d   1       3.285  -0.738  -0.647  0.00  0.00    -0.320 N 
ATOM      7  H   UNL d   1       2.645   0.007  -0.399  0.00  0.00     0.169 HD
ATOM      8  O   UNL d   1       5.509  -1.374  -0.658  0.00  0.00    -0.266 OA
BRANCH   6   9
ATOM      9  C   UNL d   1       2.762  -1.656  -1.582  0.00  0.00     0.068 A 
ATOM     10  C   UNL d   1       1.739  -1.255  -2.456  0.00  0.00     0.097 A 
ATOM     11  C   UNL d   1       1.060  -2.211  -3.228  0.00  0.00     0.075 A 
ATOM     12  C   UNL d   1       1.381  -3.562  -3.132  0.00  0.00     0.070 A 
ATOM     13  C   UNL d   1       2.436  -3.948  -2.299  0.00  0.00     0.039 A 
ATOM     14  C   UNL d   1       3.136  -3.003  -1.542  0.00  0.00     0.035 A 
BRANCH  10  15
ATOM     15  O   UNL d   1       1.287   0.035  -2.606  0.00  0.00    -0.354 OA
ATOM     16  C   UNL d   1       2.296   1.039  -2.723  0.00  0.00     0.210 C 
ENDBRANCH  10  15
BRANCH  12  17
ATOM     17  O   UNL d   1       0.749  -4.590  -3.774  0.00  0.00    -0.356 OA
ATOM     18  C   UNL d   1      -0.421  -4.263  -4.517  0.00  0.00     0.210 C 
ENDBRANCH  12  17
ENDBRANCH   6   9
ENDBRANCH   1   5
BRANCH   2  19
ATOM     19  N   UNL d   1       6.626   1.827   1.828  0.00  0.00    -0.397 N 
ATOM     20  C   UNL d   1       6.304   1.909   3.261  0.00  0.00     0.148 C 
ATOM     21  C   UNL d   1       7.902   2.484   1.505  0.00  0.00     0.148 C 
ENDBRANCH   2  19
TORSDOF 5
