REMARK  7 active torsions:
REMARK  status: ('A' for Active; 'I' for Inactive)
REMARK    1  A    between atoms: O_8  and  C_1 
REMARK       I    between atoms: C_2  and  N_5 
REMARK    2  A    between atoms: O_7  and  C_2 
REMARK    3  A    between atoms: N_3  and  O_7 
REMARK    4  A    between atoms: N_5  and  C_13 
REMARK    5  A    between atoms: O_15  and  C_6 
REMARK    6  A    between atoms: C_14  and  O_8 
REMARK    7  A    between atoms: C_21  and  O_15 
ROOT
ATOM      1  C   UNL d   1       1.847  -4.946   1.685  0.00  0.00     0.387 C 
ATOM      2  N   UNL d   1       2.119  -6.292   1.533  0.00  0.00    -0.301 N 
ATOM      3  O   UNL d   1       0.750  -4.580   2.093  0.00  0.00    -0.236 OA
ATOM      4  H   UNL d   1       1.294  -6.856   1.690  0.00  0.00     0.171 HD
ENDROOT
BRANCH   2   5
ATOM      5  C   UNL d   1       3.350  -6.966   1.415  0.00  0.00     0.037 A 
ATOM      6  C   UNL d   1       4.602  -6.344   1.431  0.00  0.00     0.032 A 
ATOM      7  C   UNL d   1       5.786  -7.094   1.387  0.00  0.00     0.039 A 
ATOM      8  C   UNL d   1       5.739  -8.481   1.301  0.00  0.00     0.078 A 
ATOM      9  C   UNL d   1       4.492  -9.109   1.303  0.00  0.00     0.039 A 
ATOM     10  C   UNL d   1       3.309  -8.361   1.355  0.00  0.00     0.032 A 
BRANCH   8  11
ATOM     11  O   UNL d   1       6.806  -9.325   1.210  0.00  0.00    -0.255 OA
BRANCH  11  12
ATOM     12  C   UNL d   1       8.096  -8.762   1.035  0.00  0.00     0.530 C 
ATOM     13  F   UNL d   1       8.107  -7.795   0.093  0.00  0.00    -0.144 F 
ATOM     14  F   UNL d   1       8.940  -9.738   0.631  0.00  0.00    -0.144 F 
ATOM     15  F   UNL d   1       8.556  -8.259   2.201  0.00  0.00    -0.144 F 
ENDBRANCH  11  12
ENDBRANCH   8  11
ENDBRANCH   2   5
BRANCH   1  16
ATOM     16  O   UNL d   1       2.853  -4.115   1.292  0.00  0.00    -0.179 OA
BRANCH  16  17
ATOM     17  N   UNL d   1       2.970  -3.017   2.161  0.00  0.00    -0.238 N 
ATOM     18  C   UNL d   1       3.765  -2.122   1.671  0.00  0.00     0.134 C 
ATOM     19  C   UNL d   1       4.395  -2.102   0.306  0.00  0.00     0.099 C 
ATOM     20  HN  UNL d   1       2.490  -2.936   3.058  1.00  0.00     0.197 HD
BRANCH  18  21
ATOM     21  O   UNL d   1       4.173  -1.032   2.375  0.00  0.00    -0.338 OA
BRANCH  21  22
ATOM     22  C   UNL d   1       3.741  -0.892   3.739  0.00  0.00     0.172 C 
ATOM     23  C   UNL d   1       2.429  -0.138   3.774  0.00  0.00     0.034 C 
ENDBRANCH  21  22
ENDBRANCH  18  21
ENDBRANCH  16  17
ENDBRANCH   1  16
TORSDOF 7
