REMARK  5 active torsions:
REMARK  status: ('A' for Active; 'I' for Inactive)
REMARK    1  A    between atoms: C_9  and  C_1 
REMARK    2  A    between atoms: C_21  and  C_6 
REMARK    3  A    between atoms: S_19  and  C_7 
REMARK    4  A    between atoms: C_13  and  O_20 
REMARK    5  A    between atoms: O_20  and  C_21 
ROOT
ATOM      1  C   UNL d   1       1.339   0.794  -0.067  0.00  0.00     0.066 A 
ATOM      2  N   UNL d   1       1.462  -0.591  -0.085  0.00  0.00    -0.350 N 
ATOM      3  HN  UNL d   1       2.345  -1.098  -0.132  1.00  0.00     0.166 HD
ATOM      4  C   UNL d   1       0.271  -1.153  -0.034  0.00  0.00     0.075 A 
ATOM      5  C   UNL d   1       0.038   1.257  -0.024  0.00  0.00     0.083 A 
ATOM      6  S   UNL d   1      -1.057  -0.059   0.019  0.00  0.00    -0.084 SA
ENDROOT
BRANCH   1   7
ATOM      7  C   UNL d   1       2.508   1.671  -0.108  0.00  0.00     0.062 A 
ATOM      8  N   UNL d   1       2.279   3.003  -0.098  0.00  0.00    -0.335 N 
ATOM      9  C   UNL d   1       3.364   3.788  -0.150  0.00  0.00     0.141 A 
ATOM     10  HN  UNL d   1       1.335   3.388  -0.052  1.00  0.00     0.168 HD
ATOM     11  N   UNL d   1       4.633   3.359  -0.214  0.00  0.00    -0.347 N 
ATOM     12  C   UNL d   1       4.811   2.027  -0.217  0.00  0.00     0.092 A 
ATOM     13  HN  UNL d   1       5.419   4.007  -0.258  1.00  0.00     0.167 HD
ATOM     14  C   UNL d   1       3.776   1.128  -0.163  0.00  0.00     0.049 A 
BRANCH   9  15
ATOM     15  S   UNL d   1       3.085   5.533  -0.124  0.00  0.00    -0.107 SA
ATOM     16  H   UNL d   1       1.762   5.407   0.033  0.00  0.00     0.110 HD
ENDBRANCH   9  15
ENDBRANCH   1   7
BRANCH   4  17
ATOM     17  C   UNL d   1       0.027  -2.631  -0.064  0.00  0.00     0.240 C 
BRANCH  17  18
ATOM     18  O   UNL d   1      -0.001  -3.088   1.290  0.00  0.00    -0.345 OA
BRANCH  18  19
ATOM     19  C   UNL d   1      -0.155  -4.434   1.484  0.00  0.00     0.072 A 
ATOM     20  C   UNL d   1      -0.363  -5.385   0.482  0.00  0.00     0.060 A 
ATOM     21  C   UNL d   1      -0.510  -6.732   0.822  0.00  0.00     0.038 A 
ATOM     22 CL   UNL d   1      -0.769  -7.894  -0.422  0.00  0.00    -0.084 Cl
ATOM     23  C   UNL d   1      -0.452  -7.146   2.149  0.00  0.00     0.048 A 
ATOM     24  C   UNL d   1      -0.244  -6.195   3.143  0.00  0.00     0.038 A 
ATOM     25  C   UNL d   1      -0.097  -4.847   2.818  0.00  0.00     0.060 A 
ATOM     26 CL   UNL d   1      -0.168  -6.689   4.790  0.00  0.00    -0.084 Cl
ENDBRANCH  18  19
ENDBRANCH  17  18
ENDBRANCH   4  17
TORSDOF 5
