REMARK  5 active torsions:
REMARK  status: ('A' for Active; 'I' for Inactive)
REMARK    1  A    between atoms: N_2  and  C_1 
REMARK    2  A    between atoms: C_3  and  C_7 
REMARK    3  A    between atoms: C_4  and  C_8 
REMARK    4  A    between atoms: S_9  and  C_5 
REMARK    5  A    between atoms: C_12  and  S_9 
ROOT
ATOM      1  C   UNL d   1       1.394  -0.206  -0.154  0.00  0.00     0.120 A 
ATOM      2  C   UNL d   1       0.590  -1.350  -0.046  0.00  0.00     0.040 A 
ATOM      3  C   UNL d   1       0.851   1.093  -0.098  0.00  0.00     0.053 A 
ATOM      4  C   UNL d   1      -0.530   1.266   0.074  0.00  0.00     0.050 A 
ATOM      5  C   UNL d   1      -0.792  -1.159   0.091  0.00  0.00     0.022 A 
ATOM      6  C   UNL d   1      -1.346   0.128   0.147  0.00  0.00     0.017 A 
ENDROOT
BRANCH   2   7
ATOM      7  S   UNL d   1       1.180  -3.034   0.029  0.00  0.00    -0.070 SA
BRANCH   7   8
ATOM      8  C   UNL d   1       1.438  -3.465  -1.680  0.00  0.00     0.074 A 
ATOM      9  N   UNL d   1       1.218  -2.536  -2.636  0.00  0.00    -0.359 N 
ATOM     10  C   UNL d   1       1.445  -2.901  -3.923  0.00  0.00     0.105 A 
ATOM     11  HN  UNL d   1       0.894  -1.598  -2.400  1.00  0.00     0.166 HD
ATOM     12  C   UNL d   1       1.883  -4.159  -4.311  0.00  0.00     0.063 A 
ATOM     13  C   UNL d   1       2.093  -5.104  -3.304  0.00  0.00     0.020 A 
ATOM     14  C   UNL d   1       1.870  -4.754  -1.974  0.00  0.00     0.038 A 
BRANCH  12  15
ATOM     15  C   UNL d   1       2.134  -4.486  -5.751  0.00  0.00     0.418 C 
ATOM     16  F   UNL d   1       1.844  -3.464  -6.602  0.00  0.00    -0.166 F 
ATOM     17  F   UNL d   1       3.433  -4.815  -5.990  0.00  0.00    -0.166 F 
ATOM     18  F   UNL d   1       1.396  -5.548  -6.178  0.00  0.00    -0.166 F 
ENDBRANCH  12  15
ENDBRANCH   7   8
ENDBRANCH   2   7
BRANCH   1  19
ATOM     19  N   UNL d   1       2.832  -0.308  -0.302  0.00  0.00    -0.114 N 
ATOM     20  O   UNL d   1       3.464  -0.857   0.611  0.00  0.00    -0.532 OA
ATOM     21  O   UNL d   1       3.333   0.238  -1.295  0.00  0.00    -0.532 OA
ENDBRANCH   1  19
BRANCH   4  22
ATOM     22  C   UNL d   1      -1.144   2.642   0.198  0.00  0.00     0.417 C 
ATOM     23  F   UNL d   1      -0.224   3.644   0.227  0.00  0.00    -0.166 F 
ATOM     24  F   UNL d   1      -1.986   2.931  -0.831  0.00  0.00    -0.166 F 
ATOM     25  F   UNL d   1      -1.879   2.777   1.336  0.00  0.00    -0.166 F 
ENDBRANCH   4  22
TORSDOF 5
