REMARK  3 active torsions:
REMARK  status: ('A' for Active; 'I' for Inactive)
REMARK    1  A    between atoms: S_5  and  C_1 
REMARK    2  A    between atoms: C_9  and  C_3 
REMARK    3  A    between atoms: C_11  and  S_5 
ROOT
ATOM      1  C   UNL d   1       0.303   0.806   0.105  0.00  0.00     0.093 C 
ATOM      2  C   UNL d   1       0.036  -0.309   0.876  0.00  0.00     0.082 C 
ATOM      3  C   UNL d   1       0.242  -1.546   0.148  0.00  0.00     0.003 C 
ATOM      4  S   UNL d   1       1.056   0.396  -1.366  0.00  0.00    -0.090 SA
ATOM      5  C   UNL d   1       0.862  -1.273  -1.063  0.00  0.00     0.065 C 
ATOM      6  C   UNL d   1      -0.367  -0.225   2.248  0.00  0.00     0.102 C 
ATOM      7  N   UNL d   1      -0.698  -0.163   3.363  0.00  0.00    -0.191 NA
ENDROOT
BRANCH   1   8
ATOM      8  S   UNL d   1       0.065   2.468   0.614  0.00  0.00     0.062 S 
ATOM      9  O   UNL d   1       0.947   3.305  -0.270  0.00  0.00    -0.252 OA
BRANCH   8  10
ATOM     10  C   UNL d   1      -1.654   2.780  -0.032  0.00  0.00     0.085 C 
ATOM     11  C   UNL d   1      -1.977   4.279   0.123  0.00  0.00     0.018 C 
ATOM     12  C   UNL d   1      -2.151   4.694   1.586  0.00  0.00     0.001 C 
ATOM     13  C   UNL d   1      -3.196   3.844   2.303  0.00  0.00     0.000 C 
ATOM     14  C   UNL d   1      -2.975   2.347   2.110  0.00  0.00     0.001 C 
ATOM     15  C   UNL d   1      -2.748   1.959   0.651  0.00  0.00     0.018 C 
ENDBRANCH   8  10
ENDBRANCH   1   8
BRANCH   3  16
ATOM     16  C   UNL d   1      -0.132  -2.929   0.515  0.00  0.00    -0.024 A 
ATOM     17  C   UNL d   1      -1.207  -3.171   1.387  0.00  0.00     0.014 A 
ATOM     18  C   UNL d   1      -1.659  -4.471   1.645  0.00  0.00     0.024 A 
ATOM     19  C   UNL d   1      -1.054  -5.553   1.018  0.00  0.00     0.034 A 
ATOM     20  C   UNL d   1       0.026  -5.347   0.167  0.00  0.00     0.024 A 
ATOM     21 CL   UNL d   1      -1.662  -7.140   1.273  0.00  0.00    -0.084 Cl
ATOM     22  C   UNL d   1       0.493  -4.046  -0.070  0.00  0.00     0.014 A 
ENDBRANCH   3  16
TORSDOF 3
