REMARK  2 active torsions:
REMARK  status: ('A' for Active; 'I' for Inactive)
REMARK    1  A    between atoms: C_2  and  C_1 
REMARK    2  A    between atoms: O_9  and  C_1 
ROOT
ATOM      1  C   UNL d   1       0.204   0.300  -1.182  0.00  0.00     0.088 C 
ATOM      2  C   UNL d   1      -0.860  -0.779  -1.416  0.00  0.00     0.054 C 
ATOM      3  C   UNL d   1      -1.877  -0.413  -2.470  0.00  0.00    -0.051 A 
ATOM      4  C   UNL d   1      -2.044   0.913  -2.908  0.00  0.00    -0.052 A 
ATOM      5  C   UNL d   1      -0.439   1.684  -1.109  0.00  0.00     0.020 C 
ATOM      6  C   UNL d   1      -1.148   2.022  -2.419  0.00  0.00     0.040 C 
ATOM      7  C   UNL d   1      -2.728  -1.414  -2.962  0.00  0.00     0.007 A 
ATOM      8  C   UNL d   1      -3.037   1.203  -3.857  0.00  0.00     0.007 A 
ATOM      9  C   UNL d   1      -3.722  -1.110  -3.892  0.00  0.00     0.001 A 
ATOM     10  C   UNL d   1      -3.874   0.198  -4.340  0.00  0.00     0.001 A 
ENDROOT
BRANCH   1  11
ATOM     11  C   UNL d   1       0.958   0.013   0.102  0.00  0.00     0.144 C 
ATOM     12  O   UNL d   1       0.497  -0.564   1.075  0.00  0.00    -0.650 OA
BRANCH  11  13
ATOM     13  O   UNL d   1       2.224   0.491   0.093  0.00  0.00    -0.776 OA
ATOM     14  H   UNL d   1       2.481   0.940  -0.735  0.00  0.00     0.167 HD
ENDBRANCH  11  13
ENDBRANCH   1  11
TORSDOF 2
