REMARK  3 active torsions:
REMARK  status: ('A' for Active; 'I' for Inactive)
REMARK    1  A    between atoms: O_8  and  C_2 
REMARK    2  A    between atoms: C_11  and  CA_6 
REMARK    3  A    between atoms: O_10  and  C_11 
ROOT
ATOM      1  C   UNL d   1       1.305   0.438  -0.019  0.00  0.00    -0.003 A 
ATOM      2  C   UNL d   1       0.092   1.160  -0.033  0.00  0.00     0.083 A 
ATOM      3  N   UNL d   1       0.034  -1.656   0.015  0.00  0.00    -0.366 N 
ATOM      4  HN  UNL d   1       0.009  -2.675   0.039  1.00  0.00     0.165 HD
ATOM      5  C   UNL d   1      -1.131   0.450  -0.019  0.00  0.00    -0.013 A 
ATOM      6  CA  UNL d   1       1.212  -0.980   0.003  0.00  0.00     0.041 A 
ATOM      7  C   UNL d   1      -1.094  -0.935  -0.006  0.00  0.00     0.097 A 
ATOM      8  C   UNL d   1       2.695   1.014  -0.053  0.00  0.00     0.053 C 
ATOM      9  C   UNL d   1      -2.481   1.112  -0.037  0.00  0.00     0.052 C 
ENDROOT
BRANCH   6  10
ATOM     10  C   UNL d   1       2.430  -1.882   0.053  0.00  0.00     0.221 C 
BRANCH  10  11
ATOM     11  O   UNL d   1       3.252  -1.746  -1.103  0.00  0.00    -0.395 OA
ATOM     12  H   UNL d   1       3.846  -2.515  -1.108  0.00  0.00     0.209 HD
ENDBRANCH  10  11
ENDBRANCH   6  10
BRANCH   2  13
ATOM     13  O   UNL d   1      -0.128   2.507  -0.072  0.00  0.00    -0.355 OA
ATOM     14  C   UNL d   1       0.888   3.476   0.045  0.00  0.00     0.210 C 
ENDBRANCH   2  13
TORSDOF 3
