REMARK  4 active torsions:
REMARK  status: ('A' for Active; 'I' for Inactive)
REMARK    1  A    between atoms: C_20  and  N_1 
REMARK    2  A    between atoms: N_6  and  C_11 
REMARK       I    between atoms: C_7  and  N_8 
REMARK    3  A    between atoms: C_13  and  C_7 
REMARK    4  A    between atoms: N_8  and  C_9 
ROOT
ATOM      1  N   UNL d   1       1.283   1.798   0.069  0.00  0.00    -0.313 N 
ATOM      2  C   UNL d   1       2.114   0.687  -0.205  0.00  0.00     0.259 A 
ATOM      3  C   UNL d   1      -0.069   1.455  -0.002  0.00  0.00     0.049 A 
ATOM      4  C   UNL d   1      -0.134   0.119  -0.326  0.00  0.00     0.019 A 
ATOM      5  C   UNL d   1       1.155  -0.368  -0.466  0.00  0.00     0.045 A 
ATOM      6  C   UNL d   1      -2.499   0.124  -0.252  0.00  0.00     0.046 A 
ATOM      7  C   UNL d   1      -1.287  -0.591  -0.509  0.00  0.00     0.004 A 
ATOM      8  C   UNL d   1      -1.218   2.203   0.177  0.00  0.00     0.033 A 
ATOM      9  O   UNL d   1       3.337   0.691  -0.233  0.00  0.00    -0.267 OA
ATOM     10  C   UNL d   1      -2.437   1.502   0.064  0.00  0.00     0.033 A 
ATOM     11  C   UNL d   1       1.360  -1.689  -0.849  0.00  0.00     0.018 A 
ATOM     12  C   UNL d   1      -1.086  -1.929  -0.939  0.00  0.00     0.014 A 
ATOM     13  C   UNL d   1       0.213  -2.455  -1.106  0.00  0.00     0.002 A 
ENDROOT
BRANCH   6  14
ATOM     14  N   UNL d   1      -3.717  -0.598  -0.266  0.00  0.00    -0.322 N 
ATOM     15  C   UNL d   1      -4.996  -0.105  -0.085  0.00  0.00     0.256 C 
ATOM     16  O   UNL d   1      -5.337   1.068  -0.006  0.00  0.00    -0.267 OA
ATOM     17  H   UNL d   1      -3.630  -1.591  -0.425  0.00  0.00     0.169 HD
BRANCH  15  18
ATOM     18  C   UNL d   1      -6.057  -1.148  -0.034  0.00  0.00     0.034 A 
ATOM     19  C   UNL d   1      -5.874  -2.348   0.664  0.00  0.00     0.053 A 
ATOM     20  C   UNL d   1      -6.891  -3.314   0.643  0.00  0.00     0.103 A 
ATOM     21  C   UNL d   1      -8.090  -3.079  -0.046  0.00  0.00     0.036 A 
ATOM     22  C   UNL d   1      -8.277  -1.866  -0.710  0.00  0.00     0.003 A 
ATOM     23  C   UNL d   1      -7.266  -0.902  -0.700  0.00  0.00     0.017 A 
BRANCH  20  24
ATOM     24  N   UNL d   1      -6.692  -4.595   1.333  0.00  0.00    -0.116 N 
ATOM     25  O   UNL d   1      -5.592  -4.787   1.873  0.00  0.00    -0.532 OA
ATOM     26  O   UNL d   1      -7.622  -5.410   1.327  0.00  0.00    -0.532 OA
ENDBRANCH  20  24
ENDBRANCH  15  18
ENDBRANCH   6  14
BRANCH   1  27
ATOM     27  C   UNL d   1       1.805   3.143   0.158  0.00  0.00     0.128 C 
ATOM     28  C   UNL d   1       1.943   3.768  -1.223  0.00  0.00     0.027 C 
ENDBRANCH   1  27
TORSDOF 4
