REMARK  2 active torsions:
REMARK  status: ('A' for Active; 'I' for Inactive)
REMARK    1  A    between atoms: N_2  and  N_1 
REMARK    2  A    between atoms: C_8  and  C_4 
ROOT
ATOM      1  N   UNL d   1      -2.650   0.147  -0.882  0.00  0.00    -0.329 N 
ATOM      2  HN  UNL d   1      -3.111  -0.757  -0.780  1.00  0.00     0.180 HD
ATOM      3  C   UNL d   1      -3.186   1.177  -1.464  0.00  0.00     0.113 C 
ENDROOT
BRANCH   1   4
ATOM      4  N   UNL d   1      -1.398   0.422  -0.425  0.00  0.00    -0.228 NA
ATOM      5  C   UNL d   1      -1.007  -0.285   0.814  0.00  0.00     0.139 C 
ATOM      6  C   UNL d   1       0.320   0.269   1.349  0.00  0.00     0.183 C 
ATOM      7  O   UNL d   1       1.373   0.145   0.383  0.00  0.00    -0.389 OA
ATOM      8  C   UNL d   1       1.011   0.811  -0.832  0.00  0.00     0.183 C 
ATOM      9  C   UNL d   1      -0.296   0.254  -1.404  0.00  0.00     0.139 C 
ENDBRANCH   1   4
BRANCH   3  10
ATOM     10  C   UNL d   1      -4.528   1.152  -2.070  0.00  0.00    -0.020 A 
ATOM     11  C   UNL d   1      -5.346   0.022  -1.986  0.00  0.00     0.014 A 
ATOM     12  C   UNL d   1      -6.610   0.038  -2.583  0.00  0.00     0.024 A 
ATOM     13  C   UNL d   1      -7.044   1.178  -3.261  0.00  0.00     0.034 A 
ATOM     14  C   UNL d   1      -6.228   2.307  -3.345  0.00  0.00     0.024 A 
ATOM     15 CL   UNL d   1      -8.597   1.196  -4.000  0.00  0.00    -0.084 Cl
ATOM     16  C   UNL d   1      -4.967   2.295  -2.746  0.00  0.00     0.014 A 
ENDBRANCH   3  10
TORSDOF 2
