REMARK  5 active torsions:
REMARK  status: ('A' for Active; 'I' for Inactive)
REMARK    1  A    between atoms: N_2  and  S_1 
REMARK    2  A    between atoms: C_6  and  S_1 
REMARK    3  A    between atoms: C_8  and  N_2 
REMARK    4  A    between atoms: C_3  and  C_7 
REMARK    5  A    between atoms: O_11  and  C_3 
ROOT
ATOM      1  N   UNL d   1       0.664  -0.817  -1.309  0.00  0.00    -0.281 N 
ATOM      2  H   UNL d   1       1.044  -0.325  -0.501  0.00  0.00     0.179 HD
ENDROOT
BRANCH   1   3
ATOM      3  S   UNL d   1       0.763  -2.497  -1.114  0.00  0.00     0.263 S 
ATOM      4  O   UNL d   1      -0.181  -3.134  -2.007  0.00  0.00    -0.200 OA
ATOM      5  O   UNL d   1       0.729  -2.736   0.313  0.00  0.00    -0.200 OA
BRANCH   3   6
ATOM      6  C   UNL d   1       2.408  -2.878  -1.680  0.00  0.00     0.079 A 
ATOM      7  C   UNL d   1       3.480  -2.825  -0.783  0.00  0.00     0.025 A 
ATOM      8  C   UNL d   1       4.769  -3.107  -1.237  0.00  0.00     0.002 A 
ATOM      9  C   UNL d   1       4.981  -3.447  -2.574  0.00  0.00     0.000 A 
ATOM     10  C   UNL d   1       3.905  -3.521  -3.461  0.00  0.00     0.002 A 
ATOM     11  C   UNL d   1       2.612  -3.247  -3.014  0.00  0.00     0.025 A 
ENDBRANCH   3   6
ENDBRANCH   1   3
BRANCH   1  12
ATOM     12  C   UNL d   1       0.916  -0.265  -2.595  0.00  0.00     0.043 A 
ATOM     13  C   UNL d   1       2.188   0.221  -2.893  0.00  0.00     0.047 A 
ATOM     14  C   UNL d   1       2.472   0.700  -4.178  0.00  0.00     0.041 A 
ATOM     15  C   UNL d   1       1.464   0.704  -5.152  0.00  0.00     0.018 A 
ATOM     16  C   UNL d   1       0.190   0.219  -4.846  0.00  0.00     0.003 A 
ATOM     17  C   UNL d   1      -0.079  -0.280  -3.570  0.00  0.00     0.030 A 
BRANCH  14  18
ATOM     18  C   UNL d   1       3.825   1.198  -4.547  0.00  0.00     0.293 C 
ATOM     19  O   UNL d   1       4.115   1.615  -5.656  0.00  0.00    -0.259 OA
BRANCH  18  20
ATOM     20  O   UNL d   1       4.657   1.121  -3.479  0.00  0.00    -0.323 OA
ATOM     21  C   UNL d   1       5.981   1.595  -3.726  0.00  0.00     0.213 C 
ENDBRANCH  18  20
ENDBRANCH  14  18
ENDBRANCH   1  12
TORSDOF 5
