REMARK  7 active torsions:
REMARK  status: ('A' for Active; 'I' for Inactive)
REMARK    1  A    between atoms: N_7  and  S_1 
REMARK    2  A    between atoms: C_12  and  S_1 
REMARK    3  A    between atoms: C_2  and  C_8 
REMARK    4  A    between atoms: C_10  and  N_7 
REMARK    5  A    between atoms: C_22  and  N_7 
REMARK    6  A    between atoms: C_15  and  C_11 
REMARK    7  A    between atoms: C_20  and  C_22 
ROOT
ATOM      1  C   UNL d   1      -2.015  -0.405  -1.295  0.00  0.00     0.043 A 
ATOM      2  C   UNL d   1      -2.927  -1.474  -1.375  0.00  0.00     0.060 A 
ATOM      3  C   UNL d   1      -1.287  -0.024  -2.433  0.00  0.00     0.018 A 
ATOM      4  C   UNL d   1      -3.129  -2.113  -2.606  0.00  0.00     0.031 A 
ATOM      5  C   UNL d   1      -1.476  -0.688  -3.646  0.00  0.00     0.001 A 
ATOM      6  C   UNL d   1      -2.404  -1.723  -3.734  0.00  0.00     0.002 A 
ENDROOT
BRANCH   1   7
ATOM      7  C   UNL d   1      -1.819   0.394  -0.076  0.00  0.00     0.165 A 
ATOM      8  N   UNL d   1      -1.536   1.658  -0.030  0.00  0.00    -0.331 N 
ATOM      9  C   UNL d   1      -1.515   1.915   1.315  0.00  0.00     0.111 A 
ATOM     10  HN  UNL d   1      -1.371   2.302  -0.804  1.00  0.00     0.168 HD
ATOM     11  C   UNL d   1      -1.392   3.101   1.927  0.00  0.00     0.049 C 
ATOM     12  C   UNL d   1      -1.734   0.660   2.082  0.00  0.00     0.316 A 
ATOM     13  O   UNL d   1      -1.922  -0.264   1.101  0.00  0.00    -0.255 OA
ATOM     14  O   UNL d   1      -1.770   0.485   3.282  0.00  0.00    -0.257 OA
BRANCH  11  15
ATOM     15  C   UNL d   1      -1.200   4.397   1.245  0.00  0.00    -0.012 A 
ATOM     16  C   UNL d   1      -1.859   5.571   1.655  0.00  0.00     0.044 A 
ATOM     17 CL   UNL d   1      -2.962   5.589   2.991  0.00  0.00    -0.083 Cl
ATOM     18  C   UNL d   1      -1.649   6.782   0.983  0.00  0.00     0.024 A 
ATOM     19  C   UNL d   1      -0.766   6.843  -0.095  0.00  0.00     0.002 A 
ATOM     20  C   UNL d   1      -0.078   5.702  -0.490  0.00  0.00     0.001 A 
ATOM     21  C   UNL d   1      -0.288   4.492   0.180  0.00  0.00     0.013 A 
ENDBRANCH  11  15
ENDBRANCH   1   7
BRANCH   2  22
ATOM     22  N   UNL d   1      -3.720  -1.859  -0.233  0.00  0.00    -0.267 N 
BRANCH  22  23
ATOM     23  S   UNL d   1      -5.310  -1.213  -0.215  0.00  0.00     0.265 S 
ATOM     24  O   UNL d   1      -6.244  -2.292  -0.453  0.00  0.00    -0.200 OA
ATOM     25  O   UNL d   1      -5.345   0.003  -1.002  0.00  0.00    -0.200 OA
BRANCH  23  26
ATOM     26  C   UNL d   1      -5.456  -0.718   1.494  0.00  0.00     0.080 A 
ATOM     27  C   UNL d   1      -5.062   0.574   1.857  0.00  0.00     0.027 A 
ATOM     28  C   UNL d   1      -5.061   0.937   3.205  0.00  0.00     0.025 A 
ATOM     29  C   UNL d   1      -5.481   0.021   4.169  0.00  0.00     0.034 A 
ATOM     30  C   UNL d   1      -5.944  -1.243   3.795  0.00  0.00     0.025 A 
ATOM     31 CL   UNL d   1      -5.414   0.445   5.835  0.00  0.00    -0.084 Cl
ATOM     32  C   UNL d   1      -5.945  -1.614   2.448  0.00  0.00     0.027 A 
ENDBRANCH  23  26
ENDBRANCH  22  23
BRANCH  22  33
ATOM     33  C   UNL d   1      -3.609  -3.255   0.259  0.00  0.00     0.168 C 
BRANCH  33  34
ATOM     34  C   UNL d   1      -2.197  -3.545   0.686  0.00  0.00    -0.016 C 
ATOM     35  C   UNL d   1      -1.808  -3.744   1.955  0.00  0.00     0.008 C 
ENDBRANCH  33  34
ENDBRANCH  22  33
ENDBRANCH   2  22
TORSDOF 7
