REMARK  4 active torsions:
REMARK  status: ('A' for Active; 'I' for Inactive)
REMARK    1  A    between atoms: C_7  and  C_1 
REMARK    2  A    between atoms: C_13  and  N_4 
REMARK    3  A    between atoms: C_8  and  C_7 
REMARK    4  A    between atoms: C_14  and  C_13 
ROOT
ATOM      1  N   UNL d   1       3.266  -0.455   2.885  0.00  0.00    -0.197 NA
ATOM      2  C   UNL d   1       2.835   0.428   2.273  0.00  0.00     0.060 C 
ATOM      3  C   UNL d   1       2.316   1.559   1.491  0.00  0.00     0.145 C 
ENDROOT
BRANCH   3   4
ATOM      4  C   UNL d   1       2.110   1.201   0.025  0.00  0.00     0.163 C 
BRANCH   4   5
ATOM      5  N   UNL d   1       1.039   0.235  -0.153  0.00  0.00    -0.295 N 
ATOM      6  C   UNL d   1       1.123  -1.131  -0.242  0.00  0.00     0.033 A 
ATOM      7  C   UNL d   1      -0.185  -1.602  -0.125  0.00  0.00    -0.006 A 
ATOM      8  C   UNL d   1       2.423  -1.848  -0.346  0.00  0.00     0.070 C 
ATOM      9  C   UNL d   1      -0.972  -0.408  -0.058  0.00  0.00     0.030 A 
ATOM     10  N   UNL d   1      -0.216   0.692  -0.099  0.00  0.00    -0.302 N 
ATOM     11  C   UNL d   1      -2.440  -0.243   0.075  0.00  0.00     0.070 C 
ATOM     12  HN  UNL d   1      -0.527   1.663  -0.091  1.00  0.00     0.186 HD
BRANCH   7  13
ATOM     13  C   UNL d   1      -0.651  -3.031   0.005  0.00  0.00     0.086 C 
BRANCH  13  14
ATOM     14  C   UNL d   1      -1.028  -3.515  -1.372  0.00  0.00     0.006 C 
ATOM     15  C   UNL d   1      -2.334  -3.489  -1.883  0.00  0.00     0.043 C 
ATOM     16 CL   UNL d   1      -3.715  -3.197  -0.884  0.00  0.00    -0.084 Cl
ATOM     17  C   UNL d   1      -2.589  -3.798  -3.226  0.00  0.00     0.024 C 
ATOM     18  C   UNL d   1      -1.555  -4.191  -4.072  0.00  0.00     0.005 C 
ATOM     19  C   UNL d   1      -0.277  -4.338  -3.554  0.00  0.00     0.043 C 
ATOM     20  C   UNL d   1      -0.035  -4.026  -2.220  0.00  0.00     0.124 C 
ATOM     21  F   UNL d   1       1.187  -4.289  -1.740  0.00  0.00    -0.205 F 
ENDBRANCH  13  14
ENDBRANCH   7  13
ENDBRANCH   4   5
ENDBRANCH   3   4
TORSDOF 4
