REMARK  3 active torsions:
REMARK  status: ('A' for Active; 'I' for Inactive)
REMARK    1  A    between atoms: C_7  and  C_2 
REMARK    2  A    between atoms: O_16  and  C_4 
REMARK       I    between atoms: N_11  and  C_7 
REMARK    3  A    between atoms: C_15  and  N_11 
ROOT
ATOM      1  S   UNL d   1       2.383  -0.895   0.080  0.00  0.00     0.273 S 
ATOM      2  C   UNL d   1       2.185   0.795  -0.193  0.00  0.00     0.182 C 
ATOM      3  N   UNL d   1       0.852  -1.625   0.158  0.00  0.00    -0.274 N 
ATOM      4  C   UNL d   1       0.981   1.294  -0.535  0.00  0.00     0.114 C 
ATOM      5  C   UNL d   1      -0.207   0.504  -0.432  0.00  0.00     0.067 A 
ATOM      6  C   UNL d   1      -0.287  -0.840  -0.094  0.00  0.00     0.065 A 
ATOM      7  O   UNL d   1       3.051  -1.462  -1.073  0.00  0.00    -0.200 OA
ATOM      8  O   UNL d   1       2.994  -1.062   1.391  0.00  0.00    -0.200 OA
ATOM      9  S   UNL d   1      -1.780   1.165  -0.668  0.00  0.00    -0.097 SA
ATOM     10  C   UNL d   1      -1.634  -1.300   0.001  0.00  0.00     0.039 A 
ATOM     11  C   UNL d   1      -2.544  -0.304  -0.266  0.00  0.00     0.053 A 
ATOM     12  C   UNL d   1       0.819  -3.093   0.181  0.00  0.00     0.170 C 
ENDROOT
BRANCH   2  13
ATOM     13  C   UNL d   1       3.363   1.685  -0.125  0.00  0.00     0.272 C 
ATOM     14  N   UNL d   1       4.365   1.313   0.744  0.00  0.00    -0.322 N 
ATOM     15  H   UNL d   1       4.272   0.433   1.252  0.00  0.00     0.169 HD
ATOM     16  O   UNL d   1       3.354   2.712  -0.812  0.00  0.00    -0.266 OA
BRANCH  14  17
ATOM     17  C   UNL d   1       5.589   1.991   0.951  0.00  0.00     0.036 A 
ATOM     18  C   UNL d   1       5.830   3.303   0.544  0.00  0.00     0.053 A 
ATOM     19  C   UNL d   1       7.097   3.865   0.711  0.00  0.00     0.036 A 
ATOM     20 CL   UNL d   1       7.389   5.484   0.201  0.00  0.00    -0.084 Cl
ATOM     21  C   UNL d   1       8.132   3.127   1.281  0.00  0.00     0.024 A 
ATOM     22  C   UNL d   1       7.886   1.831   1.727  0.00  0.00     0.004 A 
ATOM     23  C   UNL d   1       6.614   1.272   1.580  0.00  0.00     0.029 A 
ENDBRANCH  14  17
ENDBRANCH   2  13
BRANCH   4  24
ATOM     24  O   UNL d   1       0.783   2.605  -0.938  0.00  0.00    -0.358 OA
ATOM     25  H   UNL d   1       1.657   3.017  -1.122  0.00  0.00     0.217 HD
ENDBRANCH   4  24
TORSDOF 3
