REMARK  3 active torsions:
REMARK  status: ('A' for Active; 'I' for Inactive)
REMARK       I    between atoms: N_4  and  C_1 
REMARK    1  A    between atoms: C_5  and  C_1 
REMARK       I    between atoms: C_2  and  N_3 
REMARK    2  A    between atoms: C_6  and  C_2 
REMARK    3  A    between atoms: N_3  and  N_4 
ROOT
ATOM      1  C   UNL d   1       0.250   2.989  -1.985  0.00  0.00     0.243 C 
ATOM      2  N   UNL d   1       1.065   2.109  -1.299  0.00  0.00    -0.267 N 
ATOM      3  O   UNL d   1      -0.978   2.869  -1.943  0.00  0.00    -0.271 OA
ATOM      4  H   UNL d   1       2.084   2.085  -1.355  0.00  0.00     0.190 HD
ENDROOT
BRANCH   2   5
ATOM      5  N   UNL d   1       0.442   1.048  -0.625  0.00  0.00    -0.267 N 
ATOM      6  C   UNL d   1       1.206   0.044  -0.070  0.00  0.00     0.243 C 
ATOM      7  O   UNL d   1       2.437   0.081  -0.101  0.00  0.00    -0.271 OA
ATOM      8  H   UNL d   1      -0.576   1.025  -0.686  0.00  0.00     0.190 HD
BRANCH   6   9
ATOM      9  C   UNL d   1       0.407  -1.118   0.561  0.00  0.00     0.032 C 
ATOM     10  C   UNL d   1      -0.406  -1.841  -0.524  0.00  0.00     0.025 C 
ATOM     11  C   UNL d   1       1.375  -2.128   1.202  0.00  0.00     0.025 C 
ATOM     12  C   UNL d   1      -0.540  -0.592   1.651  0.00  0.00     0.025 C 
ENDBRANCH   6   9
ENDBRANCH   2   5
BRANCH   1  13
ATOM     13  C   UNL d   1       0.952   4.095  -2.797  0.00  0.00     0.032 C 
ATOM     14  C   UNL d   1       1.832   3.474  -3.891  0.00  0.00     0.025 C 
ATOM     15  C   UNL d   1      -0.121   4.975  -3.469  0.00  0.00     0.025 C 
ATOM     16  C   UNL d   1       1.809   4.984  -1.885  0.00  0.00     0.025 C 
ENDBRANCH   1  13
TORSDOF 3
