REMARK  2 active torsions:
REMARK  status: ('A' for Active; 'I' for Inactive)
REMARK    1  A    between atoms: S_7  and  C_2 
REMARK    2  A    between atoms: S_8  and  C_2 
ROOT
ATOM      1  C   UNL d   1       0.055  -0.561  -0.022  0.00  0.00     0.147 C 
ATOM      2  C   UNL d   1       0.036  -1.918   0.001  0.00  0.00     0.067 C 
ATOM      3  C   UNL d   1       1.274   0.177  -0.076  0.00  0.00     0.112 C 
ATOM      4  C   UNL d   1      -1.137   0.223   0.026  0.00  0.00     0.112 C 
ATOM      5  N   UNL d   1       2.264   0.783  -0.091  0.00  0.00    -0.191 NA
ATOM      6  N   UNL d   1      -2.088   0.886   0.059  0.00  0.00    -0.191 NA
ENDROOT
BRANCH   2   7
ATOM      7  S   UNL d   1      -1.485  -2.795   0.161  0.00  0.00    -0.125 SA
ATOM      8  C   UNL d   1      -1.223  -4.308  -0.792  0.00  0.00     0.096 C 
ENDBRANCH   2   7
BRANCH   2   9
ATOM      9  S   UNL d   1       1.531  -2.847  -0.082  0.00  0.00    -0.125 SA
ATOM     10  C   UNL d   1       1.893  -3.026   1.681  0.00  0.00     0.096 C 
ENDBRANCH   2   9
TORSDOF 2
