REMARK  4 active torsions:
REMARK  status: ('A' for Active; 'I' for Inactive)
REMARK    1  A    between atoms: N_2  and  S_1 
REMARK    2  A    between atoms: C_8  and  S_1 
REMARK       I    between atoms: C_4  and  N_2 
REMARK       I    between atoms: N_5  and  C_4 
REMARK       I    between atoms: C_7  and  N_5 
REMARK    3  A    between atoms: C_6  and  C_9 
REMARK    4  A    between atoms: C_13  and  C_7 
ROOT
ATOM      1  N   UNL d   1       0.297   0.561  -1.990  0.00  0.00    -0.268 N 
ATOM      2  HN  UNL d   1      -0.490   0.010  -2.331  1.00  0.00     0.180 HD
ATOM      3  C   UNL d   1       0.690   1.743  -2.613  0.00  0.00     0.312 C 
ATOM      4  N   UNL d   1      -0.222   2.750  -2.471  0.00  0.00    -0.175 NA
ATOM      5  C   UNL d   1      -0.208   3.818  -3.332  0.00  0.00     0.239 C 
ATOM      6  O   UNL d   1       1.780   1.871  -3.154  0.00  0.00    -0.253 OA
ATOM      7  O   UNL d   1      -1.119   3.975  -4.139  0.00  0.00    -0.274 OA
ATOM      8  H   UNL d   1      -1.122   2.304  -2.423  0.00  0.00     0.141 HD
ENDROOT
BRANCH   1   9
ATOM      9  S   UNL d   1       1.123   0.130  -0.753  0.00  0.00     0.071 S 
ATOM     10  O   UNL d   1       1.440   1.047   0.328  0.00  0.00    -0.243 OA
ATOM     11  C   UNL d   1       2.659  -0.569  -1.322  0.00  0.00     0.144 C 
BRANCH   9  12
ATOM     12  C   UNL d   1       0.287  -1.256   0.018  0.00  0.00     0.107 A 
ATOM     13  N   UNL d   1       1.054  -2.368   0.152  0.00  0.00    -0.357 N 
ATOM     14  C   UNL d   1       0.525  -3.374   0.884  0.00  0.00     0.105 A 
ATOM     15  HN  UNL d   1       1.977  -2.441  -0.275  1.00  0.00     0.166 HD
ATOM     16  C   UNL d   1      -0.726  -3.321   1.488  0.00  0.00     0.063 A 
ATOM     17  C   UNL d   1      -1.495  -2.163   1.295  0.00  0.00     0.020 A 
ATOM     18  C   UNL d   1      -0.982  -1.102   0.549  0.00  0.00     0.041 A 
BRANCH  16  19
ATOM     19  C   UNL d   1      -1.204  -4.452   2.349  0.00  0.00     0.418 C 
ATOM     20  F   UNL d   1      -0.325  -5.490   2.421  0.00  0.00    -0.166 F 
ATOM     21  F   UNL d   1      -1.425  -4.064   3.635  0.00  0.00    -0.166 F 
ATOM     22  F   UNL d   1      -2.377  -4.985   1.911  0.00  0.00    -0.166 F 
ENDBRANCH  16  19
ENDBRANCH   9  12
ENDBRANCH   1   9
BRANCH   5  23
ATOM     23  C   UNL d   1       0.879   4.843  -3.193  0.00  0.00     0.026 A 
ATOM     24  C   UNL d   1       1.817   4.823  -2.151  0.00  0.00     0.018 A 
ATOM     25  C   UNL d   1       2.770   5.844  -2.037  0.00  0.00     0.025 A 
ATOM     26  C   UNL d   1       2.778   6.895  -2.951  0.00  0.00     0.034 A 
ATOM     27  C   UNL d   1       1.847   6.934  -3.985  0.00  0.00     0.025 A 
ATOM     28 CL   UNL d   1       3.935   8.159  -2.791  0.00  0.00    -0.084 Cl
ATOM     29  C   UNL d   1       0.901   5.909  -4.107  0.00  0.00     0.018 A 
ENDBRANCH   5  23
TORSDOF 4
