REMARK  3 active torsions:
REMARK  status: ('A' for Active; 'I' for Inactive)
REMARK    1  A    between atoms: C_3  and  C_1 
REMARK       I    between atoms: N_6  and  C_3 
REMARK    2  A    between atoms: C_4  and  C_7 
REMARK    3  A    between atoms: C_9  and  N_8 
ROOT
ATOM      1  C   UNL d   1       3.459  -1.518   0.081  0.00  0.00     0.260 C 
ATOM      2  N   UNL d   1       3.572  -2.911  -0.166  0.00  0.00    -0.346 N 
ATOM      3  N   UNL d   1       3.903  -5.892  -0.226  0.00  0.00    -0.366 N 
ATOM      4  O   UNL d   1       3.406  -1.093   1.234  0.00  0.00    -0.267 OA
ATOM      5  C   UNL d   1       3.606  -3.759   1.037  0.00  0.00     0.146 C 
ATOM      6  C   UNL d   1       4.358  -5.091   0.911  0.00  0.00     0.144 C 
ATOM      7  C   UNL d   1       3.985  -4.382  -2.182  0.00  0.00     0.040 C 
ATOM      8  C   UNL d   1       3.001  -3.537  -1.372  0.00  0.00     0.127 C 
ATOM      9  C   UNL d   1       4.556  -5.626  -1.499  0.00  0.00     0.126 C 
ENDROOT
BRANCH   1  10
ATOM     10  C   UNL d   1       3.428  -0.618  -1.070  0.00  0.00     0.074 A 
ATOM     11  S   UNL d   1       2.512   0.825  -0.984  0.00  0.00    -0.084 SA
ATOM     12  C   UNL d   1       2.888   1.267  -2.605  0.00  0.00     0.016 A 
ATOM     13  C   UNL d   1       2.438   2.400  -3.310  0.00  0.00     0.019 A 
ATOM     14  C   UNL d   1       3.741   0.336  -3.198  0.00  0.00    -0.018 A 
ATOM     15  C   UNL d   1       2.848   2.579  -4.634  0.00  0.00     0.001 A 
ATOM     16  C   UNL d   1       3.685   1.656  -5.246  0.00  0.00     0.001 A 
ATOM     17  C   UNL d   1       4.137   0.539  -4.540  0.00  0.00     0.013 A 
ATOM     18  C   UNL d   1       4.083  -0.710  -2.283  0.00  0.00     0.037 A 
ENDBRANCH   1  10
BRANCH   3  19
ATOM     19  C   UNL d   1       3.066  -6.979  -0.089  0.00  0.00     0.102 A 
ATOM     20  N   UNL d   1       3.100  -7.946  -1.032  0.00  0.00    -0.352 N 
ATOM     21  C   UNL d   1       2.313  -9.042  -0.894  0.00  0.00     0.106 A 
ATOM     22  HN  UNL d   1       3.712  -7.852  -1.843  1.00  0.00     0.166 HD
ATOM     23  C   UNL d   1       1.433  -9.236   0.152  0.00  0.00     0.063 A 
ATOM     24  C   UNL d   1       1.365  -8.225   1.107  0.00  0.00     0.021 A 
ATOM     25  C   UNL d   1       2.184  -7.101   0.984  0.00  0.00     0.049 A 
BRANCH  23  26
ATOM     26  C   UNL d   1       0.595 -10.470   0.248  0.00  0.00     0.418 C 
ATOM     27  F   UNL d   1       0.804 -11.355  -0.766  0.00  0.00    -0.166 F 
ATOM     28  F   UNL d   1       0.820 -11.163   1.398  0.00  0.00    -0.166 F 
ATOM     29  F   UNL d   1      -0.739 -10.196   0.234  0.00  0.00    -0.166 F 
ENDBRANCH  23  26
ENDBRANCH   3  19
TORSDOF 3
