REMARK  6 active torsions:
REMARK  status: ('A' for Active; 'I' for Inactive)
REMARK    1  A    between atoms: C_5  and  S_1 
REMARK    2  A    between atoms: C_8  and  S_1 
REMARK    3  A    between atoms: C_2  and  C_5 
REMARK    4  A    between atoms: C_13  and  C_6 
REMARK    5  A    between atoms: S_12  and  C_13 
REMARK    6  A    between atoms: C_16  and  S_12 
ROOT
ATOM      1  C   UNL d   1       0.845  -0.891  -2.695  0.00  0.00     0.065 A 
ATOM      2  N   UNL d   1       1.351  -1.799  -3.502  0.00  0.00    -0.355 N 
ATOM      3  HN  UNL d   1       1.504  -2.776  -3.252  1.00  0.00     0.166 HD
ATOM      4  C   UNL d   1       1.649  -1.244  -4.740  0.00  0.00     0.026 A 
ATOM      5  S   UNL d   1       0.777   0.699  -3.343  0.00  0.00    -0.086 SA
ATOM      6  C   UNL d   1       1.411   0.116  -4.821  0.00  0.00     0.077 A 
ENDROOT
BRANCH   1   7
ATOM      7  C   UNL d   1       0.412  -1.154  -1.301  0.00  0.00     0.210 C 
BRANCH   7   8
ATOM      8  S   UNL d   1      -0.996  -2.231  -1.311  0.00  0.00     0.181 S 
ATOM      9  O   UNL d   1      -2.040  -1.624  -2.123  0.00  0.00    -0.222 OA
ATOM     10  O   UNL d   1      -1.281  -2.590   0.067  0.00  0.00    -0.222 OA
BRANCH   8  11
ATOM     11  C   UNL d   1      -0.504  -3.749  -2.105  0.00  0.00     0.059 A 
ATOM     12  C   UNL d   1       0.536  -4.510  -1.559  0.00  0.00     0.025 A 
ATOM     13  C   UNL d   1       0.895  -5.717  -2.167  0.00  0.00     0.025 A 
ATOM     14  C   UNL d   1       0.208  -6.158  -3.299  0.00  0.00     0.034 A 
ATOM     15  C   UNL d   1      -0.834  -5.401  -3.836  0.00  0.00     0.025 A 
ATOM     16 CL   UNL d   1       0.639  -7.654  -4.032  0.00  0.00    -0.084 Cl
ATOM     17  C   UNL d   1      -1.194  -4.192  -3.239  0.00  0.00     0.025 A 
ENDBRANCH   8  11
ENDBRANCH   7   8
ENDBRANCH   1   7
BRANCH   4  18
ATOM     18  C   UNL d   1       2.128  -2.143  -5.840  0.00  0.00     0.137 C 
BRANCH  18  19
ATOM     19  S   UNL d   1       3.805  -1.692  -6.396  0.00  0.00    -0.124 SA
BRANCH  19  20
ATOM     20  C   UNL d   1       4.127  -2.821  -7.747  0.00  0.00     0.001 A 
ATOM     21  C   UNL d   1       3.269  -3.844  -8.169  0.00  0.00     0.020 A 
ATOM     22  C   UNL d   1       3.622  -4.675  -9.241  0.00  0.00     0.025 A 
ATOM     23  C   UNL d   1       4.836  -4.490  -9.898  0.00  0.00     0.034 A 
ATOM     24  C   UNL d   1       5.702  -3.482  -9.491  0.00  0.00     0.025 A 
ATOM     25 CL   UNL d   1       5.265  -5.511 -11.213  0.00  0.00    -0.084 Cl
ATOM     26  C   UNL d   1       5.347  -2.654  -8.421  0.00  0.00     0.020 A 
ENDBRANCH  19  20
ENDBRANCH  18  19
ENDBRANCH   4  18
TORSDOF 6
