REMARK  4 active torsions:
REMARK  status: ('A' for Active; 'I' for Inactive)
REMARK    1  A    between atoms: C_3  and  S_1 
REMARK    2  A    between atoms: C_11  and  S_1 
REMARK    3  A    between atoms: C_6  and  C_3 
REMARK    4  A    between atoms: C_5  and  N_7 
REMARK       I    between atoms: N_7  and  C_6 
ROOT
ATOM      1  C   UNL d   1       1.245   0.085  -2.618  0.00  0.00     0.236 C 
ATOM      2  N   UNL d   1       1.166   1.403  -2.198  0.00  0.00    -0.324 N 
ATOM      3  O   UNL d   1       1.718  -0.284  -3.688  0.00  0.00    -0.272 OA
ATOM      4  H   UNL d   1       0.684   1.607  -1.319  0.00  0.00     0.169 HD
ENDROOT
BRANCH   1   5
ATOM      5  C   UNL d   1       0.516  -0.899  -1.749  0.00  0.00     0.248 C 
BRANCH   5   6
ATOM      6  S   UNL d   1       1.244  -0.975  -0.155  0.00  0.00     0.183 S 
ATOM      7  O   UNL d   1       0.934   0.281   0.506  0.00  0.00    -0.222 OA
ATOM      8  O   UNL d   1       2.609  -1.434  -0.295  0.00  0.00    -0.222 OA
BRANCH   6   9
ATOM      9  C   UNL d   1       0.383  -2.237   0.759  0.00  0.00     0.059 A 
ATOM     10  C   UNL d   1      -0.752  -2.881   0.262  0.00  0.00     0.023 A 
ATOM     11  C   UNL d   1      -1.371  -3.869   1.033  0.00  0.00     0.002 A 
ATOM     12  C   UNL d   1      -0.860  -4.208   2.287  0.00  0.00     0.000 A 
ATOM     13  C   UNL d   1       0.274  -3.563   2.778  0.00  0.00     0.002 A 
ATOM     14  C   UNL d   1       0.900  -2.578   2.015  0.00  0.00     0.023 A 
ENDBRANCH   6   9
ENDBRANCH   5   6
ENDBRANCH   1   5
BRANCH   2  15
ATOM     15  C   UNL d   1       1.581   2.545  -2.926  0.00  0.00     0.077 A 
ATOM     16  C   UNL d   1       1.083   3.788  -2.508  0.00  0.00     0.184 A 
ATOM     17  C   UNL d   1       1.364   4.948  -3.219  0.00  0.00     0.195 A 
ATOM     18  F   UNL d   1       0.273   3.845  -1.438  0.00  0.00    -0.200 F 
ATOM     19  F   UNL d   1       0.832   6.116  -2.837  0.00  0.00    -0.199 F 
ATOM     20  C   UNL d   1       2.180   4.885  -4.339  0.00  0.00     0.158 A 
ATOM     21  C   UNL d   1       2.724   3.671  -4.747  0.00  0.00     0.048 A 
ATOM     22  F   UNL d   1       2.446   5.993  -5.043  0.00  0.00    -0.203 F 
ATOM     23  C   UNL d   1       2.422   2.500  -4.041  0.00  0.00     0.036 A 
ENDBRANCH   2  15
TORSDOF 4
