REMARK  4 active torsions:
REMARK  status: ('A' for Active; 'I' for Inactive)
REMARK       I    between atoms: N_2  and  C_1 
REMARK       I    between atoms: N_3  and  C_1 
REMARK    1  A    between atoms: C_5  and  N_3 
REMARK    2  A    between atoms: C_9  and  N_4 
REMARK    3  A    between atoms: O_21  and  C_8 
REMARK    4  A    between atoms: C_12  and  C_9 
ROOT
ATOM      1  C   UNL d   1       1.083   0.380  -0.044  0.00  0.00     0.323 C 
ATOM      2  N   UNL d   1       0.254   0.160  -1.150  0.00  0.00    -0.332 N 
ATOM      3  N   UNL d   1       2.002  -0.629   0.167  0.00  0.00    -0.306 N 
ATOM      4  N   UNL d   1      -2.164  -0.052  -3.160  0.00  0.00     0.094 N 
ATOM      5  O   UNL d   1       0.942   1.350   0.703  0.00  0.00    -0.247 OA
ATOM      6  C   UNL d   1      -0.831   1.142  -1.306  0.00  0.00     0.157 C 
ATOM      7  C   UNL d   1      -2.158   0.592  -1.841  0.00  0.00     0.292 C 
ATOM      8  C   UNL d   1      -0.002  -1.468  -3.085  0.00  0.00     0.050 C 
ATOM      9  C   UNL d   1       0.815  -0.387  -2.384  0.00  0.00     0.129 C 
ATOM     10  C   UNL d   1      -1.529  -1.367  -3.102  0.00  0.00     0.274 C 
ATOM     11  H   UNL d   1       1.617  -1.520  -0.089  0.00  0.00     0.171 HD
ENDROOT
BRANCH   3  12
ATOM     12  C   UNL d   1       2.901  -0.607   1.257  0.00  0.00     0.069 A 
ATOM     13  C   UNL d   1       3.091  -1.729   2.080  0.00  0.00     0.095 A 
ATOM     14  C   UNL d   1       3.863  -1.595   3.244  0.00  0.00     0.039 A 
ATOM     15  C   UNL d   1       4.486  -0.387   3.563  0.00  0.00     0.003 A 
ATOM     16  C   UNL d   1       4.354   0.703   2.713  0.00  0.00     0.002 A 
ATOM     17  C   UNL d   1       3.571   0.590   1.564  0.00  0.00     0.032 A 
BRANCH  13  18
ATOM     18  O   UNL d   1       2.433  -2.928   1.982  0.00  0.00    -0.354 OA
ATOM     19  C   UNL d   1       2.479  -3.591   0.725  0.00  0.00     0.210 C 
ENDBRANCH  13  18
ENDBRANCH   3  12
BRANCH   4  20
ATOM     20  C   UNL d   1      -1.708   0.778  -4.277  0.00  0.00     0.311 C 
BRANCH  20  21
ATOM     21  C   UNL d   1      -2.495   2.056  -4.486  0.00  0.00    -0.030 A 
ATOM     22  C   UNL d   1      -1.873   3.309  -4.333  0.00  0.00     0.012 A 
ATOM     23  C   UNL d   1      -2.580   4.487  -4.587  0.00  0.00     0.043 A 
ATOM     24  C   UNL d   1      -3.905   4.413  -4.994  0.00  0.00     0.116 A 
ATOM     25  C   UNL d   1      -4.544   3.188  -5.136  0.00  0.00     0.043 A 
ATOM     26  F   UNL d   1      -4.576   5.543  -5.259  0.00  0.00    -0.206 F 
ATOM     27  C   UNL d   1      -3.842   2.009  -4.877  0.00  0.00     0.012 A 
ENDBRANCH  20  21
ENDBRANCH   4  20
TORSDOF 4
