REMARK  4 active torsions:
REMARK  status: ('A' for Active; 'I' for Inactive)
REMARK    1  A    between atoms: O_5  and  C_1 
REMARK    2  A    between atoms: C_4  and  C_6 
REMARK    3  A    between atoms: C_8  and  C_4 
REMARK    4  A    between atoms: C_14  and  O_5 
ROOT
ATOM      1  N   UNL d   1       2.588  -5.243  -4.668  0.00  0.00    -0.197 NA
ATOM      2  C   UNL d   1       2.826  -5.799  -3.676  0.00  0.00     0.067 C 
ATOM      3  C   UNL d   1       3.144  -6.466  -2.416  0.00  0.00     0.207 C 
ENDROOT
BRANCH   3   4
ATOM      4  C   UNL d   1       2.039  -6.273  -1.408  0.00  0.00     0.172 C 
ATOM      5  O   UNL d   1       1.427  -7.235  -0.943  0.00  0.00    -0.291 OA
BRANCH   4   6
ATOM      6  C   UNL d   1       1.687  -4.899  -0.944  0.00  0.00     0.011 A 
ATOM      7  C   UNL d   1       2.597  -3.837  -0.974  0.00  0.00     0.018 A 
ATOM      8  C   UNL d   1       2.215  -2.567  -0.521  0.00  0.00     0.038 A 
ATOM      9  C   UNL d   1       0.938  -2.358  -0.004  0.00  0.00     0.078 A 
ATOM     10  C   UNL d   1       0.021  -3.412  -0.005  0.00  0.00     0.038 A 
ATOM     11  C   UNL d   1       0.392  -4.679  -0.459  0.00  0.00     0.018 A 
BRANCH   9  12
ATOM     12  O   UNL d   1       0.450  -1.176   0.460  0.00  0.00    -0.255 OA
BRANCH  12  13
ATOM     13  C   UNL d   1       1.317  -0.288   1.153  0.00  0.00     0.530 C 
ATOM     14  F   UNL d   1       2.550  -0.783   1.386  0.00  0.00    -0.144 F 
ATOM     15  F   UNL d   1       0.758   0.010   2.348  0.00  0.00    -0.144 F 
ATOM     16  F   UNL d   1       1.433   0.857   0.448  0.00  0.00    -0.144 F 
ENDBRANCH  12  13
ENDBRANCH   9  12
ENDBRANCH   4   6
ENDBRANCH   3   4
TORSDOF 4
