REMARK  6 active torsions:
REMARK  status: ('A' for Active; 'I' for Inactive)
REMARK    1  A    between atoms: C_5  and  N_1 
REMARK    2  A    between atoms: N_2  and  C_6 
REMARK    3  A    between atoms: C_4  and  C_5 
REMARK    4  A    between atoms: C_8  and  C_10 
REMARK    5  A    between atoms: O_20  and  C_8 
REMARK    6  A    between atoms: C_25  and  O_20 
ROOT
ATOM      1  C   UNL d   1      -0.755   3.206  -1.212  0.00  0.00    -0.014 A 
ATOM      2  C   UNL d   1       0.024   2.625  -2.257  0.00  0.00     0.038 A 
ATOM      3  C   UNL d   1      -0.384   4.471  -0.662  0.00  0.00     0.011 A 
ATOM      4  C   UNL d   1       1.193   3.361  -2.597  0.00  0.00     0.030 A 
ATOM      5  C   UNL d   1       0.740   5.167  -1.077  0.00  0.00     0.001 A 
ATOM      6  C   UNL d   1       1.542   4.599  -2.041  0.00  0.00     0.002 A 
ENDROOT
BRANCH   1   7
ATOM      7  C   UNL d   1      -1.961   2.599  -0.508  0.00  0.00     0.164 C 
BRANCH   7   8
ATOM      8  N   UNL d   1      -1.644   1.637   0.576  0.00  0.00    -0.376 N 
ATOM      9  C   UNL d   1      -2.572   1.543   1.622  0.00  0.00     0.036 A 
ATOM     10  C   UNL d   1      -2.158   1.536   2.969  0.00  0.00    -0.031 A 
ATOM     11  C   UNL d   1      -3.949   1.473   1.361  0.00  0.00     0.030 A 
ATOM     12  C   UNL d   1      -3.109   1.559   4.003  0.00  0.00     0.016 A 
ATOM     13  C   UNL d   1      -0.696   1.496   3.334  0.00  0.00     0.042 C 
ATOM     14  C   UNL d   1      -4.477   1.586   3.722  0.00  0.00    -0.061 A 
ATOM     15  C   UNL d   1      -4.891   1.492   2.393  0.00  0.00     0.009 A 
ATOM     16  C   UNL d   1      -5.468   1.745   4.834  0.00  0.00     0.048 C 
ATOM     17  C   UNL d   1       0.196   1.929   2.182  0.00  0.00     0.024 C 
ATOM     18  C   UNL d   1      -0.267   1.256   0.902  0.00  0.00     0.123 C 
ENDBRANCH   7   8
ENDBRANCH   1   7
BRANCH   2  19
ATOM     19  N   UNL d   1      -0.175   1.381  -2.886  0.00  0.00    -0.380 N 
ATOM     20  C   UNL d   1      -1.287   0.488  -2.547  0.00  0.00     0.124 C 
ATOM     21  C   UNL d   1      -0.891  -0.972  -2.752  0.00  0.00     0.034 C 
ATOM     22  C   UNL d   1      -0.407  -1.248  -4.171  0.00  0.00     0.088 C 
ATOM     23  C   UNL d   1       0.688  -0.239  -4.538  0.00  0.00     0.034 C 
ATOM     24  C   UNL d   1       0.247   1.213  -4.299  0.00  0.00     0.124 C 
BRANCH  22  25
ATOM     25  C   UNL d   1      -1.558  -1.199  -5.152  0.00  0.00     0.263 C 
ATOM     26  O   UNL d   1      -1.602  -0.507  -6.154  0.00  0.00    -0.265 OA
BRANCH  25  27
ATOM     27  O   UNL d   1      -2.566  -2.025  -4.739  0.00  0.00    -0.322 OA
BRANCH  27  28
ATOM     28  C   UNL d   1      -3.838  -1.815  -5.367  0.00  0.00     0.174 C 
ATOM     29  C   UNL d   1      -4.588  -0.753  -4.583  0.00  0.00     0.034 C 
ENDBRANCH  27  28
ENDBRANCH  25  27
ENDBRANCH  22  25
ENDBRANCH   2  19
TORSDOF 6
