REMARK  2 active torsions:
REMARK  status: ('A' for Active; 'I' for Inactive)
REMARK    1  A    between atoms: C_9  and  N_2 
REMARK    2  A    between atoms: C_8  and  C_6 
ROOT
ATOM      1  C   UNL d   1       0.040  -0.785   0.037  0.00  0.00     0.058 A 
ATOM      2  N   UNL d   1      -1.175   1.115  -0.063  0.00  0.00    -0.220 N 
ATOM      3  C   UNL d   1      -1.350  -0.270   0.093  0.00  0.00     0.279 A 
ATOM      4  N   UNL d   1       0.156   1.505  -0.204  0.00  0.00    -0.294 N 
ATOM      5  HN  UNL d   1       0.502   2.456  -0.336  1.00  0.00     0.187 HD
ATOM      6  C   UNL d   1       0.304  -2.093   0.146  0.00  0.00     0.034 C 
ATOM      7  C   UNL d   1       0.873   0.416  -0.133  0.00  0.00     0.038 A 
ATOM      8  O   UNL d   1      -2.344  -0.955   0.243  0.00  0.00    -0.265 OA
ATOM      9  C   UNL d   1       2.363   0.431  -0.189  0.00  0.00     0.071 C 
ENDROOT
BRANCH   6  10
ATOM     10  C   UNL d   1       1.641  -2.705   0.129  0.00  0.00     0.008 A 
ATOM     11  C   UNL d   1       2.355  -2.904   1.325  0.00  0.00     0.046 A 
ATOM     12 CL   UNL d   1       1.685  -2.484   2.866  0.00  0.00    -0.083 Cl
ATOM     13  C   UNL d   1       3.644  -3.445   1.310  0.00  0.00     0.025 A 
ATOM     14  C   UNL d   1       4.237  -3.808   0.103  0.00  0.00     0.003 A 
ATOM     15  C   UNL d   1       3.535  -3.643  -1.090  0.00  0.00     0.025 A 
ATOM     16  C   UNL d   1       2.245  -3.101  -1.078  0.00  0.00     0.046 A 
ATOM     17 CL   UNL d   1       1.440  -2.927  -2.601  0.00  0.00    -0.083 Cl
ENDBRANCH   6  10
BRANCH   2  18
ATOM     18  C   UNL d   1      -2.168   2.123  -0.008  0.00  0.00     0.060 A 
ATOM     19  C   UNL d   1      -3.492   1.836   0.349  0.00  0.00     0.031 A 
ATOM     20  C   UNL d   1      -4.446   2.855   0.443  0.00  0.00     0.002 A 
ATOM     21  C   UNL d   1      -4.095   4.173   0.164  0.00  0.00     0.000 A 
ATOM     22  C   UNL d   1      -2.789   4.474  -0.209  0.00  0.00     0.002 A 
ATOM     23  C   UNL d   1      -1.833   3.457  -0.290  0.00  0.00     0.031 A 
ENDBRANCH   2  18
TORSDOF 2
