REMARK  3 active torsions:
REMARK  status: ('A' for Active; 'I' for Inactive)
REMARK    1  A    between atoms: C_9  and  C_4 
REMARK    2  A    between atoms: C_8  and  C_9 
REMARK       I    between atoms: N_11  and  C_8 
REMARK    3  A    between atoms: C_10  and  N_11 
ROOT
ATOM      1  C   UNL d   1      -0.460   3.258   0.049  0.00  0.00     0.229 C 
ATOM      2  N   UNL d   1      -1.731   2.723   0.024  0.00  0.00    -0.327 N 
ATOM      3  O   UNL d   1       0.568   2.595   0.213  0.00  0.00    -0.273 OA
ATOM      4  H   UNL d   1      -2.477   3.361  -0.261  0.00  0.00     0.169 HD
ENDROOT
BRANCH   1   5
ATOM      5  C   UNL d   1      -0.307   4.743  -0.219  0.00  0.00     0.182 C 
BRANCH   5   6
ATOM      6  C   UNL d   1      -1.515   5.592  -0.186  0.00  0.00     0.118 A 
ATOM      7  N   UNL d   1      -1.449   6.909   0.190  0.00  0.00    -0.270 N 
ATOM      8  N   UNL d   1      -2.662   7.412   0.022  0.00  0.00    -0.005 NA
ATOM      9  HN  UNL d   1      -0.626   7.404   0.533  1.00  0.00     0.185 HD
ATOM     10  N   UNL d   1      -3.392   6.397  -0.453  0.00  0.00    -0.225 N 
ATOM     11  N   UNL d   1      -2.741   5.225  -0.605  0.00  0.00    -0.275 N 
ATOM     12  H   UNL d   1      -4.374   6.514  -0.688  0.00  0.00     0.205 HD
ATOM     13  HN  UNL d   1      -3.080   4.323  -0.939  1.00  0.00     0.189 HD
ENDBRANCH   5   6
ENDBRANCH   1   5
BRANCH   2  14
ATOM     14  C   UNL d   1      -2.085   1.364   0.190  0.00  0.00     0.037 A 
ATOM     15  C   UNL d   1      -1.199   0.382   0.648  0.00  0.00     0.053 A 
ATOM     16  C   UNL d   1      -1.599  -0.952   0.718  0.00  0.00     0.037 A 
ATOM     17 CL   UNL d   1      -0.485  -2.148   1.262  0.00  0.00    -0.084 Cl
ATOM     18  C   UNL d   1      -2.884  -1.331   0.347  0.00  0.00     0.048 A 
ATOM     19  C   UNL d   1      -3.777  -0.353  -0.074  0.00  0.00     0.037 A 
ATOM     20  C   UNL d   1      -3.392   0.989  -0.142  0.00  0.00     0.053 A 
ATOM     21 CL   UNL d   1      -5.373  -0.804  -0.536  0.00  0.00    -0.084 Cl
ENDBRANCH   2  14
TORSDOF 3
