REMARK  5 active torsions:
REMARK  status: ('A' for Active; 'I' for Inactive)
REMARK    1  A    between atoms: C_2  and  O_17 
REMARK       I    between atoms: N_7  and  C_2 
REMARK    2  A    between atoms: C_3  and  C_10 
REMARK    3  A    between atoms: N_23  and  C_3 
REMARK    4  A    between atoms: O_17  and  N_4 
REMARK    5  A    between atoms: C_11  and  N_7 
ROOT
ATOM      1  C   UNL d   1       4.429   0.634  -0.425  0.00  0.00     0.109 C 
ATOM      2  N   UNL d   1       4.651   1.772  -1.028  0.00  0.00    -0.244 N 
ATOM      3  HN  UNL d   1       5.518   2.038  -1.496  1.00  0.00     0.196 HD
ENDROOT
BRANCH   1   4
ATOM      4  C   UNL d   1       5.508  -0.403  -0.397  0.00  0.00     0.005 A 
ATOM      5  C   UNL d   1       5.181  -1.749  -0.172  0.00  0.00     0.017 A 
ATOM      6  C   UNL d   1       6.184  -2.720  -0.144  0.00  0.00     0.038 A 
ATOM      7  C   UNL d   1       7.513  -2.349  -0.336  0.00  0.00     0.080 A 
ATOM      8  C   UNL d   1       7.847  -1.013  -0.587  0.00  0.00    -0.002 A 
ATOM      9  O   UNL d   1       8.437  -3.358  -0.303  0.00  0.00    -0.336 OA
ATOM     10  C   UNL d   1       6.843  -0.038  -0.608  0.00  0.00     0.029 A 
ATOM     11  C   UNL d   1       9.234  -0.667  -0.864  0.00  0.00     0.013 C 
ATOM     12  C   UNL d   1      10.162  -1.603  -0.636  0.00  0.00     0.011 C 
ATOM     13  C   UNL d   1       9.814  -2.972  -0.093  0.00  0.00     0.078 C 
ATOM     14  C   UNL d   1      10.087  -3.017   1.417  0.00  0.00     0.051 C 
ATOM     15  C   UNL d   1      10.662  -4.039  -0.795  0.00  0.00     0.051 C 
ENDBRANCH   1   4
BRANCH   1  16
ATOM     16  N   UNL d   1       3.239   0.350   0.214  0.00  0.00    -0.286 NA
ATOM     17  H   UNL d   1       3.312  -0.184   1.073  0.00  0.00     0.125 HD
ATOM     18  H   UNL d   1       2.652   1.172   0.329  0.00  0.00     0.125 HD
ENDBRANCH   1  16
BRANCH   2  19
ATOM     19  O   UNL d   1       3.490   2.574  -0.924  0.00  0.00    -0.179 OA
BRANCH  19  20
ATOM     20  C   UNL d   1       3.746   3.924  -0.978  0.00  0.00     0.387 C 
ATOM     21  N   UNL d   1       4.897   4.276  -1.646  0.00  0.00    -0.299 N 
ATOM     22  H   UNL d   1       5.265   3.551  -2.255  0.00  0.00     0.171 HD
ATOM     23  O   UNL d   1       2.930   4.712  -0.512  0.00  0.00    -0.236 OA
BRANCH  21  24
ATOM     24  C   UNL d   1       5.341   5.612  -1.792  0.00  0.00     0.058 A 
ATOM     25  C   UNL d   1       5.987   6.040  -2.960  0.00  0.00     0.062 A 
ATOM     26  C   UNL d   1       6.369   7.381  -3.111  0.00  0.00     0.050 A 
ATOM     27 CL   UNL d   1       6.261   4.960  -4.280  0.00  0.00    -0.082 Cl
ATOM     28  C   UNL d   1       6.146   8.282  -2.071  0.00  0.00     0.035 A 
ATOM     29  C   UNL d   1       5.551   7.861  -0.889  0.00  0.00     0.026 A 
ATOM     30 CL   UNL d   1       6.605   9.931  -2.252  0.00  0.00    -0.084 Cl
ATOM     31  C   UNL d   1       5.143   6.536  -0.753  0.00  0.00     0.033 A 
ENDBRANCH  21  24
ENDBRANCH  19  20
ENDBRANCH   2  19
TORSDOF 5
