REMARK  5 active torsions:
REMARK  status: ('A' for Active; 'I' for Inactive)
REMARK    1  A    between atoms: C_3  and  C_1 
REMARK    2  A    between atoms: C_9  and  C_2 
REMARK    3  A    between atoms: C_10  and  C_16 
REMARK    4  A    between atoms: C_11  and  C_17 
REMARK    5  A    between atoms: C_21  and  N_19 
ROOT
ATOM      1  C   UNL d   1       0.322  -2.712  -0.083  0.00  0.00     0.056 A 
ATOM      2  N   UNL d   1       0.985  -3.221   1.010  0.00  0.00    -0.335 N 
ATOM      3  HN  UNL d   1       1.174  -2.698   1.865  1.00  0.00     0.168 HD
ATOM      4  C   UNL d   1       1.341  -4.470   0.808  0.00  0.00     0.149 A 
ATOM      5  S   UNL d   1       0.868  -5.103  -0.726  0.00  0.00    -0.064 SA
ATOM      6  C   UNL d   1       0.107  -3.612  -1.104  0.00  0.00     0.083 A 
ATOM      7  N   UNL d   1       2.053  -5.232   1.672  0.00  0.00    -0.337 N 
ATOM      8  H   UNL d   1       2.412  -6.116   1.333  0.00  0.00     0.168 HD
ENDROOT
BRANCH   7   9
ATOM      9  C   UNL d   1       1.994  -5.146   3.078  0.00  0.00     0.035 A 
ATOM     10  C   UNL d   1       0.962  -4.484   3.755  0.00  0.00     0.045 A 
ATOM     11  C   UNL d   1       0.922  -4.410   5.155  0.00  0.00     0.050 A 
ATOM     12  C   UNL d   1       1.969  -4.976   5.893  0.00  0.00     0.032 A 
ATOM     13  C   UNL d   1       3.040  -5.614   5.243  0.00  0.00     0.050 A 
ATOM     14  C   UNL d   1       3.035  -5.692   3.838  0.00  0.00     0.045 A 
BRANCH  11  15
ATOM     15  C   UNL d   1      -0.252  -3.739   5.825  0.00  0.00     0.417 C 
ATOM     16  F   UNL d   1      -0.204  -3.799   7.186  0.00  0.00    -0.166 F 
ATOM     17  F   UNL d   1      -0.353  -2.420   5.512  0.00  0.00    -0.166 F 
ATOM     18  F   UNL d   1      -1.439  -4.303   5.472  0.00  0.00    -0.166 F 
ENDBRANCH  11  15
BRANCH  13  19
ATOM     19  C   UNL d   1       4.184  -6.214   6.024  0.00  0.00     0.417 C 
ATOM     20  F   UNL d   1       4.047  -6.088   7.372  0.00  0.00    -0.166 F 
ATOM     21  F   UNL d   1       4.327  -7.547   5.785  0.00  0.00    -0.166 F 
ATOM     22  F   UNL d   1       5.381  -5.646   5.712  0.00  0.00    -0.166 F 
ENDBRANCH  13  19
ENDBRANCH   7   9
BRANCH   1  23
ATOM     23  C   UNL d   1      -0.028  -1.296  -0.080  0.00  0.00     0.052 A 
ATOM     24  C   UNL d   1       0.756  -0.220   0.448  0.00  0.00     0.081 A 
ATOM     25  N   UNL d   1       0.135   0.947   0.199  0.00  0.00    -0.259 N 
ATOM     26  O   UNL d   1      -1.053   0.644  -0.424  0.00  0.00    -0.241 OA
ATOM     27  HN  UNL d   1       0.480   1.879   0.428  1.00  0.00     0.195 HD
ATOM     28  C   UNL d   1      -1.151  -0.698  -0.600  0.00  0.00     0.087 A 
ATOM     29  C   UNL d   1      -2.375  -1.174  -1.269  0.00  0.00     0.080 C 
BRANCH  24  30
ATOM     30  C   UNL d   1       2.083  -0.234   1.081  0.00  0.00     0.015 A 
ATOM     31  C   UNL d   1       2.403   0.534   2.218  0.00  0.00     0.048 A 
ATOM     32  C   UNL d   1       3.696   0.506   2.760  0.00  0.00     0.048 A 
ATOM     33 CL   UNL d   1       1.252   1.525   3.051  0.00  0.00    -0.083 Cl
ATOM     34  C   UNL d   1       4.673  -0.305   2.192  0.00  0.00     0.035 A 
ATOM     35  C   UNL d   1       4.379  -1.079   1.076  0.00  0.00     0.025 A 
ATOM     36 CL   UNL d   1       6.253  -0.353   2.871  0.00  0.00    -0.084 Cl
ATOM     37  C   UNL d   1       3.100  -1.029   0.516  0.00  0.00     0.017 A 
ENDBRANCH  24  30
ENDBRANCH   1  23
TORSDOF 5
