REMARK  3 active torsions:
REMARK  status: ('A' for Active; 'I' for Inactive)
REMARK    1  A    between atoms: C_4  and  C_3 
REMARK    2  A    between atoms: C_6  and  C_5 
REMARK    3  A    between atoms: C_20  and  C_7 
ROOT
ATOM      1  N   UNL d   1       0.746  -0.046   0.918  0.00  0.00    -0.317 N 
ATOM      2  HN  UNL d   1       1.326  -0.090   1.756  1.00  0.00     0.169 HD
ATOM      3  C   UNL d   1       0.521  -0.991   0.025  0.00  0.00     0.200 A 
ATOM      4  C   UNL d   1       0.005   1.014   0.442  0.00  0.00     0.138 A 
ATOM      5  N   UNL d   1      -0.673   0.741  -0.682  0.00  0.00    -0.242 N 
ATOM      6  HN  UNL d   1      -1.294   1.357  -1.208  1.00  0.00     0.196 HD
ATOM      7  O   UNL d   1      -0.332  -0.578  -0.963  0.00  0.00    -0.215 OA
ENDROOT
BRANCH   3   8
ATOM      8  C   UNL d   1       1.136  -2.349   0.068  0.00  0.00     0.111 A 
ATOM      9  C   UNL d   1       1.994  -2.841   1.075  0.00  0.00     0.077 A 
ATOM     10  C   UNL d   1       2.314  -4.112   0.664  0.00  0.00     0.128 A 
ATOM     11  O   UNL d   1       1.683  -4.362  -0.520  0.00  0.00    -0.235 OA
ATOM     12  N   UNL d   1       0.933  -3.260  -0.892  0.00  0.00    -0.256 N 
ATOM     13  HN  UNL d   1       0.349  -3.162  -1.723  1.00  0.00     0.195 HD
BRANCH  10  14
ATOM     14  C   UNL d   1       3.195  -5.076   1.374  0.00  0.00     0.075 A 
ATOM     15  N   UNL d   1       3.754  -4.790   2.607  0.00  0.00    -0.352 N 
ATOM     16  C   UNL d   1       4.461  -5.822   3.021  0.00  0.00     0.047 A 
ATOM     17  HN  UNL d   1       3.637  -3.915   3.117  1.00  0.00     0.166 HD
ATOM     18  C   UNL d   1       5.174  -5.892   4.325  0.00  0.00     0.076 C 
ATOM     19  S   UNL d   1       4.523  -7.161   1.942  0.00  0.00    -0.087 SA
ATOM     20  C   UNL d   1       3.504  -6.316   0.855  0.00  0.00     0.084 A 
ENDBRANCH  10  14
ENDBRANCH   3   8
BRANCH   4  21
ATOM     21  C   UNL d   1      -0.005   2.317   1.101  0.00  0.00     0.010 A 
ATOM     22  C   UNL d   1       0.777   2.537   2.247  0.00  0.00     0.017 A 
ATOM     23  C   UNL d   1       0.792   3.789   2.870  0.00  0.00     0.025 A 
ATOM     24  C   UNL d   1       0.024   4.830   2.354  0.00  0.00     0.034 A 
ATOM     25  C   UNL d   1      -0.762   4.629   1.222  0.00  0.00     0.025 A 
ATOM     26 CL   UNL d   1       0.050   6.372   3.115  0.00  0.00    -0.084 Cl
ATOM     27  C   UNL d   1      -0.776   3.377   0.598  0.00  0.00     0.017 A 
ENDBRANCH   4  21
TORSDOF 3
