REMARK  2 active torsions:
REMARK  status: ('A' for Active; 'I' for Inactive)
REMARK    1  A    between atoms: O_7  and  C_1 
REMARK    2  A    between atoms: C_11  and  O_7 
ROOT
ATOM      1  C   UNL d   1      -1.006  -1.539  -0.210  0.00  0.00     0.152 C 
ATOM      2  C   UNL d   1      -1.521  -0.304  -0.115  0.00  0.00     0.122 C 
ATOM      3  C   UNL d   1       0.471  -1.706  -0.373  0.00  0.00     0.218 C 
ATOM      4  C   UNL d   1      -0.684   0.921  -0.082  0.00  0.00     0.207 C 
ATOM      5  C   UNL d   1       1.333  -0.526  -0.178  0.00  0.00     0.031 A 
ATOM      6  C   UNL d   1       0.779   0.744  -0.067  0.00  0.00     0.030 A 
ATOM      7  O   UNL d   1       0.986  -2.775  -0.681  0.00  0.00    -0.284 OA
ATOM      8  O   UNL d   1      -1.159   2.050  -0.048  0.00  0.00    -0.286 OA
ATOM      9 CL   UNL d   1      -3.235  -0.052  -0.021  0.00  0.00    -0.077 Cl
ATOM     10  C   UNL d   1       2.725  -0.685  -0.137  0.00  0.00     0.016 A 
ATOM     11  C   UNL d   1       1.613   1.864   0.058  0.00  0.00     0.016 A 
ATOM     12  C   UNL d   1       3.000   1.703   0.088  0.00  0.00     0.001 A 
ATOM     13  C   UNL d   1       3.555   0.428  -0.001  0.00  0.00     0.001 A 
ENDROOT
BRANCH   1  14
ATOM     14  O   UNL d   1      -1.859  -2.639  -0.297  0.00  0.00    -0.305 OA
BRANCH  14  15
ATOM     15  C   UNL d   1      -1.562  -3.819   0.341  0.00  0.00     0.076 A 
ATOM     16  C   UNL d   1      -0.857  -3.917   1.541  0.00  0.00     0.038 A 
ATOM     17  C   UNL d   1      -0.616  -5.173   2.105  0.00  0.00     0.009 A 
ATOM     18  C   UNL d   1      -1.109  -6.336   1.499  0.00  0.00    -0.062 A 
ATOM     19  C   UNL d   1      -1.851  -6.224   0.319  0.00  0.00     0.009 A 
ATOM     20  C   UNL d   1      -0.820  -7.678   2.103  0.00  0.00     0.048 C 
ATOM     21  C   UNL d   1      -2.080  -4.971  -0.253  0.00  0.00     0.038 A 
ENDBRANCH  14  15
ENDBRANCH   1  14
TORSDOF 2
