REMARK  3 active torsions:
REMARK  status: ('A' for Active; 'I' for Inactive)
REMARK    1  A    between atoms: C_5  and  C_1 
REMARK    2  A    between atoms: N_3  and  C_2 
REMARK       I    between atoms: N_8  and  C_5 
REMARK    3  A    between atoms: C_12  and  N_8 
ROOT
ATOM      1  C   UNL d   1       2.439  -1.457  -0.051  0.00  0.00     0.256 C 
ATOM      2  N   UNL d   1       2.383  -2.837   0.049  0.00  0.00    -0.323 N 
ATOM      3  O   UNL d   1       1.474  -0.726  -0.246  0.00  0.00    -0.267 OA
ATOM      4  H   UNL d   1       3.197  -3.317   0.401  0.00  0.00     0.169 HD
ENDROOT
BRANCH   1   5
ATOM      5  C   UNL d   1       3.770  -0.851   0.108  0.00  0.00     0.041 A 
ATOM      6  C   UNL d   1       3.963   0.580   0.179  0.00  0.00     0.061 A 
ATOM      7  C   UNL d   1       5.288   0.936   0.270  0.00  0.00     0.144 A 
ATOM      8  S   UNL d   1       6.320  -0.409   0.288  0.00  0.00    -0.077 SA
ATOM      9  C   UNL d   1       4.995  -1.496   0.154  0.00  0.00     0.069 A 
BRANCH   7  10
ATOM     10  N   UNL d   1       5.809   2.277   0.332  0.00  0.00    -0.108 N 
ATOM     11  O   UNL d   1       4.981   3.193   0.262  0.00  0.00    -0.531 OA
ATOM     12  O   UNL d   1       7.033   2.424   0.452  0.00  0.00    -0.531 OA
ENDBRANCH   7  10
ENDBRANCH   1   5
BRANCH   2  13
ATOM     13  C   UNL d   1       1.269  -3.651  -0.264  0.00  0.00     0.035 A 
ATOM     14  C   UNL d   1       0.109  -3.170  -0.882  0.00  0.00     0.031 A 
ATOM     15  C   UNL d   1      -0.934  -4.037  -1.223  0.00  0.00     0.026 A 
ATOM     16  C   UNL d   1      -0.825  -5.394  -0.945  0.00  0.00     0.034 A 
ATOM     17  C   UNL d   1       0.315  -5.890  -0.319  0.00  0.00     0.026 A 
ATOM     18 CL   UNL d   1      -2.097  -6.462  -1.390  0.00  0.00    -0.084 Cl
ATOM     19  C   UNL d   1       1.361  -5.021   0.018  0.00  0.00     0.031 A 
ENDBRANCH   2  13
TORSDOF 3
