REMARK  4 active torsions:
REMARK  status: ('A' for Active; 'I' for Inactive)
REMARK    1  A    between atoms: C_5  and  C_1 
REMARK       I    between atoms: C_2  and  N_4 
REMARK    2  A    between atoms: C_3  and  C_2 
REMARK    3  A    between atoms: N_4  and  C_17 
REMARK    4  A    between atoms: C_17  and  C_18 
ROOT
ATOM      1  C   UNL d   1      -1.661  -2.622   6.793  0.00  0.00     0.252 C 
ATOM      2  N   UNL d   1      -0.766  -2.297   5.798  0.00  0.00    -0.353 N 
ATOM      3  O   UNL d   1      -2.289  -1.790   7.438  0.00  0.00    -0.268 OA
ATOM      4  H   UNL d   1      -0.107  -2.987   5.466  0.00  0.00     0.163 HD
ENDROOT
BRANCH   2   5
ATOM      5  C   UNL d   1      -0.502  -0.915   5.459  0.00  0.00     0.161 C 
BRANCH   5   6
ATOM      6  C   UNL d   1      -0.097  -0.783   4.013  0.00  0.00    -0.041 A 
ATOM      7  C   UNL d   1      -0.990  -1.155   2.998  0.00  0.00     0.009 A 
ATOM      8  C   UNL d   1      -0.634  -1.024   1.654  0.00  0.00     0.017 A 
ATOM      9  C   UNL d   1       0.620  -0.511   1.294  0.00  0.00     0.047 A 
ATOM     10  C   UNL d   1       1.511  -0.134   2.310  0.00  0.00     0.017 A 
ATOM     11  C   UNL d   1       1.156  -0.268   3.656  0.00  0.00     0.009 A 
BRANCH   9  12
ATOM     12  C   UNL d   1       0.986  -0.375  -0.163  0.00  0.00     0.417 C 
ATOM     13  F   UNL d   1       2.221   0.163  -0.369  0.00  0.00    -0.166 F 
ATOM     14  F   UNL d   1       0.116   0.418  -0.849  0.00  0.00    -0.166 F 
ATOM     15  F   UNL d   1       0.990  -1.573  -0.812  0.00  0.00    -0.166 F 
ENDBRANCH   9  12
ENDBRANCH   5   6
ENDBRANCH   2   5
BRANCH   1  16
ATOM     16  C   UNL d   1      -1.841  -4.068   7.084  0.00  0.00     0.035 A 
ATOM     17  C   UNL d   1      -2.248  -4.441   8.371  0.00  0.00     0.041 A 
ATOM     18  C   UNL d   1      -2.462  -5.785   8.669  0.00  0.00     0.036 A 
ATOM     19 CL   UNL d   1      -2.953  -6.241  10.254  0.00  0.00    -0.084 Cl
ATOM     20  C   UNL d   1      -2.288  -6.765   7.695  0.00  0.00     0.047 A 
ATOM     21  C   UNL d   1      -1.897  -6.387   6.412  0.00  0.00     0.036 A 
ATOM     22  C   UNL d   1      -1.673  -5.047   6.097  0.00  0.00     0.041 A 
ATOM     23 CL   UNL d   1      -1.704  -7.588   5.194  0.00  0.00    -0.084 Cl
ENDBRANCH   1  16
TORSDOF 4
