REMARK  4 active torsions:
REMARK  status: ('A' for Active; 'I' for Inactive)
REMARK    1  A    between atoms: N_7  and  C_2 
REMARK    2  A    between atoms: C_18  and  C_3 
REMARK    3  A    between atoms: C_4  and  C_14 
REMARK    4  A    between atoms: C_14  and  N_13 
ROOT
ATOM      1  C   UNL d   1       1.159   0.473   1.135  0.00  0.00     0.048 A 
ATOM      2  C   UNL d   1       1.496   1.394   0.097  0.00  0.00     0.097 A 
ATOM      3  C   UNL d   1       1.244   0.442   2.606  0.00  0.00    -0.003 A 
ATOM      4  C   UNL d   1       0.608  -0.731   0.681  0.00  0.00     0.089 A 
ATOM      5  C   UNL d   1       0.852  -0.792   3.104  0.00  0.00     0.065 A 
ATOM      6  S   UNL d   1       0.299  -1.861   1.911  0.00  0.00    -0.082 SA
ATOM      7  N   UNL d   1       1.199   1.045  -1.186  0.00  0.00    -0.342 N 
ATOM      8  HN  UNL d   1       1.410   1.690  -1.948  1.00  0.00     0.167 HD
ATOM      9  N   UNL d   1       0.319  -1.078  -0.580  0.00  0.00    -0.346 N 
ATOM     10  HN  UNL d   1      -0.099  -1.971  -0.840  1.00  0.00     0.167 HD
ATOM     11  C   UNL d   1       0.635  -0.134  -1.453  0.00  0.00     0.182 A 
ENDROOT
BRANCH   2  12
ATOM     12  N   UNL d   1       2.229   2.581   0.279  0.00  0.00    -0.265 NA
ATOM     13  C   UNL d   1       3.031   2.929  -0.921  0.00  0.00     0.127 C 
ATOM     14  C   UNL d   1       3.905   4.175  -0.646  0.00  0.00     0.287 C 
ATOM     15  N   UNL d   1       3.163   5.362  -0.153  0.00  0.00     0.095 N 
ATOM     16  C   UNL d   1       2.318   4.944   0.988  0.00  0.00     0.287 C 
ATOM     17  C   UNL d   1       1.395   3.718   0.719  0.00  0.00     0.127 C 
BRANCH  15  18
ATOM     18  C   UNL d   1       2.401   5.994  -1.240  0.00  0.00     0.316 C 
BRANCH  18  19
ATOM     19  C   UNL d   1       1.681   7.260  -0.838  0.00  0.00     0.030 A 
ATOM     20  C   UNL d   1       0.280   7.284  -0.882  0.00  0.00     0.126 A 
ATOM     21  F   UNL d   1      -0.396   6.186  -1.255  0.00  0.00    -0.205 F 
ATOM     22  C   UNL d   1      -0.451   8.419  -0.543  0.00  0.00     0.043 A 
ATOM     23  C   UNL d   1       0.215   9.570  -0.140  0.00  0.00     0.005 A 
ATOM     24  C   UNL d   1       1.609   9.573  -0.077  0.00  0.00     0.024 A 
ATOM     25  C   UNL d   1       2.338   8.429  -0.428  0.00  0.00     0.045 A 
ATOM     26 CL   UNL d   1       4.061   8.537  -0.345  0.00  0.00    -0.084 Cl
ENDBRANCH  18  19
ENDBRANCH  15  18
ENDBRANCH   2  12
BRANCH   3  27
ATOM     27  C   UNL d   1       1.600   1.491   3.571  0.00  0.00    -0.024 A 
ATOM     28  C   UNL d   1       0.809   1.685   4.722  0.00  0.00     0.012 A 
ATOM     29  C   UNL d   1       1.068   2.732   5.611  0.00  0.00     0.001 A 
ATOM     30  C   UNL d   1       2.111   3.614   5.353  0.00  0.00     0.000 A 
ATOM     31  C   UNL d   1       2.931   3.406   4.248  0.00  0.00     0.001 A 
ATOM     32  C   UNL d   1       2.696   2.332   3.379  0.00  0.00     0.012 A 
ENDBRANCH   3  27
TORSDOF 4
