REMARK  5 active torsions:
REMARK  status: ('A' for Active; 'I' for Inactive)
REMARK    1  A    between atoms: C_3  and  C_1 
REMARK    2  A    between atoms: C_7  and  C_2 
REMARK       I    between atoms: N_8  and  C_3 
REMARK    3  A    between atoms: C_11  and  C_6 
REMARK       I    between atoms: C_9  and  N_10 
REMARK    4  A    between atoms: C_16  and  C_9 
REMARK    5  A    between atoms: N_10  and  C_20 
ROOT
ATOM      1  C   UNL d   1       2.421   1.395   0.110  0.00  0.00     0.256 C 
ATOM      2  N   UNL d   1       3.680   0.801  -0.036  0.00  0.00    -0.348 N 
ATOM      3  O   UNL d   1       2.155   2.144   1.045  0.00  0.00    -0.267 OA
ATOM      4  C   UNL d   1       4.128  -0.032  -1.157  0.00  0.00     0.128 C 
ATOM      5  C   UNL d   1       4.660   0.981   1.030  0.00  0.00     0.128 C 
ATOM      6  C   UNL d   1       6.519   0.643  -0.667  0.00  0.00     0.087 C 
ATOM      7  C   UNL d   1       5.988   1.500   0.486  0.00  0.00     0.045 C 
ATOM      8  C   UNL d   1       5.443   0.467  -1.741  0.00  0.00     0.045 C 
ENDROOT
BRANCH   1   9
ATOM      9  C   UNL d   1       1.398   1.088  -0.876  0.00  0.00     0.073 A 
ATOM     10  C   UNL d   1       0.512   1.998  -1.435  0.00  0.00     0.175 A 
ATOM     11  O   UNL d   1      -0.294   1.357  -2.344  0.00  0.00    -0.304 OA
ATOM     12  C   UNL d   1       0.027   0.032  -2.328  0.00  0.00     0.087 A 
ATOM     13  C   UNL d   1       1.019  -0.181  -1.398  0.00  0.00     0.058 A 
BRANCH  10  14
ATOM     14  C   UNL d   1       0.281   3.459  -1.274  0.00  0.00     0.440 C 
ATOM     15  F   UNL d   1       1.153   4.067  -0.433  0.00  0.00    -0.164 F 
ATOM     16  F   UNL d   1       0.391   4.112  -2.463  0.00  0.00    -0.164 F 
ATOM     17  F   UNL d   1      -0.968   3.722  -0.805  0.00  0.00    -0.164 F 
ENDBRANCH  10  14
BRANCH  12  18
ATOM     18  C   UNL d   1      -0.716  -0.852  -3.220  0.00  0.00    -0.002 A 
ATOM     19  C   UNL d   1      -0.367  -2.210  -3.307  0.00  0.00     0.016 A 
ATOM     20  C   UNL d   1      -1.101  -3.092  -4.103  0.00  0.00     0.024 A 
ATOM     21  C   UNL d   1      -2.190  -2.621  -4.829  0.00  0.00     0.034 A 
ATOM     22  C   UNL d   1      -2.534  -1.272  -4.784  0.00  0.00     0.024 A 
ATOM     23 CL   UNL d   1      -3.121  -3.716  -5.773  0.00  0.00    -0.084 Cl
ATOM     24  C   UNL d   1      -1.797  -0.391  -3.985  0.00  0.00     0.016 A 
ENDBRANCH  12  18
ENDBRANCH   1   9
BRANCH   6  25
ATOM     25  N   UNL d   1       7.027  -0.647  -0.205  0.00  0.00    -0.352 N 
ATOM     26  C   UNL d   1       7.951  -1.357  -0.946  0.00  0.00     0.252 C 
ATOM     27  O   UNL d   1       8.432  -0.940  -1.995  0.00  0.00    -0.268 OA
ATOM     28  H   UNL d   1       6.727  -1.008   0.690  0.00  0.00     0.163 HD
BRANCH  26  29
ATOM     29  C   UNL d   1       8.381  -2.677  -0.408  0.00  0.00     0.032 A 
ATOM     30  C   UNL d   1       7.527  -3.483   0.356  0.00  0.00     0.017 A 
ATOM     31  C   UNL d   1       7.971  -4.729   0.812  0.00  0.00     0.001 A 
ATOM     32  C   UNL d   1       9.258  -5.172   0.504  0.00  0.00     0.000 A 
ATOM     33  C   UNL d   1      10.106  -4.376  -0.263  0.00  0.00     0.001 A 
ATOM     34  C   UNL d   1       9.666  -3.132  -0.723  0.00  0.00     0.017 A 
ENDBRANCH  26  29
ENDBRANCH   6  25
TORSDOF 5
