REMARK  3 active torsions:
REMARK  status: ('A' for Active; 'I' for Inactive)
REMARK    1  A    between atoms: O_13  and  C_1 
REMARK    2  A    between atoms: N_8  and  C_10 
REMARK    3  A    between atoms: C_15  and  O_13 
ROOT
ATOM      1  O   UNL d   1       3.775   0.158   0.024  0.00  0.00    -0.288 OA
ENDROOT
BRANCH   1   2
ATOM      2  C   UNL d   1       2.618  -0.058   0.652  0.00  0.00     0.193 A 
ATOM      3  N   UNL d   1       1.698   0.859   0.851  0.00  0.00    -0.328 N 
ATOM      4  C   UNL d   1       0.613   0.315   1.530  0.00  0.00     0.074 A 
ATOM      5  HN  UNL d   1       1.770   1.831   0.550  1.00  0.00     0.168 HD
ATOM      6  C   UNL d   1      -0.573   0.957   1.950  0.00  0.00     0.063 A 
ATOM      7  C   UNL d   1       0.739  -1.046   1.829  0.00  0.00     0.039 A 
ATOM      8  C   UNL d   1      -1.579   0.279   2.635  0.00  0.00     0.050 A 
ATOM      9 CL   UNL d   1      -0.711   2.620   1.578  0.00  0.00    -0.082 Cl
ATOM     10  C   UNL d   1      -1.408  -1.069   2.918  0.00  0.00     0.037 A 
ATOM     11  C   UNL d   1      -0.256  -1.756   2.526  0.00  0.00     0.045 A 
ATOM     12 CL   UNL d   1      -2.638  -1.919   3.772  0.00  0.00    -0.084 Cl
ATOM     13  S   UNL d   1       2.237  -1.627   1.213  0.00  0.00    -0.044 SA
ENDBRANCH   1   2
BRANCH   1  14
ATOM     14  C   UNL d   1       4.406   1.380   0.030  0.00  0.00     0.080 A 
ATOM     15  C   UNL d   1       4.309   2.304   1.077  0.00  0.00     0.066 A 
ATOM     16  C   UNL d   1       5.013   3.517   1.058  0.00  0.00     0.033 A 
ATOM     17  C   UNL d   1       5.842   3.751  -0.052  0.00  0.00     0.029 A 
ATOM     18  C   UNL d   1       5.970   2.823  -1.090  0.00  0.00     0.005 A 
ATOM     19  C   UNL d   1       5.253   1.633  -1.046  0.00  0.00     0.037 A 
BRANCH  16  20
ATOM     20  N   UNL d   1       4.926   4.438   2.081  0.00  0.00    -0.377 N 
ATOM     21  C   UNL d   1       4.643   4.079   3.479  0.00  0.00     0.149 C 
ATOM     22  C   UNL d   1       3.346   4.745   3.961  0.00  0.00     0.187 C 
ATOM     23  O   UNL d   1       3.375   6.168   3.750  0.00  0.00    -0.388 OA
ATOM     24  C   UNL d   1       3.531   6.452   2.350  0.00  0.00     0.187 C 
ATOM     25  C   UNL d   1       4.848   5.880   1.796  0.00  0.00     0.149 C 
ENDBRANCH  16  20
ENDBRANCH   1  14
TORSDOF 3
