REMARK  5 active torsions:
REMARK  status: ('A' for Active; 'I' for Inactive)
REMARK    1  A    between atoms: S_3  and  C_1 
REMARK    2  A    between atoms: S_7  and  C_2 
REMARK    3  A    between atoms: C_11  and  S_3 
REMARK    4  A    between atoms: C_8  and  C_6 
REMARK    5  A    between atoms: O_14  and  C_8 
ROOT
ATOM      1  C   UNL d   1       1.448   0.755  -0.056  0.00  0.00     0.087 A 
ATOM      2  C   UNL d   1       0.165   1.268  -0.143  0.00  0.00     0.094 A 
ATOM      3  C   UNL d   1       1.433  -0.686  -0.070  0.00  0.00     0.050 A 
ATOM      4  S   UNL d   1      -1.009   0.013  -0.169  0.00  0.00    -0.073 SA
ATOM      5  C   UNL d   1       0.163  -1.225  -0.114  0.00  0.00     0.083 A 
ENDROOT
BRANCH   1   6
ATOM      6  S   UNL d   1       2.970   1.599   0.101  0.00  0.00     0.180 S 
ATOM      7  O   UNL d   1       3.944   0.528   0.265  0.00  0.00    -0.222 OA
ATOM      8  O   UNL d   1       3.034   2.464  -1.055  0.00  0.00    -0.222 OA
BRANCH   6   9
ATOM      9  C   UNL d   1       2.902   2.513   1.653  0.00  0.00     0.105 C 
ATOM     10  C   UNL d   1       2.688   1.575   2.843  0.00  0.00     0.026 C 
ATOM     11  C   UNL d   1       4.192   3.304   1.847  0.00  0.00     0.026 C 
ENDBRANCH   6   9
ENDBRANCH   1   6
BRANCH   2  12
ATOM     12  S   UNL d   1      -0.379   2.928  -0.085  0.00  0.00     0.054 S 
ATOM     13  O   UNL d   1       0.781   3.843  -0.296  0.00  0.00    -0.253 OA
ATOM     14  C   UNL d   1      -1.505   3.009  -1.492  0.00  0.00     0.133 C 
ENDBRANCH   2  12
BRANCH   5  15
ATOM     15  C   UNL d   1      -0.254  -2.611  -0.092  0.00  0.00     0.299 C 
ATOM     16  O   UNL d   1      -1.410  -3.021  -0.106  0.00  0.00    -0.259 OA
BRANCH  15  17
ATOM     17  O   UNL d   1       0.845  -3.417  -0.041  0.00  0.00    -0.322 OA
ATOM     18  C   UNL d   1       0.546  -4.813  -0.016  0.00  0.00     0.213 C 
ENDBRANCH  15  17
ENDBRANCH   5  15
TORSDOF 5
