REMARK  5 active torsions:
REMARK  status: ('A' for Active; 'I' for Inactive)
REMARK    1  A    between atoms: C_7  and  C_3 
REMARK    2  A    between atoms: C_6  and  O_8 
REMARK    3  A    between atoms: C_9  and  C_6 
REMARK    4  A    between atoms: C_13  and  C_7 
REMARK    5  A    between atoms: O_8  and  C_16 
ROOT
ATOM      1  C   UNL d   1      -3.132   1.066  -0.224  0.00  0.00    -0.034 A 
ATOM      2  C   UNL d   1      -5.697  -0.048  -0.111  0.00  0.00     0.079 A 
ATOM      3  C   UNL d   1      -3.415   0.020   0.665  0.00  0.00     0.014 A 
ATOM      4  C   UNL d   1      -4.142   1.545  -1.064  0.00  0.00     0.014 A 
ATOM      5  C   UNL d   1      -5.427   0.993  -1.003  0.00  0.00     0.038 A 
ATOM      6  C   UNL d   1      -4.697  -0.536   0.726  0.00  0.00     0.038 A 
ENDROOT
BRANCH   1   7
ATOM      7  C   UNL d   1      -1.781   1.628  -0.266  0.00  0.00     0.046 C 
BRANCH   7   8
ATOM      8  C   UNL d   1      -0.806   1.137  -1.035  0.00  0.00     0.105 A 
ATOM      9  C   UNL d   1       0.616   1.604  -1.053  0.00  0.00     0.276 A 
ATOM     10  N   UNL d   1       1.230   0.787  -1.960  0.00  0.00    -0.274 N 
ATOM     11  O   UNL d   1       1.109   2.494  -0.389  0.00  0.00    -0.266 OA
ATOM     12  C   UNL d   1       0.353  -0.117  -2.499  0.00  0.00     0.327 A 
ATOM     13  H   UNL d   1       2.208   0.827  -2.195  0.00  0.00     0.173 HD
ATOM     14  N   UNL d   1      -0.888   0.108  -1.929  0.00  0.00    -0.304 N 
ATOM     15  O   UNL d   1       0.615  -0.970  -3.330  0.00  0.00    -0.247 OA
ATOM     16  H   UNL d   1      -1.716  -0.425  -2.148  0.00  0.00     0.171 HD
ENDBRANCH   7   8
ENDBRANCH   1   7
BRANCH   2  17
ATOM     17  O   UNL d   1      -7.048  -0.462  -0.026  0.00  0.00    -0.275 OA
BRANCH  17  18
ATOM     18  C   UNL d   1      -7.418  -1.752   0.333  0.00  0.00     0.298 C 
ATOM     19  O   UNL d   1      -6.683  -2.721   0.441  0.00  0.00    -0.259 OA
BRANCH  18  20
ATOM     20  C   UNL d   1      -8.883  -1.802   0.629  0.00  0.00     0.040 A 
ATOM     21  C   UNL d   1      -9.433  -3.023   1.053  0.00  0.00     0.019 A 
ATOM     22  C   UNL d   1     -10.773  -3.100   1.452  0.00  0.00     0.025 A 
ATOM     23  C   UNL d   1     -11.570  -1.958   1.423  0.00  0.00     0.034 A 
ATOM     24  C   UNL d   1     -11.049  -0.749   0.965  0.00  0.00     0.025 A 
ATOM     25 CL   UNL d   1     -13.196  -2.034   1.980  0.00  0.00    -0.084 Cl
ATOM     26  C   UNL d   1      -9.709  -0.670   0.564  0.00  0.00     0.019 A 
ENDBRANCH  18  20
ENDBRANCH  17  18
ENDBRANCH   2  17
TORSDOF 5
