REMARK  3 active torsions:
REMARK  status: ('A' for Active; 'I' for Inactive)
REMARK    1  A    between atoms: C_7  and  C_4 
REMARK    2  A    between atoms: O_11  and  C_8 
REMARK    3  A    between atoms: O_12  and  C_10 
ROOT
ATOM      1  C   UNL d   1      -1.119  -0.889   0.791  0.00  0.00     0.045 A 
ATOM      2  C   UNL d   1       0.387  -0.873   0.789  0.00  0.00     0.257 A 
ATOM      3  N   UNL d   1       0.727   0.434   1.091  0.00  0.00    -0.322 N 
ATOM      4  C   UNL d   1      -1.777  -1.938   0.282  0.00  0.00     0.032 C 
ATOM      5  C   UNL d   1      -1.569   0.441   1.209  0.00  0.00     0.006 A 
ATOM      6  C   UNL d   1      -0.406   1.211   1.332  0.00  0.00     0.046 A 
ATOM      7  O   UNL d   1       1.137  -1.793   0.517  0.00  0.00    -0.267 OA
ATOM      8  C   UNL d   1      -2.805   0.999   1.478  0.00  0.00     0.015 A 
ATOM      9  C   UNL d   1      -0.435   2.553   1.649  0.00  0.00     0.030 A 
ATOM     10  C   UNL d   1      -2.859   2.355   1.815  0.00  0.00     0.001 A 
ATOM     11  C   UNL d   1      -1.687   3.129   1.883  0.00  0.00     0.002 A 
ATOM     12  H   UNL d   1       1.681   0.758   1.123  0.00  0.00     0.169 HD
ENDROOT
BRANCH   4  13
ATOM     13  C   UNL d   1      -3.215  -1.963  -0.009  0.00  0.00     0.001 A 
ATOM     14  C   UNL d   1      -3.817  -1.484  -1.201  0.00  0.00     0.111 A 
ATOM     15  C   UNL d   1      -5.231  -1.510  -1.294  0.00  0.00     0.102 A 
ATOM     16  C   UNL d   1      -5.998  -2.027  -0.239  0.00  0.00     0.040 A 
ATOM     17  C   UNL d   1      -5.399  -2.518   0.913  0.00  0.00     0.004 A 
ATOM     18  C   UNL d   1      -4.016  -2.485   1.026  0.00  0.00     0.014 A 
BRANCH  14  19
ATOM     19  O   UNL d   1      -3.179  -0.986  -2.302  0.00  0.00    -0.352 OA
ATOM     20  C   UNL d   1      -1.774  -0.935  -2.441  0.00  0.00     0.210 C 
ENDBRANCH  14  19
BRANCH  15  21
ATOM     21  O   UNL d   1      -6.034  -1.082  -2.324  0.00  0.00    -0.353 OA
ATOM     22  C   UNL d   1      -5.454  -0.476  -3.468  0.00  0.00     0.210 C 
ENDBRANCH  15  21
ENDBRANCH   4  13
TORSDOF 3
