REMARK  1 active torsions:
REMARK  status: ('A' for Active; 'I' for Inactive)
REMARK    1  A    between atoms: C_12  and  C_6 
ROOT
ATOM      1  C   UNL d   1       0.161  -0.807   0.015  0.00  0.00     0.147 A 
ATOM      2  N   UNL d   1       0.234   0.588   0.014  0.00  0.00    -0.243 N 
ATOM      3  C   UNL d   1       1.464  -1.243   0.017  0.00  0.00     0.081 A 
ATOM      4  N   UNL d   1       1.523   1.018   0.015  0.00  0.00    -0.294 N 
ATOM      5  HN  UNL d   1       1.847   1.986   0.016  1.00  0.00     0.187 HD
ATOM      6  C   UNL d   1       2.284  -0.089   0.016  0.00  0.00     0.055 A 
ATOM      7  N   UNL d   1      -1.029  -1.483   0.013  0.00  0.00    -0.344 N 
ATOM      8  HN  UNL d   1      -1.067  -2.503   0.015  1.00  0.00     0.167 HD
ATOM      9  C   UNL d   1      -0.943   1.359   0.009  0.00  0.00     0.034 A 
ATOM     10  C   UNL d   1      -2.135   0.735   0.007  0.00  0.00     0.051 A 
ATOM     11  C   UNL d   1      -2.109  -0.760   0.009  0.00  0.00     0.009 A 
ATOM     12 BR   UNL d   1       1.984  -3.046   0.013  0.00  0.00    -0.045 Br
ATOM     13  C   UNL d   1      -0.853   2.853   0.007  0.00  0.00     0.070 C 
ATOM     14  C   UNL d   1      -3.436  -1.478   0.007  0.00  0.00     0.068 C 
ENDROOT
BRANCH   6  15
ATOM     15  C   UNL d   1       3.810   0.038   0.009  0.00  0.00    -0.006 C 
ATOM     16  C   UNL d   1       4.405  -0.594  -1.266  0.00  0.00     0.021 C 
ATOM     17  C   UNL d   1       4.264   1.520   0.030  0.00  0.00     0.021 C 
ATOM     18  C   UNL d   1       4.431  -0.632   1.252  0.00  0.00     0.021 C 
ENDBRANCH   6  15
TORSDOF 1
