REMARK  7 active torsions:
REMARK  status: ('A' for Active; 'I' for Inactive)
REMARK    1  A    between atoms: C_2  and  C_1 
REMARK    2  A    between atoms: C_3  and  N_5 
REMARK    3  A    between atoms: N_7  and  C_3 
REMARK    4  A    between atoms: N_5  and  C_4 
REMARK    5  A    between atoms: C_6  and  C_8 
REMARK    6  A    between atoms: O_16  and  C_6 
REMARK    7  A    between atoms: C_11  and  N_7 
ROOT
ATOM      1  C   UNL d   1       2.331  -1.124   0.191  0.00  0.00     0.176 C 
ATOM      2  S   UNL d   1       0.975  -1.889  -0.426  0.00  0.00    -0.041 SA
ENDROOT
BRANCH   1   3
ATOM      3  N   UNL d   1       3.449  -1.898   0.374  0.00  0.00    -0.332 N 
ATOM      4  H   UNL d   1       3.217  -2.888   0.347  0.00  0.00     0.168 HD
BRANCH   3   5
ATOM      5  C   UNL d   1       4.812  -1.586   0.113  0.00  0.00     0.049 A 
ATOM      6  C   UNL d   1       5.774  -2.619   0.158  0.00  0.00     0.074 A 
ATOM      7  C   UNL d   1       7.070  -2.381  -0.351  0.00  0.00     0.018 A 
ATOM      8  C   UNL d   1       7.436  -1.125  -0.823  0.00  0.00     0.001 A 
ATOM      9  C   UNL d   1       6.518  -0.086  -0.776  0.00  0.00     0.002 A 
ATOM     10  C   UNL d   1       5.215  -0.315  -0.321  0.00  0.00     0.030 A 
BRANCH   6  11
ATOM     11  C   UNL d   1       5.488  -3.999   0.695  0.00  0.00     0.419 C 
ATOM     12  F   UNL d   1       4.429  -4.051   1.551  0.00  0.00    -0.166 F 
ATOM     13  F   UNL d   1       6.539  -4.527   1.385  0.00  0.00    -0.166 F 
ATOM     14  F   UNL d   1       5.205  -4.892  -0.292  0.00  0.00    -0.166 F 
ENDBRANCH   6  11
ENDBRANCH   3   5
ENDBRANCH   1   3
BRANCH   1  15
ATOM     15  N   UNL d   1       2.396   0.159   0.679  0.00  0.00    -0.333 N 
ATOM     16  H   UNL d   1       2.893   0.218   1.559  0.00  0.00     0.168 HD
BRANCH  15  17
ATOM     17  C   UNL d   1       1.538   1.236   0.365  0.00  0.00     0.035 A 
ATOM     18  C   UNL d   1       1.136   1.492  -0.950  0.00  0.00     0.047 A 
ATOM     19  C   UNL d   1       0.370   2.631  -1.244  0.00  0.00     0.041 A 
ATOM     20  C   UNL d   1      -0.047   3.473  -0.207  0.00  0.00     0.018 A 
ATOM     21  C   UNL d   1       0.356   3.218   1.104  0.00  0.00     0.003 A 
ATOM     22  C   UNL d   1       1.176   2.123   1.382  0.00  0.00     0.029 A 
BRANCH  19  23
ATOM     23  C   UNL d   1       0.055   3.033  -2.638  0.00  0.00     0.293 C 
ATOM     24  O   UNL d   1      -0.783   3.871  -2.937  0.00  0.00    -0.259 OA
BRANCH  23  25
ATOM     25  O   UNL d   1       0.913   2.422  -3.493  0.00  0.00    -0.323 OA
ATOM     26  C   UNL d   1       0.860   2.909  -4.833  0.00  0.00     0.213 C 
ENDBRANCH  23  25
ENDBRANCH  19  23
ENDBRANCH  15  17
ENDBRANCH   1  15
TORSDOF 7
