REMARK  3 active torsions:
REMARK  status: ('A' for Active; 'I' for Inactive)
REMARK    1  A    between atoms: C_4  and  C_1 
REMARK    2  A    between atoms: O_11  and  C_2 
REMARK       I    between atoms: N_8  and  C_4 
REMARK    3  A    between atoms: C_12  and  N_8 
ROOT
ATOM      1  C   UNL d   1      -1.799  -0.895  -0.229  0.00  0.00     0.134 A 
ATOM      2  C   UNL d   1      -0.531  -1.281  -0.496  0.00  0.00     0.099 A 
ATOM      3  C   UNL d   1      -2.059   0.520   0.166  0.00  0.00     0.264 A 
ATOM      4  N   UNL d   1      -0.997   1.380   0.222  0.00  0.00    -0.322 N 
ATOM      5  C   UNL d   1       0.596  -0.351  -0.317  0.00  0.00     0.025 A 
ATOM      6  C   UNL d   1       0.328   0.980   0.019  0.00  0.00     0.048 A 
ATOM      7  O   UNL d   1      -3.196   0.908   0.434  0.00  0.00    -0.267 OA
ATOM      8  C   UNL d   1       1.931  -0.761  -0.431  0.00  0.00     0.016 A 
ATOM      9  C   UNL d   1       1.364   1.900   0.194  0.00  0.00     0.030 A 
ATOM     10  C   UNL d   1       2.972   0.147  -0.228  0.00  0.00     0.001 A 
ATOM     11  C   UNL d   1       2.689   1.478   0.073  0.00  0.00     0.002 A 
ATOM     12  H   UNL d   1      -1.202   2.332   0.492  0.00  0.00     0.169 HD
ENDROOT
BRANCH   1  13
ATOM     13  C   UNL d   1      -2.878  -1.935  -0.273  0.00  0.00     0.264 C 
ATOM     14  N   UNL d   1      -4.068  -1.588   0.326  0.00  0.00    -0.323 N 
ATOM     15  H   UNL d   1      -4.202  -0.599   0.546  0.00  0.00     0.169 HD
ATOM     16  O   UNL d   1      -2.639  -3.028  -0.791  0.00  0.00    -0.267 OA
BRANCH  14  17
ATOM     17  C   UNL d   1      -5.093  -2.466   0.738  0.00  0.00     0.035 A 
ATOM     18  C   UNL d   1      -4.963  -3.859   0.733  0.00  0.00     0.031 A 
ATOM     19  C   UNL d   1      -5.982  -4.673   1.238  0.00  0.00     0.026 A 
ATOM     20  C   UNL d   1      -7.144  -4.096   1.742  0.00  0.00     0.034 A 
ATOM     21  C   UNL d   1      -7.295  -2.712   1.740  0.00  0.00     0.026 A 
ATOM     22 CL   UNL d   1      -8.386  -5.096   2.384  0.00  0.00    -0.084 Cl
ATOM     23  C   UNL d   1      -6.269  -1.899   1.245  0.00  0.00     0.031 A 
ENDBRANCH  14  17
ENDBRANCH   1  13
BRANCH   2  24
ATOM     24  O   UNL d   1      -0.164  -2.551  -0.913  0.00  0.00    -0.359 OA
ATOM     25  H   UNL d   1      -0.982  -3.079  -1.060  0.00  0.00     0.217 HD
ENDBRANCH   2  24
TORSDOF 3
