REMARK  5 active torsions:
REMARK  status: ('A' for Active; 'I' for Inactive)
REMARK    1  A    between atoms: C_4  and  C_1 
REMARK    2  A    between atoms: C_5  and  C_1 
REMARK    3  A    between atoms: C_3  and  C_2 
REMARK    4  A    between atoms: C_9  and  C_4 
REMARK    5  A    between atoms: N_6  and  C_5 
ROOT
ATOM      1  C   UNL d   1       0.976   0.097  -0.003  0.00  0.00     0.074 C 
ATOM      2  C   UNL d   1       0.292   1.166   0.449  0.00  0.00     0.040 C 
ENDROOT
BRANCH   1   3
ATOM      3  C   UNL d   1       0.220  -1.070  -0.574  0.00  0.00     0.176 C 
ATOM      4  O   UNL d   1      -0.897  -0.852  -1.055  0.00  0.00    -0.291 OA
BRANCH   3   5
ATOM      5  C   UNL d   1       0.799  -2.509  -0.520  0.00  0.00     0.015 C 
ATOM      6  C   UNL d   1       1.150  -2.895   0.924  0.00  0.00     0.023 C 
ATOM      7  C   UNL d   1      -0.288  -3.489  -1.017  0.00  0.00     0.023 C 
ATOM      8  C   UNL d   1       2.012  -2.688  -1.444  0.00  0.00     0.023 C 
ENDBRANCH   3   5
ENDBRANCH   1   3
BRANCH   1   9
ATOM      9  C   UNL d   1       2.496   0.097  -0.003  0.00  0.00    -0.033 C 
BRANCH   9  10
ATOM     10  N   UNL d   1       3.757   0.097  -0.003  0.00  0.00    -0.365 N 
ATOM     11  HN2 UNL d   1       2.737   0.097  -0.003  1.00  0.00     0.165 HD
ATOM     12  HN1 UNL d   1       4.777   0.097  -0.003  1.00  0.00     0.165 HD
ENDBRANCH   9  10
ENDBRANCH   1   9
BRANCH   2  13
ATOM     13  C   UNL d   1       0.955   2.363   1.006  0.00  0.00     0.009 A 
ATOM     14  C   UNL d   1       1.404   3.405   0.174  0.00  0.00     0.046 A 
ATOM     15 CL   UNL d   1       1.129   3.387  -1.534  0.00  0.00    -0.083 Cl
ATOM     16  C   UNL d   1       2.111   4.491   0.702  0.00  0.00     0.025 A 
ATOM     17  C   UNL d   1       2.376   4.559   2.068  0.00  0.00     0.003 A 
ATOM     18  C   UNL d   1       1.926   3.545   2.910  0.00  0.00     0.025 A 
ATOM     19  C   UNL d   1       1.221   2.456   2.386  0.00  0.00     0.046 A 
ATOM     20 CL   UNL d   1       0.718   1.223   3.494  0.00  0.00    -0.083 Cl
ENDBRANCH   2  13
TORSDOF 5
