REMARK  7 active torsions:
REMARK  status: ('A' for Active; 'I' for Inactive)
REMARK    1  A    between atoms: N_5  and  C_3 
REMARK       I    between atoms: C_4  and  N_5 
REMARK    2  A    between atoms: C_7  and  C_4 
REMARK    3  A    between atoms: C_6  and  O_11 
REMARK    4  A    between atoms: C_13  and  C_6 
REMARK    5  A    between atoms: C_10  and  C_7 
REMARK    6  A    between atoms: O_11  and  N_8 
REMARK    7  A    between atoms: N_22  and  C_10 
ROOT
ATOM      1  N   UNL d   1      -1.375  -0.049   1.328  0.00  0.00    -0.245 N 
ATOM      2  HN  UNL d   1      -0.377   0.151   1.263  1.00  0.00     0.196 HD
ATOM      3  C   UNL d   1      -2.289   0.647   0.727  0.00  0.00     0.104 C 
ENDROOT
BRANCH   3   4
ATOM      4  C   UNL d   1      -1.848   1.909   0.014  0.00  0.00     0.180 C 
BRANCH   4   5
ATOM      5  C   UNL d   1      -0.656   2.690   0.544  0.00  0.00     0.229 C 
ATOM      6  N   UNL d   1      -0.156   2.315   1.776  0.00  0.00    -0.324 N 
ATOM      7  H   UNL d   1      -0.433   1.387   2.107  0.00  0.00     0.169 HD
ATOM      8  O   UNL d   1      -0.188   3.583  -0.160  0.00  0.00    -0.273 OA
BRANCH   6   9
ATOM      9  C   UNL d   1       0.997   2.858   2.392  0.00  0.00     0.077 A 
ATOM     10  C   UNL d   1       1.429   4.184   2.254  0.00  0.00     0.184 A 
ATOM     11  C   UNL d   1       2.626   4.597   2.833  0.00  0.00     0.195 A 
ATOM     12  F   UNL d   1       0.670   5.106   1.645  0.00  0.00    -0.200 F 
ATOM     13  C   UNL d   1       3.390   3.702   3.570  0.00  0.00     0.158 A 
ATOM     14  F   UNL d   1       3.038   5.866   2.693  0.00  0.00    -0.199 F 
ATOM     15  F   UNL d   1       4.553   4.091   4.112  0.00  0.00    -0.203 F 
ATOM     16  C   UNL d   1       2.954   2.399   3.768  0.00  0.00     0.048 A 
ATOM     17  C   UNL d   1       1.753   1.983   3.189  0.00  0.00     0.036 A 
ENDBRANCH   6   9
ENDBRANCH   4   5
ENDBRANCH   3   4
BRANCH   3  18
ATOM     18  N   UNL d   1      -3.617   0.304   0.666  0.00  0.00    -0.387 N 
ATOM     19  H   UNL d   1      -3.801  -0.674   0.857  0.00  0.00     0.157 HD
ATOM     20  H   UNL d   1      -4.152   0.669  -0.115  0.00  0.00     0.157 HD
ENDBRANCH   3  18
BRANCH   1  21
ATOM     21  O   UNL d   1      -1.913  -1.113   2.082  0.00  0.00    -0.193 OA
BRANCH  21  22
ATOM     22  C   UNL d   1      -1.377  -1.038   3.340  0.00  0.00     0.315 C 
ATOM     23  O   UNL d   1      -0.705  -0.110   3.779  0.00  0.00    -0.257 OA
BRANCH  22  24
ATOM     24  C   UNL d   1      -1.708  -2.227   4.163  0.00  0.00     0.041 A 
ATOM     25  C   UNL d   1      -2.425  -3.323   3.672  0.00  0.00     0.018 A 
ATOM     26  C   UNL d   1      -2.688  -4.412   4.510  0.00  0.00     0.007 A 
ATOM     27  C   UNL d   1      -2.239  -4.419   5.838  0.00  0.00    -0.062 A 
ATOM     28  C   UNL d   1      -1.518  -3.325   6.321  0.00  0.00     0.007 A 
ATOM     29  C   UNL d   1      -2.535  -5.590   6.728  0.00  0.00     0.048 C 
ATOM     30  C   UNL d   1      -1.254  -2.237   5.489  0.00  0.00     0.018 A 
ENDBRANCH  22  24
ENDBRANCH  21  22
ENDBRANCH   1  21
TORSDOF 7
