REMARK  5 active torsions:
REMARK  status: ('A' for Active; 'I' for Inactive)
REMARK    1  A    between atoms: C_3  and  N_1 
REMARK    2  A    between atoms: C_2  and  O_10 
REMARK    3  A    between atoms: C_7  and  C_5 
REMARK    4  A    between atoms: O_22  and  C_6 
REMARK    5  A    between atoms: O_10  and  C_13 
ROOT
ATOM      1  C   UNL d   1      -2.241   4.894   2.756  0.00  0.00     0.128 A 
ATOM      2  C   UNL d   1      -2.360   5.793   1.675  0.00  0.00     0.048 A 
ATOM      3  C   UNL d   1      -1.534   7.635   3.037  0.00  0.00    -0.030 A 
ATOM      4  C   UNL d   1      -1.840   5.392   4.005  0.00  0.00     0.104 A 
ATOM      5  C   UNL d   1      -1.971   7.132   1.806  0.00  0.00     0.031 A 
ATOM      6  C   UNL d   1      -1.485   6.747   4.123  0.00  0.00     0.049 A 
ATOM      7 BR   UNL d   1      -3.153   5.323   0.003  0.00  0.00    -0.048 Br
ENDROOT
BRANCH   1   8
ATOM      8  O   UNL d   1      -2.599   3.569   2.640  0.00  0.00    -0.290 OA
BRANCH   8   9
ATOM      9  C   UNL d   1      -1.938   2.808   1.679  0.00  0.00     0.148 A 
ATOM     10  C   UNL d   1      -2.625   1.691   1.216  0.00  0.00     0.059 A 
ATOM     11  C   UNL d   1      -2.091   0.985   0.140  0.00  0.00     0.041 A 
ATOM     12  C   UNL d   1      -0.890   1.423  -0.422  0.00  0.00     0.118 A 
ATOM     13  C   UNL d   1      -0.243   2.517   0.138  0.00  0.00     0.126 A 
ATOM     14  N   UNL d   1      -0.739   3.208   1.194  0.00  0.00    -0.344 N 
ATOM     15  HN  UNL d   1      -0.232   3.992   1.604  1.00  0.00     0.167 HD
BRANCH  12  16
ATOM     16  N   UNL d   1      -0.334   0.773  -1.599  0.00  0.00    -0.114 N 
ATOM     17  O   UNL d   1       0.686   1.265  -2.103  0.00  0.00    -0.532 OA
ATOM     18  O   UNL d   1      -0.917  -0.231  -2.031  0.00  0.00    -0.532 OA
ENDBRANCH  12  16
ENDBRANCH   8   9
ENDBRANCH   1   8
BRANCH   4  19
ATOM     19  O   UNL d   1      -1.739   4.745   5.208  0.00  0.00    -0.353 OA
ATOM     20  C   UNL d   1      -2.176   3.401   5.324  0.00  0.00     0.210 C 
ENDBRANCH   4  19
BRANCH   3  21
ATOM     21  C   UNL d   1      -1.127   9.078   3.231  0.00  0.00     0.141 C 
ATOM     22  S   UNL d   1      -2.348  10.275   2.616  0.00  0.00    -0.148 SA
ATOM     23  C   UNL d   1      -1.161  11.623   2.433  0.00  0.00     0.085 C 
ATOM     24  C   UNL d   1       0.066  11.050   1.750  0.00  0.00     0.085 C 
ATOM     25  S   UNL d   1       0.498   9.449   2.495  0.00  0.00    -0.148 SA
ENDBRANCH   3  21
TORSDOF 5
