REMARK  5 active torsions:
REMARK  status: ('A' for Active; 'I' for Inactive)
REMARK    1  A    between atoms: C_2  and  S_1 
REMARK    2  A    between atoms: N_3  and  S_1 
REMARK       I    between atoms: C_5  and  N_8 
REMARK    3  A    between atoms: C_16  and  C_5 
REMARK    4  A    between atoms: N_8  and  C_17 
REMARK    5  A    between atoms: C_20  and  C_16 
ROOT
ATOM      1  N   UNL d   1       0.566  -0.778  -1.393  0.00  0.00    -0.206 NA
ATOM      2  C   UNL d   1       0.842  -2.238  -1.272  0.00  0.00     0.109 C 
ATOM      3  C   UNL d   1       1.117  -0.162  -2.633  0.00  0.00     0.109 C 
ATOM      4  C   UNL d   1       0.647  -0.914  -3.872  0.00  0.00     0.041 C 
ATOM      5  C   UNL d   1       0.430  -3.001  -2.526  0.00  0.00     0.041 C 
ATOM      6  C   UNL d   1       1.014  -2.395  -3.801  0.00  0.00     0.086 C 
ENDROOT
BRANCH   1   7
ATOM      7  S   UNL d   1       0.966   0.120   0.027  0.00  0.00     0.245 S 
ATOM      8  O   UNL d   1       2.067  -0.573   0.664  0.00  0.00    -0.206 OA
ATOM      9  O   UNL d   1       1.085   1.525  -0.294  0.00  0.00    -0.206 OA
BRANCH   7  10
ATOM     10  C   UNL d   1      -0.471  -0.071   1.052  0.00  0.00     0.098 A 
ATOM     11  C   UNL d   1      -1.700   0.507   0.702  0.00  0.00     0.078 A 
ATOM     12  C   UNL d   1      -2.776   0.387   1.601  0.00  0.00     0.057 A 
ATOM     13 CL   UNL d   1      -1.939   1.347  -0.797  0.00  0.00    -0.081 Cl
ATOM     14 CL   UNL d   1      -4.338   1.066   1.284  0.00  0.00    -0.083 Cl
ATOM     15  C   UNL d   1      -2.623  -0.295   2.813  0.00  0.00     0.026 A 
ATOM     16  C   UNL d   1      -1.398  -0.862   3.151  0.00  0.00     0.003 A 
ATOM     17  C   UNL d   1      -0.320  -0.746   2.276  0.00  0.00     0.027 A 
ENDBRANCH   7  10
ENDBRANCH   1   7
BRANCH   6  18
ATOM     18  N   UNL d   1       2.457  -2.607  -3.903  0.00  0.00    -0.356 N 
ATOM     19  C   UNL d   1       3.105  -2.648  -5.123  0.00  0.00     0.222 C 
ATOM     20  O   UNL d   1       2.517  -2.570  -6.199  0.00  0.00    -0.273 OA
ATOM     21  H   UNL d   1       3.026  -2.619  -3.065  0.00  0.00     0.162 HD
BRANCH  19  22
ATOM     22  C   UNL d   1       4.615  -2.813  -5.032  0.00  0.00     0.141 C 
BRANCH  22  23
ATOM     23  C   UNL d   1       5.032  -4.256  -4.890  0.00  0.00    -0.050 A 
ATOM     24  C   UNL d   1       4.702  -5.186  -5.886  0.00  0.00     0.007 A 
ATOM     25  C   UNL d   1       5.056  -6.529  -5.748  0.00  0.00     0.001 A 
ATOM     26  C   UNL d   1       5.757  -6.953  -4.622  0.00  0.00     0.000 A 
ATOM     27  C   UNL d   1       6.113  -6.032  -3.637  0.00  0.00     0.001 A 
ATOM     28  C   UNL d   1       5.755  -4.689  -3.770  0.00  0.00     0.007 A 
ENDBRANCH  22  23
ENDBRANCH  19  22
ENDBRANCH   6  18
TORSDOF 5
