REMARK  3 active torsions:
REMARK  status: ('A' for Active; 'I' for Inactive)
REMARK    1  A    between atoms: C_2  and  C_1 
REMARK    2  A    between atoms: C_4  and  C_2 
REMARK    3  A    between atoms: N_7  and  C_3 
ROOT
ATOM      1  C   UNL d   1      -1.080  -1.577  -0.097  0.00  0.00     0.017 A 
ATOM      2  C   UNL d   1      -1.530  -1.161   1.161  0.00  0.00     0.057 A 
ATOM      3  C   UNL d   1      -2.828  -1.464   1.557  0.00  0.00     0.117 A 
ATOM      4  F   UNL d   1      -3.255  -1.063   2.761  0.00  0.00    -0.206 F 
ATOM      5  C   UNL d   1      -1.936  -2.312  -0.931  0.00  0.00     0.015 A 
ATOM      6  C   UNL d   1      -3.239  -2.607  -0.520  0.00  0.00     0.004 A 
ATOM      7  C   UNL d   1      -3.687  -2.178   0.729  0.00  0.00     0.042 A 
ENDROOT
BRANCH   1   8
ATOM      8  C   UNL d   1       0.302  -1.293  -0.566  0.00  0.00     0.183 C 
ATOM      9  O   UNL d   1       0.866  -2.062  -1.336  0.00  0.00    -0.288 OA
BRANCH   8  10
ATOM     10  C   UNL d   1       0.930  -0.032  -0.088  0.00  0.00     0.072 C 
ATOM     11  C   UNL d   1       2.256   0.134  -0.132  0.00  0.00     0.088 C 
BRANCH  11  12
ATOM     12  N   UNL d   1       3.021   1.213   0.294  0.00  0.00    -0.398 N 
ATOM     13  C   UNL d   1       2.478   2.447   0.858  0.00  0.00     0.148 C 
ATOM     14  C   UNL d   1       4.481   1.212   0.170  0.00  0.00     0.148 C 
ENDBRANCH  11  12
ENDBRANCH   8  10
ENDBRANCH   1   8
TORSDOF 3
