REMARK  10 active torsions:
REMARK  status: ('A' for Active; 'I' for Inactive)
REMARK    1  A    between atoms: S_2  and  N_1 
REMARK    2  A    between atoms: S_3  and  N_1 
REMARK    3  A    between atoms: C_18  and  N_1 
REMARK    4  A    between atoms: C_4  and  S_2 
REMARK    5  A    between atoms: C_5  and  S_3 
REMARK    6  A    between atoms: C_6  and  C_10 
REMARK    7  A    between atoms: C_7  and  C_11 
REMARK    8  A    between atoms: C_8  and  C_12 
REMARK    9  A    between atoms: C_9  and  C_13 
REMARK   10  A    between atoms: C_37  and  C_18 
ROOT
ATOM      1  N   UNL d   1       0.996   0.054   0.099  0.00  0.00    -0.190 N 
ENDROOT
BRANCH   1   2
ATOM      2  S   UNL d   1       0.361  -1.384   0.707  0.00  0.00     0.274 S 
ATOM      3  O   UNL d   1      -0.832  -1.151   1.494  0.00  0.00    -0.199 OA
ATOM      4  O   UNL d   1       0.288  -2.335  -0.382  0.00  0.00    -0.199 OA
BRANCH   2   5
ATOM      5  C   UNL d   1       1.564  -2.053   1.861  0.00  0.00     0.082 A 
ATOM      6  C   UNL d   1       1.444  -1.778   3.230  0.00  0.00     0.041 A 
ATOM      7  C   UNL d   1       2.207  -2.501   4.164  0.00  0.00     0.050 A 
ATOM      8  C   UNL d   1       3.120  -3.467   3.702  0.00  0.00     0.032 A 
ATOM      9  C   UNL d   1       3.207  -3.790   2.338  0.00  0.00     0.050 A 
ATOM     10  C   UNL d   1       2.429  -3.068   1.419  0.00  0.00     0.041 A 
BRANCH   7  11
ATOM     11  C   UNL d   1       1.990  -2.349   5.657  0.00  0.00     0.417 C 
ATOM     12  F   UNL d   1       0.882  -1.628   5.974  0.00  0.00    -0.166 F 
ATOM     13  F   UNL d   1       1.839  -3.555   6.273  0.00  0.00    -0.166 F 
ATOM     14  F   UNL d   1       3.035  -1.740   6.278  0.00  0.00    -0.166 F 
ENDBRANCH   7  11
BRANCH   9  15
ATOM     15  C   UNL d   1       4.042  -4.976   1.902  0.00  0.00     0.417 C 
ATOM     16  F   UNL d   1       3.850  -5.327   0.603  0.00  0.00    -0.166 F 
ATOM     17  F   UNL d   1       5.377  -4.752   2.041  0.00  0.00    -0.166 F 
ATOM     18  F   UNL d   1       3.768  -6.090   2.635  0.00  0.00    -0.166 F 
ENDBRANCH   9  15
ENDBRANCH   2   5
ENDBRANCH   1   2
BRANCH   1  19
ATOM     19  S   UNL d   1       0.378   1.484   0.718  0.00  0.00     0.274 S 
ATOM     20  O   UNL d   1      -1.056   1.461   0.821  0.00  0.00    -0.199 OA
ATOM     21  O   UNL d   1       1.218   1.844   1.846  0.00  0.00    -0.199 OA
BRANCH  19  22
ATOM     22  C   UNL d   1       0.692   2.689  -0.575  0.00  0.00     0.082 A 
ATOM     23  C   UNL d   1       0.117   2.509  -1.841  0.00  0.00     0.041 A 
ATOM     24  C   UNL d   1       0.361   3.446  -2.860  0.00  0.00     0.050 A 
ATOM     25  C   UNL d   1       1.182   4.555  -2.583  0.00  0.00     0.032 A 
ATOM     26  C   UNL d   1       1.747   4.749  -1.310  0.00  0.00     0.050 A 
ATOM     27  C   UNL d   1       1.476   3.815  -0.298  0.00  0.00     0.041 A 
BRANCH  24  28
ATOM     28  C   UNL d   1      -0.231   3.292  -4.246  0.00  0.00     0.417 C 
ATOM     29  F   UNL d   1      -0.957   2.153  -4.401  0.00  0.00    -0.166 F 
ATOM     30  F   UNL d   1      -1.057   4.321  -4.575  0.00  0.00    -0.166 F 
ATOM     31  F   UNL d   1       0.731   3.259  -5.209  0.00  0.00    -0.166 F 
ENDBRANCH  24  28
BRANCH  26  32
ATOM     32  C   UNL d   1       2.661   5.930  -1.069  0.00  0.00     0.417 C 
ATOM     33  F   UNL d   1       3.102   6.020   0.215  0.00  0.00    -0.166 F 
ATOM     34  F   UNL d   1       3.778   5.867  -1.844  0.00  0.00    -0.166 F 
ATOM     35  F   UNL d   1       2.070   7.121  -1.353  0.00  0.00    -0.166 F 
ENDBRANCH  26  32
ENDBRANCH  19  22
ENDBRANCH   1  19
BRANCH   1  36
ATOM     36  C   UNL d   1       2.424   0.068  -0.288  0.00  0.00     0.193 C 
BRANCH  36  37
ATOM     37  C   UNL d   1       2.825  -0.779  -1.479  0.00  0.00    -0.038 A 
ATOM     38  C   UNL d   1       1.947  -1.045  -2.538  0.00  0.00     0.009 A 
ATOM     39  C   UNL d   1       2.341  -1.851  -3.609  0.00  0.00     0.001 A 
ATOM     40  C   UNL d   1       3.631  -2.371  -3.656  0.00  0.00     0.000 A 
ATOM     41  C   UNL d   1       4.536  -2.070  -2.643  0.00  0.00     0.001 A 
ATOM     42  C   UNL d   1       4.139  -1.272  -1.565  0.00  0.00     0.009 A 
ENDBRANCH  36  37
ENDBRANCH   1  36
TORSDOF 10
