REMARK  4 active torsions:
REMARK  status: ('A' for Active; 'I' for Inactive)
REMARK    1  A    between atoms: N_2  and  C_1 
REMARK    2  A    between atoms: C_5  and  C_4 
REMARK       I    between atoms: N_9  and  C_5 
REMARK    3  A    between atoms: C_8  and  N_10 
REMARK    4  A    between atoms: N_10  and  N_9 
ROOT
ATOM      1  C   UNL d   1      -0.977  -2.459  -0.014  0.00  0.00     0.293 C 
ATOM      2  N   UNL d   1      -2.360  -2.442  -0.028  0.00  0.00    -0.262 N 
ATOM      3  O   UNL d   1      -0.349  -3.517  -0.004  0.00  0.00    -0.264 OA
ATOM      4  H   UNL d   1      -2.900  -1.578  -0.039  0.00  0.00     0.190 HD
ENDROOT
BRANCH   1   5
ATOM      5  C   UNL d   1      -0.340  -1.156  -0.012  0.00  0.00     0.147 A 
ATOM      6  O   UNL d   1      -1.095  -0.005  -0.018  0.00  0.00    -0.283 OA
ATOM      7  C   UNL d   1      -0.207   1.032  -0.012  0.00  0.00     0.215 A 
ATOM      8  C   UNL d   1       1.093   0.588  -0.003  0.00  0.00     0.066 A 
ATOM      9  C   UNL d   1       1.006  -0.826  -0.003  0.00  0.00     0.048 A 
BRANCH   7  10
ATOM     10  N   UNL d   1      -0.752   2.354  -0.015  0.00  0.00    -0.090 N 
ATOM     11  O   UNL d   1       0.069   3.282  -0.011  0.00  0.00    -0.530 OA
ATOM     12  O   UNL d   1      -1.981   2.473  -0.022  0.00  0.00    -0.530 OA
ENDBRANCH   7  10
ENDBRANCH   1   5
BRANCH   2  13
ATOM     13  N   UNL d   1      -3.056  -3.658  -0.036  0.00  0.00    -0.274 N 
ATOM     14  H   UNL d   1      -2.485  -4.499  -0.016  0.00  0.00     0.189 HD
BRANCH  13  15
ATOM     15  C   UNL d   1      -4.426  -3.701  -0.045  0.00  0.00     0.184 C 
ATOM     16  S   UNL d   1      -5.448  -2.388  -0.057  0.00  0.00    -0.040 SA
ATOM     17  N   UNL d   1      -4.944  -4.958  -0.046  0.00  0.00    -0.375 N 
ATOM     18  H   UNL d   1      -4.380  -5.795  -0.053  0.00  0.00     0.158 HD
ATOM     19  H   UNL d   1      -5.951  -5.066  -0.060  0.00  0.00     0.158 HD
ENDBRANCH  13  15
ENDBRANCH   2  13
TORSDOF 4
