REMARK  3 active torsions:
REMARK  status: ('A' for Active; 'I' for Inactive)
REMARK    1  A    between atoms: O_4  and  C_3 
REMARK    2  A    between atoms: C_9  and  O_4 
REMARK    3  A    between atoms: N_8  and  C_6 
ROOT
ATOM      1  N   UNL d   1      -1.159   1.168  -0.898  0.00  0.00    -0.345 N 
ATOM      2  HN  UNL d   1      -1.724   1.811  -1.452  1.00  0.00     0.167 HD
ATOM      3  C   UNL d   1      -1.723   0.247  -0.086  0.00  0.00     0.148 A 
ATOM      4  C   UNL d   1       0.191   1.193  -0.939  0.00  0.00     0.113 A 
ATOM      5  C   UNL d   1       1.023   0.365  -0.188  0.00  0.00     0.021 A 
ATOM      6  C   UNL d   1      -0.995  -0.699   0.616  0.00  0.00     0.058 A 
ATOM      7  C   UNL d   1       0.398  -0.643   0.545  0.00  0.00     0.029 A 
ENDROOT
BRANCH   3   8
ATOM      8  O   UNL d   1      -3.105   0.216   0.060  0.00  0.00    -0.294 OA
BRANCH   8   9
ATOM      9  C   UNL d   1      -3.772   1.417  -0.053  0.00  0.00     0.077 A 
ATOM     10  C   UNL d   1      -5.001   1.401  -0.713  0.00  0.00     0.037 A 
ATOM     11  C   UNL d   1      -5.721   2.588  -0.872  0.00  0.00     0.003 A 
ATOM     12  C   UNL d   1      -5.217   3.785  -0.361  0.00  0.00     0.000 A 
ATOM     13  C   UNL d   1      -4.009   3.794   0.335  0.00  0.00     0.003 A 
ATOM     14  C   UNL d   1      -3.298   2.608   0.507  0.00  0.00     0.037 A 
ENDBRANCH   8   9
ENDBRANCH   3   8
BRANCH   5  15
ATOM     15  N   UNL d   1       2.414   0.385  -0.338  0.00  0.00    -0.302 NA
ATOM     16  H   UNL d   1       2.784   1.292  -0.608  0.00  0.00     0.124 HD
ATOM     17  H   UNL d   1       2.917  -0.010   0.451  0.00  0.00     0.124 HD
ENDBRANCH   5  15
TORSDOF 3
