REMARK  3 active torsions:
REMARK  status: ('A' for Active; 'I' for Inactive)
REMARK    1  A    between atoms: C_2  and  C_1 
REMARK    2  A    between atoms: O_3  and  C_1 
REMARK    3  A    between atoms: C_4  and  O_3 
ROOT
ATOM      1  C   UNL d   1       0.973  -0.186  -0.071  0.00  0.00     0.302 C 
ATOM      2  O   UNL d   1       2.165  -0.050  -0.266  0.00  0.00    -0.259 OA
ENDROOT
BRANCH   1   3
ATOM      3  C   UNL d   1       0.337  -1.052   0.972  0.00  0.00     0.083 A 
ATOM      4  C   UNL d   1       1.038  -1.348   2.156  0.00  0.00     0.052 A 
ATOM      5 CL   UNL d   1       2.617  -0.745   2.531  0.00  0.00    -0.083 Cl
ATOM      6  C   UNL d   1       0.465  -2.170   3.143  0.00  0.00     0.025 A 
ATOM      7  C   UNL d   1      -0.811  -2.691   2.984  0.00  0.00     0.003 A 
ATOM      8  C   UNL d   1      -1.515  -2.419   1.818  0.00  0.00     0.025 A 
ATOM      9  C   UNL d   1      -0.944  -1.631   0.807  0.00  0.00     0.052 A 
ATOM     10 CL   UNL d   1      -1.917  -1.527  -0.629  0.00  0.00    -0.083 Cl
ENDBRANCH   1   3
BRANCH   1  11
ATOM     11  O   UNL d   1      -0.025   0.470  -0.766  0.00  0.00    -0.271 OA
BRANCH  11  12
ATOM     12  C   UNL d   1       0.127   0.935  -2.097  0.00  0.00     0.122 A 
ATOM     13  C   UNL d   1       0.731   0.185  -3.116  0.00  0.00     0.069 A 
ATOM     14 CL   UNL d   1       1.420  -1.383  -2.884  0.00  0.00    -0.081 Cl
ATOM     15  C   UNL d   1       0.686   0.649  -4.435  0.00  0.00     0.027 A 
ATOM     16  C   UNL d   1      -0.002   1.821  -4.752  0.00  0.00     0.003 A 
ATOM     17  C   UNL d   1      -0.638   2.546  -3.746  0.00  0.00     0.027 A 
ATOM     18  C   UNL d   1      -0.569   2.108  -2.421  0.00  0.00     0.069 A 
ATOM     19 CL   UNL d   1      -1.423   3.011  -1.219  0.00  0.00    -0.081 Cl
ENDBRANCH  11  12
ENDBRANCH   1  11
TORSDOF 3
