REMARK  3 active torsions:
REMARK  status: ('A' for Active; 'I' for Inactive)
REMARK    1  A    between atoms: C_5  and  C_1 
REMARK    2  A    between atoms: N_9  and  C_2 
REMARK       I    between atoms: C_8  and  N_9 
REMARK       I    between atoms: N_10  and  C_8 
REMARK    3  A    between atoms: C_17  and  N_10 
ROOT
ATOM      1  C   UNL d   1      -1.214  -0.613   0.105  0.00  0.00     0.097 A 
ATOM      2  C   UNL d   1       0.057  -1.187  -0.239  0.00  0.00     0.097 A 
ATOM      3  N   UNL d   1      -1.115   0.720   0.198  0.00  0.00    -0.258 N 
ATOM      4  HN  UNL d   1      -1.860   1.374   0.439  1.00  0.00     0.195 HD
ATOM      5  C   UNL d   1       0.902  -0.104  -0.349  0.00  0.00     0.101 A 
ATOM      6  O   UNL d   1       0.193   1.032  -0.096  0.00  0.00    -0.240 OA
ATOM      7  C   UNL d   1       2.351   0.116  -0.523  0.00  0.00     0.081 C 
ENDROOT
BRANCH   2   8
ATOM      8  N   UNL d   1       0.329  -2.540  -0.314  0.00  0.00    -0.305 N 
ATOM      9  C   UNL d   1       1.280  -3.239  -0.978  0.00  0.00     0.321 C 
ATOM     10  N   UNL d   1       1.742  -2.689  -2.141  0.00  0.00    -0.337 N 
ATOM     11  O   UNL d   1       1.565  -4.368  -0.597  0.00  0.00    -0.247 OA
ATOM     12  H   UNL d   1       1.198  -1.914  -2.493  0.00  0.00     0.164 HD
ATOM     13  H   UNL d   1      -0.203  -3.133   0.317  0.00  0.00     0.171 HD
BRANCH  10  14
ATOM     14  C   UNL d   1       2.482  -3.473  -3.128  0.00  0.00     0.096 C 
ATOM     15  C   UNL d   1       3.846  -3.958  -2.637  0.00  0.00     0.036 C 
ATOM     16  C   UNL d   1       4.405  -4.896  -3.696  0.00  0.00     0.076 C 
ATOM     17  S   UNL d   1       2.984  -5.721  -4.463  0.00  0.00    -0.167 SA
ATOM     18  C   UNL d   1       1.730  -4.713  -3.627  0.00  0.00     0.099 C 
ENDBRANCH  10  14
ENDBRANCH   2   8
BRANCH   1  19
ATOM     19  C   UNL d   1      -2.501  -1.298   0.257  0.00  0.00     0.038 A 
ATOM     20  C   UNL d   1      -2.679  -2.334   1.195  0.00  0.00     0.048 A 
ATOM     21 CL   UNL d   1      -1.457  -2.792   2.335  0.00  0.00    -0.083 Cl
ATOM     22  C   UNL d   1      -3.879  -3.055   1.254  0.00  0.00     0.025 A 
ATOM     23  C   UNL d   1      -4.937  -2.734   0.410  0.00  0.00     0.003 A 
ATOM     24  C   UNL d   1      -4.795  -1.689  -0.497  0.00  0.00     0.025 A 
ATOM     25  C   UNL d   1      -3.587  -0.983  -0.585  0.00  0.00     0.048 A 
ATOM     26 CL   UNL d   1      -3.510   0.235  -1.817  0.00  0.00    -0.083 Cl
ENDBRANCH   1  19
TORSDOF 3
