REMARK  6 active torsions:
REMARK  status: ('A' for Active; 'I' for Inactive)
REMARK    1  A    between atoms: S_6  and  C_1 
REMARK       I    between atoms: N_9  and  C_1 
REMARK    2  A    between atoms: C_3  and  C_8 
REMARK    3  A    between atoms: C_4  and  C_14 
REMARK    4  A    between atoms: O_15  and  C_4 
REMARK    5  A    between atoms: C_5  and  N_9 
REMARK    6  A    between atoms: C_14  and  S_6 
ROOT
ATOM      1  C   UNL d   1       0.814  -0.121   0.009  0.00  0.00     0.284 C 
ATOM      2  N   UNL d   1       0.131   0.665  -0.884  0.00  0.00    -0.328 N 
ATOM      3  O   UNL d   1       0.334  -0.875   0.842  0.00  0.00    -0.260 OA
ATOM      4  H   UNL d   1       0.695   1.198  -1.534  0.00  0.00     0.169 HD
ENDROOT
BRANCH   2   5
ATOM      5  C   UNL d   1      -1.238   0.736  -0.932  0.00  0.00     0.092 C 
ATOM      6  C   UNL d   1      -1.913   1.471  -1.828  0.00  0.00     0.029 C 
BRANCH   6   7
ATOM      7  C   UNL d   1      -3.343   1.577  -1.871  0.00  0.00    -0.028 A 
ATOM      8  C   UNL d   1      -4.034   1.844  -3.034  0.00  0.00     0.061 A 
ATOM      9  S   UNL d   1      -5.730   1.905  -2.786  0.00  0.00    -0.113 SA
ATOM     10  C   UNL d   1      -5.551   1.597  -1.114  0.00  0.00     0.050 A 
ATOM     11  C   UNL d   1      -4.229   1.442  -0.756  0.00  0.00     0.019 A 
ENDBRANCH   6   7
ENDBRANCH   2   5
BRANCH   1  12
ATOM     12  S   UNL d   1       2.542   0.098  -0.170  0.00  0.00    -0.059 SA
BRANCH  12  13
ATOM     13  C   UNL d   1       3.058  -1.566   0.374  0.00  0.00     0.195 C 
BRANCH  13  14
ATOM     14  C   UNL d   1       2.484  -2.639  -0.528  0.00  0.00     0.268 C 
ATOM     15  O   UNL d   1       2.172  -2.484  -1.704  0.00  0.00    -0.264 OA
BRANCH  14  16
ATOM     16  O   UNL d   1       2.410  -3.827   0.138  0.00  0.00    -0.326 OA
ATOM     17  C   UNL d   1       1.834  -4.880  -0.636  0.00  0.00     0.213 C 
ENDBRANCH  14  16
ENDBRANCH  13  14
ENDBRANCH  12  13
ENDBRANCH   1  12
TORSDOF 6
