REMARK  7 active torsions:
REMARK  status: ('A' for Active; 'I' for Inactive)
REMARK    1  A    between atoms: C_14  and  N_2 
REMARK    2  A    between atoms: C_6  and  O_12 
REMARK    3  A    between atoms: C_7  and  O_19 
REMARK       I    between atoms: N_9  and  C_7 
REMARK    4  A    between atoms: C_18  and  N_9 
REMARK    5  A    between atoms: O_12  and  C_20 
REMARK    6  A    between atoms: C_21  and  C_14 
REMARK    7  A    between atoms: O_19  and  C_21 
ROOT
ATOM      1  C   UNL d   1       6.815  -0.690  -1.374  0.00  0.00     0.365 C 
ATOM      2  N   UNL d   1       7.704  -1.574  -1.926  0.00  0.00    -0.303 N 
ATOM      3  O   UNL d   1       6.875   0.506  -1.642  0.00  0.00    -0.238 OA
ATOM      4  H   UNL d   1       8.355  -1.098  -2.536  0.00  0.00     0.171 HD
ENDROOT
BRANCH   1   5
ATOM      5  O   UNL d   1       5.879  -1.250  -0.584  0.00  0.00    -0.302 OA
BRANCH   5   6
ATOM      6  C   UNL d   1       4.685  -0.489  -0.343  0.00  0.00     0.202 C 
BRANCH   6   7
ATOM      7  C   UNL d   1       3.538  -1.492  -0.389  0.00  0.00     0.179 C 
BRANCH   7   8
ATOM      8  N   UNL d   1       2.230  -0.863  -0.448  0.00  0.00    -0.255 N 
ATOM      9  C   UNL d   1       1.524  -0.620   0.729  0.00  0.00     0.273 A 
ATOM     10  C   UNL d   1       0.172  -0.058   0.571  0.00  0.00     0.045 A 
ATOM     11  O   UNL d   1       1.956  -0.859   1.854  0.00  0.00    -0.266 OA
ATOM     12  C   UNL d   1      -0.287   0.242  -0.705  0.00  0.00    -0.004 A 
ATOM     13  C   UNL d   1      -0.659   0.158   1.675  0.00  0.00     0.018 A 
ATOM     14  C   UNL d   1       0.607  -0.010  -1.825  0.00  0.00     0.119 A 
ATOM     15  C   UNL d   1      -1.567   0.758  -0.909  0.00  0.00     0.014 A 
ATOM     16  N   UNL d   1       1.786  -0.531  -1.708  0.00  0.00    -0.306 N 
ATOM     17  HN  UNL d   1       2.371  -0.691  -2.529  1.00  0.00     0.186 HD
ATOM     18  C   UNL d   1      -2.397   0.970   0.194  0.00  0.00     0.001 A 
ATOM     19  C   UNL d   1      -1.944   0.671   1.481  0.00  0.00     0.001 A 
ENDBRANCH   7   8
ENDBRANCH   6   7
ENDBRANCH   5   6
ENDBRANCH   1   5
BRANCH   2  20
ATOM     20  C   UNL d   1       7.805  -2.976  -1.848  0.00  0.00     0.037 A 
ATOM     21  C   UNL d   1       7.014  -3.800  -1.044  0.00  0.00     0.032 A 
ATOM     22  C   UNL d   1       7.222  -5.185  -1.016  0.00  0.00     0.039 A 
ATOM     23  C   UNL d   1       8.233  -5.763  -1.779  0.00  0.00     0.078 A 
ATOM     24  C   UNL d   1       8.979  -4.962  -2.637  0.00  0.00     0.039 A 
ATOM     25  C   UNL d   1       8.780  -3.577  -2.654  0.00  0.00     0.032 A 
BRANCH  23  26
ATOM     26  O   UNL d   1       8.354  -7.116  -1.711  0.00  0.00    -0.255 OA
BRANCH  26  27
ATOM     27  C   UNL d   1       9.666  -7.629  -1.497  0.00  0.00     0.530 C 
ATOM     28  F   UNL d   1      10.652  -6.718  -1.633  0.00  0.00    -0.144 F 
ATOM     29  F   UNL d   1       9.740  -8.149  -0.251  0.00  0.00    -0.144 F 
ATOM     30  F   UNL d   1       9.889  -8.626  -2.383  0.00  0.00    -0.144 F 
ENDBRANCH  26  27
ENDBRANCH  23  26
ENDBRANCH   2  20
TORSDOF 7
