REMARK  3 active torsions:
REMARK  status: ('A' for Active; 'I' for Inactive)
REMARK    1  A    between atoms: C_3  and  C_1 
REMARK       I    between atoms: N_7  and  C_3 
REMARK    2  A    between atoms: C_5  and  N_8 
REMARK    3  A    between atoms: N_8  and  N_7 
ROOT
ATOM      1  C   UNL d   1       3.401  -1.512  -0.076  0.00  0.00     0.273 C 
ATOM      2  N   UNL d   1       3.623  -2.882  -0.027  0.00  0.00    -0.282 N 
ATOM      3  O   UNL d   1       4.346  -0.722  -0.136  0.00  0.00    -0.266 OA
ATOM      4  H   UNL d   1       2.870  -3.546   0.126  0.00  0.00     0.184 HD
ENDROOT
BRANCH   2   5
ATOM      5  N   UNL d   1       4.945  -3.336   0.089  0.00  0.00    -0.201 NA
ATOM      6  H   UNL d   1       5.584  -2.598  -0.242  0.00  0.00     0.153 HD
BRANCH   5   7
ATOM      7  C   UNL d   1       5.238  -4.553  -0.588  0.00  0.00     0.051 A 
ATOM      8  C   UNL d   1       6.232  -5.347   0.016  0.00  0.00     0.050 A 
ATOM      9  C   UNL d   1       6.674  -6.530  -0.573  0.00  0.00     0.035 A 
ATOM     10 CL   UNL d   1       7.879  -7.478   0.207  0.00  0.00    -0.084 Cl
ATOM     11  C   UNL d   1       6.154  -6.944  -1.793  0.00  0.00     0.026 A 
ATOM     12  C   UNL d   1       5.196  -6.156  -2.430  0.00  0.00     0.027 A 
ATOM     13  C   UNL d   1       4.749  -4.960  -1.847  0.00  0.00     0.057 A 
ATOM     14 CL   UNL d   1       3.621  -4.035  -2.778  0.00  0.00    -0.082 Cl
ENDBRANCH   5   7
ENDBRANCH   2   5
BRANCH   1  15
ATOM     15  C   UNL d   1       2.009  -1.084  -0.059  0.00  0.00     0.075 A 
ATOM     16  S   UNL d   1       0.709  -2.191  -0.043  0.00  0.00    -0.084 SA
ATOM     17  C   UNL d   1      -0.475  -0.942  -0.083  0.00  0.00     0.016 A 
ATOM     18  C   UNL d   1      -1.874  -1.097  -0.112  0.00  0.00     0.019 A 
ATOM     19  C   UNL d   1       0.119   0.322  -0.087  0.00  0.00    -0.018 A 
ATOM     20  C   UNL d   1      -2.681   0.042  -0.151  0.00  0.00     0.001 A 
ATOM     21  C   UNL d   1      -2.113   1.308  -0.155  0.00  0.00     0.001 A 
ATOM     22  C   UNL d   1      -0.723   1.459  -0.120  0.00  0.00     0.013 A 
ATOM     23  C   UNL d   1       1.550   0.218  -0.063  0.00  0.00     0.037 A 
ENDBRANCH   1  15
TORSDOF 3
