REMARK  7 active torsions:
REMARK  status: ('A' for Active; 'I' for Inactive)
REMARK    1  A    between atoms: N_2  and  C_1 
REMARK    2  A    between atoms: C_3  and  C_6 
REMARK    3  A    between atoms: S_7  and  C_4 
REMARK    4  A    between atoms: C_21  and  S_7 
REMARK    5  A    between atoms: S_15  and  C_23 
REMARK    6  A    between atoms: C_19  and  S_15 
REMARK    7  A    between atoms: C_23  and  C_25 
ROOT
ATOM      1  C   UNL d   1       2.887  -3.106  -0.097  0.00  0.00     0.005 A 
ATOM      2  C   UNL d   1       5.702  -3.068   0.193  0.00  0.00    -0.049 A 
ATOM      3  C   UNL d   1       3.473  -2.618   1.076  0.00  0.00     0.019 A 
ATOM      4  C   UNL d   1       3.711  -3.652  -1.078  0.00  0.00     0.019 A 
ATOM      5  C   UNL d   1       5.099  -3.633  -0.942  0.00  0.00     0.009 A 
ATOM      6  C   UNL d   1       4.871  -2.595   1.218  0.00  0.00     0.009 A 
ENDROOT
BRANCH   1   7
ATOM      7  S   UNL d   1       1.117  -3.087  -0.343  0.00  0.00    -0.088 SA
BRANCH   7   8
ATOM      8  C   UNL d   1       0.850  -1.420  -0.944  0.00  0.00     0.038 A 
ATOM      9  C   UNL d   1       0.762  -1.038  -2.292  0.00  0.00     0.120 A 
ATOM     10  C   UNL d   1       0.499   0.291  -2.677  0.00  0.00     0.053 A 
ATOM     11  C   UNL d   1       0.296   1.278  -1.705  0.00  0.00     0.050 A 
ATOM     12  C   UNL d   1       0.345   0.903  -0.355  0.00  0.00     0.017 A 
ATOM     13  C   UNL d   1       0.618  -0.423   0.017  0.00  0.00     0.022 A 
BRANCH   9  14
ATOM     14  N   UNL d   1       0.877  -2.003  -3.368  0.00  0.00    -0.114 N 
ATOM     15  O   UNL d   1       1.962  -2.580  -3.511  0.00  0.00    -0.532 OA
ATOM     16  O   UNL d   1      -0.101  -2.118  -4.119  0.00  0.00    -0.532 OA
ENDBRANCH   9  14
BRANCH  11  17
ATOM     17  C   UNL d   1       0.017   2.714  -2.090  0.00  0.00     0.417 C 
ATOM     18  F   UNL d   1       0.035   2.926  -3.434  0.00  0.00    -0.166 F 
ATOM     19  F   UNL d   1      -1.202   3.139  -1.658  0.00  0.00    -0.166 F 
ATOM     20  F   UNL d   1       0.927   3.577  -1.562  0.00  0.00    -0.166 F 
ENDBRANCH  11  17
ENDBRANCH   7   8
ENDBRANCH   1   7
BRANCH   2  21
ATOM     21  C   UNL d   1       7.211  -2.943   0.273  0.00  0.00     0.117 C 
BRANCH  21  22
ATOM     22  S   UNL d   1       7.819  -1.801  -1.032  0.00  0.00    -0.125 SA
BRANCH  22  23
ATOM     23  C   UNL d   1       9.585  -1.863  -0.810  0.00  0.00     0.002 A 
ATOM     24  C   UNL d   1      10.188  -1.432   0.375  0.00  0.00     0.044 A 
ATOM     25  C   UNL d   1      11.584  -1.351   0.469  0.00  0.00     0.057 A 
ATOM     26 CL   UNL d   1      12.254  -0.778   1.957  0.00  0.00    -0.083 Cl
ATOM     27  C   UNL d   1      12.385  -1.700  -0.624  0.00  0.00     0.055 A 
ATOM     28  C   UNL d   1      11.784  -2.139  -1.806  0.00  0.00     0.027 A 
ATOM     29 CL   UNL d   1      14.108  -1.586  -0.590  0.00  0.00    -0.083 Cl
ATOM     30  C   UNL d   1      10.392  -2.215  -1.898  0.00  0.00     0.020 A 
ENDBRANCH  22  23
ENDBRANCH  21  22
ENDBRANCH   2  21
TORSDOF 7
