REMARK  4 active torsions:
REMARK  status: ('A' for Active; 'I' for Inactive)
REMARK    1  A    between atoms: O_10  and  N_7 
REMARK    2  A    between atoms: C_9  and  O_10 
REMARK    3  A    between atoms: C_11  and  C_9 
REMARK    4  A    between atoms: C_12  and  C_13 
ROOT
ATOM      1  C   UNL d   1      -0.672   0.502   0.089  0.00  0.00     0.024 A 
ATOM      2  C   UNL d   1      -1.121  -0.803   0.035  0.00  0.00     0.025 A 
ATOM      3  N   UNL d   1      -0.025  -1.631   0.007  0.00  0.00    -0.353 N 
ATOM      4  C   UNL d   1       0.752   0.472   0.103  0.00  0.00     0.005 A 
ATOM      5  C   UNL d   1       1.133  -0.872   0.040  0.00  0.00     0.045 A 
ATOM      6  C   UNL d   1      -1.612   1.614   0.067  0.00  0.00     0.045 C 
ATOM      7  N   UNL d   1      -1.141   2.803   0.284  0.00  0.00    -0.261 N 
ATOM      8  HN  UNL d   1      -0.185   2.985   0.590  1.00  0.00     0.194 HD
ATOM      9  C   UNL d   1      -2.551  -1.230  -0.028  0.00  0.00     0.058 C 
ATOM     10  C   UNL d   1      -0.036  -3.073  -0.086  0.00  0.00     0.156 C 
ATOM     11  C   UNL d   1       1.759   1.460   0.130  0.00  0.00     0.014 A 
ATOM     12  C   UNL d   1       2.485  -1.259   0.006  0.00  0.00     0.030 A 
ATOM     13  C   UNL d   1      -3.056   1.268  -0.281  0.00  0.00     0.060 C 
ATOM     14  C   UNL d   1      -3.465  -0.060   0.377  0.00  0.00     0.012 C 
ATOM     15  C   UNL d   1       3.105   1.084   0.090  0.00  0.00     0.001 A 
ATOM     16  C   UNL d   1       3.460  -0.258   0.028  0.00  0.00     0.002 A 
ENDROOT
BRANCH   7  17
ATOM     17  O   UNL d   1      -2.089   3.810   0.051  0.00  0.00    -0.195 OA
BRANCH  17  18
ATOM     18  C   UNL d   1      -1.602   4.995   0.525  0.00  0.00     0.315 C 
ATOM     19  O   UNL d   1      -1.055   5.183   1.602  0.00  0.00    -0.257 OA
BRANCH  18  20
ATOM     20  C   UNL d   1      -1.828   6.074  -0.478  0.00  0.00     0.041 A 
ATOM     21  C   UNL d   1      -1.480   7.387  -0.155  0.00  0.00     0.018 A 
ATOM     22  C   UNL d   1      -1.678   8.422  -1.079  0.00  0.00     0.009 A 
ATOM     23  C   UNL d   1      -2.239   8.175  -2.349  0.00  0.00    -0.051 A 
ATOM     24  C   UNL d   1      -2.530   6.840  -2.672  0.00  0.00     0.009 A 
ATOM     25  C   UNL d   1      -2.332   5.803  -1.754  0.00  0.00     0.018 A 
BRANCH  23  26
ATOM     26  C   UNL d   1      -2.563   9.338  -3.304  0.00  0.00    -0.024 C 
ATOM     27  C   UNL d   1      -3.239   8.883  -4.618  0.00  0.00     0.019 C 
ATOM     28  C   UNL d   1      -3.542  10.308  -2.606  0.00  0.00     0.019 C 
ATOM     29  C   UNL d   1      -1.285  10.109  -3.692  0.00  0.00     0.019 C 
ENDBRANCH  23  26
ENDBRANCH  18  20
ENDBRANCH  17  18
ENDBRANCH   7  17
TORSDOF 4
