REMARK  2 active torsions:
REMARK  status: ('A' for Active; 'I' for Inactive)
REMARK    1  A    between atoms: C_2  and  C_1 
REMARK       I    between atoms: N_6  and  C_2 
REMARK    2  A    between atoms: C_12  and  N_6 
ROOT
ATOM      1  C   UNL d   1      -1.394   2.070  -0.173  0.00  0.00     0.282 C 
ATOM      2  N   UNL d   1      -0.693   3.249   0.027  0.00  0.00    -0.320 N 
ATOM      3  O   UNL d   1      -0.876   0.997  -0.470  0.00  0.00    -0.265 OA
ATOM      4  H   UNL d   1      -1.232   4.043   0.355  0.00  0.00     0.169 HD
ENDROOT
BRANCH   2   5
ATOM      5  C   UNL d   1       0.691   3.448  -0.168  0.00  0.00     0.050 A 
ATOM      6  C   UNL d   1       1.563   2.514  -0.723  0.00  0.00     0.117 A 
ATOM      7  N   UNL d   1       2.889   2.732  -0.926  0.00  0.00    -0.373 N 
ATOM      8  C   UNL d   1       3.373   3.933  -0.554  0.00  0.00     0.088 A 
ATOM      9  HN  UNL d   1       3.489   2.019  -1.341  1.00  0.00     0.164 HD
ATOM     10  C   UNL d   1       2.595   4.928   0.009  0.00  0.00     0.019 A 
ATOM     11  C   UNL d   1       1.234   4.681   0.199  0.00  0.00     0.032 A 
ENDBRANCH   2   5
BRANCH   1  12
ATOM     12  C   UNL d   1      -2.822   2.188   0.003  0.00  0.00     0.167 A 
ATOM     13  O   UNL d   1      -3.379   3.408   0.256  0.00  0.00    -0.233 OA
ATOM     14  N   UNL d   1      -4.756   3.277   0.351  0.00  0.00    -0.272 N 
ATOM     15  C   UNL d   1      -5.003   1.980   0.156  0.00  0.00     0.117 A 
ATOM     16  HN  UNL d   1      -5.436   4.016   0.532  1.00  0.00     0.194 HD
ATOM     17  C   UNL d   1      -3.825   1.247  -0.059  0.00  0.00     0.064 A 
ENDBRANCH   1  12
TORSDOF 2
