REMARK  5 active torsions:
REMARK  status: ('A' for Active; 'I' for Inactive)
REMARK    1  A    between atoms: N_2  and  S_1 
REMARK    2  A    between atoms: C_6  and  S_1 
REMARK       I    between atoms: C_4  and  N_2 
REMARK    3  A    between atoms: C_8  and  C_4 
REMARK    4  A    between atoms: C_5  and  O_9 
REMARK    5  A    between atoms: O_9  and  C_19 
ROOT
ATOM      1  N   UNL d   1       0.651  -0.969  -1.107  0.00  0.00    -0.279 N 
ATOM      2  HN  UNL d   1       0.366  -1.927  -0.902  1.00  0.00     0.179 HD
ATOM      3  C   UNL d   1       0.772  -0.540  -2.443  0.00  0.00     0.262 C 
ATOM      4  O   UNL d   1       1.642   0.246  -2.799  0.00  0.00    -0.267 OA
ENDROOT
BRANCH   3   5
ATOM      5  C   UNL d   1      -0.112  -1.126  -3.511  0.00  0.00     0.033 A 
ATOM      6  C   UNL d   1      -0.142  -0.560  -4.795  0.00  0.00     0.020 A 
ATOM      7  C   UNL d   1      -0.999  -1.069  -5.784  0.00  0.00     0.038 A 
ATOM      8  C   UNL d   1      -1.802  -2.175  -5.513  0.00  0.00     0.078 A 
ATOM      9  C   UNL d   1      -1.774  -2.736  -4.230  0.00  0.00     0.038 A 
ATOM     10  C   UNL d   1      -0.937  -2.221  -3.236  0.00  0.00     0.020 A 
BRANCH   8  11
ATOM     11  O   UNL d   1      -2.662  -2.798  -6.365  0.00  0.00    -0.255 OA
BRANCH  11  12
ATOM     12  C   UNL d   1      -2.555  -2.606  -7.767  0.00  0.00     0.530 C 
ATOM     13  F   UNL d   1      -1.317  -2.253  -8.169  0.00  0.00    -0.144 F 
ATOM     14  F   UNL d   1      -2.865  -3.773  -8.376  0.00  0.00    -0.144 F 
ATOM     15  F   UNL d   1      -3.439  -1.671  -8.173  0.00  0.00    -0.144 F 
ENDBRANCH  11  12
ENDBRANCH   8  11
ENDBRANCH   3   5
BRANCH   1  16
ATOM     16  S   UNL d   1       0.949   0.007   0.039  0.00  0.00     0.055 S 
ATOM     17  O   UNL d   1       0.497   1.389   0.087  0.00  0.00    -0.245 OA
ATOM     18  C   UNL d   1       2.695  -0.011   0.393  0.00  0.00     0.142 C 
BRANCH  16  19
ATOM     19  C   UNL d   1       0.319  -0.759   1.533  0.00  0.00     0.038 A 
ATOM     20  C   UNL d   1       0.248  -2.153   1.631  0.00  0.00     0.023 A 
ATOM     21  C   UNL d   1      -0.128  -2.732   2.845  0.00  0.00     0.025 A 
ATOM     22  C   UNL d   1      -0.432  -1.922   3.940  0.00  0.00     0.034 A 
ATOM     23  C   UNL d   1      -0.393  -0.531   3.829  0.00  0.00     0.025 A 
ATOM     24 CL   UNL d   1      -0.830  -2.641   5.450  0.00  0.00    -0.084 Cl
ATOM     25  C   UNL d   1      -0.024   0.056   2.618  0.00  0.00     0.023 A 
ENDBRANCH  16  19
ENDBRANCH   1  16
TORSDOF 5
