REMARK  4 active torsions:
REMARK  status: ('A' for Active; 'I' for Inactive)
REMARK       I    between atoms: N_3  and  C_1 
REMARK    1  A    between atoms: C_11  and  C_1 
REMARK    2  A    between atoms: C_2  and  O_10 
REMARK    3  A    between atoms: C_15  and  N_3 
REMARK    4  A    between atoms: O_10  and  C_16 
ROOT
ATOM      1  C   UNL d   1       4.521   5.728  -2.214  0.00  0.00     0.117 A 
ATOM      2  N   UNL d   1       3.501   7.950  -4.780  0.00  0.00    -0.191 NA
ATOM      3  N   UNL d   1       4.728   3.920   0.868  0.00  0.00    -0.191 NA
ATOM      4  C   UNL d   1       5.026   6.461  -3.302  0.00  0.00     0.080 A 
ATOM      5  C   UNL d   1       5.418   5.045  -1.369  0.00  0.00     0.080 A 
ATOM      6  C   UNL d   1       4.164   7.269  -4.117  0.00  0.00     0.102 C 
ATOM      7  C   UNL d   1       5.009   4.420  -0.141  0.00  0.00     0.102 C 
ATOM      8  C   UNL d   1       6.784   5.005  -1.693  0.00  0.00     0.026 A 
ATOM      9  C   UNL d   1       6.397   6.433  -3.594  0.00  0.00     0.026 A 
ATOM     10  C   UNL d   1       7.270   5.686  -2.806  0.00  0.00     0.003 A 
ENDROOT
BRANCH   1  11
ATOM     11  O   UNL d   1       3.155   5.792  -2.003  0.00  0.00    -0.308 OA
BRANCH  11  12
ATOM     12  C   UNL d   1       2.467   4.622  -1.762  0.00  0.00     0.076 C 
ATOM     13  C   UNL d   1       1.374   4.715  -0.901  0.00  0.00     0.039 C 
ATOM     14  C   UNL d   1       0.708   3.557  -0.482  0.00  0.00     0.032 C 
ATOM     15  C   UNL d   1       1.144   2.299  -0.911  0.00  0.00     0.035 C 
ATOM     16  C   UNL d   1       2.164   2.229  -1.863  0.00  0.00     0.032 C 
ATOM     17  C   UNL d   1       2.812   3.385  -2.305  0.00  0.00     0.039 C 
BRANCH  15  18
ATOM     18  N   UNL d   1       0.530   1.155  -0.352  0.00  0.00    -0.323 N 
ATOM     19  C   UNL d   1       1.060  -0.126  -0.376  0.00  0.00     0.256 C 
ATOM     20  O   UNL d   1       2.156  -0.453  -0.825  0.00  0.00    -0.267 OA
ATOM     21  H   UNL d   1      -0.249   1.322   0.272  0.00  0.00     0.169 HD
BRANCH  19  22
ATOM     22  C   UNL d   1       0.228  -1.195   0.244  0.00  0.00     0.032 A 
ATOM     23  C   UNL d   1      -1.173  -1.177   0.178  0.00  0.00     0.018 A 
ATOM     24  C   UNL d   1      -1.905  -2.254   0.688  0.00  0.00     0.025 A 
ATOM     25  C   UNL d   1      -1.245  -3.343   1.258  0.00  0.00     0.034 A 
ATOM     26  C   UNL d   1       0.147  -3.366   1.333  0.00  0.00     0.025 A 
ATOM     27 CL   UNL d   1      -2.151  -4.683   1.842  0.00  0.00    -0.084 Cl
ATOM     28  C   UNL d   1       0.882  -2.294   0.823  0.00  0.00     0.018 A 
ENDBRANCH  19  22
ENDBRANCH  15  18
ENDBRANCH  11  12
ENDBRANCH   1  11
TORSDOF 4
