REMARK  4 active torsions:
REMARK  status: ('A' for Active; 'I' for Inactive)
REMARK    1  A    between atoms: N_5  and  C_1 
REMARK    2  A    between atoms: S_9  and  C_2 
REMARK    3  A    between atoms: C_8  and  C_10 
REMARK    4  A    between atoms: C_13  and  S_9 
ROOT
ATOM      1  C   UNL d   1       5.027  -2.927   0.537  0.00  0.00     0.063 A 
ATOM      2  N   UNL d   1       2.809  -2.748   1.500  0.00  0.00    -0.359 N 
ATOM      3  HN  UNL d   1       2.213  -2.658   2.323  1.00  0.00     0.166 HD
ATOM      4  C   UNL d   1       2.282  -2.796   0.254  0.00  0.00     0.075 A 
ATOM      5  C   UNL d   1       4.158  -2.824   1.615  0.00  0.00     0.105 A 
ATOM      6  C   UNL d   1       4.462  -2.937  -0.740  0.00  0.00     0.020 A 
ATOM      7  C   UNL d   1       3.076  -2.881  -0.885  0.00  0.00     0.038 A 
ENDROOT
BRANCH   4   8
ATOM      8  S   UNL d   1       0.507  -2.902   0.141  0.00  0.00    -0.051 SA
BRANCH   8   9
ATOM      9  C   UNL d   1       0.112  -1.222  -0.058  0.00  0.00     0.129 A 
ATOM     10  C   UNL d   1      -0.096  -0.424  -1.171  0.00  0.00     0.209 A 
ATOM     11  N   UNL d   1      -0.534   0.837  -0.800  0.00  0.00    -0.331 N 
ATOM     12  C   UNL d   1      -0.604   0.800   0.510  0.00  0.00     0.185 A 
ATOM     13  HN  UNL d   1      -0.755   1.622  -1.412  1.00  0.00     0.168 HD
ATOM     14  N   UNL d   1      -0.199  -0.411   1.010  0.00  0.00    -0.338 N 
ATOM     15  C   UNL d   1      -0.171  -0.708   2.423  0.00  0.00     0.158 C 
BRANCH  10  16
ATOM     16  N   UNL d   1       0.046  -0.746  -2.575  0.00  0.00    -0.095 N 
ATOM     17  O   UNL d   1       0.508  -1.858  -2.866  0.00  0.00    -0.530 OA
ATOM     18  O   UNL d   1      -0.286   0.118  -3.398  0.00  0.00    -0.530 OA
ENDBRANCH  10  16
ENDBRANCH   8   9
ENDBRANCH   4   8
BRANCH   1  19
ATOM     19  C   UNL d   1       6.506  -3.048   0.746  0.00  0.00     0.418 C 
ATOM     20  F   UNL d   1       6.870  -3.075   2.057  0.00  0.00    -0.166 F 
ATOM     21  F   UNL d   1       7.018  -4.182   0.195  0.00  0.00    -0.166 F 
ATOM     22  F   UNL d   1       7.198  -2.016   0.188  0.00  0.00    -0.166 F 
ENDBRANCH   1  19
TORSDOF 4
