REMARK  6 active torsions:
REMARK  status: ('A' for Active; 'I' for Inactive)
REMARK    1  A    between atoms: C_15  and  C_1 
REMARK    2  A    between atoms: C_3  and  S_11 
REMARK    3  A    between atoms: S_11  and  C_5 
REMARK    4  A    between atoms: C_16  and  C_7 
REMARK    5  A    between atoms: O_26  and  C_16 
REMARK    6  A    between atoms: C_29  and  O_26 
ROOT
ATOM      1  C   UNL d   1       2.926  -2.372   0.915  0.00  0.00     0.042 A 
ATOM      2  C   UNL d   1       2.155  -2.862  -0.123  0.00  0.00     0.064 A 
ATOM      3  C   UNL d   1       4.343  -2.530   0.665  0.00  0.00    -0.018 A 
ATOM      4  C   UNL d   1       4.596  -3.152  -0.554  0.00  0.00     0.088 A 
ATOM      5  S   UNL d   1       3.128  -3.550  -1.347  0.00  0.00    -0.075 SA
ATOM      6  C   UNL d   1       2.428  -1.718   2.126  0.00  0.00     0.162 C 
ATOM      7  C   UNL d   1       5.386  -1.998   1.625  0.00  0.00     0.050 C 
ATOM      8  C   UNL d   1       4.817  -1.659   3.031  0.00  0.00    -0.037 C 
ATOM      9  C   UNL d   1       3.461  -0.928   2.917  0.00  0.00     0.093 C 
ATOM     10  O   UNL d   1       1.253  -1.748   2.481  0.00  0.00    -0.292 OA
ATOM     11  C   UNL d   1       5.804  -0.729   3.764  0.00  0.00     0.015 C 
ATOM     12  C   UNL d   1       4.664  -2.944   3.871  0.00  0.00     0.015 C 
ENDROOT
BRANCH   2  13
ATOM     13  S   UNL d   1       0.413  -2.690  -0.351  0.00  0.00    -0.044 SA
BRANCH  13  14
ATOM     14  C   UNL d   1      -0.088  -4.245   0.213  0.00  0.00     0.168 A 
ATOM     15  N   UNL d   1      -1.033  -4.443   1.190  0.00  0.00    -0.312 N 
ATOM     16  C   UNL d   1      -1.207  -5.811   1.265  0.00  0.00     0.209 A 
ATOM     17  C   UNL d   1      -1.678  -3.430   1.989  0.00  0.00     0.160 C 
ATOM     18  N   UNL d   1      -0.416  -6.381   0.369  0.00  0.00    -0.279 N 
ATOM     19  N   UNL d   1       0.280  -5.399  -0.286  0.00  0.00    -0.278 N 
ATOM     20  HN  UNL d   1      -0.338  -7.383   0.195  1.00  0.00     0.188 HD
ATOM     21  HN  UNL d   1       0.962  -5.542  -1.031  1.00  0.00     0.189 HD
BRANCH  16  22
ATOM     22  C   UNL d   1      -2.122  -6.534   2.189  0.00  0.00     0.450 C 
ATOM     23  F   UNL d   1      -2.711  -5.727   3.112  0.00  0.00    -0.163 F 
ATOM     24  F   UNL d   1      -3.135  -7.149   1.524  0.00  0.00    -0.163 F 
ATOM     25  F   UNL d   1      -1.476  -7.497   2.898  0.00  0.00    -0.163 F 
ENDBRANCH  16  22
ENDBRANCH  13  14
ENDBRANCH   2  13
BRANCH   4  26
ATOM     26  C   UNL d   1       5.891  -3.444  -1.163  0.00  0.00     0.300 C 
ATOM     27  O   UNL d   1       6.978  -3.203  -0.645  0.00  0.00    -0.259 OA
BRANCH  26  28
ATOM     28  O   UNL d   1       5.750  -4.000  -2.403  0.00  0.00    -0.317 OA
BRANCH  28  29
ATOM     29  C   UNL d   1       6.959  -4.335  -3.100  0.00  0.00     0.174 C 
ATOM     30  C   UNL d   1       7.483  -3.131  -3.862  0.00  0.00     0.034 C 
ENDBRANCH  28  29
ENDBRANCH  26  28
ENDBRANCH   4  26
TORSDOF 6
