REMARK  6 active torsions:
REMARK  status: ('A' for Active; 'I' for Inactive)
REMARK    1  A    between atoms: C_5  and  C_1 
REMARK    2  A    between atoms: O_16  and  C_1 
REMARK    3  A    between atoms: C_2  and  C_6 
REMARK    4  A    between atoms: N_7  and  O_14 
REMARK    5  A    between atoms: O_14  and  C_21 
REMARK    6  A    between atoms: C_21  and  C_18 
ROOT
ATOM      1  C   UNL d   1       3.079   5.264  -2.716  0.00  0.00     0.038 C 
ATOM      2  N   UNL d   1       1.812   5.357  -2.436  0.00  0.00    -0.270 N 
ATOM      3  HN  UNL d   1       1.219   4.577  -2.152  1.00  0.00     0.194 HD
ATOM      4  C   UNL d   1       3.922   6.470  -3.094  0.00  0.00     0.071 C 
ENDROOT
BRANCH   2   5
ATOM      5  O   UNL d   1       1.377   6.685  -2.582  0.00  0.00    -0.276 OA
BRANCH   5   6
ATOM      6  C   UNL d   1       0.224   6.908  -1.771  0.00  0.00     0.239 C 
BRANCH   6   7
ATOM      7  C   UNL d   1      -0.200   8.347  -1.944  0.00  0.00    -0.031 A 
ATOM      8  C   UNL d   1       0.702   9.393  -1.679  0.00  0.00     0.027 A 
ATOM      9  C   UNL d   1       0.331  10.732  -1.874  0.00  0.00     0.040 A 
ATOM     10  C   UNL d   1      -0.966  11.026  -2.316  0.00  0.00     0.017 A 
ATOM     11  C   UNL d   1      -1.873   9.994  -2.562  0.00  0.00     0.002 A 
ATOM     12  C   UNL d   1      -1.493   8.664  -2.379  0.00  0.00     0.009 A 
BRANCH   9  13
ATOM     13  C   UNL d   1       1.342  11.794  -1.610  0.00  0.00     0.292 C 
ATOM     14  O   UNL d   1       2.442  11.572  -1.129  0.00  0.00    -0.259 OA
BRANCH  13  15
ATOM     15  O   UNL d   1       0.869  13.008  -1.989  0.00  0.00    -0.323 OA
ATOM     16  C   UNL d   1       1.769  14.105  -1.812  0.00  0.00     0.213 C 
ENDBRANCH  13  15
ENDBRANCH   9  13
ENDBRANCH   6   7
ENDBRANCH   5   6
ENDBRANCH   2   5
BRANCH   1  17
ATOM     17  C   UNL d   1       3.742   3.929  -2.651  0.00  0.00    -0.010 A 
ATOM     18  C   UNL d   1       3.010   2.783  -2.990  0.00  0.00     0.039 A 
ATOM     19  C   UNL d   1       3.616   1.523  -2.947  0.00  0.00     0.056 A 
ATOM     20 CL   UNL d   1       2.662   0.154  -3.398  0.00  0.00    -0.083 Cl
ATOM     21  C   UNL d   1       4.953   1.402  -2.550  0.00  0.00     0.055 A 
ATOM     22  C   UNL d   1       5.677   2.544  -2.196  0.00  0.00     0.026 A 
ATOM     23 CL   UNL d   1       5.767  -0.119  -2.473  0.00  0.00    -0.083 Cl
ATOM     24  C   UNL d   1       5.074   3.804  -2.241  0.00  0.00     0.015 A 
ENDBRANCH   1  17
TORSDOF 6
