REMARK  4 active torsions:
REMARK  status: ('A' for Active; 'I' for Inactive)
REMARK    1  A    between atoms: C_4  and  C_1 
REMARK    2  A    between atoms: C_2  and  C_5 
REMARK    3  A    between atoms: S_3  and  C_2 
REMARK    4  A    between atoms: C_14  and  S_3 
ROOT
ATOM      1  C   UNL d   1       0.720  -1.175   0.712  0.00  0.00     0.048 A 
ATOM      2  C   UNL d   1       0.131  -3.143   2.654  0.00  0.00     0.021 A 
ATOM      3  C   UNL d   1       0.858  -2.540   0.415  0.00  0.00     0.017 A 
ATOM      4  C   UNL d   1       0.264  -0.805   1.985  0.00  0.00     0.017 A 
ATOM      5  C   UNL d   1       0.565  -3.517   1.375  0.00  0.00     0.017 A 
ATOM      6  C   UNL d   1      -0.023  -1.779   2.946  0.00  0.00     0.017 A 
ENDROOT
BRANCH   2   7
ATOM      7  C   UNL d   1      -0.138  -4.113   3.754  0.00  0.00     0.224 C 
ATOM      8  O   UNL d   1      -0.069  -3.750   4.922  0.00  0.00    -0.279 OA
BRANCH   7   9
ATOM      9  S   UNL d   1      -0.539  -5.769   3.334  0.00  0.00    -0.048 SA
BRANCH   9  10
ATOM     10  C   UNL d   1      -2.144  -6.053   4.069  0.00  0.00     0.008 A 
ATOM     11  C   UNL d   1      -2.844  -5.126   4.849  0.00  0.00     0.021 A 
ATOM     12  C   UNL d   1      -4.122  -5.420   5.340  0.00  0.00     0.025 A 
ATOM     13  C   UNL d   1      -4.712  -6.647   5.055  0.00  0.00     0.034 A 
ATOM     14  C   UNL d   1      -4.025  -7.592   4.300  0.00  0.00     0.025 A 
ATOM     15 CL   UNL d   1      -6.296  -6.991   5.628  0.00  0.00    -0.084 Cl
ATOM     16  C   UNL d   1      -2.747  -7.296   3.813  0.00  0.00     0.021 A 
ENDBRANCH   9  10
ENDBRANCH   7   9
ENDBRANCH   2   7
BRANCH   1  17
ATOM     17  C   UNL d   1       1.070  -0.107  -0.300  0.00  0.00     0.417 C 
ATOM     18  F   UNL d   1       1.541  -0.606  -1.476  0.00  0.00    -0.166 F 
ATOM     19  F   UNL d   1       2.030   0.746   0.156  0.00  0.00    -0.166 F 
ATOM     20  F   UNL d   1       0.002   0.671  -0.624  0.00  0.00    -0.166 F 
ENDBRANCH   1  17
TORSDOF 4
