REMARK  3 active torsions:
REMARK  status: ('A' for Active; 'I' for Inactive)
REMARK    1  A    between atoms: C_4  and  C_1 
REMARK    2  A    between atoms: C_9  and  C_4 
REMARK    3  A    between atoms: C_6  and  C_10 
ROOT
ATOM      1  C   UNL d   1       2.595   1.341   0.072  0.00  0.00     0.091 C 
ATOM      2  C   UNL d   1       2.982  -0.076   0.271  0.00  0.00     0.302 C 
ATOM      3  C   UNL d   1       1.295   1.679  -0.009  0.00  0.00     0.036 C 
ATOM      4  O   UNL d   1       1.986  -1.034   0.111  0.00  0.00    -0.274 OA
ATOM      5  C   UNL d   1       0.255   0.664   0.015  0.00  0.00     0.001 A 
ATOM      6  C   UNL d   1       0.632  -0.675   0.035  0.00  0.00     0.089 A 
ATOM      7  O   UNL d   1       4.128  -0.416   0.547  0.00  0.00    -0.259 OA
ATOM      8  C   UNL d   1      -1.104   0.983  -0.005  0.00  0.00     0.038 A 
ATOM      9  C   UNL d   1      -0.306  -1.704   0.014  0.00  0.00     0.040 A 
ATOM     10  C   UNL d   1      -2.055  -0.042  -0.011  0.00  0.00     0.035 A 
ATOM     11  C   UNL d   1      -1.662  -1.382  -0.008  0.00  0.00     0.026 A 
ATOM     12 CL   UNL d   1      -3.730   0.352  -0.021  0.00  0.00    -0.084 Cl
ENDROOT
BRANCH   1  13
ATOM     13  C   UNL d   1       3.566   2.479   0.031  0.00  0.00     0.198 C 
ATOM     14  O   UNL d   1       3.216   3.613   0.358  0.00  0.00    -0.286 OA
BRANCH  13  15
ATOM     15  C   UNL d   1       4.973   2.279  -0.412  0.00  0.00     0.016 A 
ATOM     16  C   UNL d   1       5.341   1.323  -1.366  0.00  0.00     0.031 A 
ATOM     17  C   UNL d   1       6.693   1.122  -1.695  0.00  0.00     0.048 A 
ATOM     18  C   UNL d   1       7.666   1.953  -1.118  0.00  0.00     0.016 A 
ATOM     19  C   UNL d   1       7.297   2.956  -0.222  0.00  0.00     0.002 A 
ATOM     20  C   UNL d   1       5.957   3.116   0.132  0.00  0.00     0.015 A 
BRANCH  17  21
ATOM     21  C   UNL d   1       7.106   0.011  -2.630  0.00  0.00     0.417 C 
ATOM     22  F   UNL d   1       6.058  -0.734  -3.083  0.00  0.00    -0.166 F 
ATOM     23  F   UNL d   1       7.739   0.476  -3.743  0.00  0.00    -0.166 F 
ATOM     24  F   UNL d   1       7.967  -0.869  -2.049  0.00  0.00    -0.166 F 
ENDBRANCH  17  21
ENDBRANCH  13  15
ENDBRANCH   1  13
TORSDOF 3
