REMARK  6 active torsions:
REMARK  status: ('A' for Active; 'I' for Inactive)
REMARK    1  A    between atoms: C_8  and  C_1 
REMARK    2  A    between atoms: S_7  and  C_2 
REMARK    3  A    between atoms: C_6  and  C_4 
REMARK    4  A    between atoms: O_11  and  C_6 
REMARK    5  A    between atoms: O_12  and  C_8 
REMARK    6  A    between atoms: C_15  and  O_11 
ROOT
ATOM      1  C   UNL d   1       1.183   0.045   0.008  0.00  0.00     0.001 A 
ATOM      2  C   UNL d   1       0.188  -0.933  -0.011  0.00  0.00     0.051 A 
ATOM      3  C   UNL d   1       0.587   1.389  -0.062  0.00  0.00    -0.028 A 
ATOM      4  C   UNL d   1      -0.801   1.354  -0.086  0.00  0.00     0.087 A 
ATOM      5  S   UNL d   1      -1.376  -0.243  -0.120  0.00  0.00    -0.076 SA
ATOM      6  C   UNL d   1       1.366   2.676  -0.045  0.00  0.00     0.050 C 
ENDROOT
BRANCH   4   7
ATOM      7  C   UNL d   1      -1.703   2.499  -0.043  0.00  0.00     0.300 C 
ATOM      8  O   UNL d   1      -1.345   3.674  -0.056  0.00  0.00    -0.259 OA
BRANCH   7   9
ATOM      9  O   UNL d   1      -3.001   2.114   0.132  0.00  0.00    -0.317 OA
BRANCH   9  10
ATOM     10  C   UNL d   1      -3.871   3.128   0.650  0.00  0.00     0.174 C 
ATOM     11  C   UNL d   1      -3.833   3.046   2.166  0.00  0.00     0.034 C 
ENDBRANCH   9  10
ENDBRANCH   7   9
ENDBRANCH   4   7
BRANCH   1  12
ATOM     12  C   UNL d   1       2.698  -0.094   0.110  0.00  0.00     0.149 C 
ATOM     13  C   UNL d   1       3.350  -1.463   0.072  0.00  0.00     0.044 C 
BRANCH  12  14
ATOM     14  O   UNL d   1       3.165   0.549   1.304  0.00  0.00    -0.391 OA
ATOM     15  H   UNL d   1       2.630   0.193   2.034  0.00  0.00     0.210 HD
ENDBRANCH  12  14
ENDBRANCH   1  12
BRANCH   2  16
ATOM     16  S   UNL d   1       0.410  -2.690   0.085  0.00  0.00    -0.126 SA
ATOM     17  C   UNL d   1      -1.247  -3.399  -0.018  0.00  0.00     0.096 C 
ENDBRANCH   2  16
TORSDOF 6
