REMARK  3 active torsions:
REMARK  status: ('A' for Active; 'I' for Inactive)
REMARK    1  A    between atoms: S_2  and  C_3 
REMARK    2  A    between atoms: C_14  and  S_2 
REMARK    3  A    between atoms: C_7  and  C_4 
ROOT
ATOM      1  C   UNL d   1       4.363   1.597   0.031  0.00  0.00     0.145 C 
ATOM      2  C   UNL d   1       3.919   0.326   0.109  0.00  0.00     0.054 C 
ATOM      3  C   UNL d   1       5.726   1.969   0.021  0.00  0.00     0.112 C 
ATOM      4  N   UNL d   1       6.842   2.291   0.018  0.00  0.00    -0.191 NA
ENDROOT
BRANCH   1   5
ATOM      5  S   UNL d   1       3.181   2.864   0.022  0.00  0.00     0.216 S 
ATOM      6  O   UNL d   1       2.039   2.454  -0.779  0.00  0.00    -0.216 OA
ATOM      7  O   UNL d   1       2.970   3.313   1.387  0.00  0.00    -0.216 OA
BRANCH   5   8
ATOM      8  C   UNL d   1       3.927   4.233  -0.860  0.00  0.00     0.065 A 
ATOM      9  C   UNL d   1       3.792   4.318  -2.252  0.00  0.00     0.025 A 
ATOM     10  C   UNL d   1       4.315   5.424  -2.929  0.00  0.00     0.025 A 
ATOM     11  C   UNL d   1       4.956   6.439  -2.217  0.00  0.00     0.034 A 
ATOM     12  C   UNL d   1       5.075   6.363  -0.830  0.00  0.00     0.025 A 
ATOM     13 CL   UNL d   1       5.584   7.804  -3.054  0.00  0.00    -0.084 Cl
ATOM     14  C   UNL d   1       4.553   5.261  -0.144  0.00  0.00     0.025 A 
ENDBRANCH   5   8
ENDBRANCH   1   5
BRANCH   2  15
ATOM     15  C   UNL d   1       4.806  -0.789   0.087  0.00  0.00     0.015 A 
ATOM     16  S   UNL d   1       5.314  -1.377  -1.474  0.00  0.00    -0.082 SA
ATOM     17  C   UNL d   1       6.294  -2.512  -0.752  0.00  0.00     0.057 A 
ATOM     18  C   UNL d   1       6.259  -2.491   0.589  0.00  0.00     0.002 A 
ATOM     19  S   UNL d   1       7.312  -3.670  -1.390  0.00  0.00    -0.093 SA
ATOM     20  C   UNL d   1       5.336  -1.559   1.135  0.00  0.00    -0.032 A 
ATOM     21  C   UNL d   1       7.154  -3.402   1.207  0.00  0.00    -0.043 A 
ATOM     22  C   UNL d   1       4.974  -1.399   2.576  0.00  0.00     0.050 C 
ATOM     23  C   UNL d   1       7.467  -3.579   2.653  0.00  0.00     0.049 C 
ATOM     24  C   UNL d   1       7.773  -4.149   0.204  0.00  0.00     0.058 A 
ENDBRANCH   2  15
TORSDOF 3
