REMARK  3 active torsions:
REMARK  status: ('A' for Active; 'I' for Inactive)
REMARK    1  A    between atoms: C_6  and  C_2 
REMARK    2  A    between atoms: C_7  and  C_3 
REMARK    3  A    between atoms: O_11  and  C_6 
ROOT
ATOM      1  S   UNL d   1      -1.045  -0.022  -0.016  0.00  0.00    -0.081 SA
ATOM      2  C   UNL d   1       0.110   1.240  -0.056  0.00  0.00     0.079 A 
ATOM      3  C   UNL d   1       0.156  -1.247   0.047  0.00  0.00     0.032 A 
ATOM      4  C   UNL d   1       1.395   0.735  -0.060  0.00  0.00     0.027 A 
ATOM      5  C   UNL d   1       1.421  -0.690  -0.021  0.00  0.00     0.023 A 
ENDROOT
BRANCH   3   6
ATOM      6  C   UNL d   1      -0.207  -2.668   0.139  0.00  0.00     0.049 A 
ATOM      7  N   UNL d   1       0.686  -3.511  -0.437  0.00  0.00    -0.365 N 
ATOM      8  C   UNL d   1       0.423  -4.835  -0.368  0.00  0.00     0.088 A 
ATOM      9  HN  UNL d   1       1.521  -3.159  -0.905  1.00  0.00     0.165 HD
ATOM     10  C   UNL d   1      -0.686  -5.369   0.265  0.00  0.00     0.017 A 
ATOM     11  C   UNL d   1      -1.586  -4.495   0.860  0.00  0.00     0.004 A 
ATOM     12  C   UNL d   1      -1.347  -3.124   0.797  0.00  0.00     0.031 A 
ENDBRANCH   3   6
BRANCH   2  13
ATOM     13  C   UNL d   1      -0.274   2.640  -0.078  0.00  0.00     0.183 C 
ATOM     14  O   UNL d   1       0.504   3.585  -0.071  0.00  0.00    -0.646 OA
BRANCH  13  15
ATOM     15  O   UNL d   1      -1.620   2.829  -0.105  0.00  0.00    -0.772 OA
ATOM     16  H   UNL d   1      -2.099   1.977  -0.118  0.00  0.00     0.167 HD
ENDBRANCH  13  15
ENDBRANCH   2  13
TORSDOF 3
