REMARK  3 active torsions:
REMARK  status: ('A' for Active; 'I' for Inactive)
REMARK    1  A    between atoms: N_5  and  N_1 
REMARK    2  A    between atoms: N_4  and  C_9 
REMARK    3  A    between atoms: C_17  and  C_14 
ROOT
ATOM      1  N   UNL d   1       3.312   0.004  -0.271  0.00  0.00    -0.299 N 
ATOM      2  HN  UNL d   1       3.751  -0.887  -0.500  1.00  0.00     0.186 HD
ATOM      3  C   UNL d   1       4.038   1.059  -0.103  0.00  0.00     0.119 C 
ENDROOT
BRANCH   1   4
ATOM      4  N   UNL d   1       1.949   0.083  -0.141  0.00  0.00    -0.182 N 
ATOM      5  C   UNL d   1       1.179   1.183   0.177  0.00  0.00     0.280 A 
ATOM      6  C   UNL d   1      -0.209   0.735   0.112  0.00  0.00     0.050 A 
ATOM      7  O   UNL d   1       1.472   2.330   0.463  0.00  0.00    -0.265 OA
ATOM      8  C   UNL d   1      -1.377   1.448   0.307  0.00  0.00     0.018 A 
ATOM      9  C   UNL d   1      -0.215  -0.606  -0.225  0.00  0.00     0.050 A 
ATOM     10  C   UNL d   1      -2.581   0.758   0.147  0.00  0.00     0.001 A 
ATOM     11  C   UNL d   1      -2.590  -0.610  -0.193  0.00  0.00     0.001 A 
ATOM     12  C   UNL d   1      -1.393  -1.311  -0.382  0.00  0.00     0.018 A 
ATOM     13  C   UNL d   1       1.173  -1.034  -0.384  0.00  0.00     0.280 A 
ATOM     14  O   UNL d   1       1.483  -2.174  -0.686  0.00  0.00    -0.265 OA
ENDBRANCH   1   4
BRANCH   3  15
ATOM     15  C   UNL d   1       5.508   1.006  -0.267  0.00  0.00    -0.019 A 
ATOM     16  C   UNL d   1       6.148  -0.188  -0.621  0.00  0.00     0.015 A 
ATOM     17  C   UNL d   1       7.536  -0.216  -0.776  0.00  0.00     0.037 A 
ATOM     18  C   UNL d   1       8.278   0.957  -0.575  0.00  0.00     0.102 A 
ATOM     19  C   UNL d   1       7.639   2.155  -0.224  0.00  0.00     0.037 A 
ATOM     20  C   UNL d   1       6.250   2.177  -0.071  0.00  0.00     0.015 A 
BRANCH  18  21
ATOM     21  N   UNL d   1       9.738   0.929  -0.731  0.00  0.00    -0.116 N 
ATOM     22  O   UNL d   1      10.357   1.987  -0.545  0.00  0.00    -0.532 OA
ATOM     23  O   UNL d   1      10.265  -0.150  -1.036  0.00  0.00    -0.532 OA
ENDBRANCH  18  21
ENDBRANCH   3  15
TORSDOF 3
