REMARK  5 active torsions:
REMARK  status: ('A' for Active; 'I' for Inactive)
REMARK    1  A    between atoms: C_6  and  N_2 
REMARK    2  A    between atoms: C_10  and  C_6 
REMARK       I    between atoms: C_7  and  N_8 
REMARK    3  A    between atoms: C_13  and  C_7 
REMARK    4  A    between atoms: N_8  and  N_12 
REMARK    5  A    between atoms: C_9  and  C_10 
REMARK       I    between atoms: N_12  and  C_9 
ROOT
ATOM      1  C   UNL d   1       3.964  -4.027  -0.029  0.00  0.00     0.237 C 
ATOM      2  N   UNL d   1       4.761  -4.553   0.970  0.00  0.00    -0.267 N 
ATOM      3  O   UNL d   1       3.581  -4.685  -0.996  0.00  0.00    -0.272 OA
ATOM      4  H   UNL d   1       4.819  -4.116   1.893  0.00  0.00     0.190 HD
ENDROOT
BRANCH   1   5
ATOM      5  C   UNL d   1       3.677  -2.550   0.118  0.00  0.00     0.125 C 
BRANCH   5   6
ATOM      6  C   UNL d   1       2.192  -2.232  -0.037  0.00  0.00     0.144 C 
BRANCH   6   7
ATOM      7  N   UNL d   1       1.308  -2.796   0.965  0.00  0.00    -0.290 N 
ATOM      8  C   UNL d   1       1.566  -3.010   2.304  0.00  0.00     0.372 A 
ATOM      9  O   UNL d   1       0.422  -3.447   2.986  0.00  0.00    -0.259 OA
ATOM     10  O   UNL d   1       2.647  -2.857   2.861  0.00  0.00    -0.237 OA
ATOM     11  C   UNL d   1      -0.540  -3.429   1.992  0.00  0.00     0.107 A 
ATOM     12  C   UNL d   1      -1.867  -3.763   2.160  0.00  0.00     0.040 A 
ATOM     13  C   UNL d   1      -0.041  -3.020   0.772  0.00  0.00     0.073 A 
ATOM     14  C   UNL d   1      -2.703  -3.667   1.044  0.00  0.00     0.003 A 
ATOM     15  C   UNL d   1      -2.196  -3.231  -0.196  0.00  0.00     0.002 A 
ATOM     16  C   UNL d   1      -0.845  -2.898  -0.341  0.00  0.00     0.033 A 
ENDBRANCH   6   7
ENDBRANCH   5   6
ENDBRANCH   1   5
BRANCH   2  17
ATOM     17  N   UNL d   1       5.040  -5.926   0.920  0.00  0.00    -0.263 N 
ATOM     18  C   UNL d   1       5.707  -6.519   1.973  0.00  0.00     0.270 C 
ATOM     19  O   UNL d   1       6.093  -5.912   2.966  0.00  0.00    -0.266 OA
ATOM     20  H   UNL d   1       4.898  -6.378   0.019  0.00  0.00     0.190 HD
BRANCH  18  21
ATOM     21  C   UNL d   1       5.961  -7.980   1.830  0.00  0.00     0.033 A 
ATOM     22  C   UNL d   1       7.128  -8.529   2.378  0.00  0.00     0.019 A 
ATOM     23  C   UNL d   1       7.386  -9.898   2.248  0.00  0.00     0.025 A 
ATOM     24  C   UNL d   1       6.471 -10.718   1.589  0.00  0.00     0.034 A 
ATOM     25  C   UNL d   1       5.292 -10.184   1.069  0.00  0.00     0.025 A 
ATOM     26 CL   UNL d   1       6.791 -12.399   1.418  0.00  0.00    -0.084 Cl
ATOM     27  C   UNL d   1       5.035  -8.815   1.189  0.00  0.00     0.019 A 
ENDBRANCH  18  21
ENDBRANCH   2  17
TORSDOF 5
