REMARK  2 active torsions:
REMARK  status: ('A' for Active; 'I' for Inactive)
REMARK    1  A    between atoms: C_6  and  C_2 
REMARK    2  A    between atoms: S_13  and  C_3 
ROOT
ATOM      1  C   UNL d   1      -0.748   0.016  -0.164  0.00  0.00     0.080 A 
ATOM      2  C   UNL d   1      -0.118  -1.271  -0.003  0.00  0.00     0.010 A 
ATOM      3  C   UNL d   1       0.152   1.062  -0.042  0.00  0.00     0.062 A 
ATOM      4  C   UNL d   1       1.233  -1.129   0.245  0.00  0.00     0.065 A 
ATOM      5  S   UNL d   1       1.742   0.499   0.239  0.00  0.00    -0.092 SA
ATOM      6  C   UNL d   1      -2.146   0.242  -0.371  0.00  0.00     0.102 C 
ATOM      7  N   UNL d   1      -3.284   0.421  -0.518  0.00  0.00    -0.191 NA
ENDROOT
BRANCH   2   8
ATOM      8  C   UNL d   1      -0.777  -2.632  -0.067  0.00  0.00     0.017 A 
ATOM      9  S   UNL d   1      -0.070  -4.055   0.591  0.00  0.00    -0.101 SA
ATOM     10  C   UNL d   1      -1.420  -5.013   0.171  0.00  0.00     0.050 A 
ATOM     11  C   UNL d   1      -2.370  -4.288  -0.509  0.00  0.00     0.008 A 
ATOM     12  C   UNL d   1      -1.997  -2.916  -0.649  0.00  0.00     0.020 A 
ENDBRANCH   2   8
BRANCH   3  13
ATOM     13  S   UNL d   1      -0.157   2.795  -0.178  0.00  0.00    -0.126 SA
ATOM     14  C   UNL d   1      -1.088   3.096   1.344  0.00  0.00     0.096 C 
ENDBRANCH   3  13
TORSDOF 2
