REMARK  4 active torsions:
REMARK  status: ('A' for Active; 'I' for Inactive)
REMARK    1  A    between atoms: C_2  and  C_1 
REMARK       I    between atoms: N_4  and  C_1 
REMARK    2  A    between atoms: S_5  and  C_3 
REMARK    3  A    between atoms: C_6  and  N_4 
REMARK    4  A    between atoms: C_12  and  S_5 
ROOT
ATOM      1  C   UNL d   1       0.239   1.024   0.639  0.00  0.00     0.066 A 
ATOM      2  C   UNL d   1      -0.486   0.605   1.760  0.00  0.00     0.090 A 
ATOM      3  N   UNL d   1      -1.188   1.494   2.517  0.00  0.00    -0.359 N 
ATOM      4  HN  UNL d   1      -1.730   1.174   3.319  1.00  0.00     0.166 HD
ATOM      5  C   UNL d   1       0.226   2.395   0.319  0.00  0.00     0.021 A 
ATOM      6  C   UNL d   1      -1.156   2.804   2.194  0.00  0.00     0.089 A 
ATOM      7  C   UNL d   1      -0.457   3.301   1.118  0.00  0.00     0.018 A 
ENDROOT
BRANCH   1   8
ATOM      8  C   UNL d   1       0.860   0.090  -0.334  0.00  0.00     0.259 C 
ATOM      9  N   UNL d   1       2.055   0.418  -0.951  0.00  0.00    -0.321 N 
ATOM     10  H   UNL d   1       2.093   0.096  -1.915  0.00  0.00     0.169 HD
ATOM     11  O   UNL d   1       0.217  -0.873  -0.753  0.00  0.00    -0.267 OA
BRANCH   9  12
ATOM     12  C   UNL d   1       3.030   1.343  -0.539  0.00  0.00     0.057 A 
ATOM     13  C   UNL d   1       3.593   2.230  -1.474  0.00  0.00     0.062 A 
ATOM     14  C   UNL d   1       4.515   3.194  -1.067  0.00  0.00     0.050 A 
ATOM     15 CL   UNL d   1       3.071   2.237  -3.122  0.00  0.00    -0.082 Cl
ATOM     16  C   UNL d   1       4.922   3.232   0.264  0.00  0.00     0.035 A 
ATOM     17  C   UNL d   1       4.417   2.318   1.188  0.00  0.00     0.026 A 
ATOM     18 CL   UNL d   1       6.054   4.422   0.774  0.00  0.00    -0.084 Cl
ATOM     19  C   UNL d   1       3.459   1.381   0.791  0.00  0.00     0.033 A 
ENDBRANCH   9  12
ENDBRANCH   1   8
BRANCH   2  20
ATOM     20  S   UNL d   1      -0.648  -1.103   2.245  0.00  0.00    -0.072 SA
BRANCH  20  21
ATOM     21  C   UNL d   1      -0.310  -1.217   3.996  0.00  0.00     0.008 A 
ATOM     22  C   UNL d   1       0.181  -2.447   4.460  0.00  0.00     0.042 A 
ATOM     23  C   UNL d   1       0.414  -2.656   5.821  0.00  0.00     0.035 A 
ATOM     24 CL   UNL d   1       0.998  -4.181   6.365  0.00  0.00    -0.084 Cl
ATOM     25  C   UNL d   1       0.166  -1.646   6.746  0.00  0.00     0.024 A 
ATOM     26  C   UNL d   1      -0.327  -0.424   6.304  0.00  0.00     0.003 A 
ATOM     27  C   UNL d   1      -0.571  -0.217   4.941  0.00  0.00     0.019 A 
ENDBRANCH  20  21
ENDBRANCH   2  20
TORSDOF 4
