REMARK  6 active torsions:
REMARK  status: ('A' for Active; 'I' for Inactive)
REMARK    1  A    between atoms: N_8  and  C_1 
REMARK    2  A    between atoms: C_9  and  N_2 
REMARK    3  A    between atoms: C_3  and  S_5 
REMARK    4  A    between atoms: S_5  and  C_4 
REMARK    5  A    between atoms: O_24  and  C_12 
REMARK    6  A    between atoms: C_17  and  C_14 
ROOT
ATOM      1  N   UNL d   1       3.207  -2.247   1.025  0.00  0.00    -0.254 N 
ATOM      2  C   UNL d   1       2.417  -2.795   0.013  0.00  0.00     0.175 A 
ATOM      3  N   UNL d   1       3.172  -3.328  -0.921  0.00  0.00    -0.276 N 
ATOM      4  HN  UNL d   1       2.844  -3.834  -1.743  1.00  0.00     0.189 HD
ATOM      5  C   UNL d   1       4.497  -2.397   0.530  0.00  0.00     0.245 A 
ATOM      6  N   UNL d   1       4.478  -3.083  -0.592  0.00  0.00    -0.263 N 
ATOM      7  HN  UNL d   1       5.294  -3.380  -1.126  1.00  0.00     0.190 HD
ENDROOT
BRANCH   2   8
ATOM      8  S   UNL d   1       0.701  -2.737  -0.078  0.00  0.00    -0.030 SA
BRANCH   8   9
ATOM      9  C   UNL d   1       0.031  -4.281   0.361  0.00  0.00     0.131 A 
ATOM     10  C   UNL d   1      -1.309  -4.661   0.267  0.00  0.00     0.209 A 
ATOM     11  N   UNL d   1      -1.511  -5.940   0.733  0.00  0.00    -0.331 N 
ATOM     12  C   UNL d   1      -0.336  -6.353   1.109  0.00  0.00     0.185 A 
ATOM     13  HN  UNL d   1      -2.392  -6.453   0.774  1.00  0.00     0.168 HD
ATOM     14  N   UNL d   1       0.643  -5.387   0.919  0.00  0.00    -0.338 N 
ATOM     15  C   UNL d   1       1.996  -5.668   1.337  0.00  0.00     0.158 C 
BRANCH  10  16
ATOM     16  N   UNL d   1      -2.461  -3.907  -0.201  0.00  0.00    -0.095 N 
ATOM     17  O   UNL d   1      -2.288  -2.731  -0.553  0.00  0.00    -0.530 OA
ATOM     18  O   UNL d   1      -3.559  -4.484  -0.200  0.00  0.00    -0.530 OA
ENDBRANCH  10  16
ENDBRANCH   8   9
ENDBRANCH   2   8
BRANCH   1  19
ATOM     19  C   UNL d   1       2.795  -1.684   2.278  0.00  0.00     0.060 A 
ATOM     20  C   UNL d   1       3.422  -1.976   3.514  0.00  0.00     0.075 A 
ATOM     21  C   UNL d   1       2.909  -1.366   4.686  0.00  0.00     0.018 A 
ATOM     22  C   UNL d   1       1.786  -0.544   4.658  0.00  0.00     0.001 A 
ATOM     23  C   UNL d   1       1.165  -0.281   3.449  0.00  0.00     0.002 A 
ATOM     24  C   UNL d   1       1.679  -0.823   2.272  0.00  0.00     0.031 A 
BRANCH  20  25
ATOM     25  C   UNL d   1       4.580  -2.925   3.749  0.00  0.00     0.419 C 
ATOM     26  F   UNL d   1       4.770  -3.836   2.765  0.00  0.00    -0.166 F 
ATOM     27  F   UNL d   1       5.749  -2.240   3.885  0.00  0.00    -0.166 F 
ATOM     28  F   UNL d   1       4.436  -3.657   4.888  0.00  0.00    -0.166 F 
ENDBRANCH  20  25
ENDBRANCH   1  19
BRANCH   5  29
ATOM     29  O   UNL d   1       5.620  -1.911   1.034  0.00  0.00    -0.331 OA
ATOM     30  H   UNL d   1       5.438  -1.294   1.758  0.00  0.00     0.221 HD
ENDBRANCH   5  29
TORSDOF 6
