REMARK  3 active torsions:
REMARK  status: ('A' for Active; 'I' for Inactive)
REMARK    1  A    between atoms: C_16  and  N_5 
REMARK    2  A    between atoms: C_19  and  C_14 
REMARK    3  A    between atoms: N_15  and  C_17 
ROOT
ATOM      1  C   UNL d   1      -1.048  -0.890  -0.005  0.00  0.00     0.140 A 
ATOM      2  C   UNL d   1      -0.459   0.338  -0.041  0.00  0.00     0.114 A 
ATOM      3  C   UNL d   1       1.775  -0.684  -0.021  0.00  0.00     0.139 A 
ATOM      4  N   UNL d   1      -2.459  -0.922   0.096  0.00  0.00    -0.288 N 
ATOM      5  N   UNL d   1      -0.213  -2.077  -0.011  0.00  0.00    -0.261 N 
ATOM      6  C   UNL d   1       0.957   0.415  -0.048  0.00  0.00     0.129 A 
ATOM      7  N   UNL d   1      -2.625   1.436  -0.058  0.00  0.00    -0.270 N 
ATOM      8  C   UNL d   1      -3.266   0.219  -0.024  0.00  0.00     0.332 C 
ATOM      9  C   UNL d   1       1.226  -2.015  -0.010  0.00  0.00     0.283 A 
ATOM     10  C   UNL d   1      -1.258   1.587  -0.019  0.00  0.00     0.268 C 
ATOM     11  N   UNL d   1       3.098  -0.338  -0.021  0.00  0.00    -0.329 N 
ATOM     12  HN  UNL d   1       3.912  -0.952  -0.017  1.00  0.00     0.168 HD
ATOM     13  O   UNL d   1       1.802   1.509  -0.052  0.00  0.00    -0.289 OA
ATOM     14  C   UNL d   1       3.070   0.978  -0.028  0.00  0.00     0.159 A 
ATOM     15  O   UNL d   1      -4.496   0.143  -0.072  0.00  0.00    -0.246 OA
ATOM     16  O   UNL d   1      -0.718   2.688   0.028  0.00  0.00    -0.267 OA
ATOM     17  O   UNL d   1       1.975  -2.991  -0.028  0.00  0.00    -0.265 OA
ATOM     18  C   UNL d   1      -3.244  -2.120   0.370  0.00  0.00     0.163 C 
ATOM     19  C   UNL d   1      -3.427   2.648  -0.051  0.00  0.00     0.164 C 
ENDROOT
BRANCH  14  20
ATOM     20  C   UNL d   1       4.215   1.886   0.033  0.00  0.00     0.015 A 
ATOM     21  C   UNL d   1       4.086   3.281   0.041  0.00  0.00     0.018 A 
ATOM     22  C   UNL d   1       5.219   4.102   0.150  0.00  0.00     0.037 A 
ATOM     23  C   UNL d   1       6.494   3.525   0.250  0.00  0.00     0.102 A 
ATOM     24  C   UNL d   1       6.643   2.136   0.224  0.00  0.00     0.037 A 
ATOM     25  C   UNL d   1       5.507   1.329   0.114  0.00  0.00     0.018 A 
BRANCH  23  26
ATOM     26  N   UNL d   1       7.680   4.379   0.394  0.00  0.00    -0.116 N 
ATOM     27  O   UNL d   1       7.506   5.605   0.430  0.00  0.00    -0.532 OA
ATOM     28  O   UNL d   1       8.785   3.823   0.477  0.00  0.00    -0.532 OA
ENDBRANCH  23  26
ENDBRANCH  14  20
BRANCH   5  29
ATOM     29  C   UNL d   1      -0.679  -3.426  -0.142  0.00  0.00     0.044 A 
ATOM     30  C   UNL d   1      -0.339  -4.372   0.841  0.00  0.00     0.030 A 
ATOM     31  C   UNL d   1      -0.718  -5.706   0.705  0.00  0.00     0.002 A 
ATOM     32  C   UNL d   1      -1.437  -6.107  -0.417  0.00  0.00     0.000 A 
ATOM     33  C   UNL d   1      -1.770  -5.179  -1.405  0.00  0.00     0.002 A 
ATOM     34  C   UNL d   1      -1.382  -3.842  -1.278  0.00  0.00     0.030 A 
ENDBRANCH   5  29
TORSDOF 3
