REMARK  3 active torsions:
REMARK  status: ('A' for Active; 'I' for Inactive)
REMARK    1  A    between atoms: C_8  and  C_1 
REMARK    2  A    between atoms: C_9  and  N_2 
REMARK    3  A    between atoms: C_7  and  C_10 
ROOT
ATOM      1  C   UNL d   1      -0.350   1.229   0.001  0.00  0.00     0.050 C 
ATOM      2  N   UNL d   1       0.996  -0.553  -0.066  0.00  0.00    -0.260 N 
ATOM      3  C   UNL d   1       0.988   0.837  -0.015  0.00  0.00     0.046 C 
ATOM      4  N   UNL d   1      -0.259  -1.034  -0.281  0.00  0.00    -0.304 N 
ATOM      5  HN  UNL d   1      -0.529  -1.996  -0.488  1.00  0.00     0.186 HD
ATOM      6  C   UNL d   1      -1.055   0.025  -0.164  0.00  0.00     0.124 C 
ATOM      7  C   UNL d   1       2.198   1.706  -0.062  0.00  0.00     0.071 C 
ENDROOT
BRANCH   2   8
ATOM      8  C   UNL d   1       2.075  -1.474   0.070  0.00  0.00     0.056 A 
ATOM      9  C   UNL d   1       3.227  -1.153   0.796  0.00  0.00     0.032 A 
ATOM     10  C   UNL d   1       4.276  -2.074   0.898  0.00  0.00     0.018 A 
ATOM     11  C   UNL d   1       4.187  -3.333   0.288  0.00  0.00     0.048 A 
ATOM     12  C   UNL d   1       3.017  -3.663  -0.411  0.00  0.00     0.018 A 
ATOM     13  C   UNL d   1       1.964  -2.748  -0.507  0.00  0.00     0.032 A 
BRANCH  11  14
ATOM     14  C   UNL d   1       5.315  -4.332   0.389  0.00  0.00     0.417 C 
ATOM     15  F   UNL d   1       6.394  -3.865   1.079  0.00  0.00    -0.166 F 
ATOM     16  F   UNL d   1       4.940  -5.481   1.016  0.00  0.00    -0.166 F 
ATOM     17  F   UNL d   1       5.790  -4.708  -0.831  0.00  0.00    -0.166 F 
ENDBRANCH  11  14
ENDBRANCH   2   8
BRANCH   1  18
ATOM     18  C   UNL d   1      -0.851   2.598   0.115  0.00  0.00     0.159 C 
ATOM     19  O   UNL d   1      -0.086   3.551   0.262  0.00  0.00    -0.293 OA
ATOM     20  C   UNL d   1      -2.336   2.862   0.038  0.00  0.00     0.097 C 
ENDBRANCH   1  18
TORSDOF 3
