REMARK  4 active torsions:
REMARK  status: ('A' for Active; 'I' for Inactive)
REMARK    1  A    between atoms: O_4  and  C_1 
REMARK    2  A    between atoms: S_2  and  O_4 
REMARK    3  A    between atoms: C_9  and  S_2 
REMARK    4  A    between atoms: C_12  and  N_3 
ROOT
ATOM      1  C   UNL d   1      -0.504  -1.089  -0.230  0.00  0.00     0.184 C 
ATOM      2  N   UNL d   1       0.824  -0.729  -0.002  0.00  0.00    -0.233 N 
ATOM      3  C   UNL d   1      -1.184   0.095  -0.417  0.00  0.00     0.085 C 
ATOM      4  N   UNL d   1       0.924   0.616   0.217  0.00  0.00    -0.296 N 
ATOM      5  HN  UNL d   1       1.743   1.131   0.541  1.00  0.00     0.187 HD
ATOM      6  C   UNL d   1      -0.277   1.111  -0.083  0.00  0.00     0.026 C 
ATOM      7  C   UNL d   1      -0.541   2.567  -0.029  0.00  0.00     0.070 C 
ENDROOT
BRANCH   1   8
ATOM      8  O   UNL d   1      -0.925  -2.358  -0.263  0.00  0.00    -0.209 OA
BRANCH   8   9
ATOM      9  S   UNL d   1      -2.434  -2.780   0.236  0.00  0.00     0.304 S 
ATOM     10  O   UNL d   1      -2.412  -2.970   1.673  0.00  0.00    -0.193 OA
ATOM     11  O   UNL d   1      -3.417  -1.913  -0.388  0.00  0.00    -0.193 OA
BRANCH   9  12
ATOM     12  C   UNL d   1      -2.658  -4.394  -0.483  0.00  0.00     0.086 A 
ATOM     13  C   UNL d   1      -1.890  -5.464  -0.017  0.00  0.00     0.027 A 
ATOM     14  C   UNL d   1      -2.090  -6.735  -0.562  0.00  0.00     0.025 A 
ATOM     15  C   UNL d   1      -3.053  -6.925  -1.556  0.00  0.00     0.034 A 
ATOM     16  C   UNL d   1      -3.821  -5.855  -2.014  0.00  0.00     0.025 A 
ATOM     17 CL   UNL d   1      -3.302  -8.495  -2.214  0.00  0.00    -0.084 Cl
ATOM     18  C   UNL d   1      -3.627  -4.582  -1.477  0.00  0.00     0.027 A 
ENDBRANCH   9  12
ENDBRANCH   8   9
ENDBRANCH   1   8
BRANCH   2  19
ATOM     19  C   UNL d   1       2.010  -1.528  -0.016  0.00  0.00     0.059 A 
ATOM     20  C   UNL d   1       1.998  -2.873  -0.416  0.00  0.00     0.031 A 
ATOM     21  C   UNL d   1       3.190  -3.594  -0.502  0.00  0.00     0.002 A 
ATOM     22  C   UNL d   1       4.406  -2.991  -0.189  0.00  0.00     0.000 A 
ATOM     23  C   UNL d   1       4.432  -1.660   0.223  0.00  0.00     0.002 A 
ATOM     24  C   UNL d   1       3.242  -0.932   0.310  0.00  0.00     0.031 A 
ENDBRANCH   2  19
TORSDOF 4
