REMARK  5 active torsions:
REMARK  status: ('A' for Active; 'I' for Inactive)
REMARK    1  A    between atoms: C_4  and  S_1 
REMARK    2  A    between atoms: C_14  and  S_1 
REMARK    3  A    between atoms: C_10  and  C_2 
REMARK    4  A    between atoms: C_15  and  C_11 
REMARK    5  A    between atoms: C_13  and  C_16 
ROOT
ATOM      1  C   UNL d   1       0.520  -0.014   1.682  0.00  0.00     0.146 C 
ATOM      2  C   UNL d   1      -0.316   0.952   2.105  0.00  0.00     0.054 C 
ATOM      3  C   UNL d   1       1.049  -0.134   0.377  0.00  0.00     0.112 C 
ATOM      4  N   UNL d   1       1.474  -0.239  -0.694  0.00  0.00    -0.191 NA
ENDROOT
BRANCH   1   5
ATOM      5  S   UNL d   1       0.881  -1.331   2.755  0.00  0.00     0.232 S 
ATOM      6  O   UNL d   1      -0.082  -2.390   2.491  0.00  0.00    -0.215 OA
ATOM      7  O   UNL d   1       1.047  -0.846   4.114  0.00  0.00    -0.215 OA
BRANCH   5   8
ATOM      8  C   UNL d   1       2.478  -1.935   2.203  0.00  0.00     0.134 A 
ATOM      9  N   UNL d   1       3.477  -1.020   2.307  0.00  0.00    -0.356 N 
ATOM     10  C   UNL d   1       4.691  -1.414   1.856  0.00  0.00     0.105 A 
ATOM     11  HN  UNL d   1       3.321  -0.092   2.700  1.00  0.00     0.166 HD
ATOM     12  C   UNL d   1       4.947  -2.657   1.289  0.00  0.00     0.063 A 
ATOM     13  C   UNL d   1       3.878  -3.561   1.187  0.00  0.00     0.020 A 
ATOM     14  C   UNL d   1       2.616  -3.201   1.655  0.00  0.00     0.043 A 
BRANCH  12  15
ATOM     15  C   UNL d   1       6.322  -3.010   0.801  0.00  0.00     0.418 C 
ATOM     16  F   UNL d   1       7.234  -2.016   0.983  0.00  0.00    -0.166 F 
ATOM     17  F   UNL d   1       6.831  -4.103   1.432  0.00  0.00    -0.166 F 
ATOM     18  F   UNL d   1       6.344  -3.300  -0.528  0.00  0.00    -0.166 F 
ENDBRANCH  12  15
ENDBRANCH   5   8
ENDBRANCH   1   5
BRANCH   2  19
ATOM     19  C   UNL d   1      -0.830   1.984   1.260  0.00  0.00     0.007 A 
ATOM     20  S   UNL d   1      -1.149   3.541   1.915  0.00  0.00    -0.088 SA
ATOM     21  C   UNL d   1      -1.667   4.197   0.417  0.00  0.00     0.034 A 
ATOM     22  C   UNL d   1      -2.097   5.564   0.242  0.00  0.00     0.069 A 
ATOM     23  C   UNL d   1      -1.676   3.215  -0.553  0.00  0.00     0.023 A 
ATOM     24  C   UNL d   1      -3.034   6.058  -0.651  0.00  0.00     0.068 A 
ATOM     25  N   UNL d   1      -1.651   6.675   0.922  0.00  0.00    -0.295 N 
ATOM     26  C   UNL d   1      -3.128   7.454  -0.408  0.00  0.00     0.134 A 
ATOM     27  N   UNL d   1      -2.260   7.820   0.550  0.00  0.00    -0.294 N 
ATOM     28  HN  UNL d   1      -2.097   8.758   0.916  1.00  0.00     0.187 HD
ATOM     29  C   UNL d   1      -0.626   6.763   1.937  0.00  0.00     0.178 C 
ATOM     30  C   UNL d   1      -1.214   1.955  -0.070  0.00  0.00     0.020 A 
BRANCH  26  31
ATOM     31  C   UNL d   1      -4.063   8.425  -1.083  0.00  0.00     0.434 C 
ATOM     32  F   UNL d   1      -3.942   9.704  -0.638  0.00  0.00    -0.165 F 
ATOM     33  F   UNL d   1      -3.866   8.461  -2.430  0.00  0.00    -0.165 F 
ATOM     34  F   UNL d   1      -5.365   8.071  -0.898  0.00  0.00    -0.165 F 
ENDBRANCH  26  31
ENDBRANCH   2  19
TORSDOF 5
