REMARK  5 active torsions:
REMARK  status: ('A' for Active; 'I' for Inactive)
REMARK    1  A    between atoms: N_2  and  S_1 
REMARK    2  A    between atoms: C_7  and  S_1 
REMARK    3  A    between atoms: N_4  and  C_3 
REMARK    4  A    between atoms: C_9  and  C_14 
REMARK    5  A    between atoms: C_10  and  C_15 
ROOT
ATOM      1  S   UNL d   1       0.966   0.017  -0.026  0.00  0.00     0.278 S 
ATOM      2  O   UNL d   1       2.350  -0.372  -0.124  0.00  0.00    -0.200 OA
ATOM      3  O   UNL d   1       0.609   1.412  -0.240  0.00  0.00    -0.200 OA
ENDROOT
BRANCH   1   4
ATOM      4  N   UNL d   1       0.321  -0.449   1.439  0.00  0.00    -0.101 N 
ATOM      5  C   UNL d   1       0.314  -1.715   2.082  0.00  0.00     0.711 C 
ATOM      6  N   UNL d   1      -0.314  -1.687   3.226  0.00  0.00    -0.222 N 
ATOM      7  C   UNL d   1      -0.848  -0.310   3.397  0.00  0.00     0.159 C 
ATOM      8  HN  UNL d   1      -0.419  -2.464   3.879  1.00  0.00     0.177 HD
ATOM      9  C   UNL d   1      -0.135   0.576   2.376  0.00  0.00     0.181 C 
BRANCH   5  10
ATOM     10  N   UNL d   1       0.930  -2.903   1.608  0.00  0.00    -0.090 N 
ATOM     11  N   UNL d   1       1.641  -2.856   0.464  0.00  0.00    -0.284 N 
ATOM     12  C   UNL d   1       2.300  -4.006   0.377  0.00  0.00     0.025 C 
ATOM     13  HN  UNL d   1       1.668  -2.087  -0.206  1.00  0.00     0.188 HD
ATOM     14  C   UNL d   1       3.281  -4.221  -0.716  0.00  0.00     0.070 C 
ATOM     15  C   UNL d   1       1.891  -4.888   1.387  0.00  0.00     0.053 C 
ATOM     16  C   UNL d   1       0.952  -4.191   2.128  0.00  0.00     0.050 C 
ATOM     17  C   UNL d   1       0.120  -4.675   3.254  0.00  0.00     0.071 C 
ENDBRANCH   5  10
ENDBRANCH   1   4
BRANCH   1  18
ATOM     18  C   UNL d   1      -0.031  -0.894  -1.208  0.00  0.00     0.082 A 
ATOM     19  C   UNL d   1      -1.395  -0.603  -1.328  0.00  0.00     0.041 A 
ATOM     20  C   UNL d   1      -2.182  -1.284  -2.276  0.00  0.00     0.050 A 
ATOM     21  C   UNL d   1      -1.581  -2.265  -3.090  0.00  0.00     0.032 A 
ATOM     22  C   UNL d   1      -0.207  -2.545  -2.991  0.00  0.00     0.050 A 
ATOM     23  C   UNL d   1       0.557  -1.841  -2.050  0.00  0.00     0.041 A 
BRANCH  20  24
ATOM     24  C   UNL d   1      -3.647  -0.955  -2.458  0.00  0.00     0.417 C 
ATOM     25  F   UNL d   1      -4.087   0.038  -1.637  0.00  0.00    -0.166 F 
ATOM     26  F   UNL d   1      -3.930  -0.548  -3.726  0.00  0.00    -0.166 F 
ATOM     27  F   UNL d   1      -4.454  -2.024  -2.218  0.00  0.00    -0.166 F 
ENDBRANCH  20  24
BRANCH  22  28
ATOM     28  C   UNL d   1       0.454  -3.548  -3.910  0.00  0.00     0.417 C 
ATOM     29  F   UNL d   1       1.794  -3.679  -3.699  0.00  0.00    -0.166 F 
ATOM     30  F   UNL d   1      -0.066  -4.800  -3.793  0.00  0.00    -0.166 F 
ATOM     31  F   UNL d   1       0.318  -3.206  -5.221  0.00  0.00    -0.166 F 
ENDBRANCH  22  28
ENDBRANCH   1  18
TORSDOF 5
