REMARK  8 active torsions:
REMARK  status: ('A' for Active; 'I' for Inactive)
REMARK    1  A    between atoms: C_9  and  N_1 
REMARK    2  A    between atoms: C_11  and  C_2 
REMARK    3  A    between atoms: S_10  and  C_5 
REMARK    4  A    between atoms: N_8  and  C_12 
REMARK    5  A    between atoms: C_28  and  S_10 
REMARK    6  A    between atoms: C_15  and  C_16 
REMARK    7  A    between atoms: C_30  and  C_17 
REMARK    8  A    between atoms: C_29  and  C_28 
ROOT
ATOM      1  N   UNL d   1      -0.367  -1.259  -0.037  0.00  0.00    -0.275 N 
ATOM      2  C   UNL d   1       0.888  -0.623  -0.040  0.00  0.00     0.139 A 
ATOM      3  N   UNL d   1       0.696   0.687  -0.035  0.00  0.00    -0.282 N 
ATOM      4  HN  UNL d   1       1.430   1.392   0.028  1.00  0.00     0.188 HD
ATOM      5  C   UNL d   1      -1.275  -0.207  -0.149  0.00  0.00     0.168 A 
ATOM      6  N   UNL d   1      -0.643   0.943  -0.129  0.00  0.00    -0.278 N 
ATOM      7  HN  UNL d   1      -1.076   1.865  -0.176  1.00  0.00     0.189 HD
ENDROOT
BRANCH   5   8
ATOM      8  S   UNL d   1      -3.012  -0.340  -0.089  0.00  0.00    -0.087 SA
BRANCH   8   9
ATOM      9  C   UNL d   1      -3.527   1.187  -0.940  0.00  0.00     0.121 C 
BRANCH   9  10
ATOM     10  C   UNL d   1      -5.039   1.327  -0.969  0.00  0.00    -0.048 A 
ATOM     11  C   UNL d   1      -5.700   2.061   0.032  0.00  0.00     0.010 A 
ATOM     12  C   UNL d   1      -7.096   2.184   0.027  0.00  0.00     0.036 A 
ATOM     13  C   UNL d   1      -7.840   1.563  -0.982  0.00  0.00     0.102 A 
ATOM     14  C   UNL d   1      -7.199   0.830  -1.986  0.00  0.00     0.036 A 
ATOM     15  C   UNL d   1      -5.803   0.714  -1.978  0.00  0.00     0.010 A 
BRANCH  13  16
ATOM     16  N   UNL d   1      -9.307   1.677  -0.980  0.00  0.00    -0.116 N 
ATOM     17  O   UNL d   1      -9.834   2.338  -0.077  0.00  0.00    -0.532 OA
ATOM     18  O   UNL d   1      -9.928   1.099  -1.885  0.00  0.00    -0.532 OA
ENDBRANCH  13  16
ENDBRANCH   9  10
ENDBRANCH   8   9
ENDBRANCH   5   8
BRANCH   1  19
ATOM     19  C   UNL d   1      -0.620  -2.663   0.043  0.00  0.00     0.043 A 
ATOM     20  C   UNL d   1       0.204  -3.483   0.826  0.00  0.00     0.031 A 
ATOM     21  C   UNL d   1       0.059  -4.875   0.800  0.00  0.00     0.010 A 
ATOM     22  C   UNL d   1      -0.947  -5.479   0.039  0.00  0.00    -0.055 A 
ATOM     23  C   UNL d   1      -1.796  -4.648  -0.708  0.00  0.00     0.010 A 
ATOM     24  C   UNL d   1      -1.634  -3.257  -0.713  0.00  0.00     0.031 A 
BRANCH  22  25
ATOM     25  C   UNL d   1      -1.129  -6.987  -0.035  0.00  0.00     0.010 C 
ATOM     26  C   UNL d   1      -0.353  -7.566  -1.221  0.00  0.00     0.015 C 
ATOM     27  C   UNL d   1      -0.754  -7.726   1.254  0.00  0.00     0.015 C 
ENDBRANCH  22  25
ENDBRANCH   1  19
BRANCH   2  28
ATOM     28  C   UNL d   1       2.227  -1.243  -0.114  0.00  0.00     0.010 A 
ATOM     29  C   UNL d   1       2.498  -2.370  -0.897  0.00  0.00     0.016 A 
ATOM     30  C   UNL d   1       3.763  -2.976  -0.886  0.00  0.00     0.009 A 
ATOM     31  C   UNL d   1       4.830  -2.446  -0.140  0.00  0.00    -0.051 A 
ATOM     32  C   UNL d   1       4.570  -1.272   0.585  0.00  0.00     0.009 A 
ATOM     33  C   UNL d   1       3.293  -0.684   0.600  0.00  0.00     0.016 A 
BRANCH  31  34
ATOM     34  C   UNL d   1       6.202  -3.147  -0.141  0.00  0.00    -0.024 C 
ATOM     35  C   UNL d   1       7.281  -2.399   0.674  0.00  0.00     0.019 C 
ATOM     36  C   UNL d   1       6.065  -4.560   0.470  0.00  0.00     0.019 C 
ATOM     37  C   UNL d   1       6.736  -3.281  -1.584  0.00  0.00     0.019 C 
ENDBRANCH  31  34
ENDBRANCH   2  28
TORSDOF 8
