REMARK  2 active torsions:
REMARK  status: ('A' for Active; 'I' for Inactive)
REMARK    1  A    between atoms: S_2  and  C_1 
REMARK    2  A    between atoms: N_7  and  S_2 
ROOT
ATOM      1  S   UNL d   1      -0.557  -2.980  -0.053  0.00  0.00     0.247 S 
ATOM      2  O   UNL d   1      -1.446  -3.293  -1.148  0.00  0.00    -0.206 OA
ATOM      3  O   UNL d   1       0.762  -3.569  -0.005  0.00  0.00    -0.206 OA
ENDROOT
BRANCH   1   4
ATOM      4  C   UNL d   1      -0.287  -1.262  -0.167  0.00  0.00     0.122 A 
ATOM      5  C   UNL d   1      -1.168  -0.290  -0.759  0.00  0.00     0.064 A 
ATOM      6  C   UNL d   1      -0.644   0.979  -0.712  0.00  0.00     0.095 A 
ATOM      7 BR   UNL d   1      -2.876  -0.640  -1.509  0.00  0.00    -0.047 Br
ATOM      8 CL   UNL d   1      -1.325   2.447  -1.294  0.00  0.00    -0.075 Cl
ATOM      9  S   UNL d   1       0.859   1.048   0.054  0.00  0.00    -0.063 SA
ATOM     10  C   UNL d   1       0.830  -0.628   0.346  0.00  0.00     0.100 A 
ATOM     11 CL   UNL d   1       2.162  -1.252   1.243  0.00  0.00    -0.074 Cl
ENDBRANCH   1   4
BRANCH   1  12
ATOM     12  N   UNL d   1      -1.366  -3.332   1.415  0.00  0.00    -0.205 NA
ATOM     13  C   UNL d   1      -0.540  -3.141   2.642  0.00  0.00     0.117 C 
ATOM     14  C   UNL d   1      -1.170  -3.755   3.894  0.00  0.00     0.089 C 
ATOM     15  S   UNL d   1      -2.794  -3.030   4.260  0.00  0.00    -0.167 SA
ATOM     16  C   UNL d   1      -3.555  -3.403   2.654  0.00  0.00     0.089 C 
ATOM     17  C   UNL d   1      -2.755  -2.793   1.505  0.00  0.00     0.117 C 
ENDBRANCH   1  12
TORSDOF 2
