REMARK  4 active torsions:
REMARK  status: ('A' for Active; 'I' for Inactive)
REMARK    1  A    between atoms: C_7  and  C_1 
REMARK    2  A    between atoms: S_13  and  C_3 
REMARK    3  A    between atoms: C_6  and  C_7 
REMARK    4  A    between atoms: C_14  and  C_8 
ROOT
ATOM      1  C   UNL d   1      -0.250  -4.703  -0.580  0.00  0.00     0.096 C 
ATOM      2  C   UNL d   1      -0.782  -5.831  -0.066  0.00  0.00     0.038 C 
ATOM      3  C   UNL d   1       0.650  -4.725  -1.679  0.00  0.00     0.103 C 
ATOM      4  N   UNL d   1       1.384  -4.741  -2.579  0.00  0.00    -0.191 NA
ENDROOT
BRANCH   1   5
ATOM      5  C   UNL d   1      -0.695  -3.380   0.000  0.00  0.00     0.210 C 
ATOM      6  O   UNL d   1      -1.837  -3.313   0.463  0.00  0.00    -0.285 OA
BRANCH   5   7
ATOM      7  C   UNL d   1       0.194  -2.211  -0.008  0.00  0.00     0.065 A 
ATOM      8  S   UNL d   1       1.894  -2.393   0.129  0.00  0.00    -0.078 SA
ATOM      9  C   UNL d   1       2.190  -0.715   0.010  0.00  0.00     0.052 A 
ATOM     10  C   UNL d   1       1.003  -0.012  -0.011  0.00  0.00    -0.005 A 
ATOM     11  C   UNL d   1      -0.157  -0.863   0.004  0.00  0.00    -0.025 A 
ATOM     12  C   UNL d   1       0.868   1.411  -0.032  0.00  0.00     0.010 A 
ATOM     13  C   UNL d   1      -1.554  -0.296   0.024  0.00  0.00     0.045 A 
ATOM     14  C   UNL d   1      -1.634   1.247  -0.011  0.00  0.00     0.032 A 
ATOM     15  C   UNL d   1      -0.335   2.005  -0.032  0.00  0.00    -0.025 A 
BRANCH   9  16
ATOM     16  S   UNL d   1       3.830  -0.065   0.028  0.00  0.00    -0.126 SA
ATOM     17  C   UNL d   1       4.540  -0.854  -1.437  0.00  0.00     0.096 C 
ENDBRANCH   9  16
ENDBRANCH   5   7
ENDBRANCH   1   5
BRANCH   2  18
ATOM     18  C   UNL d   1      -0.451  -7.194  -0.503  0.00  0.00    -0.035 A 
ATOM     19  C   UNL d   1       0.595  -7.891   0.118  0.00  0.00     0.013 A 
ATOM     20  C   UNL d   1       0.907  -9.197  -0.276  0.00  0.00     0.024 A 
ATOM     21  C   UNL d   1       0.176  -9.808  -1.292  0.00  0.00     0.034 A 
ATOM     22  C   UNL d   1      -0.859  -9.121  -1.924  0.00  0.00     0.024 A 
ATOM     23 CL   UNL d   1       0.547 -11.421  -1.762  0.00  0.00    -0.084 Cl
ATOM     24  C   UNL d   1      -1.172  -7.814  -1.531  0.00  0.00     0.013 A 
ENDBRANCH   2  18
TORSDOF 4
