REMARK  7 active torsions:
REMARK  status: ('A' for Active; 'I' for Inactive)
REMARK    1  A    between atoms: C_8  and  C_1 
REMARK    2  A    between atoms: C_7  and  C_2 
REMARK    3  A    between atoms: O_16  and  C_8 
REMARK    4  A    between atoms: O_12  and  N_9 
REMARK    5  A    between atoms: C_11  and  O_12 
REMARK    6  A    between atoms: C_15  and  C_11 
REMARK    7  A    between atoms: C_20  and  O_16 
ROOT
ATOM      1  C   UNL d   1      -1.396   2.257  -0.027  0.00  0.00     0.064 C 
ATOM      2  N   UNL d   1      -0.882   3.450  -0.007  0.00  0.00    -0.259 N 
ATOM      3  HN  UNL d   1      -1.430   4.311  -0.015  1.00  0.00     0.194 HD
ATOM      4  C   UNL d   1      -0.552   0.999  -0.011  0.00  0.00     0.073 C 
ENDROOT
BRANCH   1   5
ATOM      5  C   UNL d   1      -2.832   2.128  -0.061  0.00  0.00     0.125 A 
ATOM      6  C   UNL d   1      -3.856   3.049  -0.065  0.00  0.00     0.079 A 
ATOM      7  C   UNL d   1      -5.048   2.277  -0.042  0.00  0.00     0.132 A 
ATOM      8  N   UNL d   1      -4.753   0.966  -0.070  0.00  0.00    -0.255 N 
ATOM      9  O   UNL d   1      -3.379   0.882  -0.079  0.00  0.00    -0.235 OA
ATOM     10  HN  UNL d   1      -5.414   0.189  -0.082  1.00  0.00     0.195 HD
BRANCH   7  11
ATOM     11  C   UNL d   1      -6.423   2.762   0.073  0.00  0.00     0.311 C 
ATOM     12  O   UNL d   1      -6.703   3.953   0.157  0.00  0.00    -0.258 OA
BRANCH  11  13
ATOM     13  O   UNL d   1      -7.331   1.746   0.162  0.00  0.00    -0.317 OA
BRANCH  13  14
ATOM     14  C   UNL d   1      -8.615   2.093   0.694  0.00  0.00     0.175 C 
ATOM     15  C   UNL d   1      -8.548   1.983   2.207  0.00  0.00     0.034 C 
ENDBRANCH  13  14
ENDBRANCH  11  13
ENDBRANCH   7  11
ENDBRANCH   1   5
BRANCH   2  16
ATOM     16  O   UNL d   1       0.527   3.409   0.025  0.00  0.00    -0.195 OA
BRANCH  16  17
ATOM     17  C   UNL d   1       1.043   4.668  -0.094  0.00  0.00     0.315 C 
ATOM     18  O   UNL d   1       0.432   5.721  -0.210  0.00  0.00    -0.257 OA
BRANCH  17  19
ATOM     19  C   UNL d   1       2.526   4.587  -0.146  0.00  0.00     0.041 A 
ATOM     20  C   UNL d   1       3.245   3.540   0.445  0.00  0.00     0.017 A 
ATOM     21  C   UNL d   1       4.641   3.516   0.362  0.00  0.00     0.001 A 
ATOM     22  C   UNL d   1       5.320   4.534  -0.309  0.00  0.00     0.000 A 
ATOM     23  C   UNL d   1       4.611   5.582  -0.891  0.00  0.00     0.001 A 
ATOM     24  C   UNL d   1       3.217   5.614  -0.806  0.00  0.00     0.017 A 
ENDBRANCH  17  19
ENDBRANCH  16  17
ENDBRANCH   2  16
TORSDOF 7
