REMARK  1 active torsions:
REMARK  status: ('A' for Active; 'I' for Inactive)
REMARK    1  A    between atoms: S_7  and  C_2 
ROOT
ATOM      1  C   UNL d   1       0.432   0.747   0.048  0.00  0.00     0.043 A 
ATOM      2  C   UNL d   1       1.726   1.200   0.241  0.00  0.00     0.086 A 
ATOM      3  C   UNL d   1       0.396  -0.687  -0.063  0.00  0.00    -0.035 A 
ATOM      4  C   UNL d   1      -0.784   1.554  -0.062  0.00  0.00     0.162 C 
ATOM      5  S   UNL d   1       2.833  -0.080   0.463  0.00  0.00    -0.091 SA
ATOM      6  C   UNL d   1       1.634  -1.252   0.161  0.00  0.00     0.059 A 
ATOM      7  C   UNL d   1      -0.848  -1.442  -0.416  0.00  0.00     0.049 C 
ATOM      8  C   UNL d   1      -2.154  -0.666  -0.112  0.00  0.00    -0.037 C 
ATOM      9  C   UNL d   1      -2.056   0.834  -0.485  0.00  0.00     0.093 C 
ATOM     10  O   UNL d   1      -0.787   2.772   0.094  0.00  0.00    -0.292 OA
ATOM     11  C   UNL d   1      -2.527  -0.824   1.376  0.00  0.00     0.015 C 
ATOM     12  C   UNL d   1      -3.286  -1.290  -0.955  0.00  0.00     0.015 C 
ENDROOT
BRANCH   2  13
ATOM     13  S   UNL d   1       2.229   2.881   0.272  0.00  0.00     0.053 S 
ATOM     14  O   UNL d   1       3.701   2.907   0.566  0.00  0.00    -0.253 OA
ATOM     15  C   UNL d   1       2.048   3.208  -1.505  0.00  0.00     0.133 C 
ENDBRANCH   2  13
TORSDOF 1
