REMARK  2 active torsions:
REMARK  status: ('A' for Active; 'I' for Inactive)
REMARK    1  A    between atoms: C_9  and  C_3 
REMARK    2  A    between atoms: O_10  and  C_7 
ROOT
ATOM      1  N   UNL d   1       2.300  -0.726  -0.073  0.00  0.00    -0.297 N 
ATOM      2  HN  UNL d   1       3.176  -1.248  -0.109  1.00  0.00     0.187 HD
ATOM      3  C   UNL d   1       1.117  -1.401  -0.012  0.00  0.00     0.069 A 
ATOM      4  N   UNL d   1       2.327   0.632  -0.088  0.00  0.00    -0.279 N 
ATOM      5  HN  UNL d   1       3.214   1.134  -0.114  1.00  0.00     0.189 HD
ATOM      6  C   UNL d   1      -0.124  -0.715   0.060  0.00  0.00     0.007 A 
ATOM      7  C   UNL d   1       1.165   1.299  -0.067  0.00  0.00     0.166 A 
ATOM      8  C   UNL d   1      -0.086   0.696  -0.003  0.00  0.00     0.029 A 
ATOM      9  C   UNL d   1      -1.402  -1.319   0.207  0.00  0.00     0.015 A 
ATOM     10  C   UNL d   1      -1.285   1.441   0.007  0.00  0.00     0.017 A 
ATOM     11  C   UNL d   1      -2.581  -0.570   0.213  0.00  0.00     0.001 A 
ATOM     12  C   UNL d   1      -2.524   0.812   0.099  0.00  0.00     0.001 A 
ENDROOT
BRANCH   3  13
ATOM     13  C   UNL d   1       1.287  -2.874  -0.051  0.00  0.00    -0.007 A 
ATOM     14  C   UNL d   1       2.321  -3.491   0.680  0.00  0.00     0.014 A 
ATOM     15  C   UNL d   1       2.516  -4.876   0.646  0.00  0.00     0.001 A 
ATOM     16  C   UNL d   1       1.675  -5.679  -0.117  0.00  0.00     0.000 A 
ATOM     17  C   UNL d   1       0.659  -5.095  -0.867  0.00  0.00     0.001 A 
ATOM     18  C   UNL d   1       0.482  -3.707  -0.850  0.00  0.00     0.014 A 
ENDBRANCH   3  13
BRANCH   7  19
ATOM     19  O   UNL d   1       1.304   2.656  -0.091  0.00  0.00    -0.344 OA
ATOM     20  H   UNL d   1       2.274   2.741  -0.101  0.00  0.00     0.219 HD
ENDBRANCH   7  19
TORSDOF 2
