REMARK  2 active torsions:
REMARK  status: ('A' for Active; 'I' for Inactive)
REMARK       I    between atoms: N_2  and  C_1 
REMARK       I    between atoms: N_3  and  C_1 
REMARK    1  A    between atoms: C_5  and  N_3 
REMARK    2  A    between atoms: C_8  and  C_4 
ROOT
ATOM      1  C   UNL d   1       0.735   0.073  -0.114  0.00  0.00     0.323 C 
ATOM      2  N   UNL d   1       0.441   0.859   0.982  0.00  0.00    -0.325 N 
ATOM      3  N   UNL d   1       0.491  -1.272   0.082  0.00  0.00    -0.307 N 
ATOM      4  C   UNL d   1       0.777   2.284   1.026  0.00  0.00     0.123 C 
ATOM      5  O   UNL d   1       1.247   0.540  -1.132  0.00  0.00    -0.247 OA
ATOM      6  C   UNL d   1      -0.561   0.539   1.992  0.00  0.00     0.128 C 
ATOM      7  C   UNL d   1       0.465   2.649   2.483  0.00  0.00     0.032 C 
ATOM      8  C   UNL d   1      -0.784   1.828   2.774  0.00  0.00     0.022 C 
ATOM      9  H   UNL d   1       0.435  -1.547   1.053  0.00  0.00     0.170 HD
ENDROOT
BRANCH   4  10
ATOM     10  C   UNL d   1       2.185   2.654   0.635  0.00  0.00    -0.020 A 
ATOM     11  C   UNL d   1       2.398   3.659  -0.309  0.00  0.00     0.096 A 
ATOM     12  N   UNL d   1       3.613   4.054  -0.753  0.00  0.00    -0.375 N 
ATOM     13  C   UNL d   1       4.677   3.392  -0.255  0.00  0.00     0.087 A 
ATOM     14  HN  UNL d   1       3.719   4.812  -1.428  1.00  0.00     0.164 HD
ATOM     15  C   UNL d   1       4.584   2.385   0.689  0.00  0.00     0.018 A 
ATOM     16  C   UNL d   1       3.320   2.018   1.146  0.00  0.00     0.012 A 
ENDBRANCH   4  10
BRANCH   3  17
ATOM     17  C   UNL d   1       1.003  -2.279  -0.775  0.00  0.00     0.058 A 
ATOM     18  C   UNL d   1       1.507  -3.463  -0.210  0.00  0.00     0.062 A 
ATOM     19  C   UNL d   1       2.162  -4.408  -1.001  0.00  0.00     0.050 A 
ATOM     20 CL   UNL d   1       1.409  -3.745   1.496  0.00  0.00    -0.082 Cl
ATOM     21  C   UNL d   1       2.274  -4.191  -2.372  0.00  0.00     0.035 A 
ATOM     22  C   UNL d   1       1.714  -3.058  -2.958  0.00  0.00     0.026 A 
ATOM     23 CL   UNL d   1       3.126  -5.323  -3.347  0.00  0.00    -0.084 Cl
ATOM     24  C   UNL d   1       1.078  -2.104  -2.160  0.00  0.00     0.033 A 
ENDBRANCH   3  17
TORSDOF 2
