REMARK  6 active torsions:
REMARK  status: ('A' for Active; 'I' for Inactive)
REMARK    1  A    between atoms: C_9  and  C_3 
REMARK    2  A    between atoms: C_8  and  C_4 
REMARK    3  A    between atoms: C_7  and  O_14 
REMARK    4  A    between atoms: C_12  and  C_7 
REMARK    5  A    between atoms: O_14  and  N_10 
REMARK    6  A    between atoms: C_19  and  C_20 
ROOT
ATOM      1  C   UNL d   1      -0.066  -2.649  -0.053  0.00  0.00    -0.002 A 
ATOM      2  C   UNL d   1       0.491  -3.442   0.966  0.00  0.00     0.015 A 
ATOM      3  C   UNL d   1      -0.800  -3.296  -1.061  0.00  0.00     0.015 A 
ATOM      4  C   UNL d   1      -0.428  -5.456  -0.021  0.00  0.00    -0.019 A 
ATOM      5  C   UNL d   1      -0.983  -4.684  -1.045  0.00  0.00     0.014 A 
ATOM      6  C   UNL d   1       0.308  -4.834   0.990  0.00  0.00     0.014 A 
ENDROOT
BRANCH   4   7
ATOM      7  C   UNL d   1      -0.596  -6.929  -0.018  0.00  0.00     0.126 C 
ATOM      8  N   UNL d   1      -1.248  -7.530  -0.960  0.00  0.00    -0.268 N 
ATOM      9  HN  UNL d   1      -1.701  -7.056  -1.742  1.00  0.00     0.194 HD
BRANCH   8  10
ATOM     10  O   UNL d   1      -1.251  -8.929  -0.764  0.00  0.00    -0.195 OA
BRANCH  10  11
ATOM     11  C   UNL d   1      -1.959  -9.524  -1.778  0.00  0.00     0.315 C 
ATOM     12  O   UNL d   1      -2.548  -8.967  -2.695  0.00  0.00    -0.257 OA
BRANCH  11  13
ATOM     13  C   UNL d   1      -1.947 -11.013  -1.652  0.00  0.00     0.041 A 
ATOM     14  C   UNL d   1      -2.687 -11.757  -2.589  0.00  0.00     0.019 A 
ATOM     15  C   UNL d   1      -2.712 -13.155  -2.536  0.00  0.00     0.025 A 
ATOM     16  C   UNL d   1      -1.996 -13.819  -1.546  0.00  0.00     0.034 A 
ATOM     17  C   UNL d   1      -1.254 -13.095  -0.610  0.00  0.00     0.025 A 
ATOM     18 CL   UNL d   1      -2.020 -15.537  -1.477  0.00  0.00    -0.084 Cl
ATOM     19  C   UNL d   1      -1.228 -11.695  -0.659  0.00  0.00     0.019 A 
ENDBRANCH  11  13
ENDBRANCH  10  11
ENDBRANCH   8  10
ENDBRANCH   4   7
BRANCH   1  20
ATOM     20  C   UNL d   1       0.154  -1.190  -0.048  0.00  0.00     0.084 A 
ATOM     21  N   UNL d   1       1.229  -0.596   0.435  0.00  0.00    -0.352 N 
ATOM     22  C   UNL d   1       1.152   0.787   0.284  0.00  0.00     0.024 A 
ATOM     23  HN  UNL d   1       2.015  -1.085   0.864  1.00  0.00     0.166 HD
ATOM     24  C   UNL d   1      -0.035   1.220  -0.280  0.00  0.00     0.077 A 
ATOM     25  S   UNL d   1      -1.044  -0.107  -0.651  0.00  0.00    -0.081 SA
BRANCH  22  26
ATOM     26  C   UNL d   1       2.319   1.665   0.719  0.00  0.00    -0.008 C 
ATOM     27  C   UNL d   1       3.477   0.818   1.285  0.00  0.00     0.021 C 
ATOM     28  C   UNL d   1       2.856   2.468  -0.484  0.00  0.00     0.021 C 
ATOM     29  C   UNL d   1       1.871   2.654   1.813  0.00  0.00     0.021 C 
ENDBRANCH  22  26
ENDBRANCH   1  20
TORSDOF 6
