REMARK  8 active torsions:
REMARK  status: ('A' for Active; 'I' for Inactive)
REMARK    1  A    between atoms: N_8  and  C_2 
REMARK    2  A    between atoms: S_17  and  C_3 
REMARK    3  A    between atoms: C_10  and  C_16 
REMARK    4  A    between atoms: O_11  and  C_10 
REMARK    5  A    between atoms: C_13  and  O_11 
REMARK    6  A    between atoms: N_20  and  C_12 
REMARK    7  A    between atoms: C_25  and  S_17 
REMARK    8  A    between atoms: C_26  and  C_25 
ROOT
ATOM      1  C   UNL d   1       2.746  -7.482  -0.426  0.00  0.00     0.040 A 
ATOM      2  C   UNL d   1       1.815  -7.043   0.525  0.00  0.00     0.018 A 
ATOM      3  C   UNL d   1       3.372  -6.537  -1.249  0.00  0.00     0.018 A 
ATOM      4  C   UNL d   1       2.137  -4.730  -0.168  0.00  0.00    -0.049 A 
ATOM      5  C   UNL d   1       3.075  -5.175  -1.114  0.00  0.00     0.009 A 
ATOM      6  C   UNL d   1       1.511  -5.682   0.650  0.00  0.00     0.009 A 
ENDROOT
BRANCH   4   7
ATOM      7  C   UNL d   1       1.832  -3.254  -0.006  0.00  0.00     0.120 C 
BRANCH   7   8
ATOM      8  S   UNL d   1       1.046  -2.549  -1.485  0.00  0.00    -0.099 SA
BRANCH   8   9
ATOM      9  C   UNL d   1       0.863  -0.875  -1.006  0.00  0.00     0.130 A 
ATOM     10  S   UNL d   1       0.231   0.315  -2.059  0.00  0.00    -0.026 SA
ATOM     11  C   UNL d   1       0.409   1.463  -0.775  0.00  0.00     0.166 A 
ATOM     12  N   UNL d   1       0.929   0.924   0.317  0.00  0.00    -0.278 N 
ATOM     13  N   UNL d   1       1.190  -0.427   0.185  0.00  0.00    -0.286 N 
ATOM     14  HN  UNL d   1       1.117   1.451   1.169  1.00  0.00     0.189 HD
ATOM     15  HN  UNL d   1       1.590  -1.007   0.923  1.00  0.00     0.188 HD
BRANCH  11  16
ATOM     16  N   UNL d   1       0.013   2.743  -1.008  0.00  0.00    -0.332 N 
ATOM     17  C   UNL d   1       0.110   3.555  -0.009  0.00  0.00     0.179 C 
ATOM     18  HN  UNL d   1      -0.340   3.042  -1.917  1.00  0.00     0.168 HD
BRANCH  17  19
ATOM     19  N   UNL d   1      -0.238   4.889  -0.009  0.00  0.00    -0.386 N 
ATOM     20  C   UNL d   1      -0.795   5.543  -1.183  0.00  0.00     0.149 C 
ATOM     21  C   UNL d   1      -0.096   5.724   1.172  0.00  0.00     0.149 C 
ENDBRANCH  17  19
ENDBRANCH  11  16
ENDBRANCH   8   9
ENDBRANCH   7   8
ENDBRANCH   4   7
BRANCH   1  22
ATOM     22  C   UNL d   1       3.045  -8.942  -0.504  0.00  0.00     0.298 C 
ATOM     23  O   UNL d   1       2.668  -9.748   0.334  0.00  0.00    -0.259 OA
BRANCH  22  24
ATOM     24  O   UNL d   1       3.804  -9.210  -1.632  0.00  0.00    -0.272 OA
BRANCH  24  25
ATOM     25  C   UNL d   1       4.039 -10.566  -1.901  0.00  0.00     0.118 A 
ATOM     26  C   UNL d   1       2.989 -11.457  -2.138  0.00  0.00     0.153 A 
ATOM     27  C   UNL d   1       3.251 -12.780  -2.474  0.00  0.00     0.087 A 
ATOM     28  F   UNL d   1       1.717 -11.039  -2.085  0.00  0.00    -0.203 F 
ATOM     29  C   UNL d   1       4.572 -13.194  -2.594  0.00  0.00     0.119 A 
ATOM     30  C   UNL d   1       5.629 -12.309  -2.387  0.00  0.00     0.045 A 
ATOM     31  F   UNL d   1       4.836 -14.462  -2.933  0.00  0.00    -0.206 F 
ATOM     32  C   UNL d   1       5.364 -10.981  -2.040  0.00  0.00     0.043 A 
ENDBRANCH  24  25
ENDBRANCH  22  24
ENDBRANCH   1  22
TORSDOF 8
