REMARK  6 active torsions:
REMARK  status: ('A' for Active; 'I' for Inactive)
REMARK    1  A    between atoms: C_7  and  C_2 
REMARK    2  A    between atoms: S_16  and  C_10 
REMARK    3  A    between atoms: C_15  and  C_19 
REMARK    4  A    between atoms: O_22  and  C_15 
REMARK    5  A    between atoms: C_19  and  S_16 
REMARK    6  A    between atoms: C_24  and  O_22 
ROOT
ATOM      1  C   UNL d   1       3.786   0.303   0.089  0.00  0.00     0.053 A 
ATOM      2  N   UNL d   1       4.503  -0.200  -0.941  0.00  0.00    -0.336 N 
ATOM      3  HN  UNL d   1       4.055  -0.703  -1.707  1.00  0.00     0.168 HD
ATOM      4  C   UNL d   1       5.832  -0.005  -0.910  0.00  0.00     0.145 A 
ATOM      5  N   UNL d   1       6.491   0.635   0.065  0.00  0.00    -0.347 N 
ATOM      6  HN  UNL d   1       7.506   0.741   0.048  1.00  0.00     0.167 HD
ATOM      7  C   UNL d   1       4.381   0.985   1.133  0.00  0.00     0.048 A 
ATOM      8  C   UNL d   1       5.745   1.129   1.064  0.00  0.00     0.092 A 
ENDROOT
BRANCH   1   9
ATOM      9  C   UNL d   1       2.321   0.098  -0.021  0.00  0.00     0.039 A 
ATOM     10  S   UNL d   1       1.254   1.242   0.748  0.00  0.00    -0.079 SA
ATOM     11  C   UNL d   1      -0.079   0.475   0.121  0.00  0.00     0.057 A 
ATOM     12  C   UNL d   1       0.202  -0.600  -0.633  0.00  0.00     0.002 A 
ATOM     13  S   UNL d   1      -1.704   0.824   0.262  0.00  0.00    -0.093 SA
ATOM     14  C   UNL d   1       1.595  -0.894  -0.714  0.00  0.00    -0.030 A 
ATOM     15  C   UNL d   1      -0.952  -1.210  -1.201  0.00  0.00    -0.043 A 
ATOM     16  C   UNL d   1       2.249  -2.038  -1.418  0.00  0.00     0.050 C 
ATOM     17  C   UNL d   1      -1.086  -2.371  -2.124  0.00  0.00     0.049 C 
ATOM     18  C   UNL d   1      -2.078  -0.513  -0.758  0.00  0.00     0.058 A 
ENDBRANCH   1   9
BRANCH   4  19
ATOM     19  S   UNL d   1       6.821  -0.681  -2.222  0.00  0.00    -0.084 SA
BRANCH  19  20
ATOM     20  C   UNL d   1       5.656  -0.512  -3.606  0.00  0.00     0.193 C 
BRANCH  20  21
ATOM     21  C   UNL d   1       5.139   0.903  -3.753  0.00  0.00     0.268 C 
ATOM     22  O   UNL d   1       5.741   1.924  -3.461  0.00  0.00    -0.264 OA
BRANCH  21  23
ATOM     23  O   UNL d   1       3.881   0.867  -4.290  0.00  0.00    -0.321 OA
BRANCH  23  24
ATOM     24  C   UNL d   1       3.179   2.117  -4.290  0.00  0.00     0.174 C 
ATOM     25  C   UNL d   1       2.467   2.282  -2.961  0.00  0.00     0.034 C 
ENDBRANCH  23  24
ENDBRANCH  21  23
ENDBRANCH  20  21
ENDBRANCH  19  20
ENDBRANCH   4  19
TORSDOF 6
