REMARK  4 active torsions:
REMARK  status: ('A' for Active; 'I' for Inactive)
REMARK    1  A    between atoms: C_11  and  C_7 
REMARK    2  A    between atoms: O_12  and  C_14 
REMARK    3  A    between atoms: C_15  and  O_12 
REMARK    4  A    between atoms: C_16  and  C_15 
ROOT
ATOM      1  C   UNL d   1       3.372   1.308  -0.014  0.00  0.00    -0.032 A 
ATOM      2  C   UNL d   1       3.292   2.216   1.048  0.00  0.00     0.048 A 
ATOM      3  C   UNL d   1       4.140   3.325   1.096  0.00  0.00     0.070 A 
ATOM      4  C   UNL d   1       5.124   2.643  -1.008  0.00  0.00     0.004 A 
ATOM      5  C   UNL d   1       4.303   1.517  -1.035  0.00  0.00     0.011 A 
ATOM      6  C   UNL d   1       5.035   3.552   0.048  0.00  0.00     0.037 A 
ENDROOT
BRANCH   1   7
ATOM      7  C   UNL d   1       2.499   0.134  -0.042  0.00  0.00     0.034 C 
ATOM      8  C   UNL d   1       1.297   0.040  -0.645  0.00  0.00     0.101 A 
ATOM      9  C   UNL d   1       0.585  -1.257  -0.503  0.00  0.00     0.265 A 
ATOM     10  C   UNL d   1       0.653   1.136  -1.413  0.00  0.00     0.265 A 
ATOM     11  N   UNL d   1      -0.659  -1.308  -1.064  0.00  0.00    -0.275 N 
ATOM     12  O   UNL d   1       1.057  -2.233   0.070  0.00  0.00    -0.267 OA
ATOM     13  C   UNL d   1      -1.287  -0.309  -1.737  0.00  0.00     0.329 A 
ATOM     14  H   UNL d   1      -1.159  -2.181  -0.980  0.00  0.00     0.173 HD
ATOM     15  N   UNL d   1      -0.612   0.865  -1.857  0.00  0.00    -0.275 N 
ATOM     16  O   UNL d   1      -2.403  -0.463  -2.223  0.00  0.00    -0.246 OA
ATOM     17  H   UNL d   1      -1.067   1.598  -2.383  0.00  0.00     0.173 HD
ATOM     18  O   UNL d   1       1.176   2.212  -1.674  0.00  0.00    -0.267 OA
ENDBRANCH   1   7
BRANCH   3  19
ATOM     19  O   UNL d   1       4.009   4.114   2.210  0.00  0.00    -0.347 OA
BRANCH  19  20
ATOM     20  C   UNL d   1       5.129   4.950   2.502  0.00  0.00     0.214 C 
BRANCH  20  21
ATOM     21  C   UNL d   1       5.080   5.387   3.946  0.00  0.00    -0.034 A 
ATOM     22  C   UNL d   1       6.078   4.978   4.843  0.00  0.00     0.009 A 
ATOM     23  C   UNL d   1       6.063   5.414   6.168  0.00  0.00     0.001 A 
ATOM     24  C   UNL d   1       5.048   6.259   6.612  0.00  0.00     0.000 A 
ATOM     25  C   UNL d   1       4.043   6.662   5.733  0.00  0.00     0.001 A 
ATOM     26  C   UNL d   1       4.056   6.227   4.406  0.00  0.00     0.009 A 
ENDBRANCH  20  21
ENDBRANCH  19  20
ENDBRANCH   3  19
TORSDOF 4
