REMARK  6 active torsions:
REMARK  status: ('A' for Active; 'I' for Inactive)
REMARK    1  A    between atoms: C_1  and  O_8 
REMARK    2  A    between atoms: C_2  and  O_9 
REMARK    3  A    between atoms: C_3  and  O_10 
REMARK    4  A    between atoms: C_11  and  O_8 
REMARK    5  A    between atoms: C_12  and  O_9 
REMARK    6  A    between atoms: C_13  and  O_10 
ROOT
ATOM      1  C   UNL d   1      -1.740  -0.321   0.712  0.00  0.00     0.198 C 
ATOM      2  C   UNL d   1      -1.059  -1.413  -0.156  0.00  0.00     0.219 C 
ATOM      3  C   UNL d   1      -1.394   1.092   0.188  0.00  0.00     0.195 C 
ATOM      4  C   UNL d   1       0.385  -0.972  -0.507  0.00  0.00     0.292 C 
ATOM      5  O   UNL d   1       0.327   0.241  -1.276  0.00  0.00    -0.348 OA
ATOM      6  C   UNL d   1       0.084   1.213  -0.249  0.00  0.00     0.180 C 
ATOM      7  O   UNL d   1       1.116  -0.673   0.693  0.00  0.00    -0.356 OA
ATOM      8  C   UNL d   1       1.100   0.766   0.787  0.00  0.00     0.205 C 
ENDROOT
BRANCH   1   9
ATOM      9  O   UNL d   1      -1.282  -0.378   2.088  0.00  0.00    -0.311 OA
BRANCH   9  10
ATOM     10  C   UNL d   1      -1.832  -1.326   2.889  0.00  0.00     0.255 C 
ATOM     11  O   UNL d   1      -2.706  -2.111   2.555  0.00  0.00    -0.266 OA
ATOM     12  C   UNL d   1      -1.206  -1.306   4.250  0.00  0.00     0.126 C 
ENDBRANCH   9  10
ENDBRANCH   1   9
BRANCH   2  13
ATOM     13  O   UNL d   1      -1.770  -1.599  -1.405  0.00  0.00    -0.308 OA
BRANCH  13  14
ATOM     14  C   UNL d   1      -2.882  -2.373  -1.364  0.00  0.00     0.255 C 
ATOM     15  O   UNL d   1      -3.312  -2.937  -0.370  0.00  0.00    -0.266 OA
ATOM     16  C   UNL d   1      -3.550  -2.426  -2.703  0.00  0.00     0.126 C 
ENDBRANCH  13  14
ENDBRANCH   2  13
BRANCH   3  17
ATOM     17  O   UNL d   1      -2.213   1.345  -0.983  0.00  0.00    -0.311 OA
BRANCH  17  18
ATOM     18  C   UNL d   1      -3.031   2.425  -0.963  0.00  0.00     0.255 C 
ATOM     19  O   UNL d   1      -3.140   3.212  -0.034  0.00  0.00    -0.266 OA
ATOM     20  C   UNL d   1      -3.781   2.544  -2.255  0.00  0.00     0.126 C 
ENDBRANCH  17  18
ENDBRANCH   3  17
TORSDOF 6
