REMARK  6 active torsions:
REMARK  status: ('A' for Active; 'I' for Inactive)
REMARK    1  A    between atoms: N_2  and  C_1 
REMARK    2  A    between atoms: C_3  and  C_1 
REMARK    3  A    between atoms: C_4  and  C_1 
REMARK    4  A    between atoms: N_6  and  C_1 
REMARK       I    between atoms: C_5  and  N_2 
REMARK    5  A    between atoms: C_8  and  C_5 
REMARK    6  A    between atoms: C_15  and  N_6 
ROOT
ATOM      1  C   UNL d   1       0.836   0.001   0.001  0.00  0.00     0.306 C 
ENDROOT
BRANCH   1   2
ATOM      2  N   UNL d   1       0.288   0.628   1.227  0.00  0.00    -0.315 N 
ATOM      3  C   UNL d   1       0.224   1.982   1.428  0.00  0.00     0.254 C 
ATOM      4  O   UNL d   1       0.548   2.804   0.583  0.00  0.00    -0.268 OA
ATOM      5  H   UNL d   1      -0.011   0.003   1.964  0.00  0.00     0.165 HD
BRANCH   3   6
ATOM      6  C   UNL d   1      -0.319   2.421   2.734  0.00  0.00     0.032 A 
ATOM      7  C   UNL d   1       0.037   1.785   3.930  0.00  0.00     0.017 A 
ATOM      8  C   UNL d   1      -0.499   2.236   5.140  0.00  0.00     0.001 A 
ATOM      9  C   UNL d   1      -1.386   3.313   5.154  0.00  0.00     0.000 A 
ATOM     10  C   UNL d   1      -1.733   3.953   3.963  0.00  0.00     0.001 A 
ATOM     11  C   UNL d   1      -1.195   3.512   2.754  0.00  0.00     0.017 A 
ENDBRANCH   3   6
ENDBRANCH   1   2
BRANCH   1  12
ATOM     12  C   UNL d   1       0.377   0.643  -1.358  0.00  0.00     0.441 C 
ATOM     13  F   UNL d   1      -0.936   0.976  -1.347  0.00  0.00    -0.166 F 
ATOM     14  F   UNL d   1       1.081   1.763  -1.659  0.00  0.00    -0.166 F 
ATOM     15  F   UNL d   1       0.567  -0.193  -2.410  0.00  0.00    -0.166 F 
ENDBRANCH   1  12
BRANCH   1  16
ATOM     16  C   UNL d   1       0.302  -1.454  -0.168  0.00  0.00     0.441 C 
ATOM     17  F   UNL d   1       0.143  -2.055   1.046  0.00  0.00    -0.166 F 
ATOM     18  F   UNL d   1      -0.923  -1.504  -0.744  0.00  0.00    -0.166 F 
ATOM     19  F   UNL d   1       1.124  -2.247  -0.890  0.00  0.00    -0.166 F 
ENDBRANCH   1  16
BRANCH   1  20
ATOM     20  N   UNL d   1       2.322   0.130   0.136  0.00  0.00    -0.349 N 
ATOM     21  H   UNL d   1       2.620   1.052  -0.197  0.00  0.00     0.162 HD
BRANCH  20  22
ATOM     22  C   UNL d   1       3.188  -0.397   1.072  0.00  0.00     0.030 A 
ATOM     23  C   UNL d   1       2.835  -1.277   2.095  0.00  0.00     0.031 A 
ATOM     24  C   UNL d   1       3.800  -1.824   2.955  0.00  0.00     0.026 A 
ATOM     25  C   UNL d   1       5.142  -1.509   2.788  0.00  0.00     0.034 A 
ATOM     26  C   UNL d   1       5.529  -0.653   1.766  0.00  0.00     0.026 A 
ATOM     27 CL   UNL d   1       6.322  -2.185   3.840  0.00  0.00    -0.084 Cl
ATOM     28  C   UNL d   1       4.557  -0.112   0.917  0.00  0.00     0.031 A 
ENDBRANCH  20  22
ENDBRANCH   1  20
TORSDOF 6
