REMARK  3 active torsions:
REMARK  status: ('A' for Active; 'I' for Inactive)
REMARK    1  A    between atoms: C_10  and  C_5 
REMARK    2  A    between atoms: S_13  and  C_6 
REMARK    3  A    between atoms: O_16  and  C_10 
ROOT
ATOM      1  S   UNL d   1      -1.046  -2.209   0.331  0.00  0.00     0.267 S 
ATOM      2  C   UNL d   1      -1.806  -0.668   0.204  0.00  0.00     0.116 C 
ATOM      3  C   UNL d   1      -0.946   0.484   0.026  0.00  0.00     0.025 C 
ATOM      4  N   UNL d   1       0.395  -2.022  -0.514  0.00  0.00    -0.275 N 
ATOM      5  C   UNL d   1      -1.710   1.619  -0.233  0.00  0.00     0.092 C 
ATOM      6  C   UNL d   1      -3.152  -0.386   0.198  0.00  0.00     0.066 C 
ATOM      7  S   UNL d   1      -3.388   1.294  -0.033  0.00  0.00    -0.074 SA
ATOM      8  C   UNL d   1       0.536   0.397   0.034  0.00  0.00     0.005 A 
ATOM      9  C   UNL d   1       1.176  -0.847  -0.223  0.00  0.00     0.056 A 
ATOM     10  O   UNL d   1      -1.897  -3.126  -0.398  0.00  0.00    -0.200 OA
ATOM     11  O   UNL d   1      -0.783  -2.348   1.745  0.00  0.00    -0.200 OA
ATOM     12  C   UNL d   1       0.927  -3.159  -1.263  0.00  0.00     0.170 C 
ATOM     13  C   UNL d   1       1.345   1.500   0.351  0.00  0.00     0.014 A 
ATOM     14  C   UNL d   1       2.577  -0.929  -0.216  0.00  0.00     0.031 A 
ATOM     15  C   UNL d   1       2.741   1.406   0.336  0.00  0.00     0.001 A 
ATOM     16  C   UNL d   1       3.356   0.195   0.050  0.00  0.00     0.002 A 
ENDROOT
BRANCH   5  17
ATOM     17  C   UNL d   1      -1.328   2.950  -0.686  0.00  0.00     0.184 C 
ATOM     18  O   UNL d   1      -0.338   3.232  -1.345  0.00  0.00    -0.646 OA
BRANCH  17  19
ATOM     19  O   UNL d   1      -2.200   3.915  -0.286  0.00  0.00    -0.772 OA
ATOM     20  H   UNL d   1      -2.962   3.545   0.202  0.00  0.00     0.167 HD
ENDBRANCH  17  19
ENDBRANCH   5  17
BRANCH   6  21
ATOM     21  S   UNL d   1      -4.587  -1.402   0.276  0.00  0.00    -0.126 SA
ATOM     22  C   UNL d   1      -4.284  -2.504   1.668  0.00  0.00     0.096 C 
ENDBRANCH   6  21
TORSDOF 3
