REMARK  5 active torsions:
REMARK  status: ('A' for Active; 'I' for Inactive)
REMARK    1  A    between atoms: N_3  and  C_1 
REMARK    2  A    between atoms: N_7  and  C_4 
REMARK    3  A    between atoms: O_10  and  C_5 
REMARK       I    between atoms: C_6  and  N_7 
REMARK    4  A    between atoms: C_11  and  C_6 
REMARK    5  A    between atoms: C_19  and  O_10 
ROOT
ATOM      1  C   UNL d   1      -0.016   1.238  -0.057  0.00  0.00     0.063 C 
ATOM      2  C   UNL d   1       1.356   1.351  -0.338  0.00  0.00     0.071 C 
ATOM      3  C   UNL d   1       1.684  -1.044  -0.152  0.00  0.00     0.071 C 
ATOM      4  C   UNL d   1       2.178   0.222  -0.490  0.00  0.00     0.105 C 
ATOM      5  C   UNL d   1      -0.541  -0.043   0.150  0.00  0.00     0.063 C 
ATOM      6  C   UNL d   1       0.316  -1.159   0.132  0.00  0.00     0.058 C 
ATOM      7 CL   UNL d   1      -2.225  -0.412   0.288  0.00  0.00    -0.082 Cl
ENDROOT
BRANCH   3   8
ATOM      8  N   UNL d   1       2.574  -2.155  -0.110  0.00  0.00    -0.320 N 
ATOM      9  C   UNL d   1       2.302  -3.375   0.496  0.00  0.00     0.256 C 
ATOM     10  O   UNL d   1       1.264  -3.664   1.086  0.00  0.00    -0.267 OA
ATOM     11  H   UNL d   1       3.529  -1.952  -0.380  0.00  0.00     0.169 HD
BRANCH   9  12
ATOM     12  C   UNL d   1       3.380  -4.407   0.480  0.00  0.00     0.032 A 
ATOM     13  C   UNL d   1       3.374  -5.374   1.502  0.00  0.00     0.018 A 
ATOM     14  C   UNL d   1       4.309  -6.412   1.511  0.00  0.00     0.025 A 
ATOM     15  C   UNL d   1       5.253  -6.490   0.492  0.00  0.00     0.034 A 
ATOM     16  C   UNL d   1       5.272  -5.539  -0.529  0.00  0.00     0.025 A 
ATOM     17 CL   UNL d   1       6.388  -7.783   0.479  0.00  0.00    -0.084 Cl
ATOM     18  C   UNL d   1       4.335  -4.493  -0.540  0.00  0.00     0.018 A 
ENDBRANCH   9  12
ENDBRANCH   3   8
BRANCH   4  19
ATOM     19  O   UNL d   1       3.485   0.336  -0.937  0.00  0.00    -0.308 OA
BRANCH  19  20
ATOM     20  C   UNL d   1       3.773   1.343  -1.844  0.00  0.00     0.076 A 
ATOM     21  C   UNL d   1       4.989   2.011  -1.683  0.00  0.00     0.039 A 
ATOM     22  C   UNL d   1       5.310   3.092  -2.510  0.00  0.00     0.026 A 
ATOM     23  C   UNL d   1       4.415   3.504  -3.498  0.00  0.00     0.034 A 
ATOM     24  C   UNL d   1       3.219   2.817  -3.694  0.00  0.00     0.026 A 
ATOM     25 CL   UNL d   1       4.784   4.869  -4.477  0.00  0.00    -0.084 Cl
ATOM     26  C   UNL d   1       2.913   1.716  -2.889  0.00  0.00     0.039 A 
ENDBRANCH  19  20
ENDBRANCH   4  19
BRANCH   1  27
ATOM     27  N   UNL d   1      -0.780   2.445  -0.031  0.00  0.00    -0.331 N 
ATOM     28  C   UNL d   1      -1.929   2.715   0.682  0.00  0.00     0.096 A 
ATOM     29  C   UNL d   1      -2.309   4.023   0.464  0.00  0.00     0.019 A 
ATOM     30  C   UNL d   1      -1.369   4.592  -0.413  0.00  0.00     0.019 A 
ATOM     31  C   UNL d   1      -0.449   3.612  -0.707  0.00  0.00     0.096 A 
ENDBRANCH   1  27
TORSDOF 5
