REMARK  3 active torsions:
REMARK  status: ('A' for Active; 'I' for Inactive)
REMARK    1  A    between atoms: C_4  and  C_2 
REMARK    2  A    between atoms: C_9  and  C_3 
REMARK       I    between atoms: N_5  and  C_4 
REMARK    3  A    between atoms: C_8  and  N_5 
ROOT
ATOM      1  S   UNL d   1      -0.946   0.029  -0.366  0.00  0.00    -0.083 SA
ATOM      2  C   UNL d   1       0.246   1.254  -0.280  0.00  0.00     0.073 A 
ATOM      3  C   UNL d   1       0.190  -1.228  -0.079  0.00  0.00     0.032 A 
ATOM      4  C   UNL d   1       1.491   0.717  -0.023  0.00  0.00     0.026 A 
ATOM      5  C   UNL d   1       1.460  -0.700   0.087  0.00  0.00     0.023 A 
ENDROOT
BRANCH   2   6
ATOM      6  C   UNL d   1      -0.051   2.664  -0.504  0.00  0.00     0.263 C 
ATOM      7  N   UNL d   1      -1.386   3.016  -0.401  0.00  0.00    -0.321 N 
ATOM      8  H   UNL d   1      -2.005   2.326   0.011  0.00  0.00     0.169 HD
ATOM      9  O   UNL d   1       0.851   3.473  -0.718  0.00  0.00    -0.267 OA
BRANCH   7  10
ATOM     10  C   UNL d   1      -1.947   4.292  -0.643  0.00  0.00     0.056 A 
ATOM     11  C   UNL d   1      -3.219   4.591  -0.124  0.00  0.00     0.060 A 
ATOM     12 CL   UNL d   1      -4.093   3.434   0.821  0.00  0.00    -0.082 Cl
ATOM     13  C   UNL d   1      -3.799   5.848  -0.331  0.00  0.00     0.026 A 
ATOM     14  C   UNL d   1      -3.128   6.809  -1.085  0.00  0.00     0.002 A 
ATOM     15  C   UNL d   1      -1.882   6.512  -1.631  0.00  0.00     0.002 A 
ATOM     16  C   UNL d   1      -1.294   5.263  -1.410  0.00  0.00     0.031 A 
ENDBRANCH   7  10
ENDBRANCH   2   6
BRANCH   3  17
ATOM     17  C   UNL d   1      -0.201  -2.648  -0.040  0.00  0.00     0.049 A 
ATOM     18  N   UNL d   1       0.844  -3.507  -0.165  0.00  0.00    -0.365 N 
ATOM     19  C   UNL d   1       0.579  -4.830  -0.107  0.00  0.00     0.088 A 
ATOM     20  HN  UNL d   1       1.796  -3.165  -0.298  1.00  0.00     0.165 HD
ATOM     21  C   UNL d   1      -0.687  -5.353   0.080  0.00  0.00     0.017 A 
ATOM     22  C   UNL d   1      -1.748  -4.466   0.207  0.00  0.00     0.004 A 
ATOM     23  C   UNL d   1      -1.506  -3.094   0.143  0.00  0.00     0.031 A 
ENDBRANCH   3  17
TORSDOF 3
