REMARK  4 active torsions:
REMARK  status: ('A' for Active; 'I' for Inactive)
REMARK    1  A    between atoms: N_14  and  C_5 
REMARK    2  A    between atoms: C_12  and  C_9 
REMARK    3  A    between atoms: O_15  and  C_12 
REMARK    4  A    between atoms: O_16  and  C_12 
ROOT
ATOM      1  C   UNL d   1       0.224  -0.617  -0.084  0.00  0.00     0.088 A 
ATOM      2  C   UNL d   1       0.291   0.769  -0.037  0.00  0.00     0.026 A 
ATOM      3  C   UNL d   1       2.550   0.145  -0.086  0.00  0.00     0.114 A 
ATOM      4  S   UNL d   1       1.749  -1.361  -0.154  0.00  0.00    -0.058 SA
ATOM      5  C   UNL d   1       1.662   1.203  -0.042  0.00  0.00     0.067 A 
ATOM      6  N   UNL d   1      -0.885  -1.373  -0.078  0.00  0.00    -0.349 N 
ATOM      7  HN  UNL d   1      -0.851  -2.391  -0.129  1.00  0.00     0.166 HD
ATOM      8  C   UNL d   1       3.971   0.239  -0.076  0.00  0.00     0.109 C 
ATOM      9  C   UNL d   1      -2.053  -0.692  -0.000  0.00  0.00     0.065 A 
ATOM     10  N   UNL d   1       5.128   0.335  -0.061  0.00  0.00    -0.191 NA
ATOM     11  C   UNL d   1      -0.945   1.451   0.010  0.00  0.00     0.018 A 
ATOM     12  C   UNL d   1      -2.124   0.701   0.025  0.00  0.00     0.031 A 
ENDROOT
BRANCH   5  13
ATOM     13  N   UNL d   1       2.027   2.506   0.004  0.00  0.00    -0.397 N 
ATOM     14  H   UNL d   1       1.355   3.267   0.038  0.00  0.00     0.156 HD
ATOM     15  H   UNL d   1       2.995   2.822   0.012  0.00  0.00     0.156 HD
ENDBRANCH   5  13
BRANCH   9  16
ATOM     16  C   UNL d   1      -3.347  -1.520  -0.001  0.00  0.00     0.309 C 
BRANCH  16  17
ATOM     17  O   UNL d   1      -3.914  -1.612  -1.314  0.00  0.00    -0.360 OA
ATOM     18  C   UNL d   1      -3.140  -2.403  -2.210  0.00  0.00     0.205 C 
ENDBRANCH  16  17
BRANCH  16  19
ATOM     19  O   UNL d   1      -3.121  -2.794   0.611  0.00  0.00    -0.360 OA
ATOM     20  C   UNL d   1      -4.312  -3.525   0.837  0.00  0.00     0.205 C 
ENDBRANCH  16  19
ENDBRANCH   9  16
TORSDOF 4
