REMARK  3 active torsions:
REMARK  status: ('A' for Active; 'I' for Inactive)
REMARK    1  A    between atoms: C_2  and  C_1 
REMARK    2  A    between atoms: C_4  and  C_2 
REMARK    3  A    between atoms: N_6  and  C_3 
ROOT
ATOM      1  C   UNL d   1      -1.126   0.301   1.496  0.00  0.00     0.014 A 
ATOM      2  C   UNL d   1      -1.793  -0.143   2.647  0.00  0.00     0.017 A 
ATOM      3  C   UNL d   1      -1.859   0.918   0.473  0.00  0.00     0.017 A 
ATOM      4  C   UNL d   1      -3.898   0.605   1.734  0.00  0.00     0.011 A 
ATOM      5  C   UNL d   1      -3.245   1.064   0.590  0.00  0.00     0.020 A 
ATOM      6  C   UNL d   1      -3.178   0.004   2.764  0.00  0.00     0.020 A 
ATOM      7 BR   UNL d   1      -5.770   0.811   1.891  0.00  0.00    -0.051 Br
ENDROOT
BRANCH   1   8
ATOM      8  C   UNL d   1       0.352   0.114   1.428  0.00  0.00     0.183 C 
ATOM      9  O   UNL d   1       1.009   0.053   2.463  0.00  0.00    -0.288 OA
BRANCH   8  10
ATOM     10  C   UNL d   1       0.970  -0.042   0.083  0.00  0.00     0.072 C 
ATOM     11  C   UNL d   1       2.298  -0.135  -0.054  0.00  0.00     0.088 C 
BRANCH  11  12
ATOM     12  N   UNL d   1       3.057  -0.282  -1.209  0.00  0.00    -0.398 N 
ATOM     13  C   UNL d   1       2.512  -0.321  -2.564  0.00  0.00     0.148 C 
ATOM     14  C   UNL d   1       4.511  -0.459  -1.151  0.00  0.00     0.148 C 
ENDBRANCH  11  12
ENDBRANCH   8  10
ENDBRANCH   1   8
TORSDOF 3
