REMARK  5 active torsions:
REMARK  status: ('A' for Active; 'I' for Inactive)
REMARK    1  A    between atoms: N_2  and  C_1 
REMARK    2  A    between atoms: S_5  and  C_3 
REMARK    3  A    between atoms: C_6  and  S_5 
REMARK    4  A    between atoms: C_8  and  C_7 
REMARK    5  A    between atoms: O_20  and  C_8 
ROOT
ATOM      1  C   UNL d   1       0.243  -3.729   2.673  0.00  0.00     0.121 A 
ATOM      2  C   UNL d   1       0.556  -4.057   1.345  0.00  0.00     0.038 A 
ATOM      3  C   UNL d   1      -0.169  -4.690   3.609  0.00  0.00     0.055 A 
ATOM      4  C   UNL d   1      -0.309  -6.020   3.206  0.00  0.00     0.040 A 
ATOM      5  C   UNL d   1       0.373  -5.394   0.957  0.00  0.00     0.022 A 
ATOM      6  C   UNL d   1      -0.066  -6.365   1.871  0.00  0.00     0.020 A 
ENDROOT
BRANCH   2   7
ATOM      7  S   UNL d   1       1.067  -2.887   0.093  0.00  0.00    -0.087 SA
BRANCH   7   8
ATOM      8  C   UNL d   1       2.853  -3.062   0.078  0.00  0.00     0.012 A 
ATOM      9  C   UNL d   1       3.571  -2.577   1.186  0.00  0.00     0.027 A 
ATOM     10  C   UNL d   1       4.977  -2.582   1.224  0.00  0.00    -0.039 A 
ATOM     11  C   UNL d   1       5.687  -1.975   2.401  0.00  0.00     0.050 C 
ATOM     12  C   UNL d   1       5.671  -3.123   0.139  0.00  0.00     0.040 A 
ATOM     13  C   UNL d   1       4.975  -3.601  -0.972  0.00  0.00     0.032 A 
ATOM     14 CL   UNL d   1       7.396  -3.193   0.107  0.00  0.00    -0.084 Cl
ATOM     15  C   UNL d   1       3.567  -3.550  -1.034  0.00  0.00    -0.043 A 
ATOM     16  C   UNL d   1       2.934  -4.001  -2.324  0.00  0.00     0.049 C 
ENDBRANCH   7   8
ENDBRANCH   2   7
BRANCH   1  17
ATOM     17  N   UNL d   1       0.305  -2.359   3.136  0.00  0.00    -0.114 N 
ATOM     18  O   UNL d   1      -0.524  -1.565   2.680  0.00  0.00    -0.532 OA
ATOM     19  O   UNL d   1       1.164  -2.102   3.992  0.00  0.00    -0.532 OA
ENDBRANCH   1  17
BRANCH   4  20
ATOM     20  C   UNL d   1      -0.786  -7.007   4.210  0.00  0.00     0.176 C 
ATOM     21  O   UNL d   1      -1.501  -6.694   5.143  0.00  0.00    -0.646 OA
BRANCH  20  22
ATOM     22  O   UNL d   1      -0.322  -8.258   4.014  0.00  0.00    -0.773 OA
ATOM     23  H   UNL d   1       0.386  -8.356   3.354  0.00  0.00     0.167 HD
ENDBRANCH  20  22
ENDBRANCH   4  20
TORSDOF 5
