REMARK  2 active torsions:
REMARK  status: ('A' for Active; 'I' for Inactive)
REMARK    1  A    between atoms: C_2  and  N_1 
REMARK    2  A    between atoms: N_8  and  C_3 
ROOT
ATOM      1  C   UNL d   1       0.384  -0.026  -1.182  0.00  0.00     0.146 A 
ATOM      2  C   UNL d   1      -0.587   0.967  -1.143  0.00  0.00     0.134 A 
ATOM      3  N   UNL d   1      -1.311   1.224  -2.261  0.00  0.00    -0.351 N 
ATOM      4  HN  UNL d   1      -2.047   1.930  -2.245  1.00  0.00     0.166 HD
ATOM      5  C   UNL d   1       0.658  -0.730  -2.368  0.00  0.00     0.041 A 
ATOM      6  C   UNL d   1      -1.051   0.537  -3.400  0.00  0.00     0.090 A 
ATOM      7  C   UNL d   1      -0.074  -0.433  -3.506  0.00  0.00     0.020 A 
ENDROOT
BRANCH   1   8
ATOM      8  N   UNL d   1       1.141  -0.402  -0.021  0.00  0.00    -0.112 N 
ATOM      9  O   UNL d   1       0.536  -0.985   0.890  0.00  0.00    -0.532 OA
ATOM     10  O   UNL d   1       2.357  -0.176  -0.045  0.00  0.00    -0.532 OA
ENDBRANCH   1   8
BRANCH   2  11
ATOM     11  N   UNL d   1      -0.914   1.829  -0.141  0.00  0.00    -0.379 N 
ATOM     12  C   UNL d   1      -0.494   1.868   1.234  0.00  0.00     0.147 C 
ATOM     13  H   UNL d   1      -1.725   2.385  -0.394  0.00  0.00     0.160 HD
ENDBRANCH   2  11
TORSDOF 2
