REMARK  5 active torsions:
REMARK  status: ('A' for Active; 'I' for Inactive)
REMARK       I    between atoms: N_3  and  C_1 
REMARK    1  A    between atoms: C_4  and  C_1 
REMARK    2  A    between atoms: C_2  and  C_8 
REMARK       I    between atoms: C_5  and  N_3 
REMARK       I    between atoms: N_9  and  C_5 
REMARK    3  A    between atoms: N_11  and  C_6 
REMARK    4  A    between atoms: N_12  and  C_7 
REMARK    5  A    between atoms: C_8  and  N_9 
ROOT
ATOM      1  C   UNL d   1       0.219   2.029  -3.248  0.00  0.00     0.265 C 
ATOM      2  N   UNL d   1       1.151   1.373  -2.456  0.00  0.00    -0.275 N 
ATOM      3  C   UNL d   1       1.515   1.757  -1.181  0.00  0.00     0.323 C 
ATOM      4  N   UNL d   1       2.577   1.005  -0.737  0.00  0.00    -0.338 N 
ATOM      5  O   UNL d   1      -0.023   3.225  -3.248  0.00  0.00    -0.267 OA
ATOM      6  O   UNL d   1       0.966   2.627  -0.523  0.00  0.00    -0.247 OA
ATOM      7  H   UNL d   1       1.375   0.428  -2.683  0.00  0.00     0.173 HD
ATOM      8  H   UNL d   1       2.614   0.059  -1.070  0.00  0.00     0.164 HD
ENDROOT
BRANCH   4   9
ATOM      9  C   UNL d   1       3.200   1.195   0.561  0.00  0.00     0.167 C 
BRANCH   9  10
ATOM     10  C   UNL d   1       4.675   1.567   0.504  0.00  0.00     0.007 A 
ATOM     11  C   UNL d   1       5.154   2.919   0.526  0.00  0.00     0.039 A 
ATOM     12  C   UNL d   1       6.556   3.081   0.677  0.00  0.00     0.030 A 
ATOM     13  C   UNL d   1       7.464   2.032   0.710  0.00  0.00     0.004 A 
ATOM     14  C   UNL d   1       7.000   0.738   0.596  0.00  0.00     0.024 A 
ATOM     15  C   UNL d   1       5.623   0.464   0.501  0.00  0.00     0.020 A 
BRANCH  11  16
ATOM     16  N   UNL d   1       4.438   4.116   0.474  0.00  0.00    -0.389 N 
ATOM     17  C   UNL d   1       3.062   4.341   0.890  0.00  0.00     0.149 C 
ATOM     18  C   UNL d   1       4.916   5.177  -0.432  0.00  0.00     0.149 C 
ENDBRANCH  11  16
BRANCH  15  19
ATOM     19  N   UNL d   1       5.192  -0.890   0.428  0.00  0.00    -0.291 NA
ATOM     20  C   UNL d   1       6.034  -1.897   1.091  0.00  0.00     0.116 C 
ATOM     21  C   UNL d   1       4.764  -1.294  -0.914  0.00  0.00     0.116 C 
ENDBRANCH  15  19
ENDBRANCH   9  10
ENDBRANCH   4   9
BRANCH   1  22
ATOM     22  C   UNL d   1      -0.400   1.154  -4.260  0.00  0.00     0.109 A 
ATOM     23  C   UNL d   1      -0.934  -0.081  -3.894  0.00  0.00     0.135 A 
ATOM     24  F   UNL d   1      -0.892  -0.489  -2.615  0.00  0.00    -0.205 F 
ATOM     25  C   UNL d   1      -1.498  -0.935  -4.839  0.00  0.00     0.043 A 
ATOM     26  C   UNL d   1      -1.525  -0.554  -6.180  0.00  0.00     0.006 A 
ATOM     27  C   UNL d   1      -0.995   0.680  -6.560  0.00  0.00     0.043 A 
ATOM     28  C   UNL d   1      -0.441   1.531  -5.601  0.00  0.00     0.135 A 
ATOM     29  F   UNL d   1       0.100   2.686  -6.014  0.00  0.00    -0.205 F 
ENDBRANCH   1  22
TORSDOF 5
