REMARK  3 active torsions:
REMARK  status: ('A' for Active; 'I' for Inactive)
REMARK       I    between atoms: N_2  and  C_1 
REMARK    1  A    between atoms: C_4  and  C_1 
REMARK    2  A    between atoms: C_3  and  N_2 
REMARK    3  A    between atoms: C_11  and  C_5 
ROOT
ATOM      1  C   UNL d   1       1.012   0.054   0.350  0.00  0.00     0.252 C 
ATOM      2  N   UNL d   1       0.334  -1.132   0.596  0.00  0.00    -0.352 N 
ATOM      3  O   UNL d   1       2.207   0.188   0.576  0.00  0.00    -0.268 OA
ATOM      4  H   UNL d   1      -0.677  -1.119   0.603  0.00  0.00     0.163 HD
ENDROOT
BRANCH   1   5
ATOM      5  C   UNL d   1       0.190   1.166  -0.241  0.00  0.00     0.043 A 
ATOM      6  C   UNL d   1       0.458   2.546   0.015  0.00  0.00    -0.010 A 
ATOM      7  C   UNL d   1      -0.363   3.514  -0.626  0.00  0.00    -0.025 A 
ATOM      8  C   UNL d   1       1.479   3.045   0.866  0.00  0.00     0.013 A 
ATOM      9  C   UNL d   1      -0.147   4.886  -0.417  0.00  0.00     0.012 A 
ATOM     10  C   UNL d   1      -1.397   3.109  -1.481  0.00  0.00     0.012 A 
ATOM     11  C   UNL d   1       0.872   5.338   0.415  0.00  0.00     0.001 A 
ATOM     12  C   UNL d   1       1.687   4.414   1.058  0.00  0.00     0.001 A 
ATOM     13  C   UNL d   1      -1.637   1.764  -1.732  0.00  0.00     0.002 A 
ATOM     14  C   UNL d   1      -0.842   0.799  -1.126  0.00  0.00     0.018 A 
ENDBRANCH   1   5
BRANCH   2  15
ATOM     15  C   UNL d   1       0.997  -2.301   1.170  0.00  0.00     0.089 C 
ATOM     16  C   UNL d   1       0.341  -3.623   0.676  0.00  0.00     0.012 C 
ATOM     17  C   UNL d   1       0.982  -4.833   1.390  0.00  0.00     0.007 C 
ATOM     18  C   UNL d   1       0.977  -4.699   2.910  0.00  0.00     0.005 C 
ATOM     19  C   UNL d   1       1.648  -3.403   3.365  0.00  0.00    -0.017 C 
ATOM     20  C   UNL d   1       0.975  -2.196   2.704  0.00  0.00     0.029 C 
ATOM     21  C   UNL d   1       1.609  -3.288   4.887  0.00  0.00     0.010 C 
BRANCH  16  22
ATOM     22  C   UNL d   1       0.362  -3.769  -0.882  0.00  0.00    -0.017 C 
ATOM     23  C   UNL d   1       1.770  -3.789  -1.486  0.00  0.00     0.010 C 
ATOM     24  C   UNL d   1      -0.418  -5.000  -1.366  0.00  0.00     0.010 C 
ENDBRANCH  16  22
ENDBRANCH   2  15
TORSDOF 3
