REMARK  8 active torsions:
REMARK  status: ('A' for Active; 'I' for Inactive)
REMARK    1  A    between atoms: C_3  and  S_1 
REMARK    2  A    between atoms: O_4  and  S_1 
REMARK    3  A    between atoms: S_2  and  C_3 
REMARK    4  A    between atoms: O_5  and  S_2 
REMARK    5  A    between atoms: C_10  and  O_4 
REMARK    6  A    between atoms: C_11  and  O_5 
REMARK    7  A    between atoms: O_22  and  C_12 
REMARK    8  A    between atoms: O_23  and  C_13 
ROOT
ATOM      1  C   UNL d   1       0.639  -0.610   1.578  0.00  0.00     0.341 C 
ENDROOT
BRANCH   1   2
ATOM      2  S   UNL d   1       1.076  -2.272   1.899  0.00  0.00     0.285 S 
ATOM      3  O   UNL d   1       0.244  -3.159   1.112  0.00  0.00    -0.197 OA
ATOM      4  O   UNL d   1       2.522  -2.364   1.901  0.00  0.00    -0.197 OA
BRANCH   2   5
ATOM      5  O   UNL d   1       0.549  -2.347   3.451  0.00  0.00    -0.232 OA
BRANCH   5   6
ATOM      6  C   UNL d   1       0.734  -3.489   4.198  0.00  0.00     0.089 A 
ATOM      7  C   UNL d   1       1.722  -4.440   3.938  0.00  0.00     0.041 A 
ATOM      8  C   UNL d   1       1.879  -5.559   4.758  0.00  0.00     0.039 A 
ATOM      9  C   UNL d   1       1.048  -5.749   5.857  0.00  0.00     0.068 A 
ATOM     10  C   UNL d   1       0.051  -4.805   6.121  0.00  0.00     0.039 A 
ATOM     11  C   UNL d   1      -0.103  -3.676   5.302  0.00  0.00     0.041 A 
BRANCH   9  12
ATOM     12  O   UNL d   1       1.118  -6.806   6.723  0.00  0.00    -0.356 OA
ATOM     13  C   UNL d   1       2.161  -7.748   6.483  0.00  0.00     0.210 C 
ENDBRANCH   9  12
ENDBRANCH   5   6
ENDBRANCH   2   5
ENDBRANCH   1   2
BRANCH   1  14
ATOM     14  S   UNL d   1       1.038  -0.201  -0.086  0.00  0.00     0.285 S 
ATOM     15  O   UNL d   1       2.415  -0.542  -0.376  0.00  0.00    -0.197 OA
ATOM     16  O   UNL d   1       0.557   1.150  -0.313  0.00  0.00    -0.197 OA
BRANCH  14  17
ATOM     17  O   UNL d   1       0.029  -1.236  -0.827  0.00  0.00    -0.232 OA
BRANCH  17  18
ATOM     18  C   UNL d   1       0.002  -1.437  -2.180  0.00  0.00     0.089 A 
ATOM     19  C   UNL d   1       0.718  -0.713  -3.131  0.00  0.00     0.041 A 
ATOM     20  C   UNL d   1       0.564  -1.002  -4.495  0.00  0.00     0.039 A 
ATOM     21  C   UNL d   1      -0.308  -2.009  -4.912  0.00  0.00     0.068 A 
ATOM     22  C   UNL d   1      -1.007  -2.741  -3.953  0.00  0.00     0.039 A 
ATOM     23  C   UNL d   1      -0.853  -2.459  -2.596  0.00  0.00     0.041 A 
BRANCH  21  24
ATOM     24  O   UNL d   1      -0.568  -2.370  -6.205  0.00  0.00    -0.356 OA
ATOM     25  C   UNL d   1       0.101  -1.640  -7.225  0.00  0.00     0.210 C 
ENDBRANCH  21  24
ENDBRANCH  17  18
ENDBRANCH  14  17
ENDBRANCH   1  14
TORSDOF 8
