REMARK  5 active torsions:
REMARK  status: ('A' for Active; 'I' for Inactive)
REMARK    1  A    between atoms: C_6  and  C_1 
REMARK    2  A    between atoms: C_10  and  C_4 
REMARK       I    between atoms: N_8  and  C_6 
REMARK    3  A    between atoms: N_9  and  N_8 
REMARK    4  A    between atoms: C_15  and  N_9 
REMARK    5  A    between atoms: C_16  and  C_12 
ROOT
ATOM      1  C   UNL d   1       0.434  -2.707  -0.023  0.00  0.00     0.271 C 
ATOM      2  N   UNL d   1      -0.360  -3.845   0.023  0.00  0.00    -0.282 N 
ATOM      3  O   UNL d   1       1.336  -2.611   0.811  0.00  0.00    -0.266 OA
ATOM      4  H   UNL d   1      -0.199  -4.452   0.822  0.00  0.00     0.184 HD
ENDROOT
BRANCH   1   5
ATOM      5  C   UNL d   1       0.183  -1.665  -1.006  0.00  0.00     0.093 A 
ATOM      6  C   UNL d   1       0.458  -0.249  -0.911  0.00  0.00     0.083 A 
ATOM      7  N   UNL d   1       0.089   0.367  -2.047  0.00  0.00    -0.259 N 
ATOM      8  O   UNL d   1      -0.349  -0.602  -2.903  0.00  0.00    -0.241 OA
ATOM      9  HN  UNL d   1       0.128   1.369  -2.234  1.00  0.00     0.195 HD
ATOM     10  C   UNL d   1      -0.259  -1.815  -2.311  0.00  0.00     0.090 A 
ATOM     11  C   UNL d   1      -0.594  -2.945  -3.201  0.00  0.00     0.080 C 
BRANCH   6  12
ATOM     12  C   UNL d   1       1.052   0.566   0.159  0.00  0.00    -0.006 A 
ATOM     13  C   UNL d   1       0.824   0.316   1.517  0.00  0.00     0.014 A 
ATOM     14  C   UNL d   1       1.383   1.145   2.498  0.00  0.00     0.001 A 
ATOM     15  C   UNL d   1       2.168   2.238   2.137  0.00  0.00     0.000 A 
ATOM     16  C   UNL d   1       2.400   2.506   0.792  0.00  0.00     0.001 A 
ATOM     17  C   UNL d   1       1.848   1.675  -0.186  0.00  0.00     0.014 A 
ENDBRANCH   6  12
ENDBRANCH   1   5
BRANCH   2  18
ATOM     18  N   UNL d   1      -1.619  -3.931  -0.577  0.00  0.00    -0.203 NA
ATOM     19  H   UNL d   1      -2.352  -3.401  -0.103  0.00  0.00     0.153 HD
BRANCH  18  20
ATOM     20  C   UNL d   1      -2.041  -5.234  -0.943  0.00  0.00     0.027 A 
ATOM     21  C   UNL d   1      -3.369  -5.412  -1.357  0.00  0.00     0.026 A 
ATOM     22  C   UNL d   1      -3.828  -6.651  -1.825  0.00  0.00     0.009 A 
ATOM     23  C   UNL d   1      -2.966  -7.751  -1.907  0.00  0.00    -0.055 A 
ATOM     24  C   UNL d   1      -1.630  -7.569  -1.528  0.00  0.00     0.009 A 
ATOM     25  C   UNL d   1      -1.171  -6.325  -1.073  0.00  0.00     0.026 A 
BRANCH  23  26
ATOM     26  C   UNL d   1      -3.439  -9.104  -2.412  0.00  0.00     0.010 C 
ATOM     27  C   UNL d   1      -4.552  -9.681  -1.532  0.00  0.00     0.015 C 
ATOM     28  C   UNL d   1      -3.886  -9.037  -3.875  0.00  0.00     0.015 C 
ENDBRANCH  23  26
ENDBRANCH  18  20
ENDBRANCH   2  18
TORSDOF 5
