REMARK  8 active torsions:
REMARK  status: ('A' for Active; 'I' for Inactive)
REMARK    1  A    between atoms: C_6  and  C_1 
REMARK    2  A    between atoms: C_8  and  C_2 
REMARK    3  A    between atoms: C_13  and  N_3 
REMARK    4  A    between atoms: O_12  and  C_8 
REMARK    5  A    between atoms: N_9  and  O_12 
REMARK    6  A    between atoms: C_14  and  C_11 
REMARK    7  A    between atoms: N_25  and  C_11 
REMARK    8  A    between atoms: C_15  and  C_16 
ROOT
ATOM      1  C   UNL d   1       1.128  -0.879  -0.348  0.00  0.00     0.318 C 
ATOM      2  O   UNL d   1      -0.003  -1.163  -0.730  0.00  0.00    -0.257 OA
ENDROOT
BRANCH   1   3
ATOM      3  C   UNL d   1       1.518   0.496  -0.067  0.00  0.00     0.091 C 
ATOM      4  C   UNL d   1       0.874   1.656  -0.494  0.00  0.00     0.158 C 
ATOM      5  N   UNL d   1       1.538   2.722   0.084  0.00  0.00    -0.251 N 
ATOM      6  N   UNL d   1       2.687   2.300   0.684  0.00  0.00    -0.303 N 
ATOM      7  C   UNL d   1       2.626   0.971   0.652  0.00  0.00     0.127 C 
ATOM      8  HN  UNL d   1       3.432   2.878   1.072  1.00  0.00     0.186 HD
BRANCH   4   9
ATOM      9  C   UNL d   1      -0.227   1.819  -1.461  0.00  0.00     0.435 C 
ATOM     10  F   UNL d   1      -0.258   0.823  -2.380  0.00  0.00    -0.165 F 
ATOM     11  F   UNL d   1      -1.436   1.847  -0.851  0.00  0.00    -0.165 F 
ATOM     12  F   UNL d   1      -0.119   2.960  -2.187  0.00  0.00    -0.165 F 
ENDBRANCH   4   9
BRANCH   5  13
ATOM     13  C   UNL d   1       1.221   4.114   0.104  0.00  0.00     0.057 A 
ATOM     14  C   UNL d   1      -0.099   4.578   0.040  0.00  0.00     0.031 A 
ATOM     15  C   UNL d   1      -0.360   5.951  -0.028  0.00  0.00     0.002 A 
ATOM     16  C   UNL d   1       0.689   6.867  -0.016  0.00  0.00     0.000 A 
ATOM     17  C   UNL d   1       2.002   6.416   0.104  0.00  0.00     0.002 A 
ATOM     18  C   UNL d   1       2.268   5.046   0.184  0.00  0.00     0.031 A 
ENDBRANCH   5  13
ENDBRANCH   1   3
BRANCH   1  19
ATOM     19  O   UNL d   1       2.156  -1.774  -0.123  0.00  0.00    -0.193 OA
BRANCH  19  20
ATOM     20  N   UNL d   1       1.695  -3.098  -0.303  0.00  0.00    -0.246 N 
ATOM     21  C   UNL d   1       2.611  -3.975  -0.015  0.00  0.00     0.109 C 
ATOM     22  HN  UNL d   1       0.756  -3.336  -0.620  1.00  0.00     0.196 HD
BRANCH  21  23
ATOM     23  C   UNL d   1       2.235  -5.425  -0.072  0.00  0.00     0.004 A 
ATOM     24  C   UNL d   1       1.302  -5.886  -1.000  0.00  0.00     0.015 A 
ATOM     25  C   UNL d   1       0.933  -7.240  -1.013  0.00  0.00     0.009 A 
ATOM     26  C   UNL d   1       1.467  -8.162  -0.089  0.00  0.00    -0.051 A 
ATOM     27  C   UNL d   1       2.414  -7.674   0.827  0.00  0.00     0.009 A 
ATOM     28  C   UNL d   1       2.797  -6.325   0.836  0.00  0.00     0.015 A 
BRANCH  26  29
ATOM     29  C   UNL d   1       0.990  -9.628  -0.086  0.00  0.00    -0.024 C 
ATOM     30  C   UNL d   1       1.639 -10.494   1.018  0.00  0.00     0.019 C 
ATOM     31  C   UNL d   1      -0.537  -9.677   0.144  0.00  0.00     0.019 C 
ATOM     32  C   UNL d   1       1.317 -10.295  -1.439  0.00  0.00     0.019 C 
ENDBRANCH  26  29
ENDBRANCH  21  23
BRANCH  21  33
ATOM     33  N   UNL d   1       3.903  -3.652   0.336  0.00  0.00    -0.286 NA
ATOM     34  H   UNL d   1       4.162  -2.713   0.058  0.00  0.00     0.125 HD
ATOM     35  H   UNL d   1       4.605  -4.337   0.073  0.00  0.00     0.125 HD
ENDBRANCH  21  33
ENDBRANCH  19  20
ENDBRANCH   1  19
TORSDOF 8
