REMARK  2 active torsions:
REMARK  status: ('A' for Active; 'I' for Inactive)
REMARK    1  A    between atoms: O_7  and  C_1 
REMARK    2  A    between atoms: C_8  and  O_7 
ROOT
ATOM      1  C   UNL d   1       0.145  -1.020  -0.011  0.00  0.00     0.123 A 
ATOM      2  N   UNL d   1      -0.759   1.068   0.014  0.00  0.00    -0.302 N 
ATOM      3  HN  UNL d   1      -1.414   1.849   0.056  1.00  0.00     0.186 HD
ATOM      4  N   UNL d   1       0.579   1.115  -0.052  0.00  0.00    -0.302 N 
ATOM      5  C   UNL d   1       1.183  -0.115  -0.106  0.00  0.00     0.057 A 
ATOM      6  C   UNL d   1      -1.037  -0.242   0.011  0.00  0.00     0.057 A 
ATOM      7  C   UNL d   1       2.650  -0.244  -0.262  0.00  0.00     0.072 C 
ATOM      8  C   UNL d   1      -2.440  -0.718   0.031  0.00  0.00     0.072 C 
ATOM      9  H   UNL d   1       1.022   2.027  -0.077  0.00  0.00     0.186 HD
ENDROOT
BRANCH   1  10
ATOM     10  O   UNL d   1       0.188  -2.369  -0.043  0.00  0.00    -0.307 OA
BRANCH  10  11
ATOM     11  C   UNL d   1       1.166  -3.107   0.577  0.00  0.00     0.076 A 
ATOM     12  C   UNL d   1       1.795  -2.718   1.761  0.00  0.00     0.039 A 
ATOM     13  C   UNL d   1       2.789  -3.525   2.321  0.00  0.00     0.026 A 
ATOM     14  C   UNL d   1       3.115  -4.740   1.722  0.00  0.00     0.034 A 
ATOM     15  C   UNL d   1       2.447  -5.161   0.573  0.00  0.00     0.026 A 
ATOM     16 CL   UNL d   1       4.343  -5.729   2.409  0.00  0.00    -0.084 Cl
ATOM     17  C   UNL d   1       1.470  -4.343   0.001  0.00  0.00     0.039 A 
ENDBRANCH  10  11
ENDBRANCH   1  10
TORSDOF 2
