REMARK  4 active torsions:
REMARK  status: ('A' for Active; 'I' for Inactive)
REMARK    1  A    between atoms: C_10  and  C_1 
REMARK    2  A    between atoms: C_7  and  C_2 
REMARK    3  A    between atoms: C_8  and  C_10 
REMARK    4  A    between atoms: N_15  and  C_11 
ROOT
ATOM      1  C   UNL d   1      -0.852   0.958   0.058  0.00  0.00     0.151 A 
ATOM      2  C   UNL d   1      -0.306  -1.198  -0.015  0.00  0.00     0.069 A 
ATOM      3  C   UNL d   1      -1.400  -0.302   0.091  0.00  0.00     0.076 A 
ATOM      4  N   UNL d   1       0.847  -0.505  -0.032  0.00  0.00    -0.260 N 
ATOM      5  HN  UNL d   1       1.790  -0.891  -0.062  1.00  0.00     0.195 HD
ATOM      6  O   UNL d   1       0.501   0.834   0.001  0.00  0.00    -0.233 OA
ENDROOT
BRANCH   2   7
ATOM      7  C   UNL d   1      -0.324  -2.664  -0.057  0.00  0.00     0.014 A 
ATOM      8  C   UNL d   1      -1.320  -3.411  -0.719  0.00  0.00     0.048 A 
ATOM      9  C   UNL d   1      -1.316  -4.811  -0.671  0.00  0.00     0.048 A 
ATOM     10 CL   UNL d   1      -2.572  -2.695  -1.677  0.00  0.00    -0.083 Cl
ATOM     11  C   UNL d   1      -0.308  -5.482   0.012  0.00  0.00     0.035 A 
ATOM     12  C   UNL d   1       0.707  -4.770   0.641  0.00  0.00     0.025 A 
ATOM     13 CL   UNL d   1      -0.313  -7.201   0.069  0.00  0.00    -0.084 Cl
ATOM     14  C   UNL d   1       0.698  -3.371   0.607  0.00  0.00     0.017 A 
ENDBRANCH   2   7
BRANCH   1  15
ATOM     15  C   UNL d   1      -1.485   2.256   0.065  0.00  0.00     0.208 C 
ATOM     16  O   UNL d   1      -2.709   2.379   0.082  0.00  0.00    -0.285 OA
BRANCH  15  17
ATOM     17  C   UNL d   1      -0.610   3.468   0.046  0.00  0.00     0.074 C 
ATOM     18  C   UNL d   1      -1.149   4.693   0.013  0.00  0.00     0.088 C 
BRANCH  18  19
ATOM     19  N   UNL d   1      -0.532   5.938  -0.005  0.00  0.00    -0.398 N 
ATOM     20  C   UNL d   1       0.913   6.150   0.025  0.00  0.00     0.148 C 
ATOM     21  C   UNL d   1      -1.313   7.177  -0.048  0.00  0.00     0.148 C 
ENDBRANCH  18  19
ENDBRANCH  15  17
ENDBRANCH   1  15
TORSDOF 4
