REMARK  7 active torsions:
REMARK  status: ('A' for Active; 'I' for Inactive)
REMARK    1  A    between atoms: S_6  and  C_1 
REMARK    2  A    between atoms: C_7  and  C_5 
REMARK    3  A    between atoms: C_14  and  S_6 
REMARK    4  A    between atoms: O_13  and  C_7 
REMARK    5  A    between atoms: C_17  and  O_13 
REMARK    6  A    between atoms: C_18  and  C_14 
REMARK    7  A    between atoms: C_19  and  C_18 
ROOT
ATOM      1  C   UNL d   1       1.935   0.849  -0.143  0.00  0.00     0.087 A 
ATOM      2  C   UNL d   1       0.565   0.667  -0.139  0.00  0.00     0.044 A 
ATOM      3  C   UNL d   1       0.223  -0.741  -0.063  0.00  0.00    -0.019 A 
ATOM      4  S   UNL d   1       2.782  -0.615  -0.007  0.00  0.00    -0.073 SA
ATOM      5  C   UNL d   1       1.348  -1.553  -0.004  0.00  0.00     0.088 A 
ATOM      6  C   UNL d   1      -0.469   1.704  -0.114  0.00  0.00     0.162 C 
ATOM      7  O   UNL d   1      -0.233   2.893  -0.326  0.00  0.00    -0.292 OA
ATOM      8  C   UNL d   1      -1.210  -1.202   0.025  0.00  0.00     0.042 C 
ATOM      9  C   UNL d   1      -1.867   1.234   0.265  0.00  0.00     0.084 C 
ATOM     10  C   UNL d   1      -2.189  -0.102  -0.400  0.00  0.00     0.012 C 
ENDROOT
BRANCH   1  11
ATOM     11  S   UNL d   1       2.745   2.405  -0.143  0.00  0.00     0.057 S 
ATOM     12  O   UNL d   1       3.861   2.278   0.859  0.00  0.00    -0.252 OA
BRANCH  11  13
ATOM     13  C   UNL d   1       3.633   2.246  -1.745  0.00  0.00     0.115 C 
BRANCH  13  14
ATOM     14  C   UNL d   1       2.723   2.114  -2.955  0.00  0.00     0.012 C 
BRANCH  14  15
ATOM     15  C   UNL d   1       3.553   2.055  -4.242  0.00  0.00    -0.004 C 
ATOM     16  C   UNL d   1       2.673   1.877  -5.468  0.00  0.00     0.005 C 
ENDBRANCH  14  15
ENDBRANCH  13  14
ENDBRANCH  11  13
ENDBRANCH   1  11
BRANCH   5  17
ATOM     17  C   UNL d   1       1.404  -2.999   0.164  0.00  0.00     0.300 C 
ATOM     18  O   UNL d   1       0.440  -3.718   0.391  0.00  0.00    -0.259 OA
BRANCH  17  19
ATOM     19  O   UNL d   1       2.695  -3.441   0.118  0.00  0.00    -0.317 OA
BRANCH  19  20
ATOM     20  C   UNL d   1       2.954  -4.683   0.780  0.00  0.00     0.174 C 
ATOM     21  C   UNL d   1       3.137  -4.399   2.261  0.00  0.00     0.034 C 
ENDBRANCH  19  20
ENDBRANCH  17  19
ENDBRANCH   5  17
TORSDOF 7
