REMARK  6 active torsions:
REMARK  status: ('A' for Active; 'I' for Inactive)
REMARK    1  A    between atoms: C_2  and  C_1 
REMARK    2  A    between atoms: C_4  and  C_1 
REMARK    3  A    between atoms: C_9  and  C_2 
REMARK    4  A    between atoms: S_10  and  C_3 
REMARK    5  A    between atoms: S_11  and  C_3 
REMARK    6  A    between atoms: N_5  and  C_4 
ROOT
ATOM      1  C   UNL d   1       0.991  -0.017  -0.098  0.00  0.00     0.100 C 
ATOM      2  C   UNL d   1       0.292   0.425   0.981  0.00  0.00     0.059 C 
ENDROOT
BRANCH   1   3
ATOM      3  C   UNL d   1       0.356  -0.590  -1.335  0.00  0.00     0.203 C 
ATOM      4  O   UNL d   1      -0.653  -1.289  -1.278  0.00  0.00    -0.286 OA
BRANCH   3   5
ATOM      5  C   UNL d   1       1.020  -0.431  -2.665  0.00  0.00     0.015 A 
ATOM      6  C   UNL d   1       0.784  -1.428  -3.626  0.00  0.00     0.015 A 
ATOM      7  C   UNL d   1       1.405  -1.374  -4.875  0.00  0.00     0.001 A 
ATOM      8  C   UNL d   1       2.265  -0.322  -5.175  0.00  0.00     0.000 A 
ATOM      9  C   UNL d   1       2.482   0.690  -4.242  0.00  0.00     0.001 A 
ATOM     10  C   UNL d   1       1.847   0.650  -2.995  0.00  0.00     0.015 A 
ENDBRANCH   3   5
ENDBRANCH   1   3
BRANCH   1  11
ATOM     11  C   UNL d   1       2.511  -0.017  -0.098  0.00  0.00    -0.031 C 
BRANCH  11  12
ATOM     12  N   UNL d   1       3.772  -0.017  -0.098  0.00  0.00    -0.365 N 
ATOM     13  HN2 UNL d   1       2.752  -0.017  -0.098  1.00  0.00     0.165 HD
ATOM     14  HN1 UNL d   1       4.792  -0.017  -0.098  1.00  0.00     0.165 HD
ENDBRANCH  11  12
ENDBRANCH   1  11
BRANCH   2  15
ATOM     15  S   UNL d   1       1.180   0.996   2.402  0.00  0.00    -0.126 SA
ATOM     16  C   UNL d   1      -0.064   1.580   3.571  0.00  0.00     0.096 C 
ENDBRANCH   2  15
BRANCH   2  17
ATOM     17  S   UNL d   1      -1.460   0.548   0.969  0.00  0.00    -0.126 SA
ATOM     18  C   UNL d   1      -1.898  -1.065   1.669  0.00  0.00     0.096 C 
ENDBRANCH   2  17
TORSDOF 6
