REMARK  2 active torsions:
REMARK  status: ('A' for Active; 'I' for Inactive)
REMARK    1  A    between atoms: C_6  and  C_3 
REMARK    2  A    between atoms: C_7  and  C_6 
REMARK       I    between atoms: N_11  and  C_7 
ROOT
ATOM      1  N   UNL d   1      -0.029  -0.833   1.065  0.00  0.00    -0.324 N 
ATOM      2  HN  UNL d   1      -0.170  -1.398   1.903  1.00  0.00     0.169 HD
ATOM      3  C   UNL d   1       0.772  -1.160   0.107  0.00  0.00     0.058 A 
ATOM      4  C   UNL d   1      -0.671   0.363   0.830  0.00  0.00     0.232 A 
ATOM      5  S   UNL d   1       0.862  -0.090  -1.268  0.00  0.00    -0.107 SA
ATOM      6  O   UNL d   1      -1.526   0.828   1.575  0.00  0.00    -0.272 OA
ATOM      7  C   UNL d   1      -0.240   1.075  -0.435  0.00  0.00     0.183 A 
ENDROOT
BRANCH   3   8
ATOM      8  C   UNL d   1       1.554  -2.434   0.098  0.00  0.00     0.167 C 
BRANCH   8   9
ATOM      9  C   UNL d   1       3.038  -2.261   0.271  0.00  0.00     0.221 C 
ATOM     10  O   UNL d   1       3.606  -1.185   0.418  0.00  0.00    -0.273 OA
ATOM     11  N   UNL d   1       3.750  -3.428   0.244  0.00  0.00    -0.370 N 
ATOM     12  H   UNL d   1       3.318  -4.341   0.266  0.00  0.00     0.159 HD
ATOM     13  H   UNL d   1       4.750  -3.367   0.395  0.00  0.00     0.159 HD
ENDBRANCH   8   9
ENDBRANCH   3   8
TORSDOF 2
