REMARK  4 active torsions:
REMARK  status: ('A' for Active; 'I' for Inactive)
REMARK       I    between atoms: C_4  and  N_6 
REMARK    1  A    between atoms: C_13  and  C_4 
REMARK    2  A    between atoms: N_6  and  C_9 
REMARK    3  A    between atoms: C_15  and  C_13 
REMARK    4  A    between atoms: C_16  and  C_15 
ROOT
ATOM      1  C   UNL d   1      -2.601   3.722  -0.091  0.00  0.00     0.222 C 
ATOM      2  N   UNL d   1      -2.950   2.384  -0.012  0.00  0.00    -0.327 N 
ATOM      3  O   UNL d   1      -1.453   4.155  -0.111  0.00  0.00    -0.273 OA
ATOM      4  H   UNL d   1      -3.938   2.162   0.049  0.00  0.00     0.169 HD
ENDROOT
BRANCH   2   5
ATOM      5  C   UNL d   1      -2.053   1.287  -0.033  0.00  0.00     0.035 A 
ATOM      6  C   UNL d   1      -0.667   1.436  -0.136  0.00  0.00     0.047 A 
ATOM      7  C   UNL d   1       0.120   0.299  -0.162  0.00  0.00     0.050 A 
ATOM      8  C   UNL d   1       1.571   0.216  -0.265  0.00  0.00     0.294 A 
ATOM      9  C   UNL d   1      -0.401  -0.972  -0.094  0.00  0.00    -0.018 A 
ATOM     10  O   UNL d   1       1.881  -1.115  -0.256  0.00  0.00    -0.313 OA
ATOM     11  O   UNL d   1       2.352   1.141  -0.344  0.00  0.00    -0.259 OA
ATOM     12  C   UNL d   1       0.705  -1.947  -0.153  0.00  0.00     0.218 A 
ATOM     13  C   UNL d   1      -1.768  -1.153   0.008  0.00  0.00     0.012 A 
ATOM     14  C   UNL d   1      -2.594  -0.016   0.039  0.00  0.00     0.030 A 
ENDBRANCH   2   5
BRANCH   1  15
ATOM     15  C   UNL d   1      -3.781   4.673  -0.124  0.00  0.00     0.108 C 
BRANCH  15  16
ATOM     16  C   UNL d   1      -3.365   5.932  -0.887  0.00  0.00     0.047 C 
BRANCH  16  17
ATOM     17  C   UNL d   1      -4.435   6.986  -0.978  0.00  0.00    -0.058 A 
ATOM     18  C   UNL d   1      -4.502   8.009  -0.023  0.00  0.00     0.007 A 
ATOM     19  C   UNL d   1      -5.436   9.037  -0.153  0.00  0.00     0.001 A 
ATOM     20  C   UNL d   1      -6.316   9.046  -1.233  0.00  0.00     0.000 A 
ATOM     21  C   UNL d   1      -6.271   8.022  -2.177  0.00  0.00     0.001 A 
ATOM     22  C   UNL d   1      -5.338   6.993  -2.049  0.00  0.00     0.007 A 
ENDBRANCH  16  17
ENDBRANCH  15  16
ENDBRANCH   1  15
TORSDOF 4
