REMARK  3 active torsions:
REMARK  status: ('A' for Active; 'I' for Inactive)
REMARK       I    between atoms: C_3  and  N_1 
REMARK    1  A    between atoms: C_5  and  C_3 
REMARK    2  A    between atoms: N_6  and  C_4 
REMARK    3  A    between atoms: S_10  and  C_4 
ROOT
ATOM      1  N   UNL d   1       1.382   0.105  -0.256  0.00  0.00    -0.303 N 
ATOM      2  HN  UNL d   1       0.943  -0.749  -0.601  1.00  0.00     0.171 HD
ATOM      3  C   UNL d   1       0.691   1.280  -0.383  0.00  0.00     0.261 C 
ATOM      4  C   UNL d   1       2.565   0.013   0.277  0.00  0.00     0.144 C 
ATOM      5  O   UNL d   1       0.759   2.266   0.343  0.00  0.00    -0.267 OA
ENDROOT
BRANCH   3   6
ATOM      6  C   UNL d   1      -0.327   1.289  -1.462  0.00  0.00     0.075 A 
ATOM      7  C   UNL d   1       0.019   0.967  -2.783  0.00  0.00     0.051 A 
ATOM      8 CL   UNL d   1       1.630   0.583  -3.283  0.00  0.00    -0.083 Cl
ATOM      9  C   UNL d   1      -0.954   0.991  -3.792  0.00  0.00     0.025 A 
ATOM     10  C   UNL d   1      -2.268   1.350  -3.502  0.00  0.00     0.003 A 
ATOM     11  C   UNL d   1      -2.616   1.680  -2.195  0.00  0.00     0.025 A 
ATOM     12  C   UNL d   1      -1.656   1.644  -1.175  0.00  0.00     0.051 A 
ATOM     13 CL   UNL d   1      -2.228   2.000   0.421  0.00  0.00    -0.083 Cl
ENDBRANCH   3   6
BRANCH   4  14
ATOM     14  N   UNL d   1       3.197  -1.216   0.359  0.00  0.00    -0.362 N 
ATOM     15  C   UNL d   1       2.646  -2.427  -0.236  0.00  0.00     0.125 C 
ATOM     16  C   UNL d   1       3.172  -3.535   0.665  0.00  0.00     0.021 C 
ATOM     17  C   UNL d   1       4.559  -3.040   1.030  0.00  0.00     0.021 C 
ATOM     18  C   UNL d   1       4.378  -1.529   1.160  0.00  0.00     0.125 C 
ENDBRANCH   4  14
BRANCH   4  19
ATOM     19  S   UNL d   1       3.491   1.376   0.912  0.00  0.00    -0.098 SA
ATOM     20  C   UNL d   1       2.812   1.384   2.589  0.00  0.00     0.099 C 
ENDBRANCH   4  19
TORSDOF 3
