REMARK  3 active torsions:
REMARK  status: ('A' for Active; 'I' for Inactive)
REMARK    1  A    between atoms: C_8  and  C_1 
REMARK    2  A    between atoms: N_5  and  C_10 
REMARK    3  A    between atoms: C_11  and  C_9 
ROOT
ATOM      1  C   UNL d   1      -0.227  -1.033  -0.021  0.00  0.00     0.177 A 
ATOM      2  O   UNL d   1      -1.077   0.035   0.097  0.00  0.00    -0.273 OA
ATOM      3  N   UNL d   1       1.032  -0.670  -0.143  0.00  0.00    -0.277 N 
ATOM      4  HN  UNL d   1       1.836  -1.286  -0.268  1.00  0.00     0.189 HD
ATOM      5  N   UNL d   1       1.051   0.705  -0.070  0.00  0.00    -0.277 N 
ATOM      6  HN  UNL d   1       1.874   1.307  -0.113  1.00  0.00     0.189 HD
ATOM      7  C   UNL d   1      -0.202   1.093   0.067  0.00  0.00     0.174 A 
ENDROOT
BRANCH   1   8
ATOM      8  C   UNL d   1      -0.821  -2.356  -0.136  0.00  0.00     0.050 A 
ATOM      9  C   UNL d   1      -1.980  -2.776   0.532  0.00  0.00     0.117 A 
ATOM     10  C   UNL d   1      -2.536  -4.050   0.332  0.00  0.00     0.037 A 
ATOM     11  C   UNL d   1      -1.917  -4.935  -0.548  0.00  0.00     0.002 A 
ATOM     12  C   UNL d   1      -0.751  -4.553  -1.209  0.00  0.00     0.001 A 
ATOM     13  C   UNL d   1      -0.208  -3.280  -1.002  0.00  0.00     0.018 A 
BRANCH   9  14
ATOM     14  N   UNL d   1      -2.627  -1.919   1.506  0.00  0.00    -0.115 N 
ATOM     15  O   UNL d   1      -1.954  -1.559   2.480  0.00  0.00    -0.532 OA
ATOM     16  O   UNL d   1      -3.817  -1.640   1.306  0.00  0.00    -0.532 OA
ENDBRANCH   9  14
ENDBRANCH   1   8
BRANCH   7  17
ATOM     17  C   UNL d   1      -0.755   2.438   0.157  0.00  0.00     0.017 A 
ATOM     18  C   UNL d   1      -2.132   2.673   0.294  0.00  0.00     0.017 A 
ATOM     19  C   UNL d   1      -2.627   3.980   0.380  0.00  0.00     0.025 A 
ATOM     20  C   UNL d   1      -1.750   5.061   0.329  0.00  0.00     0.034 A 
ATOM     21  C   UNL d   1      -0.382   4.848   0.187  0.00  0.00     0.025 A 
ATOM     22 CL   UNL d   1      -2.359   6.665   0.443  0.00  0.00    -0.084 Cl
ATOM     23  C   UNL d   1       0.112   3.543   0.101  0.00  0.00     0.017 A 
ENDBRANCH   7  17
TORSDOF 3
