REMARK  6 active torsions:
REMARK  status: ('A' for Active; 'I' for Inactive)
REMARK    1  A    between atoms: C_9  and  C_3 
REMARK    2  A    between atoms: S_16  and  C_12 
REMARK    3  A    between atoms: C_15  and  C_21 
REMARK       I    between atoms: N_22  and  C_15 
REMARK    4  A    between atoms: C_21  and  S_16 
REMARK    5  A    between atoms: C_19  and  C_27 
REMARK    6  A    between atoms: C_27  and  N_22 
ROOT
ATOM      1  C   UNL d   1      -3.735   0.555  -0.030  0.00  0.00     0.053 A 
ATOM      2  N   UNL d   1      -4.404   0.030   1.018  0.00  0.00    -0.336 N 
ATOM      3  HN  UNL d   1      -3.917  -0.459   1.769  1.00  0.00     0.168 HD
ATOM      4  C   UNL d   1      -5.737   0.178   1.028  0.00  0.00     0.145 A 
ATOM      5  N   UNL d   1      -6.439   0.814   0.081  0.00  0.00    -0.347 N 
ATOM      6  HN  UNL d   1      -7.454   0.896   0.129  1.00  0.00     0.167 HD
ATOM      7  C   UNL d   1      -4.370   1.238  -1.046  0.00  0.00     0.048 A 
ATOM      8  C   UNL d   1      -5.736   1.339  -0.936  0.00  0.00     0.092 A 
ENDROOT
BRANCH   1   9
ATOM      9  C   UNL d   1      -2.279   0.311   0.005  0.00  0.00     0.039 A 
ATOM     10  S   UNL d   1      -1.210   1.529  -0.611  0.00  0.00    -0.079 SA
ATOM     11  C   UNL d   1       0.111   0.581  -0.268  0.00  0.00     0.059 A 
ATOM     12  C   UNL d   1      -0.175  -0.598   0.315  0.00  0.00     0.003 A 
ATOM     13  S   UNL d   1       1.734   0.853  -0.532  0.00  0.00    -0.074 SA
ATOM     14  C   UNL d   1      -1.573  -0.804   0.510  0.00  0.00    -0.030 A 
ATOM     15  C   UNL d   1       0.983  -1.385   0.603  0.00  0.00    -0.025 A 
ATOM     16  C   UNL d   1      -2.281  -1.976   1.113  0.00  0.00     0.050 C 
ATOM     17  C   UNL d   1       1.105  -2.727   1.246  0.00  0.00     0.051 C 
ATOM     18  C   UNL d   1       2.094  -0.667   0.157  0.00  0.00     0.059 A 
ATOM     19 BR   UNL d   1       3.877  -1.266   0.274  0.00  0.00    -0.042 Br
ENDBRANCH   1   9
BRANCH   4  20
ATOM     20  S   UNL d   1      -6.658  -0.565   2.347  0.00  0.00    -0.085 SA
BRANCH  20  21
ATOM     21  C   UNL d   1      -5.427  -0.507   3.683  0.00  0.00     0.185 C 
BRANCH  21  22
ATOM     22  C   UNL d   1      -5.114   0.929   4.062  0.00  0.00     0.227 C 
ATOM     23  O   UNL d   1      -5.850   1.582   4.801  0.00  0.00    -0.273 OA
ATOM     24  N   UNL d   1      -3.953   1.433   3.521  0.00  0.00    -0.357 N 
ATOM     25  H   UNL d   1      -3.524   0.913   2.758  0.00  0.00     0.162 HD
BRANCH  24  26
ATOM     26  C   UNL d   1      -3.612   2.829   3.635  0.00  0.00     0.149 C 
BRANCH  26  27
ATOM     27  C   UNL d   1      -2.192   2.919   4.086  0.00  0.00    -0.018 C 
ATOM     28  C   UNL d   1      -1.228   3.591   3.442  0.00  0.00     0.008 C 
ENDBRANCH  26  27
ENDBRANCH  24  26
ENDBRANCH  21  22
ENDBRANCH  20  21
ENDBRANCH   4  20
TORSDOF 6
