REMARK  6 active torsions:
REMARK  status: ('A' for Active; 'I' for Inactive)
REMARK    1  A    between atoms: C_2  and  C_1 
REMARK    2  A    between atoms: C_3  and  C_2 
REMARK    3  A    between atoms: C_4  and  O_9 
REMARK    4  A    between atoms: O_9  and  C_5 
REMARK    5  A    between atoms: N_10  and  C_6 
REMARK    6  A    between atoms: C_15  and  N_10 
ROOT
ATOM      1  C   UNL d   1       1.045  -0.202  -0.083  0.00  0.00     0.110 C 
ATOM      2  C   UNL d   1       0.365   0.514  -0.996  0.00  0.00     0.115 C 
ATOM      3  C   UNL d   1       0.365  -1.114   0.771  0.00  0.00     0.105 C 
ATOM      4  N   UNL d   1      -0.221  -1.812   1.496  0.00  0.00    -0.191 NA
ENDROOT
BRANCH   1   5
ATOM      5  C   UNL d   1       2.529   0.025   0.057  0.00  0.00     0.206 C 
ATOM      6  O   UNL d   1       3.216   0.468  -0.857  0.00  0.00    -0.286 OA
BRANCH   5   7
ATOM      7  C   UNL d   1       3.154  -0.245   1.387  0.00  0.00     0.049 A 
ATOM      8  C   UNL d   1       4.431  -0.800   1.579  0.00  0.00     0.092 A 
ATOM      9  C   UNL d   1       4.892  -0.985   2.898  0.00  0.00     0.038 A 
ATOM     10  C   UNL d   1       4.117  -0.631   4.004  0.00  0.00     0.003 A 
ATOM     11  C   UNL d   1       2.884  -0.030   3.812  0.00  0.00     0.001 A 
ATOM     12  C   UNL d   1       2.424   0.188   2.517  0.00  0.00     0.018 A 
BRANCH   8  13
ATOM     13  O   UNL d   1       5.402  -1.029   0.651  0.00  0.00    -0.254 OA
BRANCH  13  14
ATOM     14  C   UNL d   1       5.156  -1.814  -0.505  0.00  0.00     0.530 C 
ATOM     15  F   UNL d   1       3.852  -2.064  -0.732  0.00  0.00    -0.144 F 
ATOM     16  F   UNL d   1       5.698  -1.194  -1.574  0.00  0.00    -0.144 F 
ATOM     17  F   UNL d   1       5.782  -3.006  -0.362  0.00  0.00    -0.144 F 
ENDBRANCH  13  14
ENDBRANCH   8  13
ENDBRANCH   5   7
ENDBRANCH   1   5
BRANCH   2  18
ATOM     18  N   UNL d   1      -1.004   0.636  -1.125  0.00  0.00    -0.364 N 
ATOM     19  H   UNL d   1      -1.567   0.369  -0.321  0.00  0.00     0.165 HD
BRANCH  18  20
ATOM     20  C   UNL d   1      -1.729   1.225  -2.174  0.00  0.00     0.032 A 
ATOM     21  C   UNL d   1      -1.230   1.317  -3.479  0.00  0.00     0.031 A 
ATOM     22  C   UNL d   1      -1.976   1.935  -4.489  0.00  0.00     0.026 A 
ATOM     23  C   UNL d   1      -3.219   2.489  -4.194  0.00  0.00     0.034 A 
ATOM     24  C   UNL d   1      -3.728   2.420  -2.901  0.00  0.00     0.026 A 
ATOM     25 CL   UNL d   1      -4.127   3.266  -5.430  0.00  0.00    -0.084 Cl
ATOM     26  C   UNL d   1      -2.985   1.789  -1.899  0.00  0.00     0.031 A 
ENDBRANCH  18  20
ENDBRANCH   2  18
TORSDOF 6
