REMARK  3 active torsions:
REMARK  status: ('A' for Active; 'I' for Inactive)
REMARK    1  A    between atoms: C_2  and  S_1 
REMARK    2  A    between atoms: C_5  and  S_1 
REMARK    3  A    between atoms: C_4  and  C_2 
ROOT
ATOM      1  N   UNL d   1       1.468  -1.204   3.389  0.00  0.00    -0.196 NA
ATOM      2  C   UNL d   1       0.545   0.574   1.709  0.00  0.00     0.264 C 
ATOM      3  C   UNL d   1       1.090  -0.406   2.638  0.00  0.00     0.074 C 
ENDROOT
BRANCH   2   4
ATOM      4  S   UNL d   1       1.146   0.194   0.084  0.00  0.00     0.161 S 
ATOM      5  O   UNL d   1       0.466   1.114  -0.814  0.00  0.00    -0.227 OA
ATOM      6  O   UNL d   1       2.597   0.178   0.139  0.00  0.00    -0.227 OA
BRANCH   4   7
ATOM      7  C   UNL d   1       0.537  -1.468  -0.241  0.00  0.00     0.187 C 
BRANCH   7   8
ATOM      8  C   UNL d   1       0.906  -1.881  -1.634  0.00  0.00    -0.004 A 
ATOM      9  S   UNL d   1      -0.325  -2.267  -2.766  0.00  0.00    -0.106 SA
ATOM     10  C   UNL d   1       0.815  -2.650  -3.981  0.00  0.00     0.050 A 
ATOM     11  C   UNL d   1       2.110  -2.491  -3.541  0.00  0.00     0.008 A 
ATOM     12  C   UNL d   1       2.162  -2.056  -2.185  0.00  0.00     0.016 A 
ENDBRANCH   7   8
ENDBRANCH   4   7
ENDBRANCH   2   4
TORSDOF 3
