REMARK  4 active torsions:
REMARK  status: ('A' for Active; 'I' for Inactive)
REMARK    1  A    between atoms: C_9  and  C_1 
REMARK    2  A    between atoms: C_12  and  C_8 
REMARK    3  A    between atoms: C_13  and  C_11 
REMARK    4  A    between atoms: C_15  and  C_12 
ROOT
ATOM      1  C   UNL d   1      -1.096  -7.511   0.093  0.00  0.00     0.098 C 
ATOM      2  C   UNL d   1      -0.865  -6.658   1.113  0.00  0.00     0.045 C 
ATOM      3  C   UNL d   1      -0.730  -8.886   0.128  0.00  0.00     0.103 C 
ATOM      4  N   UNL d   1      -0.460 -10.015   0.184  0.00  0.00    -0.191 NA
ENDROOT
BRANCH   1   5
ATOM      5  C   UNL d   1      -1.819  -7.015  -1.136  0.00  0.00     0.226 C 
ATOM      6  O   UNL d   1      -2.523  -6.008  -1.069  0.00  0.00    -0.284 OA
BRANCH   5   7
ATOM      7  C   UNL d   1      -1.702  -7.822  -2.339  0.00  0.00     0.126 A 
ATOM      8  O   UNL d   1      -0.519  -8.470  -2.577  0.00  0.00    -0.319 OA
ATOM      9  C   UNL d   1      -0.697  -9.264  -3.658  0.00  0.00     0.142 A 
ATOM     10  C   UNL d   1      -1.961  -9.098  -4.168  0.00  0.00     0.027 A 
ATOM     11  C   UNL d   1      -2.596  -8.127  -3.347  0.00  0.00     0.043 A 
ENDBRANCH   5   7
ENDBRANCH   1   5
BRANCH   2  12
ATOM     12  C   UNL d   1      -0.225  -7.035   2.340  0.00  0.00     0.007 A 
ATOM     13  S   UNL d   1       0.716  -5.871   3.197  0.00  0.00    -0.088 SA
ATOM     14  C   UNL d   1       1.213  -6.988   4.397  0.00  0.00     0.034 A 
ATOM     15  C   UNL d   1       2.111  -6.682   5.483  0.00  0.00     0.069 A 
ATOM     16  C   UNL d   1       0.598  -8.206   4.202  0.00  0.00     0.023 A 
ATOM     17  C   UNL d   1       2.111  -7.225   6.757  0.00  0.00     0.068 A 
ATOM     18  N   UNL d   1       3.210  -5.854   5.456  0.00  0.00    -0.295 N 
ATOM     19  C   UNL d   1       3.253  -6.701   7.418  0.00  0.00     0.134 A 
ATOM     20  N   UNL d   1       3.910  -5.850   6.611  0.00  0.00    -0.294 N 
ATOM     21  HN  UNL d   1       4.753  -5.317   6.824  1.00  0.00     0.187 HD
ATOM     22  C   UNL d   1       3.752  -5.112   4.342  0.00  0.00     0.178 C 
ATOM     23  C   UNL d   1      -0.230  -8.228   3.045  0.00  0.00     0.020 A 
BRANCH  19  24
ATOM     24  C   UNL d   1       3.716  -7.046   8.810  0.00  0.00     0.434 C 
ATOM     25  F   UNL d   1       4.870  -6.427   9.175  0.00  0.00    -0.165 F 
ATOM     26  F   UNL d   1       2.783  -6.719   9.746  0.00  0.00    -0.165 F 
ATOM     27  F   UNL d   1       3.935  -8.384   8.944  0.00  0.00    -0.165 F 
ENDBRANCH  19  24
ENDBRANCH   2  12
TORSDOF 4
