REMARK  4 active torsions:
REMARK  status: ('A' for Active; 'I' for Inactive)
REMARK    1  A    between atoms: C_2  and  S_1 
REMARK    2  A    between atoms: C_8  and  S_1 
REMARK    3  A    between atoms: C_4  and  C_3 
REMARK    4  A    between atoms: N_11  and  N_5 
ROOT
ATOM      1  C   UNL d   1       0.879  -1.057  -1.457  0.00  0.00     0.146 C 
ATOM      2  C   UNL d   1      -0.155  -1.884  -1.202  0.00  0.00     0.066 C 
ATOM      3  C   UNL d   1       1.739  -0.501  -0.479  0.00  0.00     0.112 C 
ATOM      4  N   UNL d   1       2.458  -0.032   0.297  0.00  0.00    -0.191 NA
ENDROOT
BRANCH   1   5
ATOM      5  S   UNL d   1       1.036  -0.503  -3.095  0.00  0.00     0.216 S 
ATOM      6  O   UNL d   1       0.348   0.767  -3.216  0.00  0.00    -0.216 OA
ATOM      7  O   UNL d   1       0.694  -1.583  -4.006  0.00  0.00    -0.216 OA
BRANCH   5   8
ATOM      8  C   UNL d   1       2.773  -0.171  -3.374  0.00  0.00     0.065 A 
ATOM      9  C   UNL d   1       3.591  -1.172  -3.915  0.00  0.00     0.025 A 
ATOM     10  C   UNL d   1       4.909  -0.874  -4.265  0.00  0.00     0.025 A 
ATOM     11  C   UNL d   1       5.402   0.419  -4.088  0.00  0.00     0.034 A 
ATOM     12  C   UNL d   1       4.585   1.420  -3.562  0.00  0.00     0.025 A 
ATOM     13 CL   UNL d   1       7.019   0.788  -4.545  0.00  0.00    -0.084 Cl
ATOM     14  C   UNL d   1       3.264   1.131  -3.211  0.00  0.00     0.025 A 
ENDBRANCH   5   8
ENDBRANCH   1   5
BRANCH   2  15
ATOM     15  C   UNL d   1      -0.505  -2.350   0.091  0.00  0.00     0.053 A 
ATOM     16  N   UNL d   1      -1.528  -1.775   0.834  0.00  0.00    -0.287 N 
ATOM     17  C   UNL d   1      -1.635  -2.445   2.028  0.00  0.00     0.111 A 
ATOM     18  C   UNL d   1      -0.768  -3.511   2.019  0.00  0.00     0.021 A 
ATOM     19  C   UNL d   1      -0.061  -3.457   0.797  0.00  0.00     0.032 A 
BRANCH  16  20
ATOM     20  N   UNL d   1      -2.454  -0.735   0.505  0.00  0.00    -0.233 NA
ATOM     21  C   UNL d   1      -3.102  -0.864  -0.789  0.00  0.00     0.136 C 
ATOM     22  C   UNL d   1      -1.971   0.605   0.787  0.00  0.00     0.136 C 
ENDBRANCH  16  20
ENDBRANCH   2  15
TORSDOF 4
