REMARK  6 active torsions:
REMARK  status: ('A' for Active; 'I' for Inactive)
REMARK    1  A    between atoms: N_7  and  S_1 
REMARK    2  A    between atoms: C_17  and  S_1 
REMARK    3  A    between atoms: C_8  and  C_4 
REMARK    4  A    between atoms: C_5  and  N_11 
REMARK    5  A    between atoms: C_12  and  C_6 
REMARK    6  A    between atoms: O_25  and  C_12 
ROOT
ATOM      1  N   UNL d   1       2.939  -1.368  -5.452  0.00  0.00    -0.185 N 
ATOM      2  HN  UNL d   1       2.700  -0.402  -5.229  1.00  0.00     0.184 HD
ATOM      3  C   UNL d   1       4.047  -1.633  -6.217  0.00  0.00     0.150 A 
ATOM      4  C   UNL d   1       2.171  -2.361  -4.998  0.00  0.00     0.680 A 
ATOM      5  C   UNL d   1       4.399  -2.932  -6.548  0.00  0.00     0.087 A 
ATOM      6  N   UNL d   1       2.471  -3.637  -5.248  0.00  0.00    -0.201 N 
ATOM      7  HN  UNL d   1       1.900  -4.395  -4.875  1.00  0.00     0.183 HD
ATOM      8  C   UNL d   1       3.560  -3.894  -6.014  0.00  0.00     0.126 A 
ENDROOT
BRANCH   4   9
ATOM      9  N   UNL d   1       1.055  -2.042  -4.271  0.00  0.00    -0.216 N 
ATOM     10  C   UNL d   1       0.702  -0.648  -4.008  0.00  0.00     0.157 C 
ATOM     11  C   UNL d   1       1.216  -0.152  -2.650  0.00  0.00     0.128 C 
ATOM     12  N   UNL d   1       0.652  -0.926  -1.476  0.00  0.00    -0.205 NA
ATOM     13  C   UNL d   1       1.138  -2.348  -1.470  0.00  0.00     0.109 C 
ATOM     14  C   UNL d   1       0.235  -3.279  -2.278  0.00  0.00     0.036 C 
ATOM     15  C   UNL d   1       0.153  -3.065  -3.787  0.00  0.00     0.142 C 
BRANCH  12  16
ATOM     16  S   UNL d   1       0.976  -0.127   0.036  0.00  0.00     0.243 S 
ATOM     17  O   UNL d   1       2.356   0.320  -0.004  0.00  0.00    -0.206 OA
ATOM     18  O   UNL d   1       0.489  -0.959   1.110  0.00  0.00    -0.206 OA
BRANCH  16  19
ATOM     19  C   UNL d   1      -0.079   1.304  -0.016  0.00  0.00     0.074 A 
ATOM     20  C   UNL d   1      -1.462   1.117  -0.097  0.00  0.00     0.025 A 
ATOM     21  C   UNL d   1      -2.306   2.229  -0.119  0.00  0.00     0.002 A 
ATOM     22  C   UNL d   1      -1.768   3.515  -0.059  0.00  0.00     0.000 A 
ATOM     23  C   UNL d   1      -0.387   3.697   0.042  0.00  0.00     0.002 A 
ATOM     24  C   UNL d   1       0.463   2.590   0.072  0.00  0.00     0.025 A 
ENDBRANCH  16  19
ENDBRANCH  12  16
ENDBRANCH   4   9
BRANCH   3  25
ATOM     25  C   UNL d   1       4.852  -0.411  -6.600  0.00  0.00     0.434 C 
ATOM     26  F   UNL d   1       4.288   0.751  -6.143  0.00  0.00    -0.165 F 
ATOM     27  F   UNL d   1       6.110  -0.415  -6.075  0.00  0.00    -0.165 F 
ATOM     28  F   UNL d   1       4.981  -0.222  -7.943  0.00  0.00    -0.165 F 
ENDBRANCH   3  25
BRANCH   5  29
ATOM     29  C   UNL d   1       5.524  -3.420  -7.359  0.00  0.00     0.296 C 
ATOM     30  O   UNL d   1       5.732  -4.607  -7.556  0.00  0.00    -0.259 OA
BRANCH  29  31
ATOM     31  O   UNL d   1       6.273  -2.411  -7.862  0.00  0.00    -0.322 OA
ATOM     32  C   UNL d   1       7.364  -2.832  -8.682  0.00  0.00     0.213 C 
ENDBRANCH  29  31
ENDBRANCH   5  29
TORSDOF 6
