REMARK  1 active torsions:
REMARK  status: ('A' for Active; 'I' for Inactive)
REMARK    1  A    between atoms: C_5  and  C_1 
ROOT
ATOM      1  C   UNL d   1       2.258  -1.476   0.000  0.00  0.00    -0.006 A 
ATOM      2  C   UNL d   1       4.345  -2.213   1.025  0.00  0.00     0.056 A 
ATOM      3  C   UNL d   1       3.197  -1.410   1.040  0.00  0.00     0.039 A 
ATOM      4  C   UNL d   1       4.565  -3.093  -0.037  0.00  0.00     0.055 A 
ATOM      5  C   UNL d   1       2.484  -2.373  -1.052  0.00  0.00     0.015 A 
ATOM      6  C   UNL d   1       3.630  -3.175  -1.071  0.00  0.00     0.026 A 
ATOM      7 CL   UNL d   1       5.449  -2.059   2.346  0.00  0.00    -0.083 Cl
ATOM      8 CL   UNL d   1       5.969  -4.094  -0.139  0.00  0.00    -0.083 Cl
ENDROOT
BRANCH   1   9
ATOM      9  C   UNL d   1       1.091  -0.596   0.011  0.00  0.00     0.059 A 
ATOM     10  N   UNL d   1      -0.134  -0.925  -0.517  0.00  0.00    -0.300 N 
ATOM     11  N   UNL d   1      -1.057   0.044  -0.409  0.00  0.00    -0.311 N 
ATOM     12  H   UNL d   1      -0.408  -1.796  -0.957  0.00  0.00     0.187 HD
ATOM     13  C   UNL d   1      -0.411   1.024   0.222  0.00  0.00     0.109 A 
ATOM     14  HN  UNL d   1      -2.024   0.033  -0.734  1.00  0.00     0.186 HD
ATOM     15  C   UNL d   1       0.919   0.680   0.515  0.00  0.00     0.050 A 
ENDBRANCH   1   9
TORSDOF 1
