REMARK  7 active torsions:
REMARK  status: ('A' for Active; 'I' for Inactive)
REMARK    1  A    between atoms: C_4  and  C_1 
REMARK    2  A    between atoms: N_5  and  C_2 
REMARK    3  A    between atoms: C_3  and  O_8 
REMARK       I    between atoms: N_6  and  C_3 
REMARK    4  A    between atoms: O_18  and  C_4 
REMARK    5  A    between atoms: C_14  and  N_5 
REMARK    6  A    between atoms: C_10  and  N_6 
REMARK    7  A    between atoms: O_8  and  C_16 
ROOT
ATOM      1  C   UNL d   1       3.443  -0.675  -1.038  0.00  0.00     0.012 A 
ATOM      2  C   UNL d   1       6.132   0.088  -0.847  0.00  0.00     0.081 A 
ATOM      3  C   UNL d   1       3.802   0.496  -0.356  0.00  0.00     0.026 A 
ATOM      4  C   UNL d   1       4.450  -1.434  -1.651  0.00  0.00     0.026 A 
ATOM      5  C   UNL d   1       5.143   0.880  -0.264  0.00  0.00     0.039 A 
ATOM      6  C   UNL d   1       5.789  -1.044  -1.580  0.00  0.00     0.039 A 
ENDROOT
BRANCH   2   7
ATOM      7  O   UNL d   1       7.461   0.522  -0.678  0.00  0.00    -0.261 OA
BRANCH   7   8
ATOM      8  C   UNL d   1       8.440  -0.402  -0.335  0.00  0.00     0.370 C 
ATOM      9  N   UNL d   1       9.689   0.114  -0.093  0.00  0.00    -0.302 N 
ATOM     10  H   UNL d   1      10.359  -0.632   0.049  0.00  0.00     0.171 HD
ATOM     11  O   UNL d   1       8.275  -1.618  -0.256  0.00  0.00    -0.238 OA
BRANCH   9  12
ATOM     12  C   UNL d   1      10.174   1.430  -0.004  0.00  0.00     0.038 A 
ATOM     13  C   UNL d   1       9.382   2.578  -0.021  0.00  0.00     0.053 A 
ATOM     14  C   UNL d   1       9.976   3.841   0.067  0.00  0.00     0.036 A 
ATOM     15 CL   UNL d   1       8.986   5.251   0.045  0.00  0.00    -0.084 Cl
ATOM     16  C   UNL d   1      11.358   3.977   0.179  0.00  0.00     0.024 A 
ATOM     17  C   UNL d   1      12.154   2.838   0.219  0.00  0.00     0.004 A 
ATOM     18  C   UNL d   1      11.564   1.574   0.135  0.00  0.00     0.029 A 
ENDBRANCH   9  12
ENDBRANCH   7   8
ENDBRANCH   2   7
BRANCH   1  19
ATOM     19  N   UNL d   1       2.120  -1.195  -1.037  0.00  0.00    -0.262 NA
ATOM     20  H   UNL d   1       2.119  -2.026  -0.443  0.00  0.00     0.133 HD
BRANCH  19  21
ATOM     21  C   UNL d   1       0.987  -0.414  -0.859  0.00  0.00     0.012 C 
ATOM     22  C   UNL d   1       0.521   0.563  -1.664  0.00  0.00     0.044 C 
ATOM     23  C   UNL d   1      -0.715   1.280  -1.229  0.00  0.00     0.120 C 
ATOM     24  S   UNL d   1      -1.361   0.335   0.179  0.00  0.00    -0.159 SA
ATOM     25  C   UNL d   1       0.121  -0.693   0.346  0.00  0.00     0.126 C 
BRANCH  22  26
ATOM     26  C   UNL d   1       1.082   0.999  -2.958  0.00  0.00     0.291 C 
ATOM     27  O   UNL d   1       0.953   2.140  -3.373  0.00  0.00    -0.260 OA
BRANCH  26  28
ATOM     28  O   UNL d   1       1.624  -0.045  -3.625  0.00  0.00    -0.323 OA
ATOM     29  C   UNL d   1       2.179   0.228  -4.912  0.00  0.00     0.213 C 
ENDBRANCH  26  28
ENDBRANCH  22  26
ENDBRANCH  19  21
ENDBRANCH   1  19
TORSDOF 7
