REMARK  4 active torsions:
REMARK  status: ('A' for Active; 'I' for Inactive)
REMARK       I    between atoms: N_8  and  C_1 
REMARK    1  A    between atoms: O_9  and  C_1 
REMARK    2  A    between atoms: N_2  and  O_9 
REMARK    3  A    between atoms: C_4  and  C_7 
REMARK    4  A    between atoms: C_14  and  N_8 
ROOT
ATOM      1  N   UNL d   1      -0.856   0.975  -0.476  0.00  0.00    -0.260 N 
ATOM      2  HN  UNL d   1       0.161   0.944  -0.402  1.00  0.00     0.194 HD
ATOM      3  C   UNL d   1      -1.557   1.897  -1.085  0.00  0.00     0.039 C 
ATOM      4  C   UNL d   1      -3.080   1.841  -1.160  0.00  0.00     0.071 C 
ENDROOT
BRANCH   1   5
ATOM      5  O   UNL d   1      -1.760   0.028   0.059  0.00  0.00    -0.181 OA
BRANCH   5   6
ATOM      6  C   UNL d   1      -1.200  -1.099   0.624  0.00  0.00     0.387 C 
ATOM      7  N   UNL d   1       0.166  -1.057   0.781  0.00  0.00    -0.301 N 
ATOM      8  H   UNL d   1       0.570  -0.166   0.516  0.00  0.00     0.171 HD
ATOM      9  O   UNL d   1      -1.944  -2.007   0.973  0.00  0.00    -0.236 OA
BRANCH   7  10
ATOM     10  C   UNL d   1       0.973  -2.067   1.347  0.00  0.00     0.037 A 
ATOM     11  C   UNL d   1       0.502  -3.358   1.622  0.00  0.00     0.031 A 
ATOM     12  C   UNL d   1       1.333  -4.322   2.202  0.00  0.00     0.026 A 
ATOM     13  C   UNL d   1       2.648  -4.000   2.514  0.00  0.00     0.034 A 
ATOM     14  C   UNL d   1       3.138  -2.726   2.239  0.00  0.00     0.026 A 
ATOM     15 CL   UNL d   1       3.666  -5.181   3.240  0.00  0.00    -0.084 Cl
ATOM     16  C   UNL d   1       2.305  -1.764   1.649  0.00  0.00     0.031 A 
ENDBRANCH   7  10
ENDBRANCH   5   6
ENDBRANCH   1   5
BRANCH   3  17
ATOM     17  C   UNL d   1      -0.887   3.048  -1.758  0.00  0.00    -0.009 A 
ATOM     18  C   UNL d   1       0.358   2.865  -2.367  0.00  0.00     0.059 A 
ATOM     19  C   UNL d   1       0.945   3.926  -3.055  0.00  0.00     0.155 A 
ATOM     20  F   UNL d   1       2.128   3.743  -3.656  0.00  0.00    -0.203 F 
ATOM     21  C   UNL d   1       0.310   5.161  -3.135  0.00  0.00     0.154 A 
ATOM     22  C   UNL d   1      -0.917   5.361  -2.516  0.00  0.00     0.046 A 
ATOM     23  F   UNL d   1       0.874   6.171  -3.811  0.00  0.00    -0.203 F 
ATOM     24  C   UNL d   1      -1.514   4.305  -1.820  0.00  0.00     0.017 A 
ENDBRANCH   3  17
TORSDOF 4
