REMARK  5 active torsions:
REMARK  status: ('A' for Active; 'I' for Inactive)
REMARK    1  A    between atoms: S_8  and  C_2 
REMARK    2  A    between atoms: N_12  and  C_3 
REMARK    3  A    between atoms: C_10  and  S_8 
REMARK    4  A    between atoms: C_9  and  C_10 
REMARK    5  A    between atoms: C_13  and  C_9 
ROOT
ATOM      1  N   UNL d   1       4.528  -2.311  -3.256  0.00  0.00    -0.168 N 
ATOM      2  C   UNL d   1       3.556  -1.675  -2.550  0.00  0.00     0.174 A 
ATOM      3  C   UNL d   1       3.932  -3.410  -3.800  0.00  0.00     0.692 A 
ATOM      4  N   UNL d   1       2.427  -2.329  -2.644  0.00  0.00    -0.265 N 
ATOM      5  HN  UNL d   1       1.539  -2.075  -2.210  1.00  0.00     0.189 HD
ATOM      6  N   UNL d   1       2.667  -3.433  -3.446  0.00  0.00    -0.130 N 
ATOM      7  HN  UNL d   1       1.981  -4.140  -3.715  1.00  0.00     0.205 HD
ATOM      8  H   UNL d   1       5.488  -2.033  -3.350  0.00  0.00     0.186 HD
ENDROOT
BRANCH   2   9
ATOM      9  S   UNL d   1       3.880  -0.207  -1.710  0.00  0.00    -0.084 SA
BRANCH   9  10
ATOM     10  C   UNL d   1       4.247  -0.850  -0.052  0.00  0.00     0.166 C 
BRANCH  10  11
ATOM     11  C   UNL d   1       5.522  -1.666  -0.078  0.00  0.00     0.169 C 
ATOM     12  O   UNL d   1       5.496  -2.880  -0.293  0.00  0.00    -0.291 OA
BRANCH  11  13
ATOM     13  C   UNL d   1       6.854  -1.007   0.088  0.00  0.00     0.010 A 
ATOM     14  C   UNL d   1       7.021   0.381   0.169  0.00  0.00     0.015 A 
ATOM     15  C   UNL d   1       8.304   0.924   0.292  0.00  0.00     0.001 A 
ATOM     16  C   UNL d   1       9.422   0.092   0.332  0.00  0.00     0.000 A 
ATOM     17  C   UNL d   1       9.265  -1.288   0.250  0.00  0.00     0.001 A 
ATOM     18  C   UNL d   1       7.987  -1.835   0.129  0.00  0.00     0.015 A 
ENDBRANCH  11  13
ENDBRANCH  10  11
ENDBRANCH   9  10
ENDBRANCH   2   9
BRANCH   3  19
ATOM     19  N   UNL d   1       4.621  -4.267  -4.569  0.00  0.00    -0.233 N 
ATOM     20  H   UNL d   1       5.623  -4.373  -4.460  0.00  0.00     0.174 HD
ATOM     21  H   UNL d   1       4.154  -5.149  -4.763  0.00  0.00     0.174 HD
ENDBRANCH   3  19
TORSDOF 5
