REMARK  7 active torsions:
REMARK  status: ('A' for Active; 'I' for Inactive)
REMARK    1  A    between atoms: C_4  and  C_1 
REMARK    2  A    between atoms: O_9  and  C_1 
REMARK    3  A    between atoms: C_2  and  C_3 
REMARK    4  A    between atoms: O_10  and  C_2 
REMARK    5  A    between atoms: C_11  and  C_5 
REMARK    6  A    between atoms: C_19  and  O_9 
REMARK    7  A    between atoms: C_18  and  O_10 
ROOT
ATOM      1  C   UNL d   1       0.092   1.352   3.247  0.00  0.00     0.041 A 
ATOM      2  C   UNL d   1       0.475   0.285   1.103  0.00  0.00     0.041 A 
ATOM      3  C   UNL d   1      -1.208  -0.648   2.634  0.00  0.00    -0.049 A 
ATOM      4  C   UNL d   1       0.789   1.283   2.037  0.00  0.00     0.035 A 
ATOM      5  C   UNL d   1      -0.911   0.404   3.522  0.00  0.00     0.025 A 
ATOM      6  C   UNL d   1      -0.520  -0.663   1.405  0.00  0.00     0.025 A 
ENDROOT
BRANCH   1   7
ATOM      7  C   UNL d   1       0.386   2.372   4.300  0.00  0.00     0.298 C 
ATOM      8  O   UNL d   1      -0.289   2.497   5.309  0.00  0.00    -0.259 OA
BRANCH   7   9
ATOM      9  O   UNL d   1       1.524   3.093   3.969  0.00  0.00    -0.274 OA
BRANCH   9  10
ATOM     10  C   UNL d   1       2.135   3.991   4.868  0.00  0.00     0.094 A 
ATOM     11  C   UNL d   1       2.059   3.916   6.252  0.00  0.00     0.124 A 
ATOM     12  N   UNL d   1       2.739   4.745   7.084  0.00  0.00    -0.373 N 
ATOM     13  C   UNL d   1       3.521   5.683   6.508  0.00  0.00     0.088 A 
ATOM     14  HN  UNL d   1       2.664   4.663   8.098  1.00  0.00     0.164 HD
ATOM     15  C   UNL d   1       3.656   5.837   5.137  0.00  0.00     0.020 A 
ATOM     16  C   UNL d   1       2.951   4.968   4.302  0.00  0.00     0.040 A 
ENDBRANCH   9  10
ENDBRANCH   7   9
ENDBRANCH   1   7
BRANCH   2  17
ATOM     17  C   UNL d   1       1.230   0.263  -0.186  0.00  0.00     0.298 C 
ATOM     18  O   UNL d   1       2.140   1.037  -0.437  0.00  0.00    -0.259 OA
BRANCH  17  19
ATOM     19  O   UNL d   1       0.732  -0.737  -1.006  0.00  0.00    -0.274 OA
BRANCH  19  20
ATOM     20  C   UNL d   1       1.175  -0.900  -2.331  0.00  0.00     0.094 A 
ATOM     21  C   UNL d   1       1.164  -2.188  -2.850  0.00  0.00     0.124 A 
ATOM     22  N   UNL d   1       1.485  -2.486  -4.131  0.00  0.00    -0.373 N 
ATOM     23  C   UNL d   1       1.823  -1.446  -4.925  0.00  0.00     0.088 A 
ATOM     24  HN  UNL d   1       1.472  -3.445  -4.479  1.00  0.00     0.164 HD
ATOM     25  C   UNL d   1       1.852  -0.127  -4.496  0.00  0.00     0.020 A 
ATOM     26  C   UNL d   1       1.513   0.152  -3.172  0.00  0.00     0.040 A 
ENDBRANCH  19  20
ENDBRANCH  17  19
ENDBRANCH   2  17
BRANCH   3  27
ATOM     27  C   UNL d   1      -2.210  -1.767   2.989  0.00  0.00    -0.024 C 
ATOM     28  C   UNL d   1      -1.638  -3.152   2.598  0.00  0.00     0.019 C 
ATOM     29  C   UNL d   1      -2.529  -1.835   4.500  0.00  0.00     0.019 C 
ATOM     30  C   UNL d   1      -3.533  -1.548   2.232  0.00  0.00     0.019 C 
ENDBRANCH   3  27
TORSDOF 7
