REMARK  3 active torsions:
REMARK  status: ('A' for Active; 'I' for Inactive)
REMARK    1  A    between atoms: C_11  and  C_4 
REMARK    2  A    between atoms: C_14  and  N_8 
REMARK    3  A    between atoms: O_22  and  N_15 
ROOT
ATOM      1  N   UNL d   1       1.373  -0.483  -0.593  0.00  0.00    -0.335 N 
ATOM      2  HN  UNL d   1       2.192  -0.863  -1.068  1.00  0.00     0.168 HD
ATOM      3  C   UNL d   1       0.230  -1.116  -0.460  0.00  0.00     0.149 A 
ATOM      4  C   UNL d   1       1.319   0.768  -0.001  0.00  0.00     0.051 A 
ATOM      5  S   UNL d   1      -0.993  -0.218   0.360  0.00  0.00    -0.064 SA
ATOM      6  C   UNL d   1       0.098   1.089   0.555  0.00  0.00     0.083 A 
ATOM      7  N   UNL d   1      -0.028  -2.363  -0.901  0.00  0.00    -0.331 N 
ATOM      8  H   UNL d   1      -0.945  -2.754  -0.740  0.00  0.00     0.168 HD
ENDROOT
BRANCH   4   9
ATOM      9  C   UNL d   1       2.479   1.652  -0.007  0.00  0.00    -0.008 A 
ATOM     10  C   UNL d   1       2.715   2.566   1.030  0.00  0.00     0.023 A 
ATOM     11  C   UNL d   1       3.855   3.380   1.016  0.00  0.00    -0.030 A 
ATOM     12  C   UNL d   1       4.096   4.407   2.088  0.00  0.00     0.050 C 
ATOM     13  C   UNL d   1       4.747   3.299  -0.058  0.00  0.00     0.041 A 
ATOM     14  C   UNL d   1       5.586   4.616   2.299  0.00  0.00     0.108 C 
ATOM     15  C   UNL d   1       6.298   4.869   0.990  0.00  0.00     0.222 C 
ATOM     16  N   UNL d   1       5.875   4.125  -0.081  0.00  0.00    -0.327 N 
ATOM     17  O   UNL d   1       7.271   5.613   0.901  0.00  0.00    -0.273 OA
ATOM     18  H   UNL d   1       6.444   4.188  -0.915  0.00  0.00     0.169 HD
ATOM     19  C   UNL d   1       4.517   2.412  -1.105  0.00  0.00     0.031 A 
ATOM     20  C   UNL d   1       3.396   1.578  -1.067  0.00  0.00     0.016 A 
ENDBRANCH   4   9
BRANCH   7  21
ATOM     21  C   UNL d   1       0.835  -3.188  -1.550  0.00  0.00     0.206 C 
ATOM     22  N   UNL d   1       0.534  -4.382  -1.951  0.00  0.00    -0.265 N 
ATOM     23  HN  UNL d   1      -0.370  -4.839  -1.830  1.00  0.00     0.194 HD
BRANCH  22  24
ATOM     24  O   UNL d   1       1.654  -4.940  -2.579  0.00  0.00    -0.289 OA
ATOM     25  H   UNL d   1       1.331  -5.822  -2.840  0.00  0.00     0.244 HD
ENDBRANCH  22  24
ENDBRANCH   7  21
TORSDOF 3
