REMARK  4 active torsions:
REMARK  status: ('A' for Active; 'I' for Inactive)
REMARK    1  A    between atoms: O_9  and  C_5 
REMARK    2  A    between atoms: O_10  and  C_6 
REMARK    3  A    between atoms: C_13  and  O_9 
REMARK    4  A    between atoms: C_14  and  O_10 
ROOT
ATOM      1  N   UNL d   1       1.194   1.446  -0.080  0.00  0.00    -0.332 N 
ATOM      2  HN  UNL d   1       1.198   2.466  -0.094  1.00  0.00     0.168 HD
ATOM      3  N   UNL d   1       1.193  -1.385  -0.064  0.00  0.00    -0.332 N 
ATOM      4  HN  UNL d   1       1.195  -2.404  -0.066  1.00  0.00     0.168 HD
ATOM      5  C   UNL d   1       2.342   0.726  -0.084  0.00  0.00     0.195 A 
ATOM      6  C   UNL d   1       2.341  -0.669  -0.078  0.00  0.00     0.195 A 
ATOM      7  C   UNL d   1       0.045   0.739  -0.057  0.00  0.00     0.061 A 
ATOM      8  C   UNL d   1       0.050  -0.681  -0.046  0.00  0.00     0.061 A 
ATOM      9  C   UNL d   1      -1.175   1.401  -0.038  0.00  0.00     0.032 A 
ATOM     10  C   UNL d   1      -1.159  -1.366  -0.015  0.00  0.00     0.032 A 
ATOM     11  C   UNL d   1      -2.384   0.702  -0.009  0.00  0.00     0.002 A 
ATOM     12  C   UNL d   1      -2.375  -0.687   0.004  0.00  0.00     0.002 A 
ENDROOT
BRANCH   5  13
ATOM     13  O   UNL d   1       3.552   1.387  -0.051  0.00  0.00    -0.333 OA
BRANCH  13  14
ATOM     14  C   UNL d   1       3.486   2.701  -0.603  0.00  0.00     0.173 C 
ATOM     15  C   UNL d   1       4.877   3.307  -0.522  0.00  0.00     0.034 C 
ENDBRANCH  13  14
ENDBRANCH   5  13
BRANCH   6  16
ATOM     16  O   UNL d   1       3.545  -1.344  -0.063  0.00  0.00    -0.333 OA
BRANCH  16  17
ATOM     17  C   UNL d   1       3.428  -2.672  -0.578  0.00  0.00     0.173 C 
ATOM     18  C   UNL d   1       4.786  -3.343  -0.489  0.00  0.00     0.034 C 
ENDBRANCH  16  17
ENDBRANCH   6  16
TORSDOF 4
