REMARK  0 active torsions:
REMARK  status: ('A' for Active; 'I' for Inactive)
ROOT
ATOM      1  N   UNL d   1       1.059  -1.347  -0.246  0.00  0.00    -0.325 N 
ATOM      2  C   UNL d   1       2.328  -0.879  -0.325  0.00  0.00     0.224 C 
ATOM      3  C   UNL d   1      -0.179  -0.712  -0.058  0.00  0.00     0.069 A 
ATOM      4  O   UNL d   1       0.589   1.552   0.519  0.00  0.00    -0.344 OA
ATOM      5  C   UNL d   1      -0.382   0.626   0.281  0.00  0.00     0.096 A 
ATOM      6  C   UNL d   1       2.695   0.558  -0.117  0.00  0.00     0.135 C 
ATOM      7  C   UNL d   1       1.642   1.592  -0.440  0.00  0.00     0.133 C 
ATOM      8  C   UNL d   1      -1.308  -1.524  -0.276  0.00  0.00     0.039 A 
ATOM      9  O   UNL d   1       3.223  -1.708  -0.540  0.00  0.00    -0.273 OA
ATOM     10  C   UNL d   1      -1.682   1.130   0.414  0.00  0.00     0.039 A 
ATOM     11  C   UNL d   1      -2.610  -1.010  -0.200  0.00  0.00    -0.060 A 
ATOM     12  C   UNL d   1      -2.789   0.327   0.150  0.00  0.00     0.009 A 
ATOM     13  C   UNL d   1       1.181   1.655  -1.899  0.00  0.00     0.040 C 
ATOM     14  C   UNL d   1      -3.793  -1.857  -0.563  0.00  0.00     0.048 C 
ATOM     15  H   UNL d   1       1.035  -2.344  -0.419  0.00  0.00     0.169 HD
ENDROOT
TORSDOF 0
