REMARK  3 active torsions:
REMARK  status: ('A' for Active; 'I' for Inactive)
REMARK    1  A    between atoms: N_3  and  C_11 
REMARK    2  A    between atoms: C_14  and  N_7 
REMARK    3  A    between atoms: C_11  and  C_14 
ROOT
ATOM      1  C   UNL d   1      -2.422  -0.021   1.738  0.00  0.00     0.292 C 
ENDROOT
BRANCH   1   2
ATOM      2  C   UNL d   1      -3.025  -1.308   2.335  0.00  0.00     0.158 C 
BRANCH   2   3
ATOM      3  N   UNL d   1      -3.234  -1.178   3.763  0.00  0.00    -0.331 N 
ATOM      4  C   UNL d   1      -4.367  -0.625   4.344  0.00  0.00     0.318 C 
ATOM      5  N   UNL d   1      -4.157  -0.594   5.715  0.00  0.00    -0.341 N 
ATOM      6  O   UNL d   1      -5.354  -0.203   3.772  0.00  0.00    -0.247 OA
ATOM      7  C   UNL d   1      -2.773  -0.850   6.015  0.00  0.00     0.144 C 
ATOM      8  H   UNL d   1      -4.799  -0.070   6.296  0.00  0.00     0.164 HD
ATOM      9  C   UNL d   1      -2.259  -1.551   4.763  0.00  0.00     0.147 C 
ENDBRANCH   2   3
ENDBRANCH   1   2
BRANCH   1  10
ATOM     10  N   UNL d   1      -2.228  -0.044   0.275  0.00  0.00     0.091 N 
ATOM     11  C   UNL d   1      -3.472  -0.188  -0.502  0.00  0.00     0.287 C 
ATOM     12  C   UNL d   1      -4.452   0.965  -0.367  0.00  0.00     0.170 C 
ATOM     13  S   UNL d   1      -3.690   2.488  -0.873  0.00  0.00     0.147 S 
ATOM     14  C   UNL d   1      -2.125   2.462  -0.036  0.00  0.00     0.170 C 
ATOM     15  O   UNL d   1      -4.465   3.583  -0.320  0.00  0.00    -0.228 OA
ATOM     16  O   UNL d   1      -3.437   2.418  -2.299  0.00  0.00    -0.228 OA
ATOM     17  C   UNL d   1      -1.448   1.112  -0.204  0.00  0.00     0.287 C 
ENDBRANCH   1  10
TORSDOF 3
