REMARK  6 active torsions:
REMARK  status: ('A' for Active; 'I' for Inactive)
REMARK    1  A    between atoms: O_4  and  S_1 
REMARK    2  A    between atoms: C_5  and  S_1 
REMARK    3  A    between atoms: N_2  and  C_12 
REMARK    4  A    between atoms: C_3  and  O_15 
REMARK    5  A    between atoms: C_22  and  O_4 
REMARK    6  A    between atoms: O_15  and  C_23 
ROOT
ATOM      1  C   UNL d   1       0.468  -5.604  -3.539  0.00  0.00     0.117 A 
ATOM      2  N   UNL d   1      -2.486  -7.564  -3.271  0.00  0.00    -0.191 NA
ATOM      3  N   UNL d   1       2.790  -2.924  -4.067  0.00  0.00    -0.191 NA
ATOM      4  C   UNL d   1       0.009  -6.933  -3.610  0.00  0.00     0.080 A 
ATOM      5  C   UNL d   1       1.810  -5.322  -3.871  0.00  0.00     0.080 A 
ATOM      6  C   UNL d   1      -1.377  -7.261  -3.408  0.00  0.00     0.102 C 
ATOM      7  C   UNL d   1       2.332  -3.988  -3.987  0.00  0.00     0.102 C 
ATOM      8  C   UNL d   1       0.905  -7.972  -3.904  0.00  0.00     0.026 A 
ATOM      9  C   UNL d   1       2.698  -6.378  -4.126  0.00  0.00     0.026 A 
ATOM     10  C   UNL d   1       2.251  -7.697  -4.132  0.00  0.00     0.003 A 
ENDROOT
BRANCH   1  11
ATOM     11  O   UNL d   1      -0.473  -4.647  -3.204  0.00  0.00    -0.308 OA
BRANCH  11  12
ATOM     12  C   UNL d   1      -0.121  -3.619  -2.357  0.00  0.00     0.076 A 
ATOM     13  C   UNL d   1      -0.732  -2.388  -2.607  0.00  0.00     0.039 A 
ATOM     14  C   UNL d   1      -0.359  -1.259  -1.873  0.00  0.00     0.028 A 
ATOM     15  C   UNL d   1       0.632  -1.370  -0.891  0.00  0.00     0.087 A 
ATOM     16  C   UNL d   1       1.198  -2.613  -0.593  0.00  0.00     0.028 A 
ATOM     17  C   UNL d   1       0.795  -3.745  -1.306  0.00  0.00     0.039 A 
BRANCH  15  18
ATOM     18  S   UNL d   1       1.028   0.041   0.124  0.00  0.00     0.303 S 
ATOM     19  O   UNL d   1      -0.151   0.889   0.105  0.00  0.00    -0.193 OA
ATOM     20  O   UNL d   1       1.534  -0.480   1.383  0.00  0.00    -0.193 OA
BRANCH  18  21
ATOM     21  O   UNL d   1       2.249   0.806  -0.651  0.00  0.00    -0.229 OA
BRANCH  21  22
ATOM     22  C   UNL d   1       2.865   1.897  -0.076  0.00  0.00     0.089 A 
ATOM     23  C   UNL d   1       4.197   2.131  -0.435  0.00  0.00     0.040 A 
ATOM     24  C   UNL d   1       4.900   3.216   0.109  0.00  0.00     0.039 A 
ATOM     25  C   UNL d   1       4.254   4.077   1.008  0.00  0.00     0.103 A 
ATOM     26  C   UNL d   1       2.917   3.862   1.354  0.00  0.00     0.039 A 
ATOM     27  C   UNL d   1       2.228   2.777   0.806  0.00  0.00     0.040 A 
BRANCH  25  28
ATOM     28  N   UNL d   1       4.977   5.216   1.590  0.00  0.00    -0.116 N 
ATOM     29  O   UNL d   1       6.161   5.375   1.261  0.00  0.00    -0.532 OA
ATOM     30  O   UNL d   1       4.360   5.952   2.374  0.00  0.00    -0.532 OA
ENDBRANCH  25  28
ENDBRANCH  21  22
ENDBRANCH  18  21
ENDBRANCH  15  18
ENDBRANCH  11  12
ENDBRANCH   1  11
TORSDOF 6
