REMARK  4 active torsions:
REMARK  status: ('A' for Active; 'I' for Inactive)
REMARK    1  A    between atoms: S_5  and  C_1 
REMARK    2  A    between atoms: N_2  and  C_6 
REMARK    3  A    between atoms: C_4  and  S_5 
REMARK    4  A    between atoms: N_16  and  C_9 
ROOT
ATOM      1  S   UNL d   1       3.216  -0.830  -0.168  0.00  0.00    -0.043 SA
ENDROOT
BRANCH   1   2
ATOM      2  C   UNL d   1       4.219   0.637  -0.074  0.00  0.00     0.109 A 
ATOM      3  C   UNL d   1       4.224   1.543   0.981  0.00  0.00     0.136 A 
ATOM      4  C   UNL d   1       5.082   2.651   0.963  0.00  0.00     0.040 A 
ATOM      5  C   UNL d   1       5.931   2.818  -0.124  0.00  0.00     0.020 A 
ATOM      6  C   UNL d   1       5.884   1.875  -1.138  0.00  0.00     0.089 A 
ATOM      7  N   UNL d   1       5.063   0.799  -1.130  0.00  0.00    -0.358 N 
ATOM      8  HN  UNL d   1       5.075   0.126  -1.897  1.00  0.00     0.166 HD
BRANCH   3   9
ATOM      9  N   UNL d   1       3.385   1.356   2.138  0.00  0.00    -0.113 N 
ATOM     10  O   UNL d   1       3.521   0.304   2.777  0.00  0.00    -0.532 OA
ATOM     11  O   UNL d   1       2.639   2.292   2.450  0.00  0.00    -0.532 OA
ENDBRANCH   3   9
ENDBRANCH   1   2
BRANCH   1  12
ATOM     12  C   UNL d   1       1.795  -0.165  -0.939  0.00  0.00     0.136 A 
ATOM     13  S   UNL d   1       0.487  -1.162  -1.430  0.00  0.00    -0.026 SA
ATOM     14  C   UNL d   1      -0.313   0.265  -1.952  0.00  0.00     0.159 A 
ATOM     15  N   UNL d   1       0.386   1.361  -1.767  0.00  0.00    -0.279 N 
ATOM     16  N   UNL d   1       1.609   1.116  -1.167  0.00  0.00    -0.286 N 
ATOM     17  HN  UNL d   1       0.064   2.291  -2.036  1.00  0.00     0.189 HD
ATOM     18  HN  UNL d   1       2.285   1.843  -0.931  1.00  0.00     0.188 HD
BRANCH  14  19
ATOM     19  N   UNL d   1      -1.540   0.218  -2.501  0.00  0.00    -0.379 N 
ATOM     20  H   UNL d   1      -1.882  -0.661  -2.869  0.00  0.00     0.158 HD
ATOM     21  H   UNL d   1      -1.847   1.040  -3.010  0.00  0.00     0.158 HD
ENDBRANCH  14  19
ENDBRANCH   1  12
TORSDOF 4
