REMARK  2 active torsions:
REMARK  status: ('A' for Active; 'I' for Inactive)
REMARK    1  A    between atoms: C_3  and  S_1 
REMARK    2  A    between atoms: C_4  and  S_1 
ROOT
ATOM      1  N   UNL d   1      -2.463   0.405   1.355  0.00  0.00    -0.196 NA
ATOM      2  C   UNL d   1       0.140   0.493   1.570  0.00  0.00     0.269 C 
ATOM      3  C   UNL d   1      -1.305   0.449   1.427  0.00  0.00     0.074 C 
ENDROOT
BRANCH   2   4
ATOM      4  S   UNL d   1       0.858   0.035   0.021  0.00  0.00     0.187 S 
ATOM      5  O   UNL d   1       2.296  -0.027   0.223  0.00  0.00    -0.222 OA
ATOM      6  O   UNL d   1       0.319   0.881  -1.028  0.00  0.00    -0.222 OA
BRANCH   4   7
ATOM      7  C   UNL d   1       0.312  -1.631  -0.284  0.00  0.00     0.060 A 
ATOM      8  C   UNL d   1      -0.857  -1.858  -1.012  0.00  0.00     0.024 A 
ATOM      9  C   UNL d   1      -1.258  -3.170  -1.272  0.00  0.00     0.008 A 
ATOM     10  C   UNL d   1      -0.489  -4.253  -0.825  0.00  0.00    -0.062 A 
ATOM     11  C   UNL d   1       0.692  -4.007  -0.112  0.00  0.00     0.008 A 
ATOM     12  C   UNL d   1      -0.924  -5.657  -1.129  0.00  0.00     0.048 C 
ATOM     13  C   UNL d   1       1.098  -2.699   0.155  0.00  0.00     0.024 A 
ENDBRANCH   4   7
ENDBRANCH   2   4
TORSDOF 2
