REMARK  5 active torsions:
REMARK  status: ('A' for Active; 'I' for Inactive)
REMARK    1  A    between atoms: C_2  and  C_1 
REMARK    2  A    between atoms: S_8  and  C_5 
REMARK    3  A    between atoms: C_18  and  S_8 
REMARK    4  A    between atoms: C_10  and  C_18 
REMARK       I    between atoms: N_11  and  C_10 
REMARK    5  A    between atoms: C_12  and  N_11 
ROOT
ATOM      1  S   UNL d   1      -0.881  -5.317  -1.906  0.00  0.00    -0.101 SA
ENDROOT
BRANCH   1   2
ATOM      2  C   UNL d   1      -0.777  -3.607  -1.352  0.00  0.00     0.092 A 
ATOM      3  N   UNL d   1      -1.880  -3.128  -0.718  0.00  0.00    -0.358 N 
ATOM      4  C   UNL d   1      -1.835  -1.884  -0.190  0.00  0.00     0.105 A 
ATOM      5  HN  UNL d   1      -2.724  -3.695  -0.643  1.00  0.00     0.166 HD
ATOM      6  C   UNL d   1      -0.725  -1.062  -0.255  0.00  0.00     0.065 A 
ATOM      7  C   UNL d   1       0.389  -1.542  -0.951  0.00  0.00     0.044 A 
ATOM      8  C   UNL d   1       0.370  -2.826  -1.509  0.00  0.00     0.068 A 
ATOM      9 CL   UNL d   1       1.787  -3.367  -2.332  0.00  0.00    -0.081 Cl
BRANCH   6  10
ATOM     10  C   UNL d   1      -0.751   0.267   0.436  0.00  0.00     0.418 C 
ATOM     11  F   UNL d   1       0.419   0.954   0.334  0.00  0.00    -0.166 F 
ATOM     12  F   UNL d   1      -0.998   0.146   1.770  0.00  0.00    -0.166 F 
ATOM     13  F   UNL d   1      -1.718   1.091  -0.051  0.00  0.00    -0.166 F 
ENDBRANCH   6  10
ENDBRANCH   1   2
BRANCH   1  14
ATOM     14  C   UNL d   1      -2.491  -5.753  -1.190  0.00  0.00     0.184 C 
BRANCH  14  15
ATOM     15  C   UNL d   1      -2.905  -7.207  -1.305  0.00  0.00     0.231 C 
ATOM     16  N   UNL d   1      -1.925  -8.121  -1.639  0.00  0.00    -0.326 N 
ATOM     17  H   UNL d   1      -0.992  -7.747  -1.764  0.00  0.00     0.169 HD
ATOM     18  O   UNL d   1      -4.071  -7.498  -1.023  0.00  0.00    -0.272 OA
BRANCH  16  19
ATOM     19  C   UNL d   1      -2.081  -9.525  -1.734  0.00  0.00     0.036 A 
ATOM     20  C   UNL d   1      -3.320 -10.172  -1.685  0.00  0.00     0.053 A 
ATOM     21  C   UNL d   1      -3.395 -11.565  -1.732  0.00  0.00     0.036 A 
ATOM     22 CL   UNL d   1      -4.930 -12.342  -1.657  0.00  0.00    -0.084 Cl
ATOM     23  C   UNL d   1      -2.241 -12.334  -1.837  0.00  0.00     0.024 A 
ATOM     24  C   UNL d   1      -1.003 -11.701  -1.915  0.00  0.00     0.004 A 
ATOM     25  C   UNL d   1      -0.924 -10.303  -1.873  0.00  0.00     0.029 A 
ENDBRANCH  16  19
ENDBRANCH  14  15
ENDBRANCH   1  14
TORSDOF 5
