REMARK  4 active torsions:
REMARK  status: ('A' for Active; 'I' for Inactive)
REMARK    1  A    between atoms: S_4  and  C_2 
REMARK    2  A    between atoms: N_17  and  C_3 
REMARK    3  A    between atoms: C_13  and  S_4 
REMARK    4  A    between atoms: C_16  and  C_9 
ROOT
ATOM      1  N   UNL d   1      -0.229  -0.662   0.018  0.00  0.00    -0.227 N 
ATOM      2  C   UNL d   1       2.131  -0.823   0.029  0.00  0.00     0.119 A 
ATOM      3  C   UNL d   1       0.946  -1.465  -0.005  0.00  0.00     0.125 A 
ATOM      4  C   UNL d   1      -0.163   0.730   0.075  0.00  0.00     0.130 A 
ATOM      5  N   UNL d   1      -1.518  -1.101  -0.044  0.00  0.00    -0.294 N 
ATOM      6  HN  UNL d   1      -1.840  -2.066  -0.115  1.00  0.00     0.187 HD
ATOM      7  C   UNL d   1      -1.465   1.171   0.065  0.00  0.00     0.077 A 
ATOM      8  C   UNL d   1      -2.271   0.007   0.006  0.00  0.00     0.037 A 
ATOM      9  N   UNL d   1       1.024   1.402   0.127  0.00  0.00    -0.349 N 
ATOM     10  HN  UNL d   1       1.071   2.420   0.183  1.00  0.00     0.167 HD
ATOM     11  C   UNL d   1       2.092   0.659   0.100  0.00  0.00     0.117 A 
ENDROOT
BRANCH   2  12
ATOM     12  S   UNL d   1       3.645  -1.629  -0.034  0.00  0.00     0.211 S 
ATOM     13  O   UNL d   1       3.514  -2.911  -0.711  0.00  0.00    -0.217 OA
ATOM     14  O   UNL d   1       4.664  -0.700  -0.478  0.00  0.00    -0.217 OA
BRANCH  12  15
ATOM     15  C   UNL d   1       4.005  -1.982   1.681  0.00  0.00     0.064 A 
ATOM     16  C   UNL d   1       3.571  -3.183   2.252  0.00  0.00     0.025 A 
ATOM     17  C   UNL d   1       3.892  -3.471   3.582  0.00  0.00     0.025 A 
ATOM     18  C   UNL d   1       4.649  -2.567   4.327  0.00  0.00     0.034 A 
ATOM     19  C   UNL d   1       5.106  -1.382   3.750  0.00  0.00     0.025 A 
ATOM     20 CL   UNL d   1       5.029  -2.918   5.968  0.00  0.00    -0.084 Cl
ATOM     21  C   UNL d   1       4.791  -1.087   2.421  0.00  0.00     0.025 A 
ENDBRANCH  12  15
ENDBRANCH   2  12
BRANCH   3  22
ATOM     22  N   UNL d   1       0.747  -2.846  -0.080  0.00  0.00    -0.286 NA
ATOM     23  H   UNL d   1       1.432  -3.328  -0.670  0.00  0.00     0.125 HD
ATOM     24  H   UNL d   1      -0.218  -3.058  -0.365  0.00  0.00     0.125 HD
ENDBRANCH   3  22
BRANCH   8  25
ATOM     25  C   UNL d   1      -3.793  -0.067   0.011  0.00  0.00    -0.007 C 
ATOM     26  C   UNL d   1      -4.305  -1.523  -0.049  0.00  0.00     0.021 C 
ATOM     27  C   UNL d   1      -4.345   0.575   1.301  0.00  0.00     0.021 C 
ATOM     28  C   UNL d   1      -4.374   0.686  -1.203  0.00  0.00     0.021 C 
ENDBRANCH   8  25
TORSDOF 4
