REMARK  5 active torsions:
REMARK  status: ('A' for Active; 'I' for Inactive)
REMARK    1  A    between atoms: C_6  and  C_1 
REMARK    2  A    between atoms: C_15  and  N_2 
REMARK    3  A    between atoms: C_17  and  C_3 
REMARK       I    between atoms: N_11  and  C_6 
REMARK    4  A    between atoms: C_8  and  N_11 
REMARK    5  A    between atoms: C_21  and  C_17 
ROOT
ATOM      1  C   UNL d   1      -0.132   1.208   0.120  0.00  0.00     0.073 A 
ATOM      2  N   UNL d   1       0.996  -0.734   0.277  0.00  0.00    -0.260 N 
ATOM      3  C   UNL d   1       1.124   0.658   0.410  0.00  0.00     0.051 A 
ATOM      4  N   UNL d   1      -0.272  -1.055  -0.110  0.00  0.00    -0.304 N 
ATOM      5  HN  UNL d   1      -0.643  -1.988  -0.291  1.00  0.00     0.186 HD
ATOM      6  C   UNL d   1      -0.922   0.096  -0.201  0.00  0.00     0.126 A 
ENDROOT
BRANCH   1   7
ATOM      7  C   UNL d   1      -0.505   2.631   0.157  0.00  0.00     0.260 C 
ATOM      8  N   UNL d   1      -1.724   2.917  -0.426  0.00  0.00    -0.307 N 
ATOM      9  H   UNL d   1      -2.317   2.176  -0.755  0.00  0.00     0.170 HD
ATOM     10  O   UNL d   1       0.237   3.462   0.662  0.00  0.00    -0.267 OA
BRANCH   8  11
ATOM     11  C   UNL d   1      -2.140   4.200  -0.737  0.00  0.00     0.130 A 
ATOM     12  N   UNL d   1      -1.455   5.325  -0.512  0.00  0.00    -0.245 N 
ATOM     13  O   UNL d   1      -2.178   6.347  -1.087  0.00  0.00    -0.241 OA
ATOM     14  HN  UNL d   1      -0.570   5.410  -0.012  1.00  0.00     0.196 HD
ATOM     15  C   UNL d   1      -3.305   5.841  -1.647  0.00  0.00     0.076 A 
ATOM     16  C   UNL d   1      -3.351   4.489  -1.415  0.00  0.00     0.084 A 
ATOM     17  C   UNL d   1      -4.156   6.796  -2.377  0.00  0.00     0.079 C 
ENDBRANCH   8  11
ENDBRANCH   1   7
BRANCH   3  18
ATOM     18  C   UNL d   1       2.359   1.385   0.864  0.00  0.00     0.060 C 
BRANCH  18  19
ATOM     19  C   UNL d   1       3.314   1.748  -0.279  0.00  0.00     0.002 C 
ATOM     20  C   UNL d   1       2.821   2.876  -1.175  0.00  0.00     0.005 C 
ENDBRANCH  18  19
ENDBRANCH   3  18
BRANCH   2  21
ATOM     21  C   UNL d   1       1.914  -1.819   0.495  0.00  0.00     0.056 A 
ATOM     22  C   UNL d   1       3.292  -1.657   0.663  0.00  0.00     0.031 A 
ATOM     23  C   UNL d   1       4.122  -2.757   0.917  0.00  0.00     0.002 A 
ATOM     24  C   UNL d   1       3.589  -4.039   1.000  0.00  0.00     0.000 A 
ATOM     25  C   UNL d   1       2.225  -4.227   0.809  0.00  0.00     0.002 A 
ATOM     26  C   UNL d   1       1.397  -3.130   0.551  0.00  0.00     0.031 A 
ENDBRANCH   2  21
TORSDOF 5
