REMARK  6 active torsions:
REMARK  status: ('A' for Active; 'I' for Inactive)
REMARK    1  A    between atoms: C_2  and  S_1 
REMARK    2  A    between atoms: C_7  and  S_1 
REMARK    3  A    between atoms: C_4  and  O_15 
REMARK    4  A    between atoms: C_8  and  C_4 
REMARK    5  A    between atoms: C_17  and  C_7 
REMARK    6  A    between atoms: O_15  and  C_17 
ROOT
ATOM      1  C   UNL d   1      -0.740   0.917   1.639  0.00  0.00     0.149 A 
ATOM      2  C   UNL d   1      -0.771   0.310   2.883  0.00  0.00     0.083 A 
ATOM      3  C   UNL d   1       0.090  -0.767   3.257  0.00  0.00     0.102 C 
ATOM      4  N   UNL d   1       0.763  -1.641   3.616  0.00  0.00    -0.191 NA
ATOM      5  N   UNL d   1      -1.549   1.939   1.251  0.00  0.00    -0.356 N 
ATOM      6  HN  UNL d   1      -1.484   2.348   0.319  1.00  0.00     0.166 HD
ATOM      7  C   UNL d   1      -1.712   0.799   3.796  0.00  0.00     0.027 A 
ATOM      8  C   UNL d   1      -2.440   2.384   2.159  0.00  0.00     0.089 A 
ATOM      9  C   UNL d   1      -2.556   1.850   3.432  0.00  0.00     0.019 A 
ENDROOT
BRANCH   1  10
ATOM     10  S   UNL d   1       0.411   0.410   0.387  0.00  0.00     0.194 S 
ATOM     11  O   UNL d   1      -0.044  -0.887  -0.081  0.00  0.00    -0.221 OA
ATOM     12  O   UNL d   1       1.741   0.575   0.945  0.00  0.00    -0.221 OA
BRANCH  10  13
ATOM     13  C   UNL d   1       0.246   1.554  -0.963  0.00  0.00     0.174 C 
BRANCH  13  14
ATOM     14  C   UNL d   1       0.806   2.924  -0.628  0.00  0.00     0.194 C 
BRANCH  14  15
ATOM     15  O   UNL d   1       0.708   3.821  -1.755  0.00  0.00    -0.317 OA
BRANCH  15  16
ATOM     16  C   UNL d   1      -0.472   4.480  -1.877  0.00  0.00     0.293 C 
ATOM     17  O   UNL d   1      -1.463   4.292  -1.191  0.00  0.00    -0.259 OA
BRANCH  16  18
ATOM     18  C   UNL d   1      -0.417   5.492  -2.966  0.00  0.00     0.041 A 
ATOM     19  C   UNL d   1      -1.603   6.165  -3.293  0.00  0.00     0.041 A 
ATOM     20  C   UNL d   1      -1.596   7.142  -4.288  0.00  0.00     0.035 A 
ATOM     21 CL   UNL d   1      -3.054   7.966  -4.684  0.00  0.00    -0.084 Cl
ATOM     22  C   UNL d   1      -0.418   7.461  -4.960  0.00  0.00     0.024 A 
ATOM     23  C   UNL d   1       0.766   6.797  -4.637  0.00  0.00     0.003 A 
ATOM     24  C   UNL d   1       0.768   5.813  -3.642  0.00  0.00     0.018 A 
ENDBRANCH  16  18
ENDBRANCH  15  16
ENDBRANCH  14  15
ENDBRANCH  13  14
ENDBRANCH  10  13
ENDBRANCH   1  10
TORSDOF 6
