REMARK  3 active torsions:
REMARK  status: ('A' for Active; 'I' for Inactive)
REMARK    1  A    between atoms: C_8  and  C_2 
REMARK    2  A    between atoms: C_9  and  C_3 
REMARK    3  A    between atoms: S_10  and  C_5 
ROOT
ATOM      1  C   UNL d   1      -0.723  -0.056  -0.081  0.00  0.00     0.080 A 
ATOM      2  C   UNL d   1       1.308  -1.234   0.008  0.00  0.00     0.064 A 
ATOM      3  C   UNL d   1      -0.085  -1.361  -0.062  0.00  0.00     0.018 A 
ATOM      4  S   UNL d   1       1.780   0.416   0.018  0.00  0.00    -0.077 SA
ATOM      5  C   UNL d   1       0.179   0.989  -0.036  0.00  0.00     0.063 A 
ATOM      6  C   UNL d   1      -2.140   0.166  -0.118  0.00  0.00     0.102 C 
ATOM      7  N   UNL d   1      -3.290   0.345  -0.141  0.00  0.00    -0.191 NA
ENDROOT
BRANCH   3   8
ATOM      8  C   UNL d   1      -0.783  -2.666  -0.097  0.00  0.00    -0.023 A 
ATOM      9  C   UNL d   1      -1.958  -2.867   0.647  0.00  0.00     0.014 A 
ATOM     10  C   UNL d   1      -2.660  -4.077   0.579  0.00  0.00     0.024 A 
ATOM     11  C   UNL d   1      -2.170  -5.119  -0.200  0.00  0.00     0.034 A 
ATOM     12  C   UNL d   1      -0.998  -4.951  -0.929  0.00  0.00     0.024 A 
ATOM     13 CL   UNL d   1      -3.012  -6.617  -0.260  0.00  0.00    -0.084 Cl
ATOM     14  C   UNL d   1      -0.326  -3.722  -0.900  0.00  0.00     0.014 A 
ENDBRANCH   3   8
BRANCH   5  15
ATOM     15  S   UNL d   1      -0.127   2.724   0.055  0.00  0.00    -0.126 SA
ATOM     16  C   UNL d   1      -0.990   3.046  -1.499  0.00  0.00     0.096 C 
ENDBRANCH   5  15
BRANCH   2  17
ATOM     17  C   UNL d   1       2.344  -2.263   0.158  0.00  0.00     0.163 C 
ATOM     18  O   UNL d   1       2.125  -3.349   0.700  0.00  0.00    -0.292 OA
ATOM     19  C   UNL d   1       3.735  -2.030  -0.400  0.00  0.00     0.097 C 
ENDBRANCH   2  17
TORSDOF 3
