REMARK  4 active torsions:
REMARK  status: ('A' for Active; 'I' for Inactive)
REMARK    1  A    between atoms: C_9  and  C_3 
REMARK    2  A    between atoms: C_10  and  N_4 
REMARK    3  A    between atoms: C_8  and  C_9 
REMARK    4  A    between atoms: N_14  and  C_11 
ROOT
ATOM      1  N   UNL d   1       1.157  -0.715  -0.142  0.00  0.00    -0.287 N 
ATOM      2  HN  UNL d   1       2.026  -1.197  -0.372  1.00  0.00     0.188 HD
ATOM      3  C   UNL d   1       1.121   0.585   0.013  0.00  0.00     0.149 C 
ATOM      4  N   UNL d   1      -0.026  -1.406   0.019  0.00  0.00    -0.267 N 
ATOM      5  C   UNL d   1      -0.160   1.293   0.407  0.00  0.00     0.205 C 
ATOM      6  C   UNL d   1      -1.410   0.554   0.191  0.00  0.00     0.076 C 
ATOM      7  C   UNL d   1      -1.249  -0.758   0.037  0.00  0.00     0.120 C 
ATOM      8  O   UNL d   1      -0.149   2.400   0.918  0.00  0.00    -0.286 OA
ENDROOT
BRANCH   3   9
ATOM      9  C   UNL d   1       2.387   1.364  -0.246  0.00  0.00     0.205 C 
ATOM     10  O   UNL d   1       2.313   2.426  -0.849  0.00  0.00    -0.286 OA
BRANCH   9  11
ATOM     11  C   UNL d   1       3.669   0.764   0.208  0.00  0.00     0.074 C 
ATOM     12  C   UNL d   1       4.822   1.420   0.018  0.00  0.00     0.088 C 
BRANCH  12  13
ATOM     13  N   UNL d   1       6.122   1.050   0.336  0.00  0.00    -0.398 N 
ATOM     14  C   UNL d   1       6.500  -0.216   0.958  0.00  0.00     0.148 C 
ATOM     15  C   UNL d   1       7.253   1.956   0.105  0.00  0.00     0.148 C 
ENDBRANCH  12  13
ENDBRANCH   9  11
ENDBRANCH   3   9
BRANCH   4  16
ATOM     16  C   UNL d   1       0.094  -2.829   0.114  0.00  0.00     0.056 A 
ATOM     17  C   UNL d   1      -0.862  -3.600   0.808  0.00  0.00     0.033 A 
ATOM     18  C   UNL d   1      -0.743  -4.991   0.910  0.00  0.00     0.026 A 
ATOM     19  C   UNL d   1       0.334  -5.637   0.316  0.00  0.00     0.034 A 
ATOM     20  C   UNL d   1       1.298  -4.902  -0.367  0.00  0.00     0.026 A 
ATOM     21 CL   UNL d   1       0.477  -7.347   0.434  0.00  0.00    -0.084 Cl
ATOM     22  C   UNL d   1       1.182  -3.510  -0.459  0.00  0.00     0.033 A 
ENDBRANCH   4  16
TORSDOF 4
