REMARK  6 active torsions:
REMARK  status: ('A' for Active; 'I' for Inactive)
REMARK    1  A    between atoms: C_8  and  N_1 
REMARK    2  A    between atoms: S_7  and  C_2 
REMARK    3  A    between atoms: C_20  and  S_7 
REMARK       I    between atoms: N_9  and  C_10 
REMARK    4  A    between atoms: C_11  and  N_9 
REMARK    5  A    between atoms: C_10  and  C_20 
REMARK    6  A    between atoms: N_13  and  C_12 
ROOT
ATOM      1  N   UNL d   1      -0.201  -1.434  -0.166  0.00  0.00    -0.219 N 
ATOM      2  C   UNL d   1       1.032  -0.913  -0.535  0.00  0.00     0.177 C 
ATOM      3  N   UNL d   1       1.011   0.392  -0.378  0.00  0.00    -0.264 N 
ATOM      4  HN  UNL d   1       1.783   1.041  -0.527  1.00  0.00     0.186 HD
ATOM      5  N   UNL d   1      -0.262   0.700   0.027  0.00  0.00    -0.006 NA
ATOM      6  N   UNL d   1      -1.021  -0.386   0.093  0.00  0.00     0.001 NA
ENDROOT
BRANCH   2   7
ATOM      7  S   UNL d   1       2.286  -1.815  -1.329  0.00  0.00    -0.082 SA
BRANCH   7   8
ATOM      8  C   UNL d   1       3.574  -0.563  -1.507  0.00  0.00     0.185 C 
BRANCH   8   9
ATOM      9  C   UNL d   1       4.881  -1.135  -2.036  0.00  0.00     0.231 C 
ATOM     10  N   UNL d   1       4.787  -2.217  -2.887  0.00  0.00    -0.325 N 
ATOM     11  H   UNL d   1       3.874  -2.426  -3.281  0.00  0.00     0.169 HD
ATOM     12  O   UNL d   1       5.942  -0.566  -1.754  0.00  0.00    -0.272 OA
BRANCH  10  13
ATOM     13  C   UNL d   1       5.879  -2.940  -3.431  0.00  0.00     0.056 A 
ATOM     14  C   UNL d   1       5.711  -3.661  -4.624  0.00  0.00     0.060 A 
ATOM     15 CL   UNL d   1       4.191  -3.674  -5.452  0.00  0.00    -0.082 Cl
ATOM     16  C   UNL d   1       6.783  -4.352  -5.200  0.00  0.00     0.026 A 
ATOM     17  C   UNL d   1       8.025  -4.363  -4.566  0.00  0.00     0.002 A 
ATOM     18  C   UNL d   1       8.193  -3.687  -3.361  0.00  0.00     0.002 A 
ATOM     19  C   UNL d   1       7.128  -2.977  -2.799  0.00  0.00     0.031 A 
ENDBRANCH  10  13
ENDBRANCH   8   9
ENDBRANCH   7   8
ENDBRANCH   2   7
BRANCH   1  20
ATOM     20  C   UNL d   1      -0.650  -2.774  -0.093  0.00  0.00     0.057 A 
ATOM     21  C   UNL d   1       0.237  -3.806   0.201  0.00  0.00     0.033 A 
ATOM     22  C   UNL d   1      -0.193  -5.133   0.139  0.00  0.00     0.031 A 
ATOM     23  C   UNL d   1      -1.502  -5.481  -0.222  0.00  0.00     0.029 A 
ATOM     24  C   UNL d   1      -2.395  -4.418  -0.419  0.00  0.00     0.031 A 
ATOM     25  C   UNL d   1      -1.991  -3.076  -0.340  0.00  0.00     0.033 A 
BRANCH  23  26
ATOM     26  N   UNL d   1      -1.862  -6.821  -0.315  0.00  0.00    -0.390 N 
ATOM     27  C   UNL d   1      -0.933  -7.754  -0.957  0.00  0.00     0.149 C 
ATOM     28  C   UNL d   1      -3.258  -7.236  -0.323  0.00  0.00     0.149 C 
ENDBRANCH  23  26
ENDBRANCH   1  20
TORSDOF 6
