REMARK  3 active torsions:
REMARK  status: ('A' for Active; 'I' for Inactive)
REMARK    1  A    between atoms: C_2  and  C_1 
REMARK    2  A    between atoms: C_3  and  C_2 
REMARK    3  A    between atoms: N_10  and  C_6 
ROOT
ATOM      1  C   UNL d   1       1.010  -1.499  -2.242  0.00  0.00     0.029 A 
ATOM      2  N   UNL d   1       1.118  -2.145  -4.578  0.00  0.00    -0.369 N 
ATOM      3  HN  UNL d   1       0.733  -2.099  -5.522  1.00  0.00     0.165 HD
ATOM      4  C   UNL d   1       0.527  -1.492  -3.543  0.00  0.00     0.103 A 
ATOM      5  C   UNL d   1       2.153  -2.258  -1.985  0.00  0.00     0.019 A 
ATOM      6  C   UNL d   1       2.236  -2.860  -4.312  0.00  0.00     0.005 A 
ATOM      7  C   UNL d   1       2.775  -2.944  -3.031  0.00  0.00     0.025 A 
ATOM      8  C   UNL d   1       2.867  -3.583  -5.464  0.00  0.00     0.068 C 
ENDROOT
BRANCH   1   9
ATOM      9  C   UNL d   1       0.282  -0.717  -1.212  0.00  0.00     0.184 C 
ATOM     10  O   UNL d   1      -0.919  -0.509  -1.339  0.00  0.00    -0.287 OA
BRANCH   9  11
ATOM     11  C   UNL d   1       1.073  -0.162  -0.077  0.00  0.00     0.072 C 
ATOM     12  C   UNL d   1       0.491   0.550   0.898  0.00  0.00     0.088 C 
BRANCH  12  13
ATOM     13  N   UNL d   1       1.069   1.163   2.002  0.00  0.00    -0.398 N 
ATOM     14  C   UNL d   1       2.496   1.137   2.320  0.00  0.00     0.148 C 
ATOM     15  C   UNL d   1       0.263   1.885   2.992  0.00  0.00     0.148 C 
ENDBRANCH  12  13
ENDBRANCH   9  11
ENDBRANCH   1   9
TORSDOF 3
