REMARK  7 active torsions:
REMARK  status: ('A' for Active; 'I' for Inactive)
REMARK    1  A    between atoms: C_2  and  C_1 
REMARK    2  A    between atoms: O_4  and  C_2 
REMARK    3  A    between atoms: C_5  and  O_4 
REMARK    4  A    between atoms: O_19  and  C_8 
REMARK    5  A    between atoms: C_15  and  C_20 
REMARK    6  A    between atoms: C_22  and  C_16 
REMARK    7  A    between atoms: C_20  and  C_22 
ROOT
ATOM      1  C   UNL d   1      -1.403  -4.246   0.149  0.00  0.00     0.112 A 
ATOM      2  C   UNL d   1      -0.453  -3.929   1.130  0.00  0.00     0.102 A 
ATOM      3  C   UNL d   1       0.719  -4.701   1.219  0.00  0.00     0.046 A 
ATOM      4  C   UNL d   1      -1.190  -5.345  -0.694  0.00  0.00     0.041 A 
ATOM      5  C   UNL d   1       0.950  -5.791   0.368  0.00  0.00    -0.055 A 
ATOM      6  C   UNL d   1      -0.030  -6.117  -0.574  0.00  0.00     0.010 A 
ENDROOT
BRANCH   1   7
ATOM      7  O   UNL d   1      -2.475  -3.346  -0.093  0.00  0.00    -0.272 OA
BRANCH   7   8
ATOM      8  C   UNL d   1      -3.667  -3.728  -0.683  0.00  0.00     0.300 C 
ATOM      9  O   UNL d   1      -4.061  -4.875  -0.846  0.00  0.00    -0.259 OA
BRANCH   8  10
ATOM     10  C   UNL d   1      -4.518  -2.559  -1.035  0.00  0.00     0.061 A 
ATOM     11  C   UNL d   1      -4.051  -1.305  -1.456  0.00  0.00     0.051 A 
ATOM     12  C   UNL d   1      -4.962  -0.305  -1.831  0.00  0.00     0.048 A 
ATOM     13 CL   UNL d   1      -2.379  -0.904  -1.622  0.00  0.00    -0.083 Cl
ATOM     14  C   UNL d   1      -6.333  -0.554  -1.805  0.00  0.00     0.035 A 
ATOM     15  C   UNL d   1      -6.812  -1.792  -1.395  0.00  0.00     0.025 A 
ATOM     16 CL   UNL d   1      -7.436   0.667  -2.306  0.00  0.00    -0.084 Cl
ATOM     17  C   UNL d   1      -5.909  -2.789  -1.013  0.00  0.00     0.021 A 
ENDBRANCH   8  10
ENDBRANCH   7   8
ENDBRANCH   1   7
BRANCH   2  18
ATOM     18  O   UNL d   1      -0.474  -2.882   2.012  0.00  0.00    -0.353 OA
ATOM     19  C   UNL d   1      -1.742  -2.365   2.385  0.00  0.00     0.210 C 
ENDBRANCH   2  18
BRANCH   5  20
ATOM     20  C   UNL d   1       2.269  -6.531   0.381  0.00  0.00     0.046 C 
BRANCH  20  21
ATOM     21  C   UNL d   1       2.577  -7.256   1.690  0.00  0.00     0.082 C 
BRANCH  21  22
ATOM     22  C   UNL d   1       3.908  -7.985   1.614  0.00  0.00     0.123 C 
ATOM     23  O   UNL d   1       4.607  -7.993   0.601  0.00  0.00    -0.298 OA
ATOM     24  C   UNL d   1       4.348  -8.714   2.858  0.00  0.00     0.091 C 
ENDBRANCH  21  22
ENDBRANCH  20  21
ENDBRANCH   5  20
TORSDOF 7
