REMARK  2 active torsions:
REMARK  status: ('A' for Active; 'I' for Inactive)
REMARK    1  A    between atoms: N_2  and  C_1 
REMARK       I    between atoms: C_6  and  N_2 
REMARK    2  A    between atoms: C_7  and  N_2 
REMARK       I    between atoms: N_11  and  C_6 
ROOT
ATOM      1  N   UNL d   1       3.040   0.566   0.300  0.00  0.00    -0.244 N 
ATOM      2  C   UNL d   1       4.203  -0.244   0.289  0.00  0.00     0.328 C 
ATOM      3  O   UNL d   1       4.314  -1.320  -0.293  0.00  0.00    -0.246 OA
ATOM      4  N   UNL d   1       5.285   0.295   0.978  0.00  0.00    -0.347 N 
ATOM      5  C   UNL d   1       6.556  -0.374   1.100  0.00  0.00     0.151 C 
ATOM      6  H   UNL d   1       5.151   1.137   1.520  0.00  0.00     0.163 HD
ENDROOT
BRANCH   1   7
ATOM      7  C   UNL d   1       1.727   0.084   0.156  0.00  0.00     0.152 C 
ATOM      8  N   UNL d   1       0.688   0.858   0.127  0.00  0.00    -0.369 N 
ATOM      9  C   UNL d   1      -0.558   0.072   0.028  0.00  0.00     0.142 C 
ATOM     10  HN  UNL d   1       0.726   1.877   0.166  1.00  0.00     0.161 HD
ATOM     11  C   UNL d   1      -0.281  -1.284  -0.624  0.00  0.00     0.024 C 
ATOM     12  S   UNL d   1       1.399  -1.625  -0.027  0.00  0.00    -0.083 SA
ATOM     13  C   UNL d   1      -0.307  -1.192  -2.152  0.00  0.00     0.029 C 
ATOM     14  C   UNL d   1      -1.238  -2.369  -0.138  0.00  0.00     0.029 C 
ENDBRANCH   1   7
BRANCH   1  15
ATOM     15  C   UNL d   1       3.205   1.986   0.441  0.00  0.00     0.046 A 
ATOM     16  C   UNL d   1       4.041   2.677  -0.452  0.00  0.00     0.032 A 
ATOM     17  C   UNL d   1       4.247   4.050  -0.309  0.00  0.00     0.026 A 
ATOM     18  C   UNL d   1       3.638   4.735   0.740  0.00  0.00     0.034 A 
ATOM     19  C   UNL d   1       2.816   4.060   1.641  0.00  0.00     0.026 A 
ATOM     20 CL   UNL d   1       3.910   6.423   0.926  0.00  0.00    -0.084 Cl
ATOM     21  C   UNL d   1       2.588   2.689   1.486  0.00  0.00     0.032 A 
ENDBRANCH   1  15
TORSDOF 2
