REMARK  2 active torsions:
REMARK  status: ('A' for Active; 'I' for Inactive)
REMARK    1  A    between atoms: N_2  and  C_1 
REMARK    2  A    between atoms: C_15  and  N_6 
ROOT
ATOM      1  C   UNL d   1      -0.294  -1.294   0.076  0.00  0.00     0.139 C 
ATOM      2  C   UNL d   1       1.106  -0.761   0.019  0.00  0.00     0.296 C 
ATOM      3  C   UNL d   1      -1.093  -0.211   0.096  0.00  0.00     0.058 C 
ATOM      4  N   UNL d   1      -0.358   0.973   0.285  0.00  0.00    -0.289 N 
ATOM      5  N   UNL d   1       1.017   0.626   0.173  0.00  0.00    -0.217 N 
ATOM      6  O   UNL d   1       2.082  -1.459  -0.215  0.00  0.00    -0.264 OA
ATOM      7  C   UNL d   1      -0.830   2.300  -0.093  0.00  0.00     0.178 C 
ATOM      8  C   UNL d   1      -2.588  -0.179   0.058  0.00  0.00     0.072 C 
ENDROOT
BRANCH   1   9
ATOM      9  N   UNL d   1      -0.533  -2.639   0.015  0.00  0.00    -0.236 N 
ATOM     10  C   UNL d   1       0.193  -3.544   0.760  0.00  0.00     0.266 A 
ATOM     11  C   UNL d   1      -0.286  -4.870   0.395  0.00  0.00     0.050 A 
ATOM     12  O   UNL d   1       0.991  -3.372   1.659  0.00  0.00    -0.267 OA
ATOM     13  C   UNL d   1       0.120  -6.110   0.852  0.00  0.00     0.037 A 
ATOM     14  C   UNL d   1      -1.311  -4.711  -0.516  0.00  0.00     0.048 A 
ATOM     15  C   UNL d   1      -0.547  -7.219   0.333  0.00  0.00     0.011 A 
ATOM     16 BR   UNL d   1      -0.058  -8.950   0.916  0.00  0.00    -0.051 Br
ATOM     17  C   UNL d   1      -1.584  -7.072  -0.611  0.00  0.00     0.020 A 
ATOM     18  C   UNL d   1      -1.977  -5.798  -1.047  0.00  0.00     0.019 A 
ATOM     19  C   UNL d   1      -1.482  -3.275  -0.750  0.00  0.00     0.266 A 
ATOM     20  O   UNL d   1      -2.301  -2.830  -1.533  0.00  0.00    -0.267 OA
ENDBRANCH   1   9
BRANCH   5  21
ATOM     21  C   UNL d   1       2.089   1.543   0.072  0.00  0.00     0.060 A 
ATOM     22  C   UNL d   1       3.213   1.230  -0.712  0.00  0.00     0.031 A 
ATOM     23  C   UNL d   1       4.280   2.123  -0.844  0.00  0.00     0.002 A 
ATOM     24  C   UNL d   1       4.250   3.344  -0.180  0.00  0.00     0.000 A 
ATOM     25  C   UNL d   1       3.161   3.661   0.630  0.00  0.00     0.002 A 
ATOM     26  C   UNL d   1       2.095   2.762   0.759  0.00  0.00     0.031 A 
ENDBRANCH   5  21
TORSDOF 2
