REMARK  4 active torsions:
REMARK  status: ('A' for Active; 'I' for Inactive)
REMARK    1  A    between atoms: S_9  and  C_5 
REMARK    2  A    between atoms: C_14  and  S_9 
REMARK    3  A    between atoms: C_11  and  C_14 
REMARK    4  A    between atoms: C_12  and  C_11 
ROOT
ATOM      1  N   UNL d   1      -1.145  -0.507   0.243  0.00  0.00    -0.314 N 
ATOM      2  C   UNL d   1      -1.040   0.783  -0.218  0.00  0.00     0.158 A 
ATOM      3  N   UNL d   1       0.160   0.952  -0.744  0.00  0.00    -0.281 N 
ATOM      4  HN  UNL d   1       0.504   1.804  -1.185  1.00  0.00     0.188 HD
ATOM      5  C   UNL d   1       0.073  -1.084  -0.005  0.00  0.00     0.163 A 
ATOM      6  N   UNL d   1       0.867  -0.220  -0.593  0.00  0.00    -0.278 N 
ATOM      7  HN  UNL d   1       1.830  -0.386  -0.884  1.00  0.00     0.189 HD
ATOM      8  C   UNL d   1      -2.048   1.798  -0.175  0.00  0.00     0.120 A 
ATOM      9  O   UNL d   1      -3.050   1.839   0.763  0.00  0.00    -0.319 OA
ATOM     10  C   UNL d   1      -2.196   2.889  -1.016  0.00  0.00     0.043 A 
ATOM     11  C   UNL d   1      -3.816   2.930   0.509  0.00  0.00     0.142 A 
ATOM     12  C   UNL d   1      -3.339   3.606  -0.586  0.00  0.00     0.027 A 
ATOM     13  C   UNL d   1      -2.300  -1.158   0.806  0.00  0.00     0.160 C 
ENDROOT
BRANCH   5  14
ATOM     14  S   UNL d   1       0.452  -2.722   0.396  0.00  0.00    -0.085 SA
BRANCH  14  15
ATOM     15  C   UNL d   1       2.198  -2.812  -0.107  0.00  0.00     0.166 C 
BRANCH  15  16
ATOM     16  C   UNL d   1       2.753  -4.224   0.029  0.00  0.00     0.169 C 
ATOM     17  O   UNL d   1       2.073  -5.202   0.335  0.00  0.00    -0.291 OA
BRANCH  16  18
ATOM     18  C   UNL d   1       4.215  -4.438  -0.229  0.00  0.00     0.011 A 
ATOM     19  C   UNL d   1       5.058  -3.415  -0.688  0.00  0.00     0.018 A 
ATOM     20  C   UNL d   1       6.418  -3.668  -0.899  0.00  0.00     0.043 A 
ATOM     21  C   UNL d   1       6.933  -4.937  -0.656  0.00  0.00     0.116 A 
ATOM     22  C   UNL d   1       6.113  -5.964  -0.211  0.00  0.00     0.043 A 
ATOM     23  F   UNL d   1       8.236  -5.169  -0.854  0.00  0.00    -0.206 F 
ATOM     24  C   UNL d   1       4.755  -5.716   0.001  0.00  0.00     0.018 A 
ENDBRANCH  16  18
ENDBRANCH  15  16
ENDBRANCH  14  15
ENDBRANCH   5  14
TORSDOF 4
