REMARK  4 active torsions:
REMARK  status: ('A' for Active; 'I' for Inactive)
REMARK    1  A    between atoms: N_2  and  S_1 
REMARK    2  A    between atoms: C_10  and  S_1 
REMARK       I    between atoms: C_4  and  N_2 
REMARK    3  A    between atoms: C_6  and  C_4 
REMARK    4  A    between atoms: C_12  and  C_7 
ROOT
ATOM      1  N   UNL d   1       0.826   0.607  -1.259  0.00  0.00    -0.279 N 
ATOM      2  HN  UNL d   1       1.274   0.227  -0.425  1.00  0.00     0.179 HD
ATOM      3  C   UNL d   1       0.682   1.998  -1.405  0.00  0.00     0.269 C 
ATOM      4  O   UNL d   1      -0.309   2.471  -1.962  0.00  0.00    -0.266 OA
ENDROOT
BRANCH   3   5
ATOM      5  C   UNL d   1       1.685   2.881  -0.800  0.00  0.00     0.074 A 
ATOM      6  S   UNL d   1       2.883   2.282   0.267  0.00  0.00    -0.083 SA
ATOM      7  C   UNL d   1       3.559   3.836   0.543  0.00  0.00     0.032 A 
ATOM      8  C   UNL d   1       2.891   4.790  -0.205  0.00  0.00     0.023 A 
ATOM      9  C   UNL d   1       1.809   4.249  -0.963  0.00  0.00     0.026 A 
BRANCH   7  10
ATOM     10  C   UNL d   1       4.662   4.036   1.499  0.00  0.00     0.049 A 
ATOM     11  N   UNL d   1       4.773   5.312   1.948  0.00  0.00    -0.365 N 
ATOM     12  C   UNL d   1       5.725   5.568   2.873  0.00  0.00     0.088 A 
ATOM     13  HN  UNL d   1       4.161   6.051   1.601  1.00  0.00     0.165 HD
ATOM     14  C   UNL d   1       6.590   4.612   3.375  0.00  0.00     0.017 A 
ATOM     15  C   UNL d   1       6.481   3.315   2.892  0.00  0.00     0.004 A 
ATOM     16  C   UNL d   1       5.507   3.020   1.939  0.00  0.00     0.031 A 
ENDBRANCH   7  10
ENDBRANCH   3   5
BRANCH   1  17
ATOM     17  S   UNL d   1       0.313  -0.338  -2.351  0.00  0.00     0.055 S 
ATOM     18  O   UNL d   1       0.471  -0.107  -3.774  0.00  0.00    -0.245 OA
ATOM     19  C   UNL d   1      -1.404  -0.692  -2.044  0.00  0.00     0.142 C 
BRANCH  17  20
ATOM     20  C   UNL d   1       1.062  -1.932  -2.029  0.00  0.00     0.038 A 
ATOM     21  C   UNL d   1       1.446  -2.284  -0.730  0.00  0.00     0.023 A 
ATOM     22  C   UNL d   1       1.974  -3.554  -0.493  0.00  0.00     0.025 A 
ATOM     23  C   UNL d   1       2.119  -4.457  -1.548  0.00  0.00     0.034 A 
ATOM     24  C   UNL d   1       1.759  -4.096  -2.847  0.00  0.00     0.025 A 
ATOM     25 CL   UNL d   1       2.737  -6.033  -1.244  0.00  0.00    -0.084 Cl
ATOM     26  C   UNL d   1       1.234  -2.826  -3.092  0.00  0.00     0.023 A 
ENDBRANCH  17  20
ENDBRANCH   1  17
TORSDOF 4
