REMARK  20 active torsions:
REMARK  status: ('A' for Active; 'I' for Inactive)
REMARK    1  A    between atoms: C_1  and  O_14 
REMARK    2  A    between atoms: C_2  and  O_15 
REMARK    3  A    between atoms: C_3  and  O_16 
REMARK    4  A    between atoms: C_4  and  O_17 
REMARK    5  A    between atoms: C_5  and  O_11 
REMARK    6  A    between atoms: C_6  and  O_11 
REMARK    7  A    between atoms: C_7  and  O_18 
REMARK    8  A    between atoms: C_8  and  O_19 
REMARK    9  A    between atoms: C_12  and  C_28 
REMARK   10  A    between atoms: C_13  and  C_29 
REMARK   11  A    between atoms: C_20  and  O_14 
REMARK   12  A    between atoms: C_21  and  O_15 
REMARK   13  A    between atoms: C_22  and  O_16 
REMARK   14  A    between atoms: C_23  and  O_17 
REMARK   15  A    between atoms: C_24  and  O_18 
REMARK   16  A    between atoms: C_25  and  O_19 
REMARK   17  A    between atoms: C_26  and  O_30 
REMARK   18  A    between atoms: C_27  and  O_31 
REMARK   19  A    between atoms: O_31  and  C_28 
REMARK   20  A    between atoms: O_30  and  C_29 
ROOT
ATOM      1  O   UNL d   1       0.023  -2.508   3.677  0.00  0.00    -0.326 OA
ENDROOT
BRANCH   1   2
ATOM      2  C   UNL d   1      -0.102  -1.144   4.088  0.00  0.00     0.295 C 
ATOM      3  C   UNL d   1      -0.148  -1.047   5.651  0.00  0.00     0.219 C 
ATOM      4  C   UNL d   1      -1.456  -1.688   6.155  0.00  0.00     0.198 C 
ATOM      5  C   UNL d   1      -2.669  -1.107   5.381  0.00  0.00     0.195 C 
ATOM      6  C   UNL d   1      -2.485  -1.134   3.848  0.00  0.00     0.181 C 
ATOM      7  O   UNL d   1      -1.240  -0.509   3.493  0.00  0.00    -0.348 OA
BRANCH   3   8
ATOM      8  O   UNL d   1       1.016  -1.731   6.201  0.00  0.00    -0.308 OA
BRANCH   8   9
ATOM      9  C   UNL d   1       1.754  -1.066   7.129  0.00  0.00     0.255 C 
ATOM     10  O   UNL d   1       1.448   0.008   7.635  0.00  0.00    -0.266 OA
ATOM     11  C   UNL d   1       2.999  -1.822   7.493  0.00  0.00     0.126 C 
ENDBRANCH   8   9
ENDBRANCH   3   8
BRANCH   4  12
ATOM     12  O   UNL d   1      -1.616  -1.649   7.614  0.00  0.00    -0.311 OA
BRANCH  12  13
ATOM     13  C   UNL d   1      -2.239  -0.624   8.260  0.00  0.00     0.255 C 
ATOM     14  O   UNL d   1      -2.547   0.451   7.769  0.00  0.00    -0.266 OA
ATOM     15  C   UNL d   1      -2.589  -1.029   9.663  0.00  0.00     0.126 C 
ENDBRANCH  12  13
ENDBRANCH   4  12
BRANCH   5  16
ATOM     16  O   UNL d   1      -3.932  -1.661   5.810  0.00  0.00    -0.311 OA
BRANCH  16  17
ATOM     17  C   UNL d   1      -4.181  -2.974   5.594  0.00  0.00     0.255 C 
ATOM     18  O   UNL d   1      -3.407  -3.761   5.073  0.00  0.00    -0.266 OA
ATOM     19  C   UNL d   1      -5.574  -3.323   6.017  0.00  0.00     0.126 C 
ENDBRANCH  16  17
ENDBRANCH   5  16
BRANCH   6  20
ATOM     20  C   UNL d   1      -3.651  -0.359   3.188  0.00  0.00     0.213 C 
BRANCH  20  21
ATOM     21  O   UNL d   1      -3.636  -0.409   1.743  0.00  0.00    -0.319 OA
BRANCH  21  22
ATOM     22  C   UNL d   1      -4.867  -0.553   1.165  0.00  0.00     0.254 C 
ATOM     23  O   UNL d   1      -5.873  -0.938   1.750  0.00  0.00    -0.266 OA
ATOM     24  C   UNL d   1      -4.870  -0.124  -0.274  0.00  0.00     0.126 C 
ENDBRANCH  21  22
ENDBRANCH  20  21
ENDBRANCH   6  20
ENDBRANCH   1   2
BRANCH   1  25
ATOM     25  C   UNL d   1       0.052  -2.747   2.263  0.00  0.00     0.295 C 
ATOM     26  C   UNL d   1       1.397  -2.371   1.603  0.00  0.00     0.219 C 
ATOM     27  C   UNL d   1       1.462  -2.879   0.147  0.00  0.00     0.198 C 
ATOM     28  C   UNL d   1       1.080  -4.373   0.040  0.00  0.00     0.195 C 
ATOM     29  C   UNL d   1      -0.254  -4.647   0.753  0.00  0.00     0.181 C 
ATOM     30  O   UNL d   1      -0.231  -4.141   2.100  0.00  0.00    -0.348 OA
BRANCH  26  31
ATOM     31  O   UNL d   1       2.506  -2.991   2.296  0.00  0.00    -0.308 OA
BRANCH  31  32
ATOM     32  C   UNL d   1       3.287  -2.209   3.076  0.00  0.00     0.255 C 
ATOM     33  O   UNL d   1       3.057  -1.048   3.382  0.00  0.00    -0.266 OA
ATOM     34  C   UNL d   1       4.535  -2.939   3.463  0.00  0.00     0.126 C 
ENDBRANCH  31  32
ENDBRANCH  26  31
BRANCH  27  35
ATOM     35  O   UNL d   1       0.581  -2.087  -0.684  0.00  0.00    -0.311 OA
BRANCH  35  36
ATOM     36  C   UNL d   1       1.076  -1.671  -1.882  0.00  0.00     0.255 C 
ATOM     37  O   UNL d   1       2.229  -1.829  -2.257  0.00  0.00    -0.266 OA
ATOM     38  C   UNL d   1       0.022  -0.981  -2.696  0.00  0.00     0.126 C 
ENDBRANCH  35  36
ENDBRANCH  27  35
BRANCH  28  39
ATOM     39  O   UNL d   1       2.122  -5.152   0.684  0.00  0.00    -0.311 OA
BRANCH  39  40
ATOM     40  C   UNL d   1       2.052  -6.500   0.529  0.00  0.00     0.255 C 
ATOM     41  O   UNL d   1       1.314  -7.078  -0.257  0.00  0.00    -0.266 OA
ATOM     42  C   UNL d   1       2.986  -7.191   1.476  0.00  0.00     0.126 C 
ENDBRANCH  39  40
ENDBRANCH  28  39
BRANCH  29  43
ATOM     43  C   UNL d   1      -1.481  -4.190  -0.041  0.00  0.00     0.213 C 
BRANCH  43  44
ATOM     44  O   UNL d   1      -2.629  -4.619   0.700  0.00  0.00    -0.319 OA
BRANCH  44  45
ATOM     45  C   UNL d   1      -3.731  -3.853   0.532  0.00  0.00     0.254 C 
ATOM     46  O   UNL d   1      -3.894  -3.051  -0.366  0.00  0.00    -0.266 OA
ATOM     47  C   UNL d   1      -4.663  -4.058   1.688  0.00  0.00     0.126 C 
ENDBRANCH  44  45
ENDBRANCH  43  44
ENDBRANCH  29  43
ENDBRANCH   1  25
TORSDOF 20
