REMARK  7 active torsions:
REMARK  status: ('A' for Active; 'I' for Inactive)
REMARK       I    between atoms: C_2  and  N_9 
REMARK    1  A    between atoms: C_13  and  C_2 
REMARK    2  A    between atoms: C_5  and  C_14 
REMARK    3  A    between atoms: O_18  and  C_5 
REMARK    4  A    between atoms: C_7  and  C_13 
REMARK    5  A    between atoms: C_14  and  C_7 
REMARK    6  A    between atoms: N_9  and  C_17 
REMARK    7  A    between atoms: C_17  and  C_16 
ROOT
ATOM      1  C   UNL d   1       5.944  -1.156  -0.290  0.00  0.00     0.218 C 
ATOM      2  N   UNL d   1       4.718  -0.591  -0.035  0.00  0.00    -0.357 N 
ATOM      3  O   UNL d   1       6.092  -2.306  -0.692  0.00  0.00    -0.274 OA
ATOM      4  H   UNL d   1       4.663   0.372   0.271  0.00  0.00     0.162 HD
ENDROOT
BRANCH   2   5
ATOM      5  C   UNL d   1       3.480  -1.334  -0.116  0.00  0.00     0.161 C 
BRANCH   5   6
ATOM      6  C   UNL d   1       2.903  -1.568   1.257  0.00  0.00    -0.038 A 
ATOM      7  C   UNL d   1       1.947  -0.683   1.792  0.00  0.00     0.048 A 
ATOM      8  C   UNL d   1       1.444  -0.952   3.047  0.00  0.00     0.105 A 
ATOM      9  C   UNL d   1       1.857  -2.038   3.779  0.00  0.00     0.105 A 
ATOM     10  O   UNL d   1       0.505  -0.214   3.699  0.00  0.00    -0.323 OA
ATOM     11  O   UNL d   1       1.229  -2.125   4.981  0.00  0.00    -0.323 OA
ATOM     12  C   UNL d   1       2.804  -2.918   3.299  0.00  0.00     0.040 A 
ATOM     13  C   UNL d   1       0.352  -0.982   4.912  0.00  0.00     0.352 A 
ATOM     14  C   UNL d   1       3.333  -2.673   2.026  0.00  0.00     0.012 A 
ENDBRANCH   5   6
ENDBRANCH   2   5
BRANCH   1  15
ATOM     15  C   UNL d   1       7.098  -0.174  -0.134  0.00  0.00     0.112 C 
BRANCH  15  16
ATOM     16  C   UNL d   1       8.522  -0.786  -0.036  0.00  0.00    -0.030 C 
ATOM     17  C   UNL d   1       9.533   0.383   0.002  0.00  0.00     0.016 C 
ATOM     18  C   UNL d   1       8.664  -1.562   1.290  0.00  0.00     0.016 C 
BRANCH  16  19
ATOM     19  C   UNL d   1       8.892  -1.739  -1.199  0.00  0.00     0.119 C 
BRANCH  19  20
ATOM     20  C   UNL d   1       8.586  -1.194  -2.573  0.00  0.00     0.140 C 
ATOM     21  O   UNL d   1       9.274  -0.354  -3.143  0.00  0.00    -0.650 OA
BRANCH  20  22
ATOM     22  O   UNL d   1       7.451  -1.691  -3.109  0.00  0.00    -0.776 OA
ATOM     23  H   UNL d   1       6.972  -2.306  -2.506  0.00  0.00     0.167 HD
ENDBRANCH  20  22
ENDBRANCH  19  20
ENDBRANCH  16  19
ENDBRANCH  15  16
ENDBRANCH   1  15
TORSDOF 7
