REMARK  2 active torsions:
REMARK  status: ('A' for Active; 'I' for Inactive)
REMARK    1  A    between atoms: C_8  and  C_5 
REMARK    2  A    between atoms: O_14  and  C_8 
ROOT
ATOM      1  C   UNL d   1      -0.089  -0.682   0.002  0.00  0.00     0.158 A 
ATOM      2  N   UNL d   1       1.000  -1.364   0.005  0.00  0.00    -0.303 N 
ATOM      3  HN  UNL d   1       0.992  -2.384   0.008  1.00  0.00     0.171 HD
ATOM      4  N   UNL d   1      -0.244   0.697  -0.002  0.00  0.00    -0.296 N 
ATOM      5  C   UNL d   1       0.920   1.461  -0.002  0.00  0.00     0.121 A 
ATOM      6  C   UNL d   1       2.111   0.834   0.002  0.00  0.00     0.110 A 
ATOM      7  C   UNL d   1       2.175  -0.653   0.004  0.00  0.00     0.249 A 
ATOM      8  S   UNL d   1      -1.679  -1.476   0.003  0.00  0.00    -0.064 SA
ATOM      9  C   UNL d   1      -1.577   1.082  -0.003  0.00  0.00     0.107 A 
ATOM     10  C   UNL d   1      -2.471   0.081  -0.000  0.00  0.00     0.071 A 
ATOM     11  O   UNL d   1       3.282  -1.182   0.004  0.00  0.00    -0.268 OA
ENDROOT
BRANCH   5  12
ATOM     12  C   UNL d   1       0.879   2.962  -0.006  0.00  0.00     0.310 C 
ATOM     13  O   UNL d   1      -0.149   3.623  -0.009  0.00  0.00    -0.258 OA
BRANCH  12  14
ATOM     14  O   UNL d   1       2.128   3.504  -0.007  0.00  0.00    -0.321 OA
ATOM     15  C   UNL d   1       2.141   4.935  -0.010  0.00  0.00     0.213 C 
ENDBRANCH  12  14
ENDBRANCH   5  12
TORSDOF 2
