REMARK  2 active torsions:
REMARK  status: ('A' for Active; 'I' for Inactive)
REMARK    1  A    between atoms: C_4  and  C_1 
REMARK    2  A    between atoms: O_12  and  N_5 
ROOT
ATOM      1  C   UNL d   1      -3.891   2.904  -0.123  0.00  0.00    -0.010 A 
ATOM      2  C   UNL d   1      -2.750   5.043  -0.213  0.00  0.00     0.056 A 
ATOM      3  C   UNL d   1      -2.704   3.643  -0.167  0.00  0.00     0.039 A 
ATOM      4  C   UNL d   1      -3.983   5.707  -0.225  0.00  0.00     0.055 A 
ATOM      5  C   UNL d   1      -5.121   3.574  -0.150  0.00  0.00     0.015 A 
ATOM      6  C   UNL d   1      -5.167   4.969  -0.197  0.00  0.00     0.026 A 
ATOM      7 CL   UNL d   1      -1.244   5.891  -0.259  0.00  0.00    -0.083 Cl
ATOM      8 CL   UNL d   1      -4.109   7.429  -0.278  0.00  0.00    -0.083 Cl
ENDROOT
BRANCH   1   9
ATOM      9  C   UNL d   1      -3.892   1.409  -0.074  0.00  0.00     0.038 C 
ATOM     10  N   UNL d   1      -4.898   0.775  -0.606  0.00  0.00    -0.273 N 
ATOM     11  HN  UNL d   1      -5.690   1.232  -1.058  1.00  0.00     0.193 HD
ATOM     12  C   UNL d   1      -2.742   0.694   0.608  0.00  0.00     0.071 C 
BRANCH  10  13
ATOM     13  O   UNL d   1      -4.758  -0.610  -0.478  0.00  0.00    -0.290 OA
ATOM     14  H   UNL d   1      -5.557  -0.944  -0.927  0.00  0.00     0.244 HD
ENDBRANCH  10  13
ENDBRANCH   1   9
TORSDOF 2
