REMARK  6 active torsions:
REMARK  status: ('A' for Active; 'I' for Inactive)
REMARK    1  A    between atoms: C_6  and  C_1 
REMARK    2  A    between atoms: C_9  and  C_3 
REMARK    3  A    between atoms: S_10  and  C_5 
REMARK    4  A    between atoms: O_14  and  C_6 
REMARK    5  A    between atoms: C_19  and  S_10 
REMARK    6  A    between atoms: C_21  and  C_19 
ROOT
ATOM      1  C   UNL d   1       1.304  -1.268   0.073  0.00  0.00     0.094 A 
ATOM      2  C   UNL d   1      -0.703  -0.067  -0.064  0.00  0.00     0.081 A 
ATOM      3  C   UNL d   1      -0.085  -1.378   0.008  0.00  0.00     0.020 A 
ATOM      4  S   UNL d   1       1.811   0.373   0.065  0.00  0.00    -0.075 SA
ATOM      5  C   UNL d   1       0.213   0.966   0.001  0.00  0.00     0.063 A 
ATOM      6  C   UNL d   1      -2.112   0.168  -0.194  0.00  0.00     0.102 C 
ATOM      7  N   UNL d   1      -3.258   0.355  -0.254  0.00  0.00    -0.191 NA
ENDROOT
BRANCH   3   8
ATOM      8  C   UNL d   1      -0.786  -2.678  -0.008  0.00  0.00    -0.023 A 
ATOM      9  C   UNL d   1      -0.332  -3.750  -0.793  0.00  0.00     0.014 A 
ATOM     10  C   UNL d   1      -0.986  -4.988  -0.769  0.00  0.00     0.024 A 
ATOM     11  C   UNL d   1      -2.133  -5.152   0.001  0.00  0.00     0.034 A 
ATOM     12  C   UNL d   1      -2.624  -4.091   0.755  0.00  0.00     0.024 A 
ATOM     13 CL   UNL d   1      -2.943  -6.668   0.024  0.00  0.00    -0.084 Cl
ATOM     14  C   UNL d   1      -1.944  -2.868   0.764  0.00  0.00     0.014 A 
ENDBRANCH   3   8
BRANCH   5  15
ATOM     15  S   UNL d   1      -0.077   2.706  -0.061  0.00  0.00    -0.121 SA
BRANCH  15  16
ATOM     16  C   UNL d   1      -0.970   3.000   1.501  0.00  0.00     0.080 C 
BRANCH  16  17
ATOM     17  C   UNL d   1      -1.287   4.489   1.647  0.00  0.00     0.006 C 
ATOM     18  C   UNL d   1      -2.070   4.771   2.922  0.00  0.00     0.006 C 
ENDBRANCH  16  17
ENDBRANCH  15  16
ENDBRANCH   5  15
BRANCH   1  19
ATOM     19  C   UNL d   1       2.314  -2.310   0.194  0.00  0.00     0.300 C 
ATOM     20  O   UNL d   1       2.193  -3.347   0.835  0.00  0.00    -0.259 OA
BRANCH  19  21
ATOM     21  O   UNL d   1       3.401  -2.018  -0.581  0.00  0.00    -0.322 OA
ATOM     22  C   UNL d   1       4.386  -3.054  -0.624  0.00  0.00     0.213 C 
ENDBRANCH  19  21
ENDBRANCH   1  19
TORSDOF 6
