REMARK  1 active torsions:
REMARK  status: ('A' for Active; 'I' for Inactive)
REMARK    1  A    between atoms: C_8  and  N_1 
ROOT
ATOM      1  N   UNL d   1       0.967  -0.707  -0.071  0.00  0.00    -0.269 N 
ATOM      2  C   UNL d   1       0.939   0.668  -0.002  0.00  0.00     0.164 A 
ATOM      3  N   UNL d   1      -0.258   1.176   0.116  0.00  0.00    -0.281 N 
ATOM      4  HN  UNL d   1      -0.511   2.159   0.211  1.00  0.00     0.188 HD
ATOM      5  C   UNL d   1      -0.366  -1.081  -0.019  0.00  0.00     0.199 A 
ATOM      6  N   UNL d   1      -1.091   0.102   0.084  0.00  0.00    -0.274 N 
ATOM      7  C   UNL d   1       2.092   1.520  -0.105  0.00  0.00     0.120 A 
ATOM      8  S   UNL d   1      -1.124  -2.559   0.034  0.00  0.00    -0.039 SA
ATOM      9  O   UNL d   1       3.139   1.142  -0.906  0.00  0.00    -0.319 OA
ATOM     10  C   UNL d   1       2.370   2.757   0.446  0.00  0.00     0.043 A 
ATOM     11  C   UNL d   1       4.087   2.108  -0.821  0.00  0.00     0.142 A 
ATOM     12  C   UNL d   1       3.667   3.121   0.007  0.00  0.00     0.027 A 
ATOM     13  H   UNL d   1      -2.096   0.189   0.180  0.00  0.00     0.189 HD
ENDROOT
BRANCH   1  14
ATOM     14  C   UNL d   1       2.104  -1.559  -0.035  0.00  0.00     0.043 A 
ATOM     15  C   UNL d   1       3.218  -1.240   0.761  0.00  0.00     0.032 A 
ATOM     16  C   UNL d   1       4.361  -2.046   0.769  0.00  0.00     0.026 A 
ATOM     17  C   UNL d   1       4.396  -3.199  -0.005  0.00  0.00     0.034 A 
ATOM     18  C   UNL d   1       3.297  -3.553  -0.780  0.00  0.00     0.026 A 
ATOM     19 CL   UNL d   1       5.804  -4.186  -0.007  0.00  0.00    -0.084 Cl
ATOM     20  C   UNL d   1       2.159  -2.736  -0.795  0.00  0.00     0.032 A 
ENDBRANCH   1  14
TORSDOF 1
