REMARK  4 active torsions:
REMARK  status: ('A' for Active; 'I' for Inactive)
REMARK    1  A    between atoms: C_2  and  S_1 
REMARK    2  A    between atoms: N_3  and  S_1 
REMARK    3  A    between atoms: C_18  and  N_3 
REMARK    4  A    between atoms: C_19  and  C_18 
ROOT
ATOM      1  N   UNL d   1       0.351  -1.171   0.850  0.00  0.00    -0.311 N 
ATOM      2  H   UNL d   1      -0.601  -1.081   1.203  0.00  0.00     0.172 HD
ENDROOT
BRANCH   1   3
ATOM      3  S   UNL d   1       0.757   0.013  -0.276  0.00  0.00     0.259 S 
ATOM      4  O   UNL d   1       0.586   1.290   0.377  0.00  0.00    -0.201 OA
ATOM      5  O   UNL d   1       1.995  -0.360  -0.923  0.00  0.00    -0.201 OA
BRANCH   3   6
ATOM      6  C   UNL d   1      -0.545  -0.123  -1.486  0.00  0.00     0.081 A 
ATOM      7  C   UNL d   1      -0.398  -0.989  -2.575  0.00  0.00     0.052 A 
ATOM      8  C   UNL d   1      -1.398  -1.038  -3.547  0.00  0.00     0.074 A 
ATOM      9 CL   UNL d   1      -1.232  -2.119  -4.876  0.00  0.00    -0.081 Cl
ATOM     10  C   UNL d   1      -2.519  -0.213  -3.441  0.00  0.00     0.138 A 
ATOM     11  C   UNL d   1      -2.653   0.668  -2.371  0.00  0.00     0.045 A 
ATOM     12  F   UNL d   1      -3.485  -0.246  -4.370  0.00  0.00    -0.204 F 
ATOM     13  C   UNL d   1      -1.662   0.718  -1.389  0.00  0.00     0.028 A 
ENDBRANCH   3   6
ENDBRANCH   1   3
BRANCH   1  14
ATOM     14  C   UNL d   1       0.777  -2.545   0.562  0.00  0.00     0.170 C 
BRANCH  14  15
ATOM     15  C   UNL d   1       0.423  -3.499   1.684  0.00  0.00    -0.037 A 
ATOM     16  C   UNL d   1       0.808  -3.221   3.009  0.00  0.00     0.048 A 
ATOM     17  C   UNL d   1       0.508  -4.149   3.985  0.00  0.00     0.105 A 
ATOM     18  O   UNL d   1       0.807  -4.041   5.308  0.00  0.00    -0.323 OA
ATOM     19  C   UNL d   1      -0.143  -5.324   3.693  0.00  0.00     0.105 A 
ATOM     20  C   UNL d   1       0.245  -5.269   5.817  0.00  0.00     0.352 A 
ATOM     21  O   UNL d   1      -0.334  -6.102   4.792  0.00  0.00    -0.323 OA
ATOM     22  C   UNL d   1      -0.531  -5.636   2.409  0.00  0.00     0.040 A 
ATOM     23  C   UNL d   1      -0.243  -4.713   1.397  0.00  0.00     0.012 A 
ENDBRANCH  14  15
ENDBRANCH   1  14
TORSDOF 4
