REMARK  5 active torsions:
REMARK  status: ('A' for Active; 'I' for Inactive)
REMARK    1  A    between atoms: C_8  and  C_1 
REMARK    2  A    between atoms: S_9  and  C_5 
REMARK    3  A    between atoms: C_16  and  S_9 
REMARK    4  A    between atoms: C_10  and  C_16 
REMARK       I    between atoms: N_11  and  C_10 
REMARK    5  A    between atoms: C_18  and  N_11 
ROOT
ATOM      1  S   UNL d   1       1.009  -2.482   1.227  0.00  0.00    -0.083 SA
ENDROOT
BRANCH   1   2
ATOM      2  C   UNL d   1       0.713  -0.813   0.846  0.00  0.00     0.163 A 
ATOM      3  N   UNL d   1      -0.167   0.002   1.512  0.00  0.00    -0.312 N 
ATOM      4  C   UNL d   1      -0.206   1.173   0.780  0.00  0.00     0.209 A 
ATOM      5  C   UNL d   1      -0.841  -0.326   2.741  0.00  0.00     0.160 C 
ATOM      6  N   UNL d   1       0.700   1.089  -0.182  0.00  0.00    -0.279 N 
ATOM      7  N   UNL d   1       1.267  -0.154  -0.141  0.00  0.00    -0.278 N 
ATOM      8  HN  UNL d   1       0.935   1.828  -0.844  1.00  0.00     0.188 HD
ATOM      9  HN  UNL d   1       1.992  -0.504  -0.766  1.00  0.00     0.189 HD
BRANCH   4  10
ATOM     10  C   UNL d   1      -1.110   2.336   0.993  0.00  0.00     0.450 C 
ATOM     11  F   UNL d   1      -2.098   2.100   1.894  0.00  0.00    -0.163 F 
ATOM     12  F   UNL d   1      -0.440   3.429   1.438  0.00  0.00    -0.163 F 
ATOM     13  F   UNL d   1      -1.740   2.700  -0.156  0.00  0.00    -0.163 F 
ENDBRANCH   4  10
ENDBRANCH   1   2
BRANCH   1  14
ATOM     14  C   UNL d   1       2.278  -2.826  -0.028  0.00  0.00     0.185 C 
BRANCH  14  15
ATOM     15  C   UNL d   1       2.751  -4.265  -0.129  0.00  0.00     0.231 C 
ATOM     16  N   UNL d   1       2.062  -5.219   0.594  0.00  0.00    -0.327 N 
ATOM     17  H   UNL d   1       1.210  -4.910   1.049  0.00  0.00     0.169 HD
ATOM     18  O   UNL d   1       3.704  -4.507  -0.877  0.00  0.00    -0.272 OA
BRANCH  16  19
ATOM     19  C   UNL d   1       2.414  -6.582   0.738  0.00  0.00     0.034 A 
ATOM     20  C   UNL d   1       3.627  -7.117   0.289  0.00  0.00     0.031 A 
ATOM     21  C   UNL d   1       3.942  -8.465   0.496  0.00  0.00     0.026 A 
ATOM     22  C   UNL d   1       3.040  -9.292   1.154  0.00  0.00     0.034 A 
ATOM     23  C   UNL d   1       1.823  -8.781   1.601  0.00  0.00     0.026 A 
ATOM     24 CL   UNL d   1       3.433 -10.944   1.423  0.00  0.00    -0.084 Cl
ATOM     25  C   UNL d   1       1.515  -7.429   1.398  0.00  0.00     0.031 A 
ENDBRANCH  16  19
ENDBRANCH  14  15
ENDBRANCH   1  14
TORSDOF 5
