REMARK  2 active torsions:
REMARK  status: ('A' for Active; 'I' for Inactive)
REMARK       I    between atoms: C_3  and  N_5 
REMARK    1  A    between atoms: C_6  and  C_3 
REMARK    2  A    between atoms: N_5  and  C_4 
ROOT
ATOM      1  C   UNL d   1       0.978  -0.434  -0.600  0.00  0.00     0.084 C 
ATOM      2  C   UNL d   1      -0.288   0.139  -0.352  0.00  0.00     0.079 C 
ATOM      3  C   UNL d   1       1.204  -1.800  -0.310  0.00  0.00     0.058 C 
ATOM      4  C   UNL d   1      -1.348  -0.679   0.063  0.00  0.00     0.057 C 
ATOM      5  C   UNL d   1       0.113  -2.606   0.043  0.00  0.00     0.033 C 
ATOM      6  C   UNL d   1      -1.155  -2.052   0.221  0.00  0.00     0.028 C 
ATOM      7 CL   UNL d   1       2.145   0.486  -1.512  0.00  0.00    -0.080 Cl
ATOM      8 CL   UNL d   1      -0.546   1.847  -0.562  0.00  0.00    -0.081 Cl
ATOM      9 CL   UNL d   1      -2.939  -0.069   0.365  0.00  0.00    -0.082 Cl
ENDROOT
BRANCH   3  10
ATOM     10  N   UNL d   1       2.458  -2.457  -0.354  0.00  0.00    -0.320 N 
ATOM     11  C   UNL d   1       3.687  -1.902  -0.019  0.00  0.00     0.280 C 
ATOM     12  O   UNL d   1       3.842  -0.774   0.439  0.00  0.00    -0.265 OA
ATOM     13  H   UNL d   1       2.467  -3.473  -0.375  0.00  0.00     0.169 HD
BRANCH  11  14
ATOM     14  C   UNL d   1       4.796  -2.822  -0.184  0.00  0.00     0.142 A 
ATOM     15  O   UNL d   1       4.546  -4.150  -0.423  0.00  0.00    -0.317 OA
ATOM     16  C   UNL d   1       5.753  -4.770  -0.509  0.00  0.00     0.143 A 
ATOM     17  C   UNL d   1       6.776  -3.866  -0.342  0.00  0.00     0.027 A 
ATOM     18  C   UNL d   1       6.158  -2.613  -0.124  0.00  0.00     0.045 A 
ENDBRANCH  11  14
ENDBRANCH   3  10
TORSDOF 2
