REMARK  3 active torsions:
REMARK  status: ('A' for Active; 'I' for Inactive)
REMARK    1  A    between atoms: C_2  and  C_1 
REMARK       I    between atoms: N_6  and  C_2 
REMARK    2  A    between atoms: C_4  and  N_5 
REMARK    3  A    between atoms: N_5  and  N_6 
ROOT
ATOM      1  C   UNL d   1       2.385  -2.003   0.089  0.00  0.00     0.269 C 
ATOM      2  N   UNL d   1       2.508  -3.381   0.070  0.00  0.00    -0.282 N 
ATOM      3  O   UNL d   1       1.296  -1.437   0.004  0.00  0.00    -0.266 OA
ATOM      4  H   UNL d   1       3.398  -3.873   0.094  0.00  0.00     0.184 HD
ENDROOT
BRANCH   2   5
ATOM      5  N   UNL d   1       1.345  -4.132  -0.138  0.00  0.00    -0.201 NA
ATOM      6  H   UNL d   1       0.526  -3.554   0.100  0.00  0.00     0.153 HD
BRANCH   5   7
ATOM      7  C   UNL d   1       1.282  -5.364   0.571  0.00  0.00     0.051 A 
ATOM      8  C   UNL d   1       0.602  -6.402  -0.095  0.00  0.00     0.050 A 
ATOM      9  C   UNL d   1       0.401  -7.643   0.511  0.00  0.00     0.035 A 
ATOM     10 CL   UNL d   1      -0.419  -8.890  -0.344  0.00  0.00    -0.084 Cl
ATOM     11  C   UNL d   1       0.852  -7.874   1.805  0.00  0.00     0.026 A 
ATOM     12  C   UNL d   1       1.496  -6.849   2.499  0.00  0.00     0.027 A 
ATOM     13  C   UNL d   1       1.698  -5.596   1.899  0.00  0.00     0.057 A 
ATOM     14 CL   UNL d   1       2.437  -4.386   2.891  0.00  0.00    -0.082 Cl
ENDBRANCH   5   7
ENDBRANCH   2   5
BRANCH   1  15
ATOM     15  C   UNL d   1       3.636  -1.206   0.227  0.00  0.00     0.072 A 
ATOM     16  C   UNL d   1       4.893  -1.794   0.397  0.00  0.00     0.135 A 
ATOM     17  C   UNL d   1       6.038  -1.015   0.542  0.00  0.00     0.085 A 
ATOM     18  F   UNL d   1       5.036  -3.128   0.422  0.00  0.00    -0.205 F 
ATOM     19  C   UNL d   1       5.924   0.368   0.514  0.00  0.00     0.119 A 
ATOM     20  C   UNL d   1       4.689   0.982   0.338  0.00  0.00     0.043 A 
ATOM     21  F   UNL d   1       7.021   1.123   0.658  0.00  0.00    -0.206 F 
ATOM     22  C   UNL d   1       3.543   0.196   0.194  0.00  0.00     0.023 A 
ENDBRANCH   1  15
TORSDOF 3
