REMARK  9 active torsions:
REMARK  status: ('A' for Active; 'I' for Inactive)
REMARK    1  A    between atoms: C_2  and  C_1 
REMARK    2  A    between atoms: C_3  and  C_1 
REMARK    3  A    between atoms: C_4  and  C_2 
REMARK    4  A    between atoms: C_5  and  C_3 
REMARK    5  A    between atoms: C_6  and  C_3 
REMARK    6  A    between atoms: O_9  and  C_3 
REMARK    7  A    between atoms: C_7  and  C_4 
REMARK    8  A    between atoms: C_8  and  C_4 
REMARK    9  A    between atoms: O_10  and  C_4 
ROOT
ATOM      1  C   UNL d   1       1.086   0.050  -0.006  0.00  0.00    -0.054 C 
ENDROOT
BRANCH   1   2
ATOM      2  C   UNL d   1      -0.217   0.050  -0.006  0.00  0.00    -0.054 C 
BRANCH   2   3
ATOM      3  C   UNL d   1      -1.738   0.050  -0.006  0.00  0.00     0.177 C 
BRANCH   3   4
ATOM      4  C   UNL d   1      -2.240  -0.380  -1.391  0.00  0.00    -0.007 A 
ATOM      5  C   UNL d   1      -1.918  -1.656  -1.897  0.00  0.00     0.011 A 
ATOM      6  C   UNL d   1      -2.392  -2.080  -3.141  0.00  0.00     0.001 A 
ATOM      7  C   UNL d   1      -3.188  -1.235  -3.908  0.00  0.00     0.000 A 
ATOM      8  C   UNL d   1      -3.509   0.035  -3.435  0.00  0.00     0.001 A 
ATOM      9  C   UNL d   1      -3.044   0.457  -2.187  0.00  0.00     0.011 A 
ENDBRANCH   3   4
BRANCH   3  10
ATOM     10  C   UNL d   1      -2.268  -0.806   1.163  0.00  0.00    -0.007 A 
ATOM     11  C   UNL d   1      -1.501  -1.010   2.332  0.00  0.00     0.011 A 
ATOM     12  C   UNL d   1      -1.973  -1.781   3.397  0.00  0.00     0.001 A 
ATOM     13  C   UNL d   1      -3.236  -2.354   3.330  0.00  0.00     0.000 A 
ATOM     14  C   UNL d   1      -4.027  -2.151   2.202  0.00  0.00     0.001 A 
ATOM     15  C   UNL d   1      -3.554  -1.379   1.134  0.00  0.00     0.011 A 
ENDBRANCH   3  10
BRANCH   3  16
ATOM     16  O   UNL d   1      -2.148   1.391   0.284  0.00  0.00    -0.369 OA
ATOM     17  H   UNL d   1      -1.615   1.957  -0.296  0.00  0.00     0.212 HD
ENDBRANCH   3  16
ENDBRANCH   2   3
ENDBRANCH   1   2
BRANCH   1  18
ATOM     18  C   UNL d   1       2.606   0.050  -0.006  0.00  0.00     0.177 C 
BRANCH  18  19
ATOM     19  C   UNL d   1       3.164   1.489  -0.072  0.00  0.00    -0.007 A 
ATOM     20  C   UNL d   1       2.452   2.592   0.448  0.00  0.00     0.011 A 
ATOM     21  C   UNL d   1       3.018   3.868   0.487  0.00  0.00     0.001 A 
ATOM     22  C   UNL d   1       4.304   4.072   0.000  0.00  0.00     0.000 A 
ATOM     23  C   UNL d   1       5.022   3.004  -0.530  0.00  0.00     0.001 A 
ATOM     24  C   UNL d   1       4.462   1.724  -0.562  0.00  0.00     0.011 A 
ENDBRANCH  18  19
BRANCH  18  25
ATOM     25  C   UNL d   1       3.093  -0.662   1.269  0.00  0.00    -0.007 A 
ATOM     26  C   UNL d   1       3.824  -1.858   1.222  0.00  0.00     0.011 A 
ATOM     27  C   UNL d   1       4.256  -2.484   2.396  0.00  0.00     0.001 A 
ATOM     28  C   UNL d   1       3.963  -1.930   3.639  0.00  0.00     0.000 A 
ATOM     29  C   UNL d   1       3.234  -0.748   3.714  0.00  0.00     0.001 A 
ATOM     30  C   UNL d   1       2.801  -0.125   2.544  0.00  0.00     0.011 A 
ENDBRANCH  18  25
BRANCH  18  31
ATOM     31  O   UNL d   1       3.010  -0.657  -1.180  0.00  0.00    -0.369 OA
ATOM     32  H   UNL d   1       2.768  -0.081  -1.923  0.00  0.00     0.212 HD
ENDBRANCH  18  31
ENDBRANCH   1  18
TORSDOF 9
