REMARK  4 active torsions:
REMARK  status: ('A' for Active; 'I' for Inactive)
REMARK    1  A    between atoms: S_11  and  C_5 
REMARK    2  A    between atoms: N_12  and  C_6 
REMARK    3  A    between atoms: C_10  and  C_7 
REMARK    4  A    between atoms: C_9  and  C_8 
ROOT
ATOM      1  N   UNL d   1      -1.743  -0.079   0.057  0.00  0.00    -0.336 N 
ATOM      2  HN  UNL d   1      -2.760  -0.155   0.022  1.00  0.00     0.168 HD
ATOM      3  N   UNL d   1       0.367  -1.130   0.065  0.00  0.00    -0.332 N 
ATOM      4  HN  UNL d   1       0.923  -1.985   0.052  1.00  0.00     0.168 HD
ATOM      5  C   UNL d   1      -1.136   1.129   0.104  0.00  0.00     0.085 A 
ATOM      6  C   UNL d   1       0.945   0.078   0.089  0.00  0.00     0.093 A 
ATOM      7  C   UNL d   1       0.255   1.298   0.131  0.00  0.00     0.046 A 
ATOM      8  C   UNL d   1      -0.970  -1.167   0.059  0.00  0.00     0.117 A 
ENDROOT
BRANCH   8   9
ATOM      9  C   UNL d   1      -1.628  -2.488   0.090  0.00  0.00     0.008 A 
ATOM     10  C   UNL d   1      -0.888  -3.673   0.276  0.00  0.00     0.017 A 
ATOM     11  C   UNL d   1      -1.513  -4.924   0.343  0.00  0.00     0.025 A 
ATOM     12  C   UNL d   1      -2.895  -5.014   0.220  0.00  0.00     0.034 A 
ATOM     13  C   UNL d   1      -3.655  -3.866   0.024  0.00  0.00     0.025 A 
ATOM     14 CL   UNL d   1      -3.667  -6.547   0.317  0.00  0.00    -0.084 Cl
ATOM     15  C   UNL d   1      -3.026  -2.617  -0.040  0.00  0.00     0.017 A 
ENDBRANCH   8   9
BRANCH   6  16
ATOM     16  N   UNL d   1       2.344   0.006   0.113  0.00  0.00    -0.288 NA
ATOM     17  H   UNL d   1       2.612  -0.969   0.012  0.00  0.00     0.125 HD
ATOM     18  H   UNL d   1       2.770   0.606  -0.584  0.00  0.00     0.125 HD
ENDBRANCH   6  16
BRANCH   5  19
ATOM     19  S   UNL d   1      -2.297   2.503   0.210  0.00  0.00    -0.116 SA
ATOM     20  C   UNL d   1      -3.843   1.688  -0.287  0.00  0.00     0.097 C 
ENDBRANCH   5  19
BRANCH   7  21
ATOM     21  C   UNL d   1       0.970   2.602   0.197  0.00  0.00    -0.020 A 
ATOM     22  C   UNL d   1       2.027   2.802   1.110  0.00  0.00     0.012 A 
ATOM     23  C   UNL d   1       2.773   3.985   1.131  0.00  0.00     0.001 A 
ATOM     24  C   UNL d   1       2.451   5.025   0.268  0.00  0.00     0.000 A 
ATOM     25  C   UNL d   1       1.393   4.873  -0.623  0.00  0.00     0.001 A 
ATOM     26  C   UNL d   1       0.676   3.670  -0.671  0.00  0.00     0.012 A 
ENDBRANCH   7  21
TORSDOF 4
