REMARK  6 active torsions:
REMARK  status: ('A' for Active; 'I' for Inactive)
REMARK    1  A    between atoms: C_4  and  C_1 
REMARK    2  A    between atoms: C_2  and  C_3 
REMARK    3  A    between atoms: C_3  and  O_11 
REMARK    4  A    between atoms: C_6  and  C_4 
REMARK    5  A    between atoms: C_19  and  C_7 
REMARK    6  A    between atoms: O_11  and  C_21 
ROOT
ATOM      1  C   UNL d   1       1.097  -0.306  -1.158  0.00  0.00     0.096 C 
ATOM      2  C   UNL d   1       0.396   0.766  -0.726  0.00  0.00     0.038 C 
ATOM      3  C   UNL d   1       0.467  -1.427  -1.757  0.00  0.00     0.103 C 
ATOM      4  N   UNL d   1      -0.038  -2.359  -2.234  0.00  0.00    -0.191 NA
ENDROOT
BRANCH   1   5
ATOM      5  C   UNL d   1       2.598  -0.276  -1.009  0.00  0.00     0.209 C 
ATOM      6  O   UNL d   1       3.145   0.822  -0.882  0.00  0.00    -0.285 OA
BRANCH   5   7
ATOM      7  C   UNL d   1       3.359  -1.530  -0.997  0.00  0.00     0.056 A 
ATOM      8  S   UNL d   1       5.003  -1.493  -1.509  0.00  0.00    -0.098 SA
ATOM      9  C   UNL d   1       5.216  -3.163  -1.222  0.00  0.00     0.050 A 
ATOM     10  C   UNL d   1       4.073  -3.748  -0.730  0.00  0.00     0.009 A 
ATOM     11  C   UNL d   1       3.007  -2.808  -0.592  0.00  0.00     0.023 A 
ENDBRANCH   5   7
ENDBRANCH   1   5
BRANCH   2  12
ATOM     12  C   UNL d   1      -1.072   0.846  -0.693  0.00  0.00    -0.035 A 
ATOM     13  C   UNL d   1      -1.747   0.333   0.421  0.00  0.00     0.014 A 
ATOM     14  C   UNL d   1      -3.142   0.378   0.485  0.00  0.00     0.038 A 
ATOM     15  C   UNL d   1      -3.873   0.949  -0.557  0.00  0.00     0.079 A 
ATOM     16  C   UNL d   1      -3.214   1.480  -1.665  0.00  0.00     0.038 A 
ATOM     17  C   UNL d   1      -1.812   1.417  -1.736  0.00  0.00     0.014 A 
BRANCH  15  18
ATOM     18  O   UNL d   1      -5.279   0.976  -0.356  0.00  0.00    -0.275 OA
BRANCH  18  19
ATOM     19  C   UNL d   1      -6.237   1.192  -1.337  0.00  0.00     0.300 C 
ATOM     20  O   UNL d   1      -6.051   1.327  -2.536  0.00  0.00    -0.259 OA
BRANCH  19  21
ATOM     21  C   UNL d   1      -7.596   1.049  -0.752  0.00  0.00     0.061 A 
ATOM     22  C   UNL d   1      -7.999   1.608   0.469  0.00  0.00     0.051 A 
ATOM     23  C   UNL d   1      -9.289   1.360   0.965  0.00  0.00     0.048 A 
ATOM     24 CL   UNL d   1      -7.001   2.674   1.392  0.00  0.00    -0.083 Cl
ATOM     25  C   UNL d   1     -10.182   0.583   0.230  0.00  0.00     0.035 A 
ATOM     26  C   UNL d   1      -9.814   0.073  -1.012  0.00  0.00     0.025 A 
ATOM     27 CL   UNL d   1     -11.751   0.256   0.857  0.00  0.00    -0.084 Cl
ATOM     28  C   UNL d   1      -8.527   0.308  -1.502  0.00  0.00     0.021 A 
ENDBRANCH  19  21
ENDBRANCH  18  19
ENDBRANCH  15  18
ENDBRANCH   2  12
TORSDOF 6
