REMARK  5 active torsions:
REMARK  status: ('A' for Active; 'I' for Inactive)
REMARK    1  A    between atoms: C_3  and  C_1 
REMARK    2  A    between atoms: S_4  and  C_2 
REMARK    3  A    between atoms: O_5  and  C_3 
REMARK    4  A    between atoms: C_16  and  S_4 
REMARK    5  A    between atoms: C_7  and  O_5 
ROOT
ATOM      1  C   UNL d   1       1.372   0.674   0.030  0.00  0.00     0.064 A 
ATOM      2  C   UNL d   1       1.613  -0.743   0.038  0.00  0.00     0.029 A 
ATOM      3  S   UNL d   1      -0.790  -0.448  -0.853  0.00  0.00    -0.111 SA
ATOM      4  C   UNL d   1       0.112   0.951  -0.489  0.00  0.00     0.068 A 
ATOM      5  C   UNL d   1       0.504  -1.453  -0.384  0.00  0.00     0.069 A 
ENDROOT
BRANCH   1   6
ATOM      6  C   UNL d   1       2.189   1.766   0.529  0.00  0.00     0.300 C 
ATOM      7  O   UNL d   1       2.190   2.882   0.020  0.00  0.00    -0.259 OA
BRANCH   6   8
ATOM      8  O   UNL d   1       2.821   1.438   1.720  0.00  0.00    -0.275 OA
BRANCH   8   9
ATOM      9  C   UNL d   1       2.784   2.443   2.697  0.00  0.00     0.082 A 
ATOM     10  C   UNL d   1       1.620   3.173   2.947  0.00  0.00     0.061 A 
ATOM     11  C   UNL d   1       1.590   4.065   4.014  0.00  0.00     0.038 A 
ATOM     12 CL   UNL d   1       0.156   4.960   4.329  0.00  0.00    -0.084 Cl
ATOM     13  C   UNL d   1       2.700   4.215   4.840  0.00  0.00     0.048 A 
ATOM     14  C   UNL d   1       3.852   3.467   4.585  0.00  0.00     0.038 A 
ATOM     15  C   UNL d   1       3.902   2.575   3.515  0.00  0.00     0.061 A 
ATOM     16 CL   UNL d   1       5.212   3.623   5.628  0.00  0.00    -0.084 Cl
ENDBRANCH   8   9
ENDBRANCH   6   8
ENDBRANCH   1   6
BRANCH   2  17
ATOM     17  S   UNL d   1       3.003  -1.612   0.663  0.00  0.00    -0.089 SA
BRANCH  17  18
ATOM     18  C   UNL d   1       4.522  -1.017  -0.050  0.00  0.00     0.005 A 
ATOM     19  C   UNL d   1       4.667   0.048  -0.939  0.00  0.00     0.020 A 
ATOM     20  C   UNL d   1       5.949   0.480  -1.332  0.00  0.00     0.025 A 
ATOM     21  C   UNL d   1       7.084  -0.183  -0.874  0.00  0.00     0.034 A 
ATOM     22  C   UNL d   1       6.957  -1.284  -0.037  0.00  0.00     0.025 A 
ATOM     23 CL   UNL d   1       8.649   0.360  -1.337  0.00  0.00    -0.084 Cl
ATOM     24  C   UNL d   1       5.683  -1.692   0.371  0.00  0.00     0.020 A 
ENDBRANCH  17  18
ENDBRANCH   2  17
TORSDOF 5
