REMARK  3 active torsions:
REMARK  status: ('A' for Active; 'I' for Inactive)
REMARK    1  A    between atoms: C_4  and  C_1 
REMARK       I    between atoms: N_9  and  C_4 
REMARK       I    between atoms: C_8  and  N_10 
REMARK       I    between atoms: N_11  and  C_8 
REMARK    2  A    between atoms: N_10  and  N_9 
REMARK    3  A    between atoms: C_14  and  N_11 
ROOT
ATOM      1  C   UNL d   1       5.535  -1.168  -0.156  0.00  0.00     0.339 C 
ATOM      2  N   UNL d   1       4.159  -1.060  -0.254  0.00  0.00    -0.248 N 
ATOM      3  N   UNL d   1       6.187  -0.160  -0.842  0.00  0.00    -0.308 N 
ATOM      4  O   UNL d   1       6.051  -2.084   0.474  0.00  0.00    -0.245 OA
ATOM      5  H   UNL d   1       3.731  -0.148  -0.370  0.00  0.00     0.192 HD
ATOM      6  H   UNL d   1       5.604   0.442  -1.402  0.00  0.00     0.170 HD
ENDROOT
BRANCH   2   7
ATOM      7  N   UNL d   1       3.385  -1.991   0.474  0.00  0.00    -0.261 N 
ATOM      8  C   UNL d   1       2.137  -2.343   0.001  0.00  0.00     0.287 C 
ATOM      9  O   UNL d   1       1.589  -1.769  -0.940  0.00  0.00    -0.264 OA
ATOM     10  H   UNL d   1       3.882  -2.621   1.106  0.00  0.00     0.190 HD
BRANCH   8  11
ATOM     11  C   UNL d   1       1.503  -3.441   0.737  0.00  0.00     0.109 A 
ATOM     12  N   UNL d   1       2.071  -4.007   1.885  0.00  0.00    -0.349 N 
ATOM     13  C   UNL d   1       1.262  -4.923   2.382  0.00  0.00     0.047 A 
ATOM     14  HN  UNL d   1       2.976  -3.750   2.279  1.00  0.00     0.166 HD
ATOM     15  C   UNL d   1       1.505  -5.694   3.634  0.00  0.00     0.076 C 
ATOM     16  S   UNL d   1      -0.185  -5.196   1.493  0.00  0.00    -0.087 SA
ATOM     17  C   UNL d   1       0.282  -3.985   0.382  0.00  0.00     0.086 A 
ENDBRANCH   8  11
ENDBRANCH   2   7
BRANCH   3  18
ATOM     18  C   UNL d   1       7.579   0.071  -0.902  0.00  0.00     0.036 A 
ATOM     19  C   UNL d   1       8.521  -0.706  -0.227  0.00  0.00     0.029 A 
ATOM     20  C   UNL d   1       9.884  -0.397  -0.292  0.00  0.00     0.002 A 
ATOM     21  C   UNL d   1      10.321   0.694  -1.036  0.00  0.00     0.000 A 
ATOM     22  C   UNL d   1       9.394   1.468  -1.730  0.00  0.00     0.002 A 
ATOM     23  C   UNL d   1       8.029   1.157  -1.667  0.00  0.00     0.029 A 
ENDBRANCH   3  18
TORSDOF 3
