REMARK  6 active torsions:
REMARK  status: ('A' for Active; 'I' for Inactive)
REMARK    1  A    between atoms: C_14  and  N_1 
REMARK    2  A    between atoms: C_4  and  C_14 
REMARK    3  A    between atoms: C_15  and  N_6 
REMARK    4  A    between atoms: C_16  and  C_15 
REMARK       I    between atoms: N_19  and  C_16 
REMARK    5  A    between atoms: N_17  and  N_19 
REMARK    6  A    between atoms: C_24  and  C_22 
ROOT
ATOM      1  C   UNL d   1       1.230  -2.935  -0.575  0.00  0.00     0.130 A 
ATOM      2  N   UNL d   1       2.820  -3.720   0.478  0.00  0.00    -0.207 N 
ATOM      3  N   UNL d   1       2.164  -2.546   0.313  0.00  0.00    -0.271 N 
ATOM      4  HN  UNL d   1       2.330  -1.634   0.738  1.00  0.00     0.189 HD
ATOM      5  N   UNL d   1       2.439  -4.713  -0.340  0.00  0.00    -0.003 NA
ATOM      6  N   UNL d   1       1.407  -4.224  -1.010  0.00  0.00    -0.269 N 
ATOM      7  HN  UNL d   1       0.852  -4.711  -1.713  1.00  0.00     0.185 HD
ENDROOT
BRANCH   2   8
ATOM      8  C   UNL d   1       3.827  -3.898   1.488  0.00  0.00     0.271 C 
BRANCH   8   9
ATOM      9  C   UNL d   1       3.226  -3.726   2.858  0.00  0.00     0.257 C 
ATOM     10  N   UNL d   1       2.879  -2.409   3.151  0.00  0.00    -0.269 N 
ATOM     11  H   UNL d   1       2.821  -1.716   2.407  0.00  0.00     0.190 HD
ATOM     12  O   UNL d   1       3.128  -4.670   3.634  0.00  0.00    -0.270 OA
BRANCH  10  13
ATOM     13  N   UNL d   1       2.396  -2.104   4.386  0.00  0.00    -0.308 N 
ATOM     14  C   UNL d   1       2.227  -0.842   4.621  0.00  0.00     0.118 C 
ATOM     15  HN  UNL d   1       2.181  -2.821   5.080  1.00  0.00     0.186 HD
BRANCH  14  16
ATOM     16  C   UNL d   1       1.752  -0.357   5.932  0.00  0.00    -0.019 A 
ATOM     17  C   UNL d   1       1.405  -1.256   6.946  0.00  0.00     0.014 A 
ATOM     18  C   UNL d   1       1.063  -0.776   8.213  0.00  0.00     0.024 A 
ATOM     19  C   UNL d   1       1.067   0.597   8.457  0.00  0.00     0.034 A 
ATOM     20  C   UNL d   1       1.376   1.497   7.436  0.00  0.00     0.024 A 
ATOM     21 CL   UNL d   1       0.713   1.186  10.034  0.00  0.00    -0.084 Cl
ATOM     22  C   UNL d   1       1.717   1.021   6.168  0.00  0.00     0.014 A 
ENDBRANCH  14  16
ENDBRANCH  10  13
ENDBRANCH   8   9
ENDBRANCH   2   8
BRANCH   1  23
ATOM     23  C   UNL d   1       0.148  -2.091  -1.109  0.00  0.00     0.227 C 
BRANCH  23  24
ATOM     24  N   UNL d   1      -0.740  -1.489  -0.110  0.00  0.00    -0.288 N 
ATOM     25  N   UNL d   1      -1.175  -0.234  -0.399  0.00  0.00    -0.301 N 
ATOM     26  C   UNL d   1      -2.149   0.007   0.483  0.00  0.00     0.041 A 
ATOM     27  HN  UNL d   1      -0.832   0.389  -1.130  1.00  0.00     0.187 HD
ATOM     28  C   UNL d   1      -2.882   1.295   0.447  0.00  0.00     0.071 C 
ATOM     29  C   UNL d   1      -2.324  -1.087   1.343  0.00  0.00     0.058 A 
ATOM     30  C   UNL d   1      -1.385  -2.033   0.984  0.00  0.00     0.044 A 
ATOM     31 BR   UNL d   1      -3.613  -1.198   2.700  0.00  0.00    -0.047 Br
ATOM     32  C   UNL d   1      -1.125  -3.358   1.605  0.00  0.00     0.071 C 
ENDBRANCH  23  24
ENDBRANCH   1  23
TORSDOF 6
