REMARK  2 active torsions:
REMARK  status: ('A' for Active; 'I' for Inactive)
REMARK    1  A    between atoms: C_5  and  N_1 
REMARK    2  A    between atoms: N_7  and  C_5 
ROOT
ATOM      1  N   UNL d   1       1.577  -0.891   0.043  0.00  0.00    -0.314 N 
ATOM      2  N   UNL d   1       1.082   1.177  -0.607  0.00  0.00    -0.350 N 
ATOM      3  HN  UNL d   1       1.044   2.044  -1.142  1.00  0.00     0.166 HD
ATOM      4  C   UNL d   1       1.738   0.081  -0.909  0.00  0.00     0.185 A 
ATOM      5  C   UNL d   1       0.744  -0.391   1.020  0.00  0.00     0.063 A 
ATOM      6  C   UNL d   1       0.459   0.904   0.588  0.00  0.00     0.060 A 
ATOM      7  C   UNL d   1       0.215  -0.922   2.205  0.00  0.00     0.032 A 
ATOM      8  C   UNL d   1      -0.377   1.722   1.361  0.00  0.00     0.032 A 
ATOM      9  C   UNL d   1      -0.620  -0.090   2.961  0.00  0.00     0.002 A 
ATOM     10  C   UNL d   1      -0.913   1.210   2.550  0.00  0.00     0.002 A 
ENDROOT
BRANCH   1  11
ATOM     11  C   UNL d   1       2.105  -2.242  -0.041  0.00  0.00     0.403 C 
BRANCH  11  12
ATOM     12  N   UNL d   1       3.582  -2.219  -0.089  0.00  0.00     0.106 N 
ATOM     13  C   UNL d   1       4.150  -1.690   1.167  0.00  0.00     0.274 C 
ATOM     14  C   UNL d   1       5.676  -1.794   1.221  0.00  0.00     0.030 C 
ATOM     15  C   UNL d   1       6.136  -3.225   0.987  0.00  0.00     0.003 C 
ATOM     16  C   UNL d   1       5.577  -3.723  -0.337  0.00  0.00     0.030 C 
ATOM     17  C   UNL d   1       4.056  -3.586  -0.374  0.00  0.00     0.274 C 
ENDBRANCH  11  12
ENDBRANCH   1  11
TORSDOF 2
