REMARK  8 active torsions:
REMARK  status: ('A' for Active; 'I' for Inactive)
REMARK    1  A    between atoms: C_3  and  C_1 
REMARK    2  A    between atoms: C_7  and  CA_2 
REMARK       I    between atoms: N_5  and  C_3 
REMARK    3  A    between atoms: C_4  and  N_5 
REMARK    4  A    between atoms: N_8  and  C_6 
REMARK    5  A    between atoms: OXT_22  and  C_7 
REMARK    6  A    between atoms: C_9  and  C_10 
REMARK    7  A    between atoms: O_23  and  C_9 
REMARK    8  A    between atoms: C_30  and  O_23 
ROOT
ATOM      1  C   UNL d   1       0.275  -4.005   0.318  0.00  0.00     0.062 A 
ATOM      2  C   UNL d   1       0.989  -3.183   1.230  0.00  0.00     0.057 A 
ATOM      3  C   UNL d   1       2.272  -5.291  -0.164  0.00  0.00     0.041 A 
ATOM      4  C   UNL d   1       0.891  -5.091  -0.318  0.00  0.00     0.049 A 
ATOM      5  C   UNL d   1       2.357  -3.437   1.401  0.00  0.00     0.033 A 
ATOM      6  C   UNL d   1       2.998  -4.457   0.694  0.00  0.00     0.020 A 
ENDROOT
BRANCH   1   7
ATOM      7  N   UNL d   1      -0.987  -3.544  -0.151  0.00  0.00    -0.320 N 
ATOM      8  C   UNL d   1      -2.120  -4.316  -0.305  0.00  0.00     0.275 C 
ATOM      9  O   UNL d   1      -2.174  -5.478   0.101  0.00  0.00    -0.266 OA
ATOM     10  H   UNL d   1      -1.008  -2.535  -0.295  0.00  0.00     0.169 HD
BRANCH   8  11
ATOM     11  C   UNL d   1      -3.381  -3.696  -0.878  0.00  0.00     0.134 A 
ATOM     12  CA  UNL d   1      -3.499  -2.661  -1.800  0.00  0.00     0.139 A 
ATOM     13  N   UNL d   1      -4.716  -2.256  -2.330  0.00  0.00    -0.357 N 
ATOM     14  C   UNL d   1      -5.809  -2.910  -1.884  0.00  0.00     0.105 A 
ATOM     15  HN  UNL d   1      -4.781  -1.505  -3.017  1.00  0.00     0.165 HD
ATOM     16  C   UNL d   1      -5.712  -3.937  -0.972  0.00  0.00     0.105 A 
ATOM     17  N   UNL d   1      -4.524  -4.339  -0.460  0.00  0.00    -0.358 N 
ATOM     18  HN  UNL d   1      -4.477  -5.099   0.218  1.00  0.00     0.165 HD
BRANCH  12  19
ATOM     19  C   UNL d   1      -2.375  -1.867  -2.369  0.00  0.00     0.196 C 
ATOM     20  O   UNL d   1      -1.265  -1.759  -1.906  0.00  0.00    -0.645 OA
BRANCH  19  21
ATOM     21  OXT UNL d   1      -2.790  -1.196  -3.479  0.00  0.00    -0.772 OA
ATOM     22  HXT UNL d   1      -3.758  -1.333  -3.609  0.00  0.00     0.167 HD
ENDBRANCH  19  21
ENDBRANCH  12  19
ENDBRANCH   8  11
ENDBRANCH   1   7
BRANCH   2  23
ATOM     23  N   UNL d   1       0.350  -2.156   1.907  0.00  0.00    -0.375 N 
ATOM     24  C   UNL d   1       1.052  -0.974   2.418  0.00  0.00     0.149 C 
ATOM     25  C   UNL d   1       0.082   0.215   2.291  0.00  0.00     0.187 C 
ATOM     26  O   UNL d   1      -1.164  -0.021   2.980  0.00  0.00    -0.388 OA
ATOM     27  C   UNL d   1      -1.800  -1.223   2.501  0.00  0.00     0.187 C 
ATOM     28  C   UNL d   1      -0.880  -2.441   2.673  0.00  0.00     0.149 C 
ENDBRANCH   2  23
BRANCH   3  29
ATOM     29  C   UNL d   1       3.041  -6.285  -0.966  0.00  0.00     0.293 C 
ATOM     30  O   UNL d   1       4.252  -6.434  -0.876  0.00  0.00    -0.259 OA
BRANCH  29  31
ATOM     31  O   UNL d   1       2.224  -6.932  -1.825  0.00  0.00    -0.318 OA
BRANCH  31  32
ATOM     32  C   UNL d   1       2.865  -7.819  -2.751  0.00  0.00     0.174 C 
ATOM     33  C   UNL d   1       3.176  -9.152  -2.095  0.00  0.00     0.034 C 
ENDBRANCH  31  32
ENDBRANCH  29  31
ENDBRANCH   3  29
TORSDOF 8
