REMARK  4 active torsions:
REMARK  status: ('A' for Active; 'I' for Inactive)
REMARK    1  A    between atoms: N_3  and  S_1 
REMARK    2  A    between atoms: C_12  and  S_1 
REMARK    3  A    between atoms: S_23  and  C_5 
REMARK    4  A    between atoms: C_6  and  C_10 
ROOT
ATOM      1  N   UNL d   1      -0.128  -0.308   1.527  0.00  0.00    -0.188 N 
ATOM      2  N   UNL d   1      -0.874   0.470   2.365  0.00  0.00    -0.284 N 
ATOM      3  HN  UNL d   1      -1.638   1.100   2.119  1.00  0.00     0.188 HD
ATOM      4  C   UNL d   1      -0.376   0.220   3.585  0.00  0.00     0.068 A 
ATOM      5  C   UNL d   1       0.662  -0.749   3.523  0.00  0.00     0.052 A 
ATOM      6  C   UNL d   1       0.810  -1.059   2.194  0.00  0.00     0.132 A 
ENDROOT
BRANCH   4   7
ATOM      7  C   UNL d   1      -0.828   0.930   4.844  0.00  0.00     0.041 A 
ATOM      8  C   UNL d   1      -1.860   1.850   4.980  0.00  0.00    -0.022 A 
ATOM      9  C   UNL d   1      -1.933   2.364   6.348  0.00  0.00     0.041 A 
ATOM     10  C   UNL d   1      -2.849   2.314   3.919  0.00  0.00     0.050 C 
ATOM     11  C   UNL d   1      -2.940   3.354   6.729  0.00  0.00     0.162 C 
ATOM     12  C   UNL d   1      -0.986   1.800   7.180  0.00  0.00     0.056 A 
ATOM     13  O   UNL d   1      -2.857   4.088   7.711  0.00  0.00    -0.292 OA
ATOM     14  C   UNL d   1      -4.117   3.457   5.791  0.00  0.00     0.093 C 
ATOM     15  C   UNL d   1      -3.629   3.599   4.336  0.00  0.00    -0.037 C 
ATOM     16  C   UNL d   1      -4.867   3.805   3.445  0.00  0.00     0.015 C 
ATOM     17  C   UNL d   1      -2.725   4.841   4.177  0.00  0.00     0.015 C 
ATOM     18  S   UNL d   1      -0.033   0.661   6.341  0.00  0.00    -0.080 SA
BRANCH  12  19
ATOM     19  S   UNL d   1      -0.769   1.992   8.919  0.00  0.00    -0.126 SA
ATOM     20  C   UNL d   1      -0.054   3.647   9.050  0.00  0.00     0.096 C 
ENDBRANCH  12  19
ENDBRANCH   4   7
BRANCH   1  21
ATOM     21  S   UNL d   1      -0.200  -0.282  -0.207  0.00  0.00     0.282 S 
ATOM     22  O   UNL d   1      -1.584  -0.527  -0.556  0.00  0.00    -0.198 OA
ATOM     23  O   UNL d   1       0.881  -1.144  -0.669  0.00  0.00    -0.198 OA
BRANCH  21  24
ATOM     24  C   UNL d   1       0.194   1.388  -0.650  0.00  0.00     0.083 A 
ATOM     25  C   UNL d   1      -0.650   2.424  -0.240  0.00  0.00     0.050 A 
ATOM     26  C   UNL d   1      -0.376   3.739  -0.628  0.00  0.00     0.057 A 
ATOM     27 CL   UNL d   1      -1.450   4.975  -0.077  0.00  0.00    -0.083 Cl
ATOM     28  C   UNL d   1       0.732   4.013  -1.441  0.00  0.00     0.055 A 
ATOM     29  C   UNL d   1       1.566   2.969  -1.858  0.00  0.00     0.027 A 
ATOM     30 CL   UNL d   1       1.116   5.609  -1.976  0.00  0.00    -0.083 Cl
ATOM     31  C   UNL d   1       1.299   1.654  -1.466  0.00  0.00     0.027 A 
ENDBRANCH  21  24
ENDBRANCH   1  21
TORSDOF 4
