REMARK  4 active torsions:
REMARK  status: ('A' for Active; 'I' for Inactive)
REMARK    1  A    between atoms: C_7  and  C_1 
REMARK    2  A    between atoms: C_9  and  C_5 
REMARK       I    between atoms: N_13  and  C_7 
REMARK    3  A    between atoms: C_8  and  C_9 
REMARK    4  A    between atoms: N_14  and  N_13 
ROOT
ATOM      1  C   UNL d   1      -0.236  -1.157   0.129  0.00  0.00     0.097 A 
ATOM      2  N   UNL d   1      -0.705   1.136   0.052  0.00  0.00    -0.356 N 
ATOM      3  HN  UNL d   1      -1.280   1.977  -0.007  1.00  0.00     0.166 HD
ATOM      4  C   UNL d   1      -1.204  -0.160   0.058  0.00  0.00     0.028 A 
ATOM      5  C   UNL d   1       0.606   1.135   0.133  0.00  0.00     0.056 A 
ATOM      6  S   UNL d   1       1.313  -0.416   0.274  0.00  0.00    -0.069 SA
ATOM      7  C   UNL d   1      -2.683  -0.301  -0.031  0.00  0.00     0.070 C 
ENDROOT
BRANCH   5   8
ATOM      8  C   UNL d   1       1.460   2.360  -0.009  0.00  0.00     0.107 C 
BRANCH   8   9
ATOM      9  C   UNL d   1       1.742   3.109   1.278  0.00  0.00    -0.009 A 
ATOM     10  C   UNL d   1       2.889   2.838   2.050  0.00  0.00     0.042 A 
ATOM     11 CL   UNL d   1       3.994   1.566   1.657  0.00  0.00    -0.084 Cl
ATOM     12  C   UNL d   1       3.207   3.609   3.175  0.00  0.00     0.024 A 
ATOM     13  C   UNL d   1       2.390   4.667   3.557  0.00  0.00     0.003 A 
ATOM     14  C   UNL d   1       1.229   4.926   2.837  0.00  0.00     0.024 A 
ATOM     15  C   UNL d   1       0.896   4.145   1.722  0.00  0.00     0.042 A 
ATOM     16 CL   UNL d   1      -0.589   4.535   0.925  0.00  0.00    -0.084 Cl
ENDBRANCH   8   9
ENDBRANCH   5   8
BRANCH   1  17
ATOM     17  C   UNL d   1      -0.374  -2.603   0.108  0.00  0.00     0.274 C 
ATOM     18  O   UNL d   1      -1.460  -3.188   0.008  0.00  0.00    -0.266 OA
ATOM     19  N   UNL d   1       0.820  -3.324   0.212  0.00  0.00    -0.289 N 
ATOM     20  H   UNL d   1       1.706  -2.823   0.163  0.00  0.00     0.183 HD
BRANCH  19  21
ATOM     21  N   UNL d   1       0.835  -4.740   0.186  0.00  0.00    -0.247 NA
ATOM     22  H   UNL d   1      -0.137  -5.050   0.044  0.00  0.00     0.143 HD
ATOM     23  H   UNL d   1       1.076  -5.073   1.123  0.00  0.00     0.143 HD
ENDBRANCH  19  21
ENDBRANCH   1  17
TORSDOF 4
