REMARK  8 active torsions:
REMARK  status: ('A' for Active; 'I' for Inactive)
REMARK    1  A    between atoms: C_9  and  C_1 
REMARK    2  A    between atoms: S_15  and  C_6 
REMARK    3  A    between atoms: C_20  and  C_7 
REMARK    4  A    between atoms: C_11  and  C_21 
REMARK       I    between atoms: N_14  and  C_11 
REMARK    5  A    between atoms: C_22  and  N_14 
REMARK    6  A    between atoms: C_21  and  S_15 
REMARK    7  A    between atoms: O_16  and  C_20 
REMARK    8  A    between atoms: C_17  and  O_16 
ROOT
ATOM      1  N   UNL d   1       2.545   2.845   0.505  0.00  0.00    -0.335 N 
ATOM      2  HN  UNL d   1       1.767   3.097   1.115  1.00  0.00     0.168 HD
ATOM      3  C   UNL d   1       3.605   3.646   0.350  0.00  0.00     0.145 A 
ATOM      4  C   UNL d   1       2.557   1.687  -0.186  0.00  0.00     0.062 A 
ATOM      5  N   UNL d   1       4.655   3.400  -0.444  0.00  0.00    -0.347 N 
ATOM      6  HN  UNL d   1       5.430   4.057  -0.535  1.00  0.00     0.167 HD
ATOM      7  C   UNL d   1       3.597   1.334  -1.024  0.00  0.00     0.049 A 
ATOM      8  C   UNL d   1       4.630   2.236  -1.114  0.00  0.00     0.092 A 
ENDROOT
BRANCH   4   9
ATOM      9  C   UNL d   1       1.396   0.820   0.010  0.00  0.00     0.066 A 
ATOM     10  N   UNL d   1       0.710   0.777   1.219  0.00  0.00    -0.350 N 
ATOM     11  C   UNL d   1      -0.273  -0.099   1.161  0.00  0.00     0.075 A 
ATOM     12  HN  UNL d   1       0.937   1.344   2.036  1.00  0.00     0.166 HD
ATOM     13  S   UNL d   1      -0.441  -0.905  -0.353  0.00  0.00    -0.084 SA
ATOM     14  C   UNL d   1       0.892  -0.021  -0.964  0.00  0.00     0.083 A 
BRANCH  11  15
ATOM     15  C   UNL d   1      -1.135  -0.498   2.327  0.00  0.00     0.240 C 
BRANCH  15  16
ATOM     16  O   UNL d   1      -2.504  -0.328   1.953  0.00  0.00    -0.343 OA
BRANCH  16  17
ATOM     17  C   UNL d   1      -3.440  -0.765   2.857  0.00  0.00     0.090 A 
ATOM     18  C   UNL d   1      -4.659  -0.072   2.920  0.00  0.00     0.067 A 
ATOM     19 CL   UNL d   1      -4.947   1.331   1.951  0.00  0.00    -0.081 Cl
ATOM     20  C   UNL d   1      -5.676  -0.495   3.782  0.00  0.00     0.026 A 
ATOM     21  C   UNL d   1      -5.492  -1.624   4.579  0.00  0.00     0.002 A 
ATOM     22  C   UNL d   1      -4.292  -2.328   4.511  0.00  0.00     0.003 A 
ATOM     23  C   UNL d   1      -3.272  -1.905   3.650  0.00  0.00     0.038 A 
ENDBRANCH  16  17
ENDBRANCH  15  16
ENDBRANCH  11  15
ENDBRANCH   4   9
BRANCH   3  24
ATOM     24  S   UNL d   1       3.489   5.232   1.132  0.00  0.00    -0.085 SA
BRANCH  24  25
ATOM     25  C   UNL d   1       3.807   6.275  -0.316  0.00  0.00     0.185 C 
BRANCH  25  26
ATOM     26  C   UNL d   1       2.811   6.158  -1.466  0.00  0.00     0.231 C 
ATOM     27  N   UNL d   1       1.659   5.431  -1.226  0.00  0.00    -0.327 N 
ATOM     28  H   UNL d   1       1.515   5.111  -0.272  0.00  0.00     0.169 HD
ATOM     29  O   UNL d   1       3.068   6.736  -2.523  0.00  0.00    -0.272 OA
BRANCH  27  30
ATOM     30  C   UNL d   1       0.690   5.027  -2.166  0.00  0.00     0.034 A 
ATOM     31  C   UNL d   1       0.779   5.280  -3.538  0.00  0.00     0.031 A 
ATOM     32  C   UNL d   1      -0.205   4.814  -4.416  0.00  0.00     0.026 A 
ATOM     33  C   UNL d   1      -1.290   4.095  -3.925  0.00  0.00     0.034 A 
ATOM     34  C   UNL d   1      -1.396   3.834  -2.563  0.00  0.00     0.026 A 
ATOM     35 CL   UNL d   1      -2.493   3.519  -5.010  0.00  0.00    -0.084 Cl
ATOM     36  C   UNL d   1      -0.407   4.295  -1.686  0.00  0.00     0.031 A 
ENDBRANCH  27  30
ENDBRANCH  25  26
ENDBRANCH  24  25
ENDBRANCH   3  24
TORSDOF 8
