REMARK  3 active torsions:
REMARK  status: ('A' for Active; 'I' for Inactive)
REMARK    1  A    between atoms: C_6  and  C_1 
REMARK    2  A    between atoms: C_13  and  C_3 
REMARK    3  A    between atoms: S_14  and  C_5 
ROOT
ATOM      1  C   UNL d   1       1.309  -1.193   0.073  0.00  0.00     0.054 A 
ATOM      2  C   UNL d   1      -0.728  -0.045  -0.068  0.00  0.00     0.080 A 
ATOM      3  C   UNL d   1      -0.075  -1.345  -0.044  0.00  0.00     0.017 A 
ATOM      4  S   UNL d   1       1.770   0.462   0.063  0.00  0.00    -0.078 SA
ATOM      5  C   UNL d   1       0.160   1.010  -0.004  0.00  0.00     0.063 A 
ATOM      6  C   UNL d   1      -2.148   0.162  -0.135  0.00  0.00     0.102 C 
ATOM      7  N   UNL d   1      -3.291   0.338  -0.179  0.00  0.00    -0.191 NA
ENDROOT
BRANCH   3   8
ATOM      8  C   UNL d   1      -0.743  -2.665  -0.112  0.00  0.00    -0.023 A 
ATOM      9  C   UNL d   1      -0.209  -3.718  -0.873  0.00  0.00     0.012 A 
ATOM     10  C   UNL d   1      -0.809  -4.981  -0.885  0.00  0.00     0.001 A 
ATOM     11  C   UNL d   1      -1.997  -5.196  -0.196  0.00  0.00     0.000 A 
ATOM     12  C   UNL d   1      -2.575  -4.152   0.517  0.00  0.00     0.001 A 
ATOM     13  C   UNL d   1      -1.942  -2.905   0.578  0.00  0.00     0.012 A 
ENDBRANCH   3   8
BRANCH   5  14
ATOM     14  S   UNL d   1      -0.171   2.742   0.089  0.00  0.00    -0.126 SA
ATOM     15  C   UNL d   1      -0.968   3.066  -1.499  0.00  0.00     0.096 C 
ENDBRANCH   5  14
BRANCH   1  16
ATOM     16  C   UNL d   1       2.344  -2.193   0.209  0.00  0.00     0.118 A 
ATOM     17  O   UNL d   1       2.154  -3.384   0.865  0.00  0.00    -0.237 OA
ATOM     18  N   UNL d   1       3.291  -4.167   0.779  0.00  0.00    -0.272 N 
ATOM     19  C   UNL d   1       4.174  -3.434   0.104  0.00  0.00     0.117 A 
ATOM     20  HN  UNL d   1       3.425  -5.107   1.152  1.00  0.00     0.194 HD
ATOM     21  C   UNL d   1       3.645  -2.186  -0.262  0.00  0.00     0.059 A 
ENDBRANCH   1  16
TORSDOF 3
