REMARK  2 active torsions:
REMARK  status: ('A' for Active; 'I' for Inactive)
REMARK    1  A    between atoms: C_8  and  C_1 
REMARK    2  A    between atoms: O_13  and  C_11 
ROOT
ATOM      1  C   UNL d   1      -1.841  -1.552  -0.028  0.00  0.00     0.090 A 
ATOM      2  C   UNL d   1      -2.323  -0.300  -0.029  0.00  0.00     0.093 A 
ATOM      3  C   UNL d   1       0.040   0.509   0.029  0.00  0.00     0.051 A 
ATOM      4  C   UNL d   1      -1.391   0.835   0.031  0.00  0.00     0.187 A 
ATOM      5  O   UNL d   1      -0.487  -1.858   0.027  0.00  0.00    -0.309 OA
ATOM      6  C   UNL d   1       0.418  -0.828   0.031  0.00  0.00     0.090 A 
ATOM      7  C   UNL d   1       0.997   1.530   0.013  0.00  0.00     0.055 A 
ATOM      8  O   UNL d   1      -1.801   1.987   0.066  0.00  0.00    -0.287 OA
ATOM      9  C   UNL d   1       1.770  -1.161   0.026  0.00  0.00     0.041 A 
ATOM     10  C   UNL d   1       2.351   1.201  -0.003  0.00  0.00     0.069 A 
ATOM     11  C   UNL d   1       2.731  -0.147   0.008  0.00  0.00     0.039 A 
ENDROOT
BRANCH   1  12
ATOM     12  C   UNL d   1      -2.728  -2.733  -0.121  0.00  0.00    -0.002 A 
ATOM     13  C   UNL d   1      -2.272  -3.904  -0.749  0.00  0.00     0.014 A 
ATOM     14  C   UNL d   1      -3.089  -5.033  -0.846  0.00  0.00     0.001 A 
ATOM     15  C   UNL d   1      -4.376  -5.010  -0.316  0.00  0.00     0.000 A 
ATOM     16  C   UNL d   1      -4.845  -3.861   0.314  0.00  0.00     0.001 A 
ATOM     17  C   UNL d   1      -4.026  -2.733   0.415  0.00  0.00     0.014 A 
ENDBRANCH   1  12
BRANCH  10  18
ATOM     18  O   UNL d   1       3.388   2.092  -0.032  0.00  0.00    -0.356 OA
ATOM     19  C   UNL d   1       3.038   3.473  -0.057  0.00  0.00     0.210 C 
ENDBRANCH  10  18
TORSDOF 2
