REMARK  8 active torsions:
REMARK  status: ('A' for Active; 'I' for Inactive)
REMARK    1  A    between atoms: C_2  and  S_1 
REMARK    2  A    between atoms: N_4  and  S_1 
REMARK    3  A    between atoms: C_9  and  N_4 
REMARK    4  A    between atoms: C_10  and  N_4 
REMARK    5  A    between atoms: C_8  and  C_5 
REMARK    6  A    between atoms: O_21  and  C_8 
REMARK    7  A    between atoms: C_18  and  C_9 
REMARK    8  A    between atoms: C_19  and  C_10 
ROOT
ATOM      1  N   UNL d   1       0.374   0.059   1.541  0.00  0.00    -0.194 NA
ENDROOT
BRANCH   1   2
ATOM      2  S   UNL d   1       1.175   0.104   0.037  0.00  0.00     0.260 S 
ATOM      3  O   UNL d   1       2.550   0.474   0.300  0.00  0.00    -0.204 OA
ATOM      4  O   UNL d   1       0.880  -1.092  -0.718  0.00  0.00    -0.204 OA
BRANCH   2   5
ATOM      5  C   UNL d   1       0.526   1.469  -0.915  0.00  0.00     0.146 A 
ATOM      6  N   UNL d   1       0.622   2.794  -0.535  0.00  0.00    -0.336 N 
ATOM      7  C   UNL d   1       0.063   3.624  -1.508  0.00  0.00     0.109 A 
ATOM      8  C   UNL d   1       1.229   3.291   0.688  0.00  0.00     0.157 C 
ATOM      9  C   UNL d   1      -0.460   2.782  -2.480  0.00  0.00     0.039 A 
ATOM     10  C   UNL d   1      -0.162   1.455  -2.119  0.00  0.00     0.046 A 
BRANCH   7  11
ATOM     11  C   UNL d   1       0.027   5.073  -1.438  0.00  0.00     0.193 C 
ATOM     12  O   UNL d   1       0.103   5.740  -0.419  0.00  0.00    -0.645 OA
BRANCH  11  13
ATOM     13  O   UNL d   1      -0.078   5.642  -2.661  0.00  0.00    -0.772 OA
ATOM     14  H   UNL d   1       0.013   5.004  -3.390  0.00  0.00     0.167 HD
ENDBRANCH  11  13
ENDBRANCH   7  11
ENDBRANCH   2   5
ENDBRANCH   1   2
BRANCH   1  15
ATOM     15  C   UNL d   1      -1.119   0.117   1.494  0.00  0.00     0.164 C 
BRANCH  15  16
ATOM     16  C   UNL d   1      -1.830  -0.984   0.742  0.00  0.00     0.023 A 
ATOM     17  N   UNL d   1      -2.097  -0.757  -0.568  0.00  0.00    -0.368 N 
ATOM     18  C   UNL d   1      -2.566  -1.797  -1.290  0.00  0.00     0.088 A 
ATOM     19  HN  UNL d   1      -1.949   0.160  -0.990  1.00  0.00     0.165 HD
ATOM     20  C   UNL d   1      -2.821  -3.050  -0.763  0.00  0.00     0.017 A 
ATOM     21  C   UNL d   1      -2.604  -3.247   0.593  0.00  0.00     0.003 A 
ATOM     22  C   UNL d   1      -2.110  -2.199   1.359  0.00  0.00     0.026 A 
ENDBRANCH  15  16
ENDBRANCH   1  15
BRANCH   1  23
ATOM     23  C   UNL d   1       0.932  -1.034   2.401  0.00  0.00     0.164 C 
BRANCH  23  24
ATOM     24  C   UNL d   1       0.374  -1.122   3.812  0.00  0.00     0.023 A 
ATOM     25  N   UNL d   1      -0.187  -2.303   4.183  0.00  0.00    -0.368 N 
ATOM     26  C   UNL d   1      -0.711  -2.390   5.425  0.00  0.00     0.088 A 
ATOM     27  HN  UNL d   1      -0.213  -3.097   3.543  1.00  0.00     0.165 HD
ATOM     28  C   UNL d   1      -0.710  -1.347   6.331  0.00  0.00     0.017 A 
ATOM     29  C   UNL d   1      -0.131  -0.144   5.943  0.00  0.00     0.003 A 
ATOM     30  C   UNL d   1       0.423  -0.026   4.670  0.00  0.00     0.026 A 
ENDBRANCH  23  24
ENDBRANCH   1  23
TORSDOF 8
