REMARK  2 active torsions:
REMARK  status: ('A' for Active; 'I' for Inactive)
REMARK       I    between atoms: N_2  and  C_1 
REMARK    1  A    between atoms: C_3  and  C_1 
REMARK    2  A    between atoms: C_4  and  N_2 
ROOT
ATOM      1  C   UNL d   1      -0.994  -0.988  -0.552  0.00  0.00     0.257 C 
ATOM      2  N   UNL d   1       0.371  -1.104  -0.719  0.00  0.00    -0.322 N 
ATOM      3  O   UNL d   1      -1.846  -1.663  -1.118  0.00  0.00    -0.267 OA
ATOM      4  H   UNL d   1       0.942  -0.775   0.047  0.00  0.00     0.169 HD
ENDROOT
BRANCH   2   5
ATOM      5  C   UNL d   1       1.020  -1.882  -1.701  0.00  0.00     0.046 A 
ATOM      6  C   UNL d   1       0.646  -1.853  -3.063  0.00  0.00    -0.035 A 
ATOM      7  C   UNL d   1       1.392  -2.605  -3.993  0.00  0.00     0.009 A 
ATOM      8  C   UNL d   1      -0.445  -0.998  -3.652  0.00  0.00     0.050 C 
ATOM      9  C   UNL d   1       2.501  -3.345  -3.600  0.00  0.00     0.001 A 
ATOM     10  C   UNL d   1       2.878  -3.357  -2.263  0.00  0.00     0.009 A 
ATOM     11  C   UNL d   1       2.147  -2.640  -1.301  0.00  0.00    -0.035 A 
ATOM     12  C   UNL d   1       2.597  -2.784   0.131  0.00  0.00     0.050 C 
ENDBRANCH   2   5
BRANCH   1  13
ATOM     13  C   UNL d   1      -1.423  -0.054   0.523  0.00  0.00     0.048 A 
ATOM     14  C   UNL d   1      -0.933   1.252   0.691  0.00  0.00     0.022 A 
ATOM     15  I   UNL d   1       0.400   2.209  -0.621  0.00  0.00    -0.043 I 
ATOM     16  C   UNL d   1      -1.397   2.032   1.761  0.00  0.00     0.019 A 
ATOM     17  C   UNL d   1      -2.355   1.532   2.643  0.00  0.00     0.001 A 
ATOM     18  C   UNL d   1      -2.870   0.251   2.458  0.00  0.00     0.001 A 
ATOM     19  C   UNL d   1      -2.406  -0.536   1.403  0.00  0.00     0.018 A 
ENDBRANCH   1  13
TORSDOF 2
