REMARK  3 active torsions:
REMARK  status: ('A' for Active; 'I' for Inactive)
REMARK    1  A    between atoms: S_5  and  C_1 
REMARK    2  A    between atoms: N_2  and  C_6 
REMARK    3  A    between atoms: C_4  and  S_5 
ROOT
ATOM      1  S   UNL d   1       0.164   2.929   0.143  0.00  0.00    -0.043 SA
ENDROOT
BRANCH   1   2
ATOM      2  C   UNL d   1       1.926   3.136  -0.019  0.00  0.00     0.109 A 
ATOM      3  C   UNL d   1       2.680   2.726  -1.112  0.00  0.00     0.136 A 
ATOM      4  C   UNL d   1       4.062   2.954  -1.150  0.00  0.00     0.040 A 
ATOM      5  C   UNL d   1       4.659   3.610  -0.081  0.00  0.00     0.020 A 
ATOM      6  C   UNL d   1       3.853   4.005   0.972  0.00  0.00     0.089 A 
ATOM      7  N   UNL d   1       2.518   3.786   1.022  0.00  0.00    -0.358 N 
ATOM      8  HN  UNL d   1       1.967   4.100   1.821  1.00  0.00     0.166 HD
BRANCH   3   9
ATOM      9  N   UNL d   1       2.073   2.082  -2.249  0.00  0.00    -0.113 N 
ATOM     10  O   UNL d   1       1.219   2.721  -2.877  0.00  0.00    -0.532 OA
ATOM     11  O   UNL d   1       2.513   0.968  -2.561  0.00  0.00    -0.532 OA
ENDBRANCH   3   9
ENDBRANCH   1   2
BRANCH   1  12
ATOM     12  C   UNL d   1       0.180   1.895   1.550  0.00  0.00     0.136 A 
ATOM     13  S   UNL d   1       0.023   2.462   3.158  0.00  0.00    -0.026 SA
ATOM     14  C   UNL d   1       0.105   0.817   3.672  0.00  0.00     0.161 A 
ATOM     15  N   UNL d   1       0.039   0.506   4.984  0.00  0.00    -0.374 N 
ATOM     16  N   UNL d   1       0.225  -0.033   2.671  0.00  0.00    -0.279 N 
ATOM     17  C   UNL d   1       0.147  -0.855   5.445  0.00  0.00     0.148 C 
ATOM     18  H   UNL d   1      -0.020   1.238   5.683  0.00  0.00     0.161 HD
ATOM     19  N   UNL d   1       0.265   0.589   1.439  0.00  0.00    -0.286 N 
ATOM     20  HN  UNL d   1       0.281  -1.044   2.795  1.00  0.00     0.189 HD
ATOM     21  HN  UNL d   1       0.350   0.095   0.551  1.00  0.00     0.188 HD
ENDBRANCH   1  12
TORSDOF 3
