REMARK  2 active torsions:
REMARK  status: ('A' for Active; 'I' for Inactive)
REMARK    1  A    between atoms: C_17  and  N_3 
REMARK    2  A    between atoms: C_14  and  C_11 
ROOT
ATOM      1  C   UNL d   1      -0.517  -1.252   0.064  0.00  0.00     0.105 A 
ATOM      2  C   UNL d   1      -0.966  -2.601   0.030  0.00  0.00     0.193 A 
ATOM      3  N   UNL d   1       0.521  -0.751   0.810  0.00  0.00    -0.288 N 
ATOM      4  O   UNL d   1      -1.619  -3.123  -1.061  0.00  0.00    -0.271 OA
ATOM      5  N   UNL d   1      -0.852  -3.482   1.004  0.00  0.00    -0.276 N 
ATOM      6  HN  UNL d   1      -0.396  -3.337   1.905  1.00  0.00     0.189 HD
ATOM      7  N   UNL d   1      -1.469  -4.641   0.570  0.00  0.00    -0.277 N 
ATOM      8  HN  UNL d   1      -1.579  -5.509   1.094  1.00  0.00     0.189 HD
ATOM      9  N   UNL d   1       0.714   0.576   0.619  0.00  0.00    -0.303 N 
ATOM     10  HN  UNL d   1       1.408   1.177   1.064  1.00  0.00     0.186 HD
ATOM     11  C   UNL d   1      -1.889  -4.402  -0.656  0.00  0.00     0.174 A 
ATOM     12  C   UNL d   1      -1.001  -0.182  -0.661  0.00  0.00     0.061 A 
ATOM     13  C   UNL d   1      -0.209   0.920  -0.285  0.00  0.00     0.024 A 
ATOM     14  C   UNL d   1      -0.296   2.312  -0.786  0.00  0.00     0.070 C 
ENDROOT
BRANCH   3  15
ATOM     15  C   UNL d   1       1.488  -1.472   1.621  0.00  0.00     0.145 C 
ATOM     16  C   UNL d   1       1.115  -1.530   3.091  0.00  0.00     0.028 C 
ENDBRANCH   3  15
BRANCH  11  17
ATOM     17  C   UNL d   1      -2.564  -5.262  -1.616  0.00  0.00     0.017 A 
ATOM     18  C   UNL d   1      -2.425  -5.059  -2.998  0.00  0.00     0.016 A 
ATOM     19  C   UNL d   1      -3.025  -5.929  -3.912  0.00  0.00     0.007 A 
ATOM     20  C   UNL d   1      -3.786  -7.013  -3.463  0.00  0.00    -0.062 A 
ATOM     21  C   UNL d   1      -3.955  -7.201  -2.087  0.00  0.00     0.007 A 
ATOM     22  C   UNL d   1      -4.381  -7.970  -4.454  0.00  0.00     0.048 C 
ATOM     23  C   UNL d   1      -3.344  -6.337  -1.172  0.00  0.00     0.016 A 
ENDBRANCH  11  17
TORSDOF 2
