REMARK  0 active torsions:
REMARK  status: ('A' for Active; 'I' for Inactive)
ROOT
ATOM      1  N   UNL d   1       0.711   0.445   0.003  0.00  0.00    -0.219 N 
ATOM      2  C   UNL d   1       1.395  -0.765   0.001  0.00  0.00     0.168 A 
ATOM      3  C   UNL d   1      -0.705   0.471   0.002  0.00  0.00     0.085 A 
ATOM      4  C   UNL d   1      -1.337  -0.760  -0.002  0.00  0.00     0.102 A 
ATOM      5  N   UNL d   1       1.584   1.472   0.006  0.00  0.00    -0.012 NA
ATOM      6  N   UNL d   1       0.732  -1.987  -0.003  0.00  0.00    -0.305 N 
ATOM      7  C   UNL d   1      -0.659  -2.052  -0.005  0.00  0.00     0.266 A 
ATOM      8  C   UNL d   1       2.717  -0.395   0.003  0.00  0.00     0.173 A 
ATOM      9  N   UNL d   1       2.817   0.968   0.006  0.00  0.00    -0.271 N 
ATOM     10  HN  UNL d   1       3.683   1.506   0.008  1.00  0.00     0.185 HD
ATOM     11  S   UNL d   1      -3.025  -0.608  -0.005  0.00  0.00    -0.094 SA
ATOM     12  C   UNL d   1      -1.613   1.578   0.005  0.00  0.00    -0.025 A 
ATOM     13  C   UNL d   1      -2.917   1.101   0.001  0.00  0.00     0.059 A 
ATOM     14  C   UNL d   1       3.867  -1.237   0.003  0.00  0.00     0.122 C 
ATOM     15  N   UNL d   1       4.766  -1.973   0.003  0.00  0.00    -0.190 NA
ATOM     16  O   UNL d   1      -1.213  -3.148  -0.008  0.00  0.00    -0.267 OA
ATOM     17  C   UNL d   1      -1.302   3.039   0.012  0.00  0.00     0.051 C 
ATOM     18  H   UNL d   1       1.230  -2.871  -0.004  0.00  0.00     0.171 HD
ENDROOT
TORSDOF 0
