REMARK  4 active torsions:
REMARK  status: ('A' for Active; 'I' for Inactive)
REMARK    1  A    between atoms: C_9  and  C_1 
REMARK    2  A    between atoms: C_4  and  C_2 
REMARK    3  A    between atoms: S_3  and  N_5 
REMARK    4  A    between atoms: C_12  and  S_3 
REMARK       I    between atoms: N_5  and  C_4 
ROOT
ATOM      1  C   UNL d   1      -1.521  -0.599  -0.763  0.00  0.00     0.088 A 
ATOM      2  C   UNL d   1      -0.226  -1.207  -0.544  0.00  0.00     0.093 A 
ATOM      3  N   UNL d   1      -1.400   0.741  -0.741  0.00  0.00    -0.259 N 
ATOM      4  HN  UNL d   1      -2.153   1.419  -0.860  1.00  0.00     0.195 HD
ATOM      5  O   UNL d   1      -0.080   1.022  -0.531  0.00  0.00    -0.241 OA
ATOM      6  C   UNL d   1       0.624  -0.126  -0.387  0.00  0.00     0.090 A 
ATOM      7  C   UNL d   1       2.062   0.080  -0.119  0.00  0.00     0.080 C 
ENDROOT
BRANCH   2   8
ATOM      8  C   UNL d   1       0.144  -2.625  -0.517  0.00  0.00     0.267 C 
ATOM      9  N   UNL d   1       1.388  -2.994   0.052  0.00  0.00    -0.279 N 
ATOM     10  HN  UNL d   1       1.855  -2.365   0.705  1.00  0.00     0.179 HD
ATOM     11  O   UNL d   1      -0.635  -3.461  -0.949  0.00  0.00    -0.267 OA
BRANCH   9  12
ATOM     12  S   UNL d   1       2.037  -4.340  -0.315  0.00  0.00     0.055 S 
ATOM     13  O   UNL d   1       1.900  -4.995  -1.602  0.00  0.00    -0.245 OA
ATOM     14  C   UNL d   1       3.789  -4.188  -0.074  0.00  0.00     0.142 C 
BRANCH  12  15
ATOM     15  C   UNL d   1       1.466  -5.506   0.915  0.00  0.00     0.038 A 
ATOM     16  C   UNL d   1       0.392  -6.335   0.574  0.00  0.00     0.023 A 
ATOM     17  C   UNL d   1      -0.143  -7.210   1.522  0.00  0.00     0.025 A 
ATOM     18  C   UNL d   1       0.403  -7.260   2.803  0.00  0.00     0.034 A 
ATOM     19  C   UNL d   1       1.494  -6.457   3.139  0.00  0.00     0.025 A 
ATOM     20 CL   UNL d   1      -0.288  -8.302   3.986  0.00  0.00    -0.084 Cl
ATOM     21  C   UNL d   1       2.028  -5.571   2.195  0.00  0.00     0.023 A 
ENDBRANCH  12  15
ENDBRANCH   9  12
ENDBRANCH   2   8
BRANCH   1  22
ATOM     22  C   UNL d   1      -2.854  -1.198  -0.938  0.00  0.00     0.054 A 
ATOM     23  C   UNL d   1      -3.820  -0.716  -1.844  0.00  0.00     0.049 A 
ATOM     24 CL   UNL d   1      -3.576   0.653  -2.882  0.00  0.00    -0.083 Cl
ATOM     25  C   UNL d   1      -5.076  -1.341  -1.965  0.00  0.00     0.025 A 
ATOM     26  C   UNL d   1      -5.388  -2.461  -1.199  0.00  0.00     0.005 A 
ATOM     27  C   UNL d   1      -4.460  -2.925  -0.272  0.00  0.00     0.043 A 
ATOM     28  C   UNL d   1      -3.231  -2.281  -0.129  0.00  0.00     0.130 A 
ATOM     29  F   UNL d   1      -2.420  -2.711   0.849  0.00  0.00    -0.205 F 
ENDBRANCH   1  22
TORSDOF 4
