REMARK  2 active torsions:
REMARK  status: ('A' for Active; 'I' for Inactive)
REMARK       I    between atoms: C_5  and  N_7 
REMARK    1  A    between atoms: C_10  and  C_6 
REMARK    2  A    between atoms: N_7  and  C_10 
ROOT
ATOM      1  O   UNL d   1       1.112   1.435  -0.031  0.00  0.00    -0.339 OA
ATOM      2  O   UNL d   1       1.087  -1.466   0.015  0.00  0.00    -0.346 OA
ATOM      3  C   UNL d   1      -0.040   0.693   0.027  0.00  0.00     0.102 A 
ATOM      4  C   UNL d   1      -0.054  -0.706   0.025  0.00  0.00     0.102 A 
ATOM      5  C   UNL d   1       2.269   0.642  -0.368  0.00  0.00     0.171 C 
ATOM      6  C   UNL d   1       2.230  -0.686   0.386  0.00  0.00     0.209 C 
ATOM      7  C   UNL d   1      -1.238   1.403   0.061  0.00  0.00     0.039 A 
ATOM      8  C   UNL d   1      -1.267  -1.391  -0.004  0.00  0.00     0.039 A 
ATOM      9  C   UNL d   1      -2.453   0.717   0.048  0.00  0.00     0.003 A 
ATOM     10  C   UNL d   1      -2.467  -0.678   0.005  0.00  0.00     0.003 A 
ENDROOT
BRANCH   5  11
ATOM     11  C   UNL d   1       2.354   0.443  -1.894  0.00  0.00     0.157 C 
BRANCH  11  12
ATOM     12  N   UNL d   1       2.509   1.698  -2.615  0.00  0.00    -0.359 N 
ATOM     13  C   UNL d   1       3.743   2.253  -2.850  0.00  0.00     0.213 C 
ATOM     14  O   UNL d   1       4.792   1.730  -2.490  0.00  0.00    -0.274 OA
ATOM     15  C   UNL d   1       3.713   3.551  -3.609  0.00  0.00     0.117 C 
ATOM     16  H   UNL d   1       1.675   2.253  -2.767  0.00  0.00     0.162 HD
ENDBRANCH  11  12
ENDBRANCH   5  11
TORSDOF 2
