REMARK  2 active torsions:
REMARK  status: ('A' for Active; 'I' for Inactive)
REMARK    1  A    between atoms: C_5  and  C_1 
REMARK    2  A    between atoms: O_9  and  C_5 
ROOT
ATOM      1  C   UNL d   1       1.080  -0.741  -0.003  0.00  0.00     0.102 A 
ATOM      2  C   UNL d   1       0.996   0.642   0.002  0.00  0.00     0.063 A 
ATOM      3  S   UNL d   1      -0.485  -1.446  -0.001  0.00  0.00    -0.094 SA
ATOM      4  C   UNL d   1      -0.358   1.128   0.002  0.00  0.00    -0.032 A 
ATOM      5  C   UNL d   1      -1.252   0.074  -0.002  0.00  0.00     0.059 A 
ATOM      6 CL   UNL d   1       2.343   1.716   0.005  0.00  0.00    -0.082 Cl
ATOM      7  C   UNL d   1      -0.785   2.560   0.004  0.00  0.00     0.050 C 
ENDROOT
BRANCH   1   8
ATOM      8  C   UNL d   1       2.284  -1.555  -0.010  0.00  0.00     0.301 C 
ATOM      9  O   UNL d   1       3.431  -1.125  -0.011  0.00  0.00    -0.259 OA
BRANCH   8  10
ATOM     10  O   UNL d   1       1.996  -2.893  -0.016  0.00  0.00    -0.322 OA
ATOM     11  C   UNL d   1       3.159  -3.721  -0.024  0.00  0.00     0.213 C 
ENDBRANCH   8  10
ENDBRANCH   1   8
TORSDOF 2
