REMARK  2 active torsions:
REMARK  status: ('A' for Active; 'I' for Inactive)
REMARK    1  A    between atoms: C_8  and  N_1 
REMARK    2  A    between atoms: C_10  and  C_8 
ROOT
ATOM      1  N   UNL d   1       1.000  -0.742   0.168  0.00  0.00    -0.253 N 
ATOM      2  N   UNL d   1       0.428  -0.372   1.374  0.00  0.00    -0.300 N 
ATOM      3  HN  UNL d   1       0.893  -0.565   2.261  1.00  0.00     0.187 HD
ATOM      4  C   UNL d   1       0.392  -0.556  -1.067  0.00  0.00     0.262 A 
ATOM      5  C   UNL d   1      -0.898   0.167  -1.055  0.00  0.00     0.078 A 
ATOM      6  C   UNL d   1      -0.720   0.228   1.332  0.00  0.00     0.022 A 
ATOM      7  C   UNL d   1      -1.452   0.558   0.093  0.00  0.00     0.031 A 
ATOM      8  O   UNL d   1       0.852  -0.924  -2.149  0.00  0.00    -0.267 OA
ATOM      9  C   UNL d   1      -1.379   0.616   2.632  0.00  0.00     0.069 C 
ENDROOT
BRANCH   1  10
ATOM     10  C   UNL d   1       2.289  -1.426   0.243  0.00  0.00     0.191 C 
BRANCH  10  11
ATOM     11  C   UNL d   1       2.126  -2.925   0.354  0.00  0.00    -0.038 A 
ATOM     12  C   UNL d   1       2.133  -3.726  -0.800  0.00  0.00     0.012 A 
ATOM     13  C   UNL d   1       1.844  -5.088  -0.715  0.00  0.00     0.043 A 
ATOM     14  C   UNL d   1       1.557  -5.651   0.522  0.00  0.00     0.116 A 
ATOM     15  C   UNL d   1       1.590  -4.886   1.682  0.00  0.00     0.043 A 
ATOM     16  F   UNL d   1       1.226  -6.947   0.596  0.00  0.00    -0.206 F 
ATOM     17  C   UNL d   1       1.876  -3.523   1.599  0.00  0.00     0.012 A 
ENDBRANCH  10  11
ENDBRANCH   1  10
TORSDOF 2
