REMARK  1 active torsions:
REMARK  status: ('A' for Active; 'I' for Inactive)
REMARK    1  A    between atoms: S_4  and  C_1 
ROOT
ATOM      1  C   UNL d   1       1.865   0.921  -0.071  0.00  0.00     0.115 A 
ATOM      2  C   UNL d   1       0.502   0.661  -0.006  0.00  0.00     0.047 A 
ATOM      3  S   UNL d   1       2.766  -0.544  -0.046  0.00  0.00    -0.065 SA
ATOM      4  C   UNL d   1       1.370  -1.488   0.034  0.00  0.00     0.083 A 
ATOM      5  C   UNL d   1       0.211  -0.754   0.030  0.00  0.00    -0.013 A 
ATOM      6  C   UNL d   1      -0.565   1.660   0.033  0.00  0.00     0.162 C 
ATOM      7 CL   UNL d   1       1.516  -3.198   0.116  0.00  0.00    -0.076 Cl
ATOM      8  O   UNL d   1      -0.354   2.857  -0.114  0.00  0.00    -0.292 OA
ATOM      9  C   UNL d   1      -1.195  -1.275   0.090  0.00  0.00     0.042 C 
ATOM     10  C   UNL d   1      -1.967   1.134   0.301  0.00  0.00     0.084 C 
ATOM     11  C   UNL d   1      -2.197  -0.215  -0.384  0.00  0.00     0.012 C 
ENDROOT
BRANCH   1  12
ATOM     12  S   UNL d   1       2.833   2.427  -0.083  0.00  0.00     0.179 S 
ATOM     13  O   UNL d   1       2.391   3.159   1.087  0.00  0.00    -0.222 OA
ATOM     14  O   UNL d   1       4.220   2.035  -0.238  0.00  0.00    -0.222 OA
ATOM     15  C   UNL d   1       2.361   3.286  -1.560  0.00  0.00     0.167 C 
ENDBRANCH   1  12
TORSDOF 1
