REMARK  7 active torsions:
REMARK  status: ('A' for Active; 'I' for Inactive)
REMARK    1  A    between atoms: C_10  and  C_1 
REMARK    2  A    between atoms: N_12  and  C_2 
REMARK    3  A    between atoms: C_11  and  C_6 
REMARK    4  A    between atoms: N_7  and  N_12 
REMARK    5  A    between atoms: O_18  and  C_10 
REMARK    6  A    between atoms: C_15  and  C_11 
REMARK    7  A    between atoms: C_23  and  O_18 
ROOT
ATOM      1  C   UNL d   1       1.722   4.792  -0.487  0.00  0.00     0.175 C 
ATOM      2  N   UNL d   1       1.032   3.800   0.002  0.00  0.00    -0.287 N 
ATOM      3  HN  UNL d   1       1.512   3.014   0.439  1.00  0.00     0.188 HD
ATOM      4  C   UNL d   1       1.014   5.888  -1.109  0.00  0.00     0.123 C 
ATOM      5  N   UNL d   1       0.410   6.782  -1.546  0.00  0.00    -0.190 NA
ENDROOT
BRANCH   1   6
ATOM      6  C   UNL d   1       3.226   4.770  -0.418  0.00  0.00     0.195 C 
ATOM      7  O   UNL d   1       3.835   5.352  -1.314  0.00  0.00    -0.289 OA
BRANCH   6   8
ATOM      8  C   UNL d   1       3.941   4.019   0.717  0.00  0.00     0.017 C 
ATOM      9  C   UNL d   1       4.096   2.545   0.323  0.00  0.00     0.023 C 
ATOM     10  C   UNL d   1       5.345   4.639   0.882  0.00  0.00     0.023 C 
ATOM     11  C   UNL d   1       3.229   4.133   2.072  0.00  0.00     0.023 C 
ENDBRANCH   6   8
ENDBRANCH   1   6
BRANCH   2  12
ATOM     12  N   UNL d   1      -0.332   3.809  -0.068  0.00  0.00    -0.291 N 
ATOM     13  H   UNL d   1      -0.828   4.647   0.253  0.00  0.00     0.187 HD
BRANCH  12  14
ATOM     14  C   UNL d   1      -1.034   2.642  -0.022  0.00  0.00     0.123 A 
ATOM     15  C   UNL d   1      -0.709   1.379  -0.500  0.00  0.00     0.098 A 
ATOM     16  C   UNL d   1      -1.780   0.450  -0.185  0.00  0.00     0.031 A 
ATOM     17  N   UNL d   1      -2.823   0.955   0.474  0.00  0.00    -0.328 N 
ATOM     18  C   UNL d   1      -1.863  -0.987  -0.587  0.00  0.00     0.070 C 
ATOM     19  S   UNL d   1      -2.590   2.571   0.691  0.00  0.00     0.006 SA
ATOM     20  HN  UNL d   1      -3.635   0.426   0.792  1.00  0.00     0.174 HD
BRANCH  15  21
ATOM     21  C   UNL d   1       0.480   1.079  -1.289  0.00  0.00     0.298 C 
ATOM     22  O   UNL d   1       1.042   1.881  -2.029  0.00  0.00    -0.259 OA
BRANCH  21  23
ATOM     23  O   UNL d   1       0.839  -0.236  -1.202  0.00  0.00    -0.318 OA
BRANCH  23  24
ATOM     24  C   UNL d   1       1.659  -0.717  -2.275  0.00  0.00     0.174 C 
ATOM     25  C   UNL d   1       0.744  -1.133  -3.414  0.00  0.00     0.034 C 
ENDBRANCH  23  24
ENDBRANCH  21  23
ENDBRANCH  15  21
ENDBRANCH  12  14
ENDBRANCH   2  12
TORSDOF 7
