REMARK  4 active torsions:
REMARK  status: ('A' for Active; 'I' for Inactive)
REMARK    1  A    between atoms: C_4  and  C_1 
REMARK       I    between atoms: N_9  and  C_4 
REMARK    2  A    between atoms: C_6  and  C_11 
REMARK       I    between atoms: C_8  and  N_10 
REMARK    3  A    between atoms: C_13  and  C_8 
REMARK    4  A    between atoms: N_10  and  N_9 
ROOT
ATOM      1  C   UNL d   1      -5.240   1.166   0.019  0.00  0.00     0.270 C 
ATOM      2  N   UNL d   1      -4.032   0.518   0.163  0.00  0.00    -0.263 N 
ATOM      3  O   UNL d   1      -5.347   2.375  -0.153  0.00  0.00    -0.266 OA
ATOM      4  H   UNL d   1      -3.947  -0.452   0.464  0.00  0.00     0.190 HD
ENDROOT
BRANCH   2   5
ATOM      5  N   UNL d   1      -2.842   1.251   0.115  0.00  0.00    -0.262 N 
ATOM      6  C   UNL d   1      -1.642   0.569   0.222  0.00  0.00     0.288 C 
ATOM      7  O   UNL d   1      -1.607  -0.645   0.429  0.00  0.00    -0.264 OA
ATOM      8  H   UNL d   1      -2.886   2.247  -0.106  0.00  0.00     0.190 HD
BRANCH   6   9
ATOM      9  C   UNL d   1      -0.435   1.373   0.068  0.00  0.00     0.126 A 
ATOM     10  N   UNL d   1      -0.466   2.700  -0.146  0.00  0.00    -0.256 N 
ATOM     11  O   UNL d   1       0.857   3.102  -0.237  0.00  0.00    -0.242 OA
ATOM     12  HN  UNL d   1      -1.294   3.291  -0.225  1.00  0.00     0.195 HD
ATOM     13  C   UNL d   1       1.673   2.025  -0.082  0.00  0.00     0.075 A 
ATOM     14  C   UNL d   1       0.904   0.906   0.114  0.00  0.00     0.071 A 
ATOM     15  C   UNL d   1       3.124   2.274  -0.155  0.00  0.00     0.079 C 
ENDBRANCH   6   9
ENDBRANCH   2   5
BRANCH   1  16
ATOM     16  C   UNL d   1      -6.448   0.299   0.117  0.00  0.00     0.034 A 
ATOM     17  C   UNL d   1      -7.624   0.832   0.666  0.00  0.00     0.033 A 
ATOM     18  C   UNL d   1      -8.775   0.036   0.796  0.00  0.00     0.048 A 
ATOM     19  C   UNL d   1      -8.737  -1.292   0.342  0.00  0.00     0.016 A 
ATOM     20  C   UNL d   1      -7.577  -1.817  -0.227  0.00  0.00     0.002 A 
ATOM     21  C   UNL d   1      -6.434  -1.026  -0.339  0.00  0.00     0.017 A 
BRANCH  18  22
ATOM     22  C   UNL d   1     -10.038   0.573   1.426  0.00  0.00     0.417 C 
ATOM     23  F   UNL d   1      -9.944   1.869   1.829  0.00  0.00    -0.166 F 
ATOM     24  F   UNL d   1     -11.106   0.517   0.583  0.00  0.00    -0.166 F 
ATOM     25  F   UNL d   1     -10.401  -0.136   2.532  0.00  0.00    -0.166 F 
ENDBRANCH  18  22
ENDBRANCH   1  16
TORSDOF 4
