REMARK  6 active torsions:
REMARK  status: ('A' for Active; 'I' for Inactive)
REMARK    1  A    between atoms: C_8  and  C_1 
REMARK    2  A    between atoms: S_2  and  C_9 
REMARK    3  A    between atoms: C_12  and  S_2 
REMARK    4  A    between atoms: C_9  and  C_3 
REMARK       I    between atoms: N_13  and  C_8 
REMARK    5  A    between atoms: C_10  and  C_11 
REMARK       I    between atoms: C_11  and  N_14 
REMARK    6  A    between atoms: N_14  and  N_13 
ROOT
ATOM      1  C   UNL d   1      -0.132  -1.181  -0.143  0.00  0.00     0.098 A 
ATOM      2  C   UNL d   1       0.666   1.129  -0.157  0.00  0.00     0.066 A 
ATOM      3  N   UNL d   1      -0.645   1.105  -0.074  0.00  0.00    -0.355 N 
ATOM      4  HN  UNL d   1      -1.237   1.934  -0.024  1.00  0.00     0.166 HD
ATOM      5  C   UNL d   1      -1.113  -0.201  -0.064  0.00  0.00     0.028 A 
ATOM      6  S   UNL d   1       1.401  -0.422  -0.315  0.00  0.00    -0.068 SA
ATOM      7  C   UNL d   1      -2.582  -0.406   0.077  0.00  0.00     0.070 C 
ENDROOT
BRANCH   1   8
ATOM      8  C   UNL d   1      -0.309  -2.625  -0.059  0.00  0.00     0.279 C 
ATOM      9  N   UNL d   1       0.823  -3.415  -0.191  0.00  0.00    -0.262 N 
ATOM     10  H   UNL d   1       1.756  -3.046  -0.368  0.00  0.00     0.190 HD
ATOM     11  O   UNL d   1      -1.405  -3.156   0.142  0.00  0.00    -0.265 OA
BRANCH   9  12
ATOM     12  N   UNL d   1       0.702  -4.812  -0.062  0.00  0.00    -0.263 N 
ATOM     13  C   UNL d   1       1.835  -5.593  -0.205  0.00  0.00     0.274 C 
ATOM     14  O   UNL d   1       2.927  -5.096  -0.466  0.00  0.00    -0.266 OA
ATOM     15  H   UNL d   1      -0.200  -5.163   0.263  0.00  0.00     0.190 HD
BRANCH  13  16
ATOM     16  C   UNL d   1       1.675  -7.061  -0.007  0.00  0.00     0.093 A 
ATOM     17  C   UNL d   1       0.775  -7.536   0.954  0.00  0.00     0.133 A 
ATOM     18  F   UNL d   1       0.025  -6.686   1.670  0.00  0.00    -0.205 F 
ATOM     19  C   UNL d   1       0.628  -8.901   1.211  0.00  0.00     0.043 A 
ATOM     20  C   UNL d   1       1.387  -9.826   0.502  0.00  0.00     0.005 A 
ATOM     21  C   UNL d   1       2.285  -9.376  -0.467  0.00  0.00     0.025 A 
ATOM     22  C   UNL d   1       2.432  -8.002  -0.723  0.00  0.00     0.052 A 
ATOM     23 CL   UNL d   1       3.530  -7.581  -1.991  0.00  0.00    -0.083 Cl
ENDBRANCH  13  16
ENDBRANCH   9  12
ENDBRANCH   1   8
BRANCH   2  24
ATOM     24  C   UNL d   1       1.490   2.357   0.013  0.00  0.00     0.212 C 
BRANCH  24  25
ATOM     25  S   UNL d   1       1.472   3.334  -1.458  0.00  0.00     0.196 S 
ATOM     26  O   UNL d   1       2.255   4.533  -1.207  0.00  0.00    -0.221 OA
ATOM     27  O   UNL d   1       1.841   2.478  -2.578  0.00  0.00    -0.221 OA
BRANCH  25  28
ATOM     28  C   UNL d   1      -0.216   3.846  -1.693  0.00  0.00     0.128 A 
ATOM     29  N   UNL d   1      -0.756   4.501  -0.630  0.00  0.00    -0.357 N 
ATOM     30  C   UNL d   1      -2.031   4.918  -0.790  0.00  0.00     0.089 A 
ATOM     31  HN  UNL d   1      -0.233   4.666   0.230  1.00  0.00     0.166 HD
ATOM     32  C   UNL d   1      -2.775   4.708  -1.944  0.00  0.00     0.017 A 
ATOM     33  C   UNL d   1      -2.181   4.037  -3.010  0.00  0.00     0.004 A 
ATOM     34  C   UNL d   1      -0.868   3.597  -2.891  0.00  0.00     0.042 A 
ENDBRANCH  25  28
ENDBRANCH  24  25
ENDBRANCH   2  24
TORSDOF 6
