REMARK  8 active torsions:
REMARK  status: ('A' for Active; 'I' for Inactive)
REMARK    1  A    between atoms: C_20  and  N_3 
REMARK    2  A    between atoms: C_12  and  C_4 
REMARK    3  A    between atoms: C_13  and  C_7 
REMARK    4  A    between atoms: C_10  and  N_14 
REMARK       I    between atoms: N_14  and  C_12 
REMARK    5  A    between atoms: C_17  and  C_13 
REMARK    6  A    between atoms: O_23  and  C_17 
REMARK    7  A    between atoms: O_25  and  N_18 
REMARK    8  A    between atoms: C_28  and  O_23 
ROOT
ATOM      1  C   UNL d   1      -2.451  -0.024  -0.226  0.00  0.00     0.277 C 
ATOM      2  N   UNL d   1      -3.387   0.964  -0.036  0.00  0.00    -0.302 N 
ATOM      3  O   UNL d   1      -1.293   0.142  -0.595  0.00  0.00    -0.266 OA
ATOM      4  H   UNL d   1      -4.323   0.697   0.235  0.00  0.00     0.171 HD
ENDROOT
BRANCH   2   5
ATOM      5  C   UNL d   1      -3.120   2.273  -0.310  0.00  0.00     0.151 A 
ATOM      6  N   UNL d   1      -1.990   2.834  -0.670  0.00  0.00    -0.334 N 
ATOM      7  C   UNL d   1      -2.184   4.183  -0.971  0.00  0.00     0.075 A 
ATOM      8  HN  UNL d   1      -1.093   2.351  -0.723  1.00  0.00     0.168 HD
ATOM      9  C   UNL d   1      -3.487   4.610  -0.758  0.00  0.00     0.085 A 
ATOM     10  S   UNL d   1      -4.463   3.316  -0.188  0.00  0.00    -0.063 SA
BRANCH   7  11
ATOM     11  C   UNL d   1      -1.108   5.042  -1.490  0.00  0.00     0.156 C 
ATOM     12  N   UNL d   1      -1.484   6.197  -1.980  0.00  0.00    -0.259 N 
ATOM     13  HN  UNL d   1      -2.451   6.519  -2.004  1.00  0.00     0.194 HD
BRANCH  11  14
ATOM     14  C   UNL d   1       0.362   4.609  -1.430  0.00  0.00     0.314 C 
ATOM     15  O   UNL d   1       1.251   5.346  -1.035  0.00  0.00    -0.257 OA
BRANCH  14  16
ATOM     16  O   UNL d   1       0.509   3.339  -1.859  0.00  0.00    -0.317 OA
BRANCH  16  17
ATOM     17  C   UNL d   1       1.841   2.805  -1.833  0.00  0.00     0.175 C 
ATOM     18  C   UNL d   1       2.378   2.607  -0.424  0.00  0.00     0.034 C 
ENDBRANCH  16  17
ENDBRANCH  14  16
ENDBRANCH  11  14
BRANCH  12  19
ATOM     19  O   UNL d   1      -0.397   6.938  -2.468  0.00  0.00    -0.285 OA
ATOM     20  C   UNL d   1      -0.847   8.238  -2.827  0.00  0.00     0.237 C 
ENDBRANCH  12  19
ENDBRANCH   7  11
ENDBRANCH   2   5
BRANCH   1  21
ATOM     21  C   UNL d   1      -2.962  -1.381   0.040  0.00  0.00     0.141 A 
ATOM     22  N   UNL d   1      -4.223  -1.660   0.448  0.00  0.00    -0.272 N 
ATOM     23  N   UNL d   1      -4.198  -3.028   0.545  0.00  0.00    -0.196 N 
ATOM     24  HN  UNL d   1      -4.993  -1.018   0.634  1.00  0.00     0.189 HD
ATOM     25  N   UNL d   1      -3.016  -3.620   0.250  0.00  0.00    -0.281 N 
ATOM     26  C   UNL d   1      -2.244  -2.594  -0.107  0.00  0.00     0.057 A 
ATOM     27  HN  UNL d   1      -2.775  -4.610   0.292  1.00  0.00     0.189 HD
ATOM     28  C   UNL d   1      -0.872  -2.843  -0.603  0.00  0.00     0.072 C 
BRANCH  23  29
ATOM     29  C   UNL d   1      -5.328  -3.826   0.881  0.00  0.00     0.074 A 
ATOM     30  C   UNL d   1      -6.594  -3.262   1.056  0.00  0.00     0.033 A 
ATOM     31  C   UNL d   1      -7.689  -4.092   1.329  0.00  0.00     0.002 A 
ATOM     32  C   UNL d   1      -7.521  -5.476   1.440  0.00  0.00     0.000 A 
ATOM     33  C   UNL d   1      -6.256  -6.036   1.285  0.00  0.00     0.002 A 
ATOM     34  C   UNL d   1      -5.165  -5.221   1.005  0.00  0.00     0.033 A 
ENDBRANCH  23  29
ENDBRANCH   1  21
TORSDOF 8
