REMARK  3 active torsions:
REMARK  status: ('A' for Active; 'I' for Inactive)
REMARK    1  A    between atoms: C_2  and  S_1 
REMARK    2  A    between atoms: N_8  and  S_1 
REMARK    3  A    between atoms: C_11  and  N_8 
ROOT
ATOM      1  S   UNL d   1       0.937  -0.052   0.113  0.00  0.00     0.264 S 
ATOM      2  O   UNL d   1       1.163  -0.957   1.219  0.00  0.00    -0.200 OA
ATOM      3  O   UNL d   1       0.029   1.058   0.320  0.00  0.00    -0.200 OA
ENDROOT
BRANCH   1   4
ATOM      4  C   UNL d   1       0.478  -1.021  -1.355  0.00  0.00     0.092 C 
ATOM      5  C   UNL d   1       0.902  -2.383  -1.437  0.00  0.00    -0.032 C 
ATOM      6  C   UNL d   1       0.373  -3.221  -2.456  0.00  0.00    -0.048 C 
ATOM      7  C   UNL d   1       1.918  -2.985  -0.490  0.00  0.00     0.050 C 
ATOM      8  C   UNL d   1       0.672  -4.709  -2.490  0.00  0.00     0.049 C 
ATOM      9  C   UNL d   1      -0.425  -2.667  -3.487  0.00  0.00    -0.049 C 
ATOM     10  C   UNL d   1      -0.746  -1.286  -3.471  0.00  0.00    -0.048 C 
ATOM     11  C   UNL d   1      -0.900  -3.575  -4.606  0.00  0.00     0.049 C 
ATOM     12  C   UNL d   1      -0.322  -0.456  -2.389  0.00  0.00    -0.032 C 
ATOM     13  C   UNL d   1      -1.540  -0.719  -4.633  0.00  0.00     0.049 C 
ATOM     14  C   UNL d   1      -0.729   1.000  -2.451  0.00  0.00     0.050 C 
ENDBRANCH   1   4
BRANCH   1  15
ATOM     15  N   UNL d   1       2.446   0.538  -0.316  0.00  0.00    -0.279 N 
ATOM     16  H   UNL d   1       3.188   0.358   0.355  0.00  0.00     0.179 HD
BRANCH  15  17
ATOM     17  C   UNL d   1       2.603   1.571  -1.271  0.00  0.00     0.058 A 
ATOM     18  C   UNL d   1       2.428   2.914  -0.958  0.00  0.00     0.117 A 
ATOM     19  N   UNL d   1       2.709   3.929  -1.815  0.00  0.00    -0.373 N 
ATOM     20  C   UNL d   1       3.179   3.583  -3.034  0.00  0.00     0.088 A 
ATOM     21  HN  UNL d   1       2.572   4.905  -1.552  1.00  0.00     0.164 HD
ATOM     22  C   UNL d   1       3.367   2.272  -3.442  0.00  0.00     0.019 A 
ATOM     23  C   UNL d   1       3.076   1.251  -2.539  0.00  0.00     0.033 A 
ENDBRANCH  15  17
ENDBRANCH   1  15
TORSDOF 3
