REMARK  1 active torsions:
REMARK  status: ('A' for Active; 'I' for Inactive)
REMARK    1  A    between atoms: C_8  and  C_7 
ROOT
ATOM      1  C   UNL d   1       1.191   0.146  -0.032  0.00  0.00     0.101 A 
ATOM      2  N   UNL d   1      -0.785  -1.239  -0.006  0.00  0.00    -0.275 N 
ATOM      3  N   UNL d   1      -1.036   1.060   0.030  0.00  0.00    -0.275 N 
ATOM      4  C   UNL d   1       0.581  -1.210  -0.030  0.00  0.00     0.265 A 
ATOM      5  C   UNL d   1       0.301   1.335  -0.052  0.00  0.00     0.265 A 
ATOM      6  C   UNL d   1      -1.620  -0.167   0.015  0.00  0.00     0.329 A 
ATOM      7  C   UNL d   1       2.537   0.186   0.004  0.00  0.00     0.041 C 
ATOM      8  O   UNL d   1       0.679   2.495  -0.164  0.00  0.00    -0.267 OA
ATOM      9  O   UNL d   1       1.231  -2.249  -0.048  0.00  0.00    -0.267 OA
ATOM     10  O   UNL d   1      -2.839  -0.300   0.007  0.00  0.00    -0.246 OA
ATOM     11  H   UNL d   1      -1.220  -2.150  -0.010  0.00  0.00     0.173 HD
ATOM     12  H   UNL d   1      -1.657   1.857   0.006  0.00  0.00     0.173 HD
ENDROOT
BRANCH   7  13
ATOM     13  C   UNL d   1       3.304   1.378   0.076  0.00  0.00     0.005 A 
ATOM     14  S   UNL d   1       3.797   1.984   1.609  0.00  0.00    -0.102 SA
ATOM     15  C   UNL d   1       4.670   3.269   0.899  0.00  0.00     0.050 A 
ATOM     16  C   UNL d   1       4.593   3.249  -0.475  0.00  0.00     0.008 A 
ATOM     17  C   UNL d   1       3.802   2.161  -0.949  0.00  0.00     0.019 A 
ENDBRANCH   7  13
TORSDOF 1
