REMARK  3 active torsions:
REMARK  status: ('A' for Active; 'I' for Inactive)
REMARK    1  A    between atoms: C_2  and  N_1 
REMARK       I    between atoms: C_7  and  N_1 
REMARK    2  A    between atoms: N_3  and  C_11 
REMARK    3  A    between atoms: C_13  and  N_5 
ROOT
ATOM      1  C   UNL d   1       0.320   0.768   1.044  0.00  0.00     0.040 A 
ATOM      2  C   UNL d   1       0.652   1.970   1.686  0.00  0.00    -0.033 A 
ATOM      3  C   UNL d   1      -0.179   2.440   2.721  0.00  0.00     0.039 A 
ATOM      4  C   UNL d   1      -1.322   1.743   3.128  0.00  0.00     0.048 A 
ATOM      5  C   UNL d   1      -0.819   0.059   1.443  0.00  0.00     0.032 A 
ATOM      6  C   UNL d   1      -1.633   0.545   2.471  0.00  0.00     0.033 A 
ATOM      7  C   UNL d   1       1.816   2.830   1.273  0.00  0.00     0.050 C 
ENDROOT
BRANCH   4   8
ATOM      8  N   UNL d   1      -2.130   2.324   4.128  0.00  0.00    -0.300 N 
ATOM      9  N   UNL d   1      -2.752   1.478   4.802  0.00  0.00    -0.300 N 
ATOM     10  HN  UNL d   1      -2.642   0.470   4.685  1.00  0.00     0.187 HD
ATOM     11  HN  UNL d   1      -2.197   3.330   4.284  1.00  0.00     0.187 HD
BRANCH   9  12
ATOM     12  C   UNL d   1      -3.625   2.066   5.744  0.00  0.00     0.048 A 
ATOM     13  C   UNL d   1      -4.253   3.308   5.557  0.00  0.00     0.031 A 
ATOM     14  C   UNL d   1      -5.150   3.810   6.504  0.00  0.00     0.002 A 
ATOM     15  C   UNL d   1      -5.439   3.071   7.649  0.00  0.00     0.000 A 
ATOM     16  C   UNL d   1      -4.830   1.835   7.849  0.00  0.00     0.002 A 
ATOM     17  C   UNL d   1      -3.931   1.337   6.900  0.00  0.00     0.031 A 
ENDBRANCH   9  12
ENDBRANCH   4   8
BRANCH   1  18
ATOM     18  N   UNL d   1       1.171   0.249   0.058  0.00  0.00    -0.327 N 
ATOM     19  C   UNL d   1       0.853  -0.315  -1.145  0.00  0.00     0.218 C 
ATOM     20  O   UNL d   1       1.736  -0.865  -1.807  0.00  0.00    -0.274 OA
ATOM     21  C   UNL d   1      -0.537  -0.156  -1.698  0.00  0.00     0.117 C 
ATOM     22  H   UNL d   1       2.169   0.357   0.191  0.00  0.00     0.169 HD
ENDBRANCH   1  18
TORSDOF 3
