REMARK  7 active torsions:
REMARK  status: ('A' for Active; 'I' for Inactive)
REMARK    1  A    between atoms: N_2  and  C_1 
REMARK    2  A    between atoms: C_3  and  C_15 
REMARK    3  A    between atoms: O_9  and  C_5 
REMARK    4  A    between atoms: C_7  and  C_6 
REMARK    5  A    between atoms: O_19  and  C_7 
REMARK    6  A    between atoms: C_20  and  O_9 
REMARK    7  A    between atoms: N_10  and  O_19 
ROOT
ATOM      1  C   UNL d   1       1.424  -0.405   0.378  0.00  0.00     0.137 A 
ATOM      2  C   UNL d   1       0.493  -1.458   0.363  0.00  0.00     0.056 A 
ATOM      3  C   UNL d   1       1.056   0.910   0.074  0.00  0.00     0.109 A 
ATOM      4  C   UNL d   1      -0.851  -1.184   0.085  0.00  0.00     0.043 A 
ATOM      5  C   UNL d   1      -0.299   1.172  -0.166  0.00  0.00     0.041 A 
ATOM      6  C   UNL d   1      -1.243   0.140  -0.156  0.00  0.00     0.020 A 
ENDROOT
BRANCH   4   7
ATOM      7  C   UNL d   1      -1.886  -2.246  -0.021  0.00  0.00     0.315 C 
ATOM      8  O   UNL d   1      -3.062  -2.009  -0.257  0.00  0.00    -0.257 OA
BRANCH   7   9
ATOM      9  O   UNL d   1      -1.320  -3.478   0.124  0.00  0.00    -0.195 OA
BRANCH   9  10
ATOM     10  N   UNL d   1      -1.719  -4.269  -0.963  0.00  0.00    -0.268 N 
ATOM     11  C   UNL d   1      -1.609  -5.522  -0.672  0.00  0.00     0.130 C 
ATOM     12  HN  UNL d   1      -2.050  -3.906  -1.857  1.00  0.00     0.194 HD
BRANCH  11  13
ATOM     13  C   UNL d   1      -1.889  -6.565  -1.670  0.00  0.00     0.042 A 
ATOM     14  C   UNL d   1      -1.584  -6.446  -3.032  0.00  0.00     0.048 A 
ATOM     15 CL   UNL d   1      -0.732  -5.103  -3.708  0.00  0.00    -0.083 Cl
ATOM     16  C   UNL d   1      -1.914  -7.488  -3.909  0.00  0.00     0.025 A 
ATOM     17  C   UNL d   1      -2.538  -8.644  -3.435  0.00  0.00     0.005 A 
ATOM     18  C   UNL d   1      -2.822  -8.768  -2.078  0.00  0.00     0.043 A 
ATOM     19  C   UNL d   1      -2.491  -7.734  -1.205  0.00  0.00     0.129 A 
ATOM     20  F   UNL d   1      -2.778  -7.878   0.097  0.00  0.00    -0.205 F 
ENDBRANCH  11  13
ENDBRANCH   9  10
ENDBRANCH   7   9
ENDBRANCH   4   7
BRANCH   1  21
ATOM     21  N   UNL d   1       2.774  -0.744   0.785  0.00  0.00    -0.113 N 
ATOM     22  O   UNL d   1       3.349  -1.627   0.129  0.00  0.00    -0.532 OA
ATOM     23  O   UNL d   1       3.223  -0.181   1.788  0.00  0.00    -0.532 OA
ENDBRANCH   1  21
BRANCH   3  24
ATOM     24  O   UNL d   1       1.848   2.030   0.056  0.00  0.00    -0.308 OA
BRANCH  24  25
ATOM     25  C   UNL d   1       3.102   2.005  -0.504  0.00  0.00     0.076 A 
ATOM     26  C   UNL d   1       3.479   1.226  -1.600  0.00  0.00     0.039 A 
ATOM     27  C   UNL d   1       4.812   1.232  -2.026  0.00  0.00     0.026 A 
ATOM     28  C   UNL d   1       5.745   2.053  -1.393  0.00  0.00     0.034 A 
ATOM     29  C   UNL d   1       5.354   2.888  -0.349  0.00  0.00     0.026 A 
ATOM     30 CL   UNL d   1       7.388   2.036  -1.900  0.00  0.00    -0.084 Cl
ATOM     31  C   UNL d   1       4.030   2.865   0.091  0.00  0.00     0.039 A 
ENDBRANCH  24  25
ENDBRANCH   3  24
TORSDOF 7
