REMARK  6 active torsions:
REMARK  status: ('A' for Active; 'I' for Inactive)
REMARK    1  A    between atoms: C_6  and  N_1 
REMARK    2  A    between atoms: C_8  and  C_2 
REMARK    3  A    between atoms: C_9  and  C_2 
REMARK    4  A    between atoms: C_11  and  C_8 
REMARK    5  A    between atoms: O_23  and  C_9 
REMARK    6  A    between atoms: O_25  and  C_11 
ROOT
ATOM      1  N   UNL d   1      -2.417   0.838  -0.330  0.00  0.00    -0.268 N 
ATOM      2  C   UNL d   1      -2.405  -0.465   0.370  0.00  0.00     0.247 C 
ATOM      3  C   UNL d   1      -1.234   1.562  -0.431  0.00  0.00     0.264 C 
ATOM      4  C   UNL d   1       0.005   0.796  -0.232  0.00  0.00     0.067 A 
ATOM      5  O   UNL d   1      -1.273  -1.258  -0.124  0.00  0.00    -0.308 OA
ATOM      6  C   UNL d   1      -0.082  -0.592  -0.172  0.00  0.00     0.088 A 
ATOM      7  O   UNL d   1      -1.175   2.749  -0.737  0.00  0.00    -0.267 OA
ATOM      8  C   UNL d   1       1.248   1.436  -0.239  0.00  0.00     0.043 A 
ATOM      9  C   UNL d   1       1.080  -1.360  -0.181  0.00  0.00     0.039 A 
ATOM     10  C   UNL d   1       2.405   0.665  -0.203  0.00  0.00     0.035 A 
ATOM     11  C   UNL d   1       2.328  -0.729  -0.192  0.00  0.00     0.026 A 
ATOM     12 CL   UNL d   1       3.944   1.433  -0.192  0.00  0.00    -0.084 Cl
ENDROOT
BRANCH   2  13
ATOM     13  C   UNL d   1      -2.219  -0.335   1.901  0.00  0.00     0.184 C 
BRANCH  13  14
ATOM     14  C   UNL d   1      -3.376   0.332   2.591  0.00  0.00     0.263 C 
ATOM     15  O   UNL d   1      -4.404   0.712   2.054  0.00  0.00    -0.265 OA
BRANCH  14  16
ATOM     16  O   UNL d   1      -3.096   0.457   3.919  0.00  0.00    -0.326 OA
ATOM     17  C   UNL d   1      -4.111   1.095   4.701  0.00  0.00     0.213 C 
ENDBRANCH  14  16
ENDBRANCH  13  14
ENDBRANCH   2  13
BRANCH   2  18
ATOM     18  C   UNL d   1      -3.581  -1.465   0.103  0.00  0.00     0.316 C 
ATOM     19  O   UNL d   1      -4.223  -2.035   0.981  0.00  0.00    -0.260 OA
BRANCH  18  20
ATOM     20  O   UNL d   1      -3.724  -1.732  -1.230  0.00  0.00    -0.323 OA
ATOM     21  C   UNL d   1      -4.755  -2.662  -1.567  0.00  0.00     0.213 C 
ENDBRANCH  18  20
ENDBRANCH   2  18
BRANCH   1  22
ATOM     22  C   UNL d   1      -3.384   1.091  -1.345  0.00  0.00     0.080 A 
ATOM     23  C   UNL d   1      -3.039   0.933  -2.699  0.00  0.00     0.146 A 
ATOM     24  C   UNL d   1      -3.964   1.153  -3.712  0.00  0.00     0.086 A 
ATOM     25  F   UNL d   1      -1.815   0.494  -3.036  0.00  0.00    -0.204 F 
ATOM     26  C   UNL d   1      -5.243   1.562  -3.367  0.00  0.00     0.119 A 
ATOM     27  C   UNL d   1      -5.607   1.742  -2.034  0.00  0.00     0.044 A 
ATOM     28  F   UNL d   1      -6.146   1.782  -4.330  0.00  0.00    -0.206 F 
ATOM     29  C   UNL d   1      -4.678   1.501  -1.018  0.00  0.00     0.036 A 
ENDBRANCH   1  22
TORSDOF 6
