REMARK  4 active torsions:
REMARK  status: ('A' for Active; 'I' for Inactive)
REMARK    1  A    between atoms: C_7  and  C_1 
REMARK    2  A    between atoms: N_8  and  C_2 
REMARK    3  A    between atoms: S_9  and  C_7 
REMARK    4  A    between atoms: C_10  and  S_9 
ROOT
ATOM      1  C   UNL d   1       0.574  -1.368   0.215  0.00  0.00     0.143 C 
ATOM      2  C   UNL d   1      -0.800  -1.501   0.021  0.00  0.00     0.159 C 
ATOM      3  N   UNL d   1       0.706  -0.060   0.648  0.00  0.00    -0.290 N 
ATOM      4  N   UNL d   1      -0.443   0.651   0.589  0.00  0.00    -0.300 N 
ATOM      5  HN  UNL d   1      -0.573   1.641   0.797  1.00  0.00     0.187 HD
ATOM      6  C   UNL d   1      -1.369  -0.226   0.198  0.00  0.00     0.057 C 
ATOM      7  C   UNL d   1       1.876   0.663   1.092  0.00  0.00     0.178 C 
ATOM      8  C   UNL d   1      -2.773   0.219   0.011  0.00  0.00     0.072 C 
ENDROOT
BRANCH   1   9
ATOM      9  C   UNL d   1       1.685  -2.285   0.022  0.00  0.00     0.244 C 
ATOM     10  O   UNL d   1       2.792  -2.168   0.531  0.00  0.00    -0.278 OA
BRANCH   9  11
ATOM     11  S   UNL d   1       1.344  -3.640  -1.050  0.00  0.00    -0.044 SA
BRANCH  11  12
ATOM     12  C   UNL d   1       2.435  -3.527  -2.452  0.00  0.00     0.030 A 
ATOM     13  C   UNL d   1       3.057  -2.393  -3.003  0.00  0.00     0.052 A 
ATOM     14  C   UNL d   1       3.873  -2.508  -4.139  0.00  0.00     0.049 A 
ATOM     15 CL   UNL d   1       2.824  -0.786  -2.413  0.00  0.00    -0.083 Cl
ATOM     16  C   UNL d   1       4.040  -3.739  -4.765  0.00  0.00     0.035 A 
ATOM     17  C   UNL d   1       3.393  -4.864  -4.274  0.00  0.00     0.025 A 
ATOM     18 CL   UNL d   1       5.035  -3.866  -6.161  0.00  0.00    -0.084 Cl
ATOM     19  C   UNL d   1       2.603  -4.756  -3.126  0.00  0.00     0.022 A 
ENDBRANCH  11  12
ENDBRANCH   9  11
ENDBRANCH   1   9
BRANCH   2  20
ATOM     20  N   UNL d   1      -1.534  -2.682  -0.300  0.00  0.00    -0.111 N 
ATOM     21  O   UNL d   1      -1.466  -3.611   0.513  0.00  0.00    -0.532 OA
ATOM     22  O   UNL d   1      -2.187  -2.664  -1.349  0.00  0.00    -0.532 OA
ENDBRANCH   2  20
TORSDOF 4
