REMARK  5 active torsions:
REMARK  status: ('A' for Active; 'I' for Inactive)
REMARK       I    between atoms: C_3  and  N_1 
REMARK       I    between atoms: C_4  and  N_1 
REMARK    1  A    between atoms: C_2  and  C_6 
REMARK       I    between atoms: N_13  and  C_3 
REMARK    2  A    between atoms: C_6  and  C_4 
REMARK    3  A    between atoms: C_5  and  C_18 
REMARK    4  A    between atoms: C_19  and  N_13 
REMARK    5  A    between atoms: C_18  and  C_19 
ROOT
ATOM      1  N   UNL d   1       0.850   0.232   0.266  0.00  0.00    -0.279 N 
ATOM      2  C   UNL d   1       0.236  -0.518   1.238  0.00  0.00     0.322 C 
ATOM      3  C   UNL d   1       0.267   0.947  -0.764  0.00  0.00     0.230 C 
ATOM      4  O   UNL d   1       0.909  -1.060   2.111  0.00  0.00    -0.247 OA
ATOM      5  O   UNL d   1      -0.950   1.082  -0.897  0.00  0.00    -0.273 OA
ATOM      6  N   UNL d   1      -1.119  -0.623   1.146  0.00  0.00    -0.342 N 
ATOM      7  H   UNL d   1       1.857   0.250   0.370  0.00  0.00     0.173 HD
ATOM      8  H   UNL d   1      -1.577  -0.071   0.422  0.00  0.00     0.164 HD
ENDROOT
BRANCH   6   9
ATOM      9  C   UNL d   1      -1.934  -1.337   2.108  0.00  0.00     0.129 C 
BRANCH   9  10
ATOM     10  C   UNL d   1      -2.241  -0.496   3.349  0.00  0.00     0.063 C 
BRANCH  10  11
ATOM     11  C   UNL d   1      -3.071  -1.254   4.358  0.00  0.00     0.004 A 
ATOM     12  C   UNL d   1      -4.468  -1.210   4.264  0.00  0.00     0.124 A 
ATOM     13  F   UNL d   1      -5.046  -0.504   3.280  0.00  0.00    -0.205 F 
ATOM     14  C   UNL d   1      -5.291  -1.886   5.163  0.00  0.00     0.043 A 
ATOM     15  C   UNL d   1      -4.723  -2.637   6.187  0.00  0.00     0.005 A 
ATOM     16  C   UNL d   1      -3.335  -2.714   6.292  0.00  0.00     0.024 A 
ATOM     17  C   UNL d   1      -2.514  -2.034   5.382  0.00  0.00     0.043 A 
ATOM     18 CL   UNL d   1      -0.807  -2.208   5.573  0.00  0.00    -0.084 Cl
ENDBRANCH  10  11
ENDBRANCH   9  10
ENDBRANCH   6   9
BRANCH   3  19
ATOM     19  C   UNL d   1       1.253   1.560  -1.738  0.00  0.00     0.146 C 
BRANCH  19  20
ATOM     20  C   UNL d   1       1.649   2.970  -1.386  0.00  0.00     0.011 A 
ATOM     21  C   UNL d   1       0.843   4.031  -1.818  0.00  0.00     0.124 A 
ATOM     22  F   UNL d   1      -0.277   3.775  -2.509  0.00  0.00    -0.205 F 
ATOM     23  C   UNL d   1       1.177   5.361  -1.572  0.00  0.00     0.043 A 
ATOM     24  C   UNL d   1       2.343   5.660  -0.875  0.00  0.00     0.005 A 
ATOM     25  C   UNL d   1       3.150   4.622  -0.409  0.00  0.00     0.024 A 
ATOM     26  C   UNL d   1       2.800   3.287  -0.652  0.00  0.00     0.043 A 
ATOM     27 CL   UNL d   1       3.840   2.060  -0.022  0.00  0.00    -0.084 Cl
ENDBRANCH  19  20
ENDBRANCH   3  19
TORSDOF 5
