REMARK  6 active torsions:
REMARK  status: ('A' for Active; 'I' for Inactive)
REMARK    1  A    between atoms: C_7  and  C_2 
REMARK    2  A    between atoms: C_3  and  C_10 
REMARK    3  A    between atoms: S_15  and  C_4 
REMARK    4  A    between atoms: O_23  and  C_10 
REMARK    5  A    between atoms: C_19  and  C_11 
REMARK    6  A    between atoms: C_14  and  S_15 
ROOT
ATOM      1  C   UNL d   1       0.215  -0.170   0.160  0.00  0.00     0.093 A 
ATOM      2  C   UNL d   1      -0.784   0.778  -0.103  0.00  0.00     0.073 A 
ATOM      3  C   UNL d   1       1.549   0.262   0.186  0.00  0.00     0.096 A 
ATOM      4  N   UNL d   1       1.902   1.565   0.026  0.00  0.00    -0.349 N 
ATOM      5  HN  UNL d   1       2.885   1.840   0.035  1.00  0.00     0.166 HD
ATOM      6  C   UNL d   1       0.930   2.493  -0.144  0.00  0.00     0.044 A 
ATOM      7  C   UNL d   1      -0.405   2.121  -0.260  0.00  0.00     0.048 A 
ATOM      8  C   UNL d   1      -0.109  -1.541   0.419  0.00  0.00     0.103 C 
ATOM      9  N   UNL d   1      -0.388  -2.647   0.644  0.00  0.00    -0.191 NA
ENDROOT
BRANCH   2  10
ATOM     10  C   UNL d   1      -2.254   0.460  -0.207  0.00  0.00     0.419 C 
ATOM     11  F   UNL d   1      -2.581  -0.850  -0.106  0.00  0.00    -0.166 F 
ATOM     12  F   UNL d   1      -2.975   1.104   0.752  0.00  0.00    -0.166 F 
ATOM     13  F   UNL d   1      -2.771   0.877  -1.397  0.00  0.00    -0.166 F 
ENDBRANCH   2  10
BRANCH   3  14
ATOM     14  S   UNL d   1       2.878  -0.936   0.349  0.00  0.00    -0.080 SA
BRANCH  14  15
ATOM     15  C   UNL d   1       4.210   0.030   0.876  0.00  0.00     0.091 C 
ATOM     16  C   UNL d   1       4.541   0.204   2.165  0.00  0.00     0.106 C 
BRANCH  16  17
ATOM     17  C   UNL d   1       5.759   0.845   2.547  0.00  0.00     0.110 A 
ATOM     18  O   UNL d   1       5.916   1.461   3.774  0.00  0.00    -0.307 OA
ATOM     19  C   UNL d   1       7.180   1.958   3.848  0.00  0.00     0.086 A 
ATOM     20  C   UNL d   1       7.710   2.678   4.916  0.00  0.00     0.038 A 
ATOM     21  C   UNL d   1       7.888   1.643   2.700  0.00  0.00     0.001 A 
ATOM     22  C   UNL d   1       9.041   3.094   4.790  0.00  0.00     0.003 A 
ATOM     23  C   UNL d   1       9.791   2.784   3.652  0.00  0.00     0.001 A 
ATOM     24  C   UNL d   1       9.229   2.052   2.596  0.00  0.00     0.014 A 
ATOM     25  C   UNL d   1       6.980   0.930   1.881  0.00  0.00     0.054 A 
ENDBRANCH  16  17
BRANCH  16  26
ATOM     26  O   UNL d   1       3.760  -0.247   3.209  0.00  0.00    -0.357 OA
ATOM     27  H   UNL d   1       4.183   0.068   4.030  0.00  0.00     0.217 HD
ENDBRANCH  16  26
ENDBRANCH  14  15
ENDBRANCH   3  14
BRANCH   6  28
ATOM     28  C   UNL d   1       1.354   3.908  -0.140  0.00  0.00    -0.009 A 
ATOM     29  C   UNL d   1       2.613   4.296  -0.628  0.00  0.00     0.013 A 
ATOM     30  C   UNL d   1       3.027   5.633  -0.586  0.00  0.00     0.001 A 
ATOM     31  C   UNL d   1       2.191   6.609  -0.052  0.00  0.00     0.000 A 
ATOM     32  C   UNL d   1       0.940   6.253   0.440  0.00  0.00     0.001 A 
ATOM     33  C   UNL d   1       0.529   4.918   0.397  0.00  0.00     0.013 A 
ENDBRANCH   6  28
TORSDOF 6
