REMARK  3 active torsions:
REMARK  status: ('A' for Active; 'I' for Inactive)
REMARK    1  A    between atoms: C_2  and  C_1 
REMARK       I    between atoms: N_7  and  C_2 
REMARK    2  A    between atoms: C_10  and  C_3 
REMARK    3  A    between atoms: C_9  and  N_7 
ROOT
ATOM      1  C   UNL d   1      -0.172  -0.795   0.285  0.00  0.00     0.093 A 
ATOM      2  C   UNL d   1      -1.153   0.173   0.141  0.00  0.00     0.126 A 
ATOM      3  O   UNL d   1      -0.573   1.407   0.179  0.00  0.00    -0.236 OA
ATOM      4  N   UNL d   1       0.790   1.283   0.273  0.00  0.00    -0.264 N 
ATOM      5  HN  UNL d   1       1.475   2.038   0.311  1.00  0.00     0.194 HD
ATOM      6  C   UNL d   1       1.037  -0.026   0.305  0.00  0.00     0.047 A 
ATOM      7  C   UNL d   1       2.458  -0.458   0.330  0.00  0.00     0.071 C 
ENDROOT
BRANCH   1   8
ATOM      8  C   UNL d   1      -0.430  -2.225   0.341  0.00  0.00     0.261 C 
ATOM      9  N   UNL d   1       0.580  -3.008  -0.184  0.00  0.00    -0.321 N 
ATOM     10  H   UNL d   1       1.363  -2.533  -0.614  0.00  0.00     0.169 HD
ATOM     11  O   UNL d   1      -1.499  -2.655   0.760  0.00  0.00    -0.267 OA
BRANCH   9  12
ATOM     12  C   UNL d   1       0.479  -4.373  -0.555  0.00  0.00     0.056 A 
ATOM     13  C   UNL d   1       1.391  -4.864  -1.509  0.00  0.00     0.060 A 
ATOM     14 CL   UNL d   1       2.696  -3.878  -2.079  0.00  0.00    -0.082 Cl
ATOM     15  C   UNL d   1       1.235  -6.136  -2.060  0.00  0.00     0.026 A 
ATOM     16  C   UNL d   1       0.189  -6.950  -1.632  0.00  0.00     0.002 A 
ATOM     17  C   UNL d   1      -0.669  -6.507  -0.628  0.00  0.00     0.002 A 
ATOM     18  C   UNL d   1      -0.522  -5.226  -0.086  0.00  0.00     0.031 A 
ENDBRANCH   9  12
ENDBRANCH   1   8
BRANCH   2  19
ATOM     19  C   UNL d   1      -2.572   0.222  -0.181  0.00  0.00     0.001 A 
ATOM     20  C   UNL d   1      -3.405   1.154   0.455  0.00  0.00     0.016 A 
ATOM     21  C   UNL d   1      -4.698   1.395  -0.019  0.00  0.00     0.024 A 
ATOM     22  C   UNL d   1      -5.167   0.699  -1.129  0.00  0.00     0.034 A 
ATOM     23  C   UNL d   1      -4.376  -0.276  -1.734  0.00  0.00     0.024 A 
ATOM     24 CL   UNL d   1      -6.710   1.079  -1.787  0.00  0.00    -0.084 Cl
ATOM     25  C   UNL d   1      -3.085  -0.522  -1.254  0.00  0.00     0.016 A 
ENDBRANCH   2  19
TORSDOF 3
