REMARK  4 active torsions:
REMARK  status: ('A' for Active; 'I' for Inactive)
REMARK    1  A    between atoms: C_6  and  C_1 
REMARK    2  A    between atoms: N_11  and  C_5 
REMARK    3  A    between atoms: O_12  and  C_6 
REMARK    4  A    between atoms: C_14  and  O_12 
ROOT
ATOM      1  C   UNL d   1      -1.188   1.158   0.046  0.00  0.00     0.077 A 
ATOM      2  N   UNL d   1      -0.139  -1.001  -0.025  0.00  0.00    -0.336 N 
ATOM      3  HN  UNL d   1      -0.204  -2.019  -0.029  1.00  0.00     0.168 HD
ATOM      4  C   UNL d   1      -1.257  -0.228   0.024  0.00  0.00     0.025 A 
ATOM      5  C   UNL d   1       1.047  -0.388  -0.067  0.00  0.00     0.154 A 
ATOM      6  N   UNL d   1       1.218   0.931  -0.001  0.00  0.00    -0.342 N 
ATOM      7  HN  UNL d   1       2.146   1.354   0.012  1.00  0.00     0.167 HD
ATOM      8  C   UNL d   1       0.093   1.676   0.050  0.00  0.00     0.110 A 
ATOM      9  C   UNL d   1      -2.551  -0.986   0.031  0.00  0.00     0.069 C 
ENDROOT
BRANCH   1  10
ATOM     10  C   UNL d   1      -2.379   2.033  -0.011  0.00  0.00     0.296 C 
ATOM     11  O   UNL d   1      -3.532   1.641  -0.066  0.00  0.00    -0.259 OA
BRANCH  10  12
ATOM     12  O   UNL d   1      -1.982   3.328  -0.101  0.00  0.00    -0.318 OA
BRANCH  12  13
ATOM     13  C   UNL d   1      -2.968   4.260  -0.567  0.00  0.00     0.174 C 
ATOM     14  C   UNL d   1      -2.884   4.315  -2.082  0.00  0.00     0.034 C 
ENDBRANCH  12  13
ENDBRANCH  10  12
ENDBRANCH   1  10
BRANCH   5  15
ATOM     15  N   UNL d   1       2.174  -1.172  -0.161  0.00  0.00    -0.274 NA
ATOM     16  H   UNL d   1       2.974  -0.676   0.204  0.00  0.00     0.127 HD
ATOM     17  H   UNL d   1       1.986  -2.095   0.201  0.00  0.00     0.127 HD
ENDBRANCH   5  15
TORSDOF 4
