REMARK  4 active torsions:
REMARK  status: ('A' for Active; 'I' for Inactive)
REMARK       I    between atoms: N_2  and  C_1 
REMARK    1  A    between atoms: O_3  and  C_1 
REMARK    2  A    between atoms: C_8  and  O_3 
REMARK    3  A    between atoms: C_9  and  N_4 
REMARK    4  A    between atoms: C_12  and  C_9 
ROOT
ATOM      1  C   UNL d   1       0.856   0.013   0.035  0.00  0.00     0.363 C 
ATOM      2  N   UNL d   1       0.387  -0.579  -1.123  0.00  0.00    -0.325 N 
ATOM      3  N   UNL d   1      -0.342  -1.916  -3.652  0.00  0.00     0.095 N 
ATOM      4  O   UNL d   1       1.675  -0.542   0.766  0.00  0.00    -0.238 OA
ATOM      5  C   UNL d   1       0.776  -1.966  -1.383  0.00  0.00     0.158 C 
ATOM      6  C   UNL d   1      -0.721  -0.056  -1.924  0.00  0.00     0.158 C 
ATOM      7  C   UNL d   1      -0.625  -0.478  -3.413  0.00  0.00     0.292 C 
ATOM      8  C   UNL d   1       0.872  -2.269  -2.885  0.00  0.00     0.292 C 
ENDROOT
BRANCH   1   9
ATOM      9  O   UNL d   1       0.351   1.258   0.273  0.00  0.00    -0.294 OA
BRANCH   9  10
ATOM     10  C   UNL d   1       0.853   2.014   1.414  0.00  0.00     0.061 C 
ATOM     11  C   UNL d   1       2.346   2.348   1.245  0.00  0.00     0.046 C 
ATOM     12  C   UNL d   1       0.066   3.338   1.438  0.00  0.00     0.046 C 
ATOM     13  C   UNL d   1       0.575   1.296   2.745  0.00  0.00     0.046 C 
ENDBRANCH   9  10
ENDBRANCH   1   9
BRANCH   3  14
ATOM     14  C   UNL d   1      -1.514  -2.744  -3.305  0.00  0.00     0.311 C 
BRANCH  14  15
ATOM     15  C   UNL d   1      -1.322  -4.234  -3.506  0.00  0.00    -0.030 A 
ATOM     16  C   UNL d   1      -1.405  -5.113  -2.414  0.00  0.00     0.009 A 
ATOM     17  C   UNL d   1      -1.235  -6.488  -2.592  0.00  0.00     0.001 A 
ATOM     18  C   UNL d   1      -0.989  -7.001  -3.863  0.00  0.00     0.000 A 
ATOM     19  C   UNL d   1      -0.916  -6.141  -4.958  0.00  0.00     0.001 A 
ATOM     20  C   UNL d   1      -1.080  -4.764  -4.781  0.00  0.00     0.009 A 
ENDBRANCH  14  15
ENDBRANCH   3  14
TORSDOF 4
