REMARK  3 active torsions:
REMARK  status: ('A' for Active; 'I' for Inactive)
REMARK    1  A    between atoms: C_2  and  C_1 
REMARK    2  A    between atoms: C_4  and  C_2 
REMARK    3  A    between atoms: C_5  and  C_3 
ROOT
ATOM      1  C   UNL d   1       1.424  -0.170   0.156  0.00  0.00     0.029 A 
ATOM      2  C   UNL d   1       0.621  -1.319   0.089  0.00  0.00     0.024 A 
ATOM      3  C   UNL d   1       0.840   1.079  -0.128  0.00  0.00     0.016 A 
ATOM      4  C   UNL d   1      -0.757  -1.201  -0.144  0.00  0.00     0.016 A 
ATOM      5  C   UNL d   1      -0.530   1.188  -0.374  0.00  0.00     0.001 A 
ATOM      6  C   UNL d   1      -1.334   0.051  -0.363  0.00  0.00     0.001 A 
ENDROOT
BRANCH   1   7
ATOM      7  C   UNL d   1       2.866  -0.228   0.515  0.00  0.00     0.193 C 
ATOM      8  O   UNL d   1       3.561  -1.128   0.056  0.00  0.00    -0.287 OA
BRANCH   7   9
ATOM      9  C   UNL d   1       3.520   0.804   1.374  0.00  0.00     0.015 A 
ATOM     10  C   UNL d   1       4.911   0.958   1.266  0.00  0.00     0.017 A 
ATOM     11  C   UNL d   1       5.577   1.939   2.005  0.00  0.00     0.025 A 
ATOM     12  C   UNL d   1       4.854   2.770   2.857  0.00  0.00     0.034 A 
ATOM     13  C   UNL d   1       3.477   2.605   3.000  0.00  0.00     0.025 A 
ATOM     14 CL   UNL d   1       5.663   4.005   3.739  0.00  0.00    -0.084 Cl
ATOM     15  C   UNL d   1       2.811   1.611   2.274  0.00  0.00     0.017 A 
ENDBRANCH   7   9
ENDBRANCH   1   7
BRANCH   2  16
ATOM     16  C   UNL d   1       1.119  -2.697   0.301  0.00  0.00     0.156 C 
ATOM     17  O   UNL d   1       0.676  -3.338   1.250  0.00  0.00    -0.293 OA
ATOM     18  C   UNL d   1       2.022  -3.307  -0.739  0.00  0.00     0.097 C 
ENDBRANCH   2  16
TORSDOF 3
