REMARK  5 active torsions:
REMARK  status: ('A' for Active; 'I' for Inactive)
REMARK    1  A    between atoms: C_6  and  C_1 
REMARK    2  A    between atoms: C_5  and  C_4 
REMARK       I    between atoms: N_14  and  C_6 
REMARK    3  A    between atoms: C_7  and  C_12 
REMARK    4  A    between atoms: C_8  and  C_13 
REMARK    5  A    between atoms: C_15  and  N_14 
ROOT
ATOM      1  C   UNL d   1       2.514   1.577  -0.029  0.00  0.00     0.273 C 
ATOM      2  N   UNL d   1       2.253   2.935   0.011  0.00  0.00    -0.322 N 
ATOM      3  O   UNL d   1       3.628   1.062  -0.057  0.00  0.00    -0.266 OA
ATOM      4  H   UNL d   1       1.281   3.181   0.179  0.00  0.00     0.169 HD
ENDROOT
BRANCH   1   5
ATOM      5  C   UNL d   1       1.308   0.739  -0.029  0.00  0.00     0.108 A 
ATOM      6  N   UNL d   1       0.010   1.258  -0.086  0.00  0.00    -0.345 N 
ATOM      7  C   UNL d   1      -0.879   0.279  -0.079  0.00  0.00     0.086 A 
ATOM      8  HN  UNL d   1      -0.219   2.252  -0.128  1.00  0.00     0.167 HD
ATOM      9  S   UNL d   1      -0.193  -1.310  -0.008  0.00  0.00    -0.081 SA
ATOM     10  C   UNL d   1       1.371  -0.641  -0.007  0.00  0.00     0.087 A 
BRANCH   7  11
ATOM     11  C   UNL d   1      -2.353   0.429  -0.089  0.00  0.00     0.021 A 
ATOM     12  C   UNL d   1      -3.016   1.432   0.650  0.00  0.00     0.068 A 
ATOM     13  C   UNL d   1      -4.428   1.480   0.652  0.00  0.00     0.056 A 
ATOM     14 CL   UNL d   1      -2.128   2.587   1.599  0.00  0.00    -0.082 Cl
ATOM     15 CL   UNL d   1      -5.318   2.665   1.548  0.00  0.00    -0.083 Cl
ATOM     16  C   UNL d   1      -5.176   0.547  -0.071  0.00  0.00     0.026 A 
ATOM     17  C   UNL d   1      -4.533  -0.429  -0.821  0.00  0.00     0.003 A 
ATOM     18  C   UNL d   1      -3.138  -0.478  -0.837  0.00  0.00     0.016 A 
ENDBRANCH   7  11
ENDBRANCH   1   5
BRANCH   2  19
ATOM     19  C   UNL d   1       3.187   3.972  -0.206  0.00  0.00     0.036 A 
ATOM     20  C   UNL d   1       4.484   3.739  -0.672  0.00  0.00     0.045 A 
ATOM     21  C   UNL d   1       5.358   4.796  -0.979  0.00  0.00     0.050 A 
ATOM     22  C   UNL d   1       4.926   6.112  -0.778  0.00  0.00     0.032 A 
ATOM     23  C   UNL d   1       3.633   6.375  -0.299  0.00  0.00     0.050 A 
ATOM     24  C   UNL d   1       2.771   5.295  -0.015  0.00  0.00     0.045 A 
BRANCH  21  25
ATOM     25  C   UNL d   1       6.720   4.484  -1.554  0.00  0.00     0.417 C 
ATOM     26  F   UNL d   1       7.420   5.596  -1.915  0.00  0.00    -0.166 F 
ATOM     27  F   UNL d   1       7.516   3.806  -0.685  0.00  0.00    -0.166 F 
ATOM     28  F   UNL d   1       6.644   3.716  -2.676  0.00  0.00    -0.166 F 
ENDBRANCH  21  25
BRANCH  23  29
ATOM     29  C   UNL d   1       3.158   7.796  -0.107  0.00  0.00     0.417 C 
ATOM     30  F   UNL d   1       4.019   8.726  -0.607  0.00  0.00    -0.166 F 
ATOM     31  F   UNL d   1       1.964   8.030  -0.717  0.00  0.00    -0.166 F 
ATOM     32  F   UNL d   1       2.982   8.115   1.204  0.00  0.00    -0.166 F 
ENDBRANCH  23  29
ENDBRANCH   2  19
TORSDOF 5
