REMARK  7 active torsions:
REMARK  status: ('A' for Active; 'I' for Inactive)
REMARK    1  A    between atoms: N_2  and  C_1 
REMARK    2  A    between atoms: C_3  and  C_1 
REMARK    3  A    between atoms: C_4  and  C_1 
REMARK    4  A    between atoms: N_6  and  C_1 
REMARK       I    between atoms: C_5  and  N_2 
REMARK    5  A    between atoms: C_7  and  C_5 
REMARK    6  A    between atoms: C_16  and  N_6 
REMARK    7  A    between atoms: C_8  and  C_16 
ROOT
ATOM      1  C   UNL d   1       1.074  -0.026   0.031  0.00  0.00     0.426 C 
ENDROOT
BRANCH   1   2
ATOM      2  N   UNL d   1       0.726  -1.320   0.700  0.00  0.00    -0.307 N 
ATOM      3  C   UNL d   1       0.889  -1.557   2.047  0.00  0.00     0.255 C 
ATOM      4  O   UNL d   1       1.440  -0.744   2.768  0.00  0.00    -0.268 OA
ATOM      5  H   UNL d   1       0.315  -2.019   0.096  0.00  0.00     0.166 HD
BRANCH   3   6
ATOM      6  C   UNL d   1       0.392  -2.851   2.581  0.00  0.00     0.047 A 
ATOM      7  C   UNL d   1       0.626  -3.137   3.916  0.00  0.00     0.104 A 
ATOM      8  N   UNL d   1       0.197  -4.268   4.540  0.00  0.00    -0.374 N 
ATOM      9  C   UNL d   1      -0.498  -5.148   3.793  0.00  0.00     0.087 A 
ATOM     10  HN  UNL d   1       0.392  -4.440   5.527  1.00  0.00     0.164 HD
ATOM     11  C   UNL d   1      -0.779  -4.961   2.450  0.00  0.00     0.018 A 
ATOM     12  C   UNL d   1      -0.327  -3.792   1.833  0.00  0.00     0.020 A 
ENDBRANCH   3   6
ENDBRANCH   1   2
BRANCH   1  13
ATOM     13  C   UNL d   1       0.384   1.221   0.704  0.00  0.00     0.452 C 
ATOM     14  F   UNL d   1      -0.722   0.854   1.403  0.00  0.00    -0.166 F 
ATOM     15  F   UNL d   1       1.210   1.848   1.581  0.00  0.00    -0.166 F 
ATOM     16  F   UNL d   1      -0.009   2.167  -0.180  0.00  0.00    -0.166 F 
ENDBRANCH   1  13
BRANCH   1  17
ATOM     17  C   UNL d   1       0.496  -0.049  -1.424  0.00  0.00     0.452 C 
ATOM     18  F   UNL d   1       0.452  -1.348  -1.858  0.00  0.00    -0.166 F 
ATOM     19  F   UNL d   1      -0.770   0.405  -1.532  0.00  0.00    -0.166 F 
ATOM     20  F   UNL d   1       1.265   0.618  -2.311  0.00  0.00    -0.166 F 
ENDBRANCH   1  17
BRANCH   1  21
ATOM     21  N   UNL d   1       2.567   0.070   0.116  0.00  0.00     0.137 N 
ATOM     22  H   UNL d   1       2.807   0.106   1.114  0.00  0.00     0.320 HD
BRANCH  21  23
ATOM     23  C   UNL d   1       3.320  -1.002  -0.522  0.00  0.00     0.338 C 
BRANCH  23  24
ATOM     24  C   UNL d   1       4.780  -0.728  -0.408  0.00  0.00     0.080 A 
ATOM     25  O   UNL d   1       5.524  -1.646   0.276  0.00  0.00    -0.325 OA
ATOM     26  C   UNL d   1       6.808  -1.204   0.268  0.00  0.00     0.142 A 
ATOM     27  C   UNL d   1       6.904  -0.016  -0.417  0.00  0.00     0.027 A 
ATOM     28  C   UNL d   1       5.593   0.295  -0.853  0.00  0.00     0.036 A 
ENDBRANCH  23  24
ENDBRANCH  21  23
ENDBRANCH   1  21
TORSDOF 7
