REMARK  3 active torsions:
REMARK  status: ('A' for Active; 'I' for Inactive)
REMARK    1  A    between atoms: N_7  and  C_1 
REMARK    2  A    between atoms: O_11  and  C_2 
REMARK    3  A    between atoms: C_12  and  N_9 
ROOT
ATOM      1  N   UNL d   1      -0.427  -2.744  -0.161  0.00  0.00    -0.294 N 
ATOM      2  HN  UNL d   1      -1.340  -3.090  -0.457  1.00  0.00     0.187 HD
ATOM      3  N   UNL d   1       0.527  -3.490   0.148  0.00  0.00    -0.300 N 
ATOM      4  HN  UNL d   1       1.431  -3.143   0.468  1.00  0.00     0.187 HD
ENDROOT
BRANCH   1   5
ATOM      5  C   UNL d   1      -0.109  -1.381  -0.057  0.00  0.00     0.124 A 
ATOM      6  C   UNL d   1       0.945  -0.788   0.605  0.00  0.00     0.187 A 
ATOM      7  N   UNL d   1       0.811   0.552   0.358  0.00  0.00    -0.274 N 
ATOM      8  C   UNL d   1       1.703   1.607   0.774  0.00  0.00     0.180 C 
ATOM      9  N   UNL d   1      -0.281   0.866  -0.375  0.00  0.00    -0.299 N 
ATOM     10  C   UNL d   1      -0.849  -0.324  -0.632  0.00  0.00     0.054 A 
ATOM     11  HN  UNL d   1      -0.599   1.791  -0.665  1.00  0.00     0.187 HD
ATOM     12  C   UNL d   1      -2.091  -0.401  -1.433  0.00  0.00     0.072 C 
BRANCH   6  13
ATOM     13  O   UNL d   1       1.937  -1.287   1.339  0.00  0.00    -0.343 OA
ATOM     14  H   UNL d   1       1.791  -2.255   1.346  0.00  0.00     0.219 HD
ENDBRANCH   6  13
ENDBRANCH   1   5
BRANCH   3  15
ATOM     15  C   UNL d   1       0.224  -4.858   0.009  0.00  0.00     0.048 A 
ATOM     16  C   UNL d   1       1.215  -5.701  -0.505  0.00  0.00     0.031 A 
ATOM     17  C   UNL d   1       1.010  -7.081  -0.599  0.00  0.00     0.009 A 
ATOM     18  C   UNL d   1      -0.196  -7.646  -0.172  0.00  0.00    -0.062 A 
ATOM     19  C   UNL d   1      -1.192  -6.810   0.343  0.00  0.00     0.009 A 
ATOM     20  C   UNL d   1      -0.396  -9.131  -0.253  0.00  0.00     0.048 C 
ATOM     21  C   UNL d   1      -0.982  -5.429   0.436  0.00  0.00     0.031 A 
ENDBRANCH   3  15
TORSDOF 3
