REMARK  3 active torsions:
REMARK  status: ('A' for Active; 'I' for Inactive)
REMARK    1  A    between atoms: C_6  and  C_1 
REMARK    2  A    between atoms: C_3  and  C_2 
REMARK    3  A    between atoms: O_12  and  C_6 
ROOT
ATOM      1  C   UNL d   1      -0.142  -1.293  -0.012  0.00  0.00     0.078 A 
ATOM      2  C   UNL d   1       0.691  -0.177  -0.000  0.00  0.00     0.176 A 
ATOM      3  O   UNL d   1      -0.063   0.969   0.009  0.00  0.00    -0.310 OA
ATOM      4  C   UNL d   1      -1.474  -0.757  -0.007  0.00  0.00     0.053 A 
ATOM      5  C   UNL d   1      -1.370   0.611   0.006  0.00  0.00     0.051 A 
ATOM      6  C   UNL d   1      -2.358   1.708   0.020  0.00  0.00     0.076 C 
ENDROOT
BRANCH   1   7
ATOM      7  C   UNL d   1       0.143  -2.725  -0.024  0.00  0.00     0.179 C 
ATOM      8  O   UNL d   1      -0.757  -3.555  -0.032  0.00  0.00    -0.646 OA
BRANCH   7   9
ATOM      9  O   UNL d   1       1.434  -3.127  -0.025  0.00  0.00    -0.773 OA
ATOM     10  H   UNL d   1       2.130  -2.447  -0.023  0.00  0.00     0.167 HD
ENDBRANCH   7   9
ENDBRANCH   1   7
BRANCH   2  11
ATOM     11  C   UNL d   1       2.154   0.053   0.009  0.00  0.00     0.440 C 
ATOM     12  F   UNL d   1       2.837  -1.125  -0.022  0.00  0.00    -0.164 F 
ATOM     13  F   UNL d   1       2.577   0.766  -1.063  0.00  0.00    -0.164 F 
ATOM     14  F   UNL d   1       2.570   0.705   1.122  0.00  0.00    -0.164 F 
ENDBRANCH   2  11
TORSDOF 3
