REMARK  5 active torsions:
REMARK  status: ('A' for Active; 'I' for Inactive)
REMARK    1  A    between atoms: C_7  and  C_1 
REMARK    2  A    between atoms: O_10  and  C_2 
REMARK    3  A    between atoms: C_3  and  C_8 
REMARK    4  A    between atoms: C_4  and  O_10 
REMARK    5  A    between atoms: O_21  and  C_7 
ROOT
ATOM      1  C   UNL d   1       2.776   2.751  -0.537  0.00  0.00     0.229 A 
ATOM      2  N   UNL d   1       3.800   3.465  -0.045  0.00  0.00    -0.318 N 
ATOM      3  HN  UNL d   1       4.309   3.162   0.785  1.00  0.00     0.169 HD
ATOM      4  C   UNL d   1       4.128   4.608  -0.698  0.00  0.00     0.120 A 
ATOM      5  N   UNL d   1       2.077   3.058  -1.641  0.00  0.00    -0.332 N 
ATOM      6  HN  UNL d   1       1.331   2.458  -1.993  1.00  0.00     0.168 HD
ATOM      7  C   UNL d   1       3.435   5.026  -1.822  0.00  0.00     0.051 A 
ATOM      8  C   UNL d   1       2.419   4.205  -2.256  0.00  0.00     0.094 A 
ENDROOT
BRANCH   1   9
ATOM      9  O   UNL d   1       2.473   1.615   0.191  0.00  0.00    -0.278 OA
BRANCH   9  10
ATOM     10  C   UNL d   1       1.351   0.877   0.012  0.00  0.00     0.102 A 
ATOM     11  C   UNL d   1       0.049   1.336  -0.124  0.00  0.00     0.114 A 
ATOM     12  S   UNL d   1      -1.049   0.014  -0.285  0.00  0.00    -0.093 SA
ATOM     13  C   UNL d   1       0.188  -1.142  -0.089  0.00  0.00     0.053 A 
ATOM     14  C   UNL d   1       1.420  -0.550   0.052  0.00  0.00     0.046 A 
BRANCH  11  15
ATOM     15  C   UNL d   1      -0.526   2.667  -0.139  0.00  0.00     0.302 C 
ATOM     16  O   UNL d   1      -1.545   3.005  -0.735  0.00  0.00    -0.259 OA
BRANCH  15  17
ATOM     17  O   UNL d   1       0.196   3.511   0.656  0.00  0.00    -0.322 OA
ATOM     18  C   UNL d   1      -0.289   4.854   0.656  0.00  0.00     0.213 C 
ENDBRANCH  15  17
ENDBRANCH  11  15
ENDBRANCH   9  10
ENDBRANCH   1   9
BRANCH   4  19
ATOM     19  C   UNL d   1       5.276   5.455  -0.176  0.00  0.00     0.432 C 
ATOM     20  F   UNL d   1       5.946   4.912   0.876  0.00  0.00    -0.165 F 
ATOM     21  F   UNL d   1       6.219   5.696  -1.134  0.00  0.00    -0.165 F 
ATOM     22  F   UNL d   1       4.860   6.687   0.241  0.00  0.00    -0.165 F 
ENDBRANCH   4  19
TORSDOF 5
