REMARK  2 active torsions:
REMARK  status: ('A' for Active; 'I' for Inactive)
REMARK    1  A    between atoms: N_7  and  C_2 
REMARK    2  A    between atoms: C_8  and  C_5 
ROOT
ATOM      1  C   UNL d   1      -0.604   1.240  -0.066  0.00  0.00     0.136 A 
ATOM      2  C   UNL d   1      -1.373   0.126  -0.000  0.00  0.00     0.060 A 
ATOM      3  C   UNL d   1      -0.663  -1.142   0.083  0.00  0.00     0.069 A 
ATOM      4  C   UNL d   1       0.889   1.180  -0.043  0.00  0.00     0.312 A 
ATOM      5  C   UNL d   1       0.669  -1.196   0.034  0.00  0.00     0.092 A 
ATOM      6  O   UNL d   1       1.473  -0.056  -0.049  0.00  0.00    -0.273 OA
ATOM      7  O   UNL d   1       1.587   2.192  -0.031  0.00  0.00    -0.258 OA
ATOM      8 CL   UNL d   1      -1.255   2.837  -0.283  0.00  0.00    -0.075 Cl
ENDROOT
BRANCH   5   9
ATOM      9  C   UNL d   1       1.400  -2.464   0.058  0.00  0.00    -0.002 A 
ATOM     10  C   UNL d   1       1.788  -3.071  -1.143  0.00  0.00     0.016 A 
ATOM     11  C   UNL d   1       2.457  -4.296  -1.128  0.00  0.00     0.024 A 
ATOM     12  C   UNL d   1       2.738  -4.916   0.089  0.00  0.00     0.034 A 
ATOM     13  C   UNL d   1       2.363  -4.317   1.290  0.00  0.00     0.024 A 
ATOM     14 CL   UNL d   1       3.553  -6.431   0.108  0.00  0.00    -0.084 Cl
ATOM     15  C   UNL d   1       1.692  -3.092   1.276  0.00  0.00     0.016 A 
ENDBRANCH   5   9
BRANCH   2  16
ATOM     16  N   UNL d   1      -2.780   0.045  -0.005  0.00  0.00    -0.388 N 
ATOM     17  C   UNL d   1      -3.653   1.021   0.653  0.00  0.00     0.149 C 
ATOM     18  C   UNL d   1      -3.527  -1.027  -0.672  0.00  0.00     0.149 C 
ENDBRANCH   2  16
TORSDOF 2
