REMARK  1 active torsions:
REMARK  status: ('A' for Active; 'I' for Inactive)
REMARK    1  A    between atoms: C_9  and  C_1 
ROOT
ATOM      1  C   UNL d   1       0.683   1.154  -0.357  0.00  0.00     0.032 C 
ATOM      2  C   UNL d   1      -1.471  -0.076   0.033  0.00  0.00     0.134 C 
ATOM      3  C   UNL d   1       0.706  -1.332   0.055  0.00  0.00     0.134 C 
ATOM      4  C   UNL d   1      -0.763  -1.358   0.373  0.00  0.00     0.156 C 
ATOM      5  C   UNL d   1       1.447  -0.027   0.259  0.00  0.00     0.088 C 
ATOM      6  C   UNL d   1      -0.717   1.212   0.275  0.00  0.00     0.088 C 
ATOM      7  O   UNL d   1      -2.663  -0.065  -0.269  0.00  0.00    -0.298 OA
ATOM      8  O   UNL d   1       1.317  -2.364  -0.223  0.00  0.00    -0.298 OA
ENDROOT
BRANCH   1   9
ATOM      9  C   UNL d   1       0.646   1.214  -1.883  0.00  0.00    -0.053 A 
ATOM     10  C   UNL d   1       1.288   0.278  -2.709  0.00  0.00     0.007 A 
ATOM     11  C   UNL d   1       1.220   0.377  -4.103  0.00  0.00     0.001 A 
ATOM     12  C   UNL d   1       0.517   1.418  -4.700  0.00  0.00     0.000 A 
ATOM     13  C   UNL d   1      -0.103   2.373  -3.903  0.00  0.00     0.001 A 
ATOM     14  C   UNL d   1      -0.029   2.278  -2.512  0.00  0.00     0.007 A 
ENDBRANCH   1   9
TORSDOF 1
