REMARK  2 active torsions:
REMARK  status: ('A' for Active; 'I' for Inactive)
REMARK    1  A    between atoms: C_5  and  C_1 
REMARK    2  A    between atoms: C_6  and  C_2 
REMARK       I    between atoms: N_9  and  C_5 
ROOT
ATOM      1  C   UNL d   1      -0.034  -1.099   0.012  0.00  0.00     0.092 C 
ATOM      2  C   UNL d   1      -1.342  -0.538  -0.140  0.00  0.00     0.086 C 
ATOM      3  N   UNL d   1      -1.260   0.790  -0.320  0.00  0.00    -0.259 N 
ATOM      4  HN  UNL d   1      -2.023   1.423  -0.562  1.00  0.00     0.195 HD
ATOM      5  O   UNL d   1       0.057   1.129  -0.112  0.00  0.00    -0.241 OA
ATOM      6  C   UNL d   1       0.780   0.008   0.143  0.00  0.00     0.090 C 
ATOM      7  C   UNL d   1       2.192   0.237   0.503  0.00  0.00     0.080 C 
ENDROOT
BRANCH   1   8
ATOM      8  C   UNL d   1       0.328  -2.493   0.165  0.00  0.00     0.258 C 
ATOM      9  N   UNL d   1       1.302  -3.040  -0.690  0.00  0.00    -0.346 N 
ATOM     10  C   UNL d   1       1.764  -4.405  -0.395  0.00  0.00     0.136 C 
ATOM     11  C   UNL d   1       2.107  -2.263  -1.650  0.00  0.00     0.136 C 
ATOM     12  C   UNL d   1       1.991  -5.278  -1.629  0.00  0.00     0.093 C 
ATOM     13  S   UNL d   1       3.243  -4.561  -2.731  0.00  0.00    -0.166 SA
ATOM     14  C   UNL d   1       2.418  -2.965  -2.974  0.00  0.00     0.093 C 
ATOM     15  O   UNL d   1      -0.264  -3.180   0.996  0.00  0.00    -0.267 OA
ENDBRANCH   1   8
BRANCH   2  16
ATOM     16  C   UNL d   1      -2.649  -1.196  -0.104  0.00  0.00     0.037 A 
ATOM     17  C   UNL d   1      -3.604  -0.824   0.869  0.00  0.00     0.048 A 
ATOM     18 CL   UNL d   1      -3.288   0.361   2.097  0.00  0.00    -0.083 Cl
ATOM     19  C   UNL d   1      -4.869  -1.425   0.908  0.00  0.00     0.025 A 
ATOM     20  C   UNL d   1      -5.200  -2.423  -0.002  0.00  0.00     0.003 A 
ATOM     21  C   UNL d   1      -4.267  -2.814  -0.959  0.00  0.00     0.025 A 
ATOM     22  C   UNL d   1      -3.006  -2.201  -1.020  0.00  0.00     0.048 A 
ATOM     23 CL   UNL d   1      -1.958  -2.721  -2.300  0.00  0.00    -0.083 Cl
ENDBRANCH   2  16
TORSDOF 2
