REMARK  5 active torsions:
REMARK  status: ('A' for Active; 'I' for Inactive)
REMARK    1  A    between atoms: C_14  and  C_1 
REMARK    2  A    between atoms: C_2  and  C_3 
REMARK    3  A    between atoms: C_6  and  C_7 
REMARK    4  A    between atoms: C_7  and  O_16 
REMARK    5  A    between atoms: O_16  and  N_8 
ROOT
ATOM      1  N   UNL d   1       0.042   4.645  -0.994  0.00  0.00    -0.268 N 
ATOM      2  HN  UNL d   1      -0.200   5.186  -1.825  1.00  0.00     0.194 HD
ATOM      3  C   UNL d   1       1.212   4.147  -0.756  0.00  0.00     0.130 C 
ENDROOT
BRANCH   1   4
ATOM      4  O   UNL d   1      -0.854   4.339   0.051  0.00  0.00    -0.196 OA
BRANCH   4   5
ATOM      5  C   UNL d   1      -1.740   5.366   0.172  0.00  0.00     0.304 C 
ATOM      6  O   UNL d   1      -1.456   6.558   0.231  0.00  0.00    -0.258 OA
BRANCH   5   7
ATOM      7  C   UNL d   1      -3.149   4.920   0.203  0.00  0.00     0.085 C 
ATOM      8  C   UNL d   1      -3.553   3.669  -0.057  0.00  0.00     0.025 C 
BRANCH   8   9
ATOM      9  C   UNL d   1      -4.932   3.316  -0.171  0.00  0.00     0.011 A 
ATOM     10  C   UNL d   1      -6.025   3.983  -0.729  0.00  0.00    -0.044 A 
ATOM     11  C   UNL d   1      -7.223   3.190  -0.655  0.00  0.00     0.015 A 
ATOM     12  C   UNL d   1      -6.035   5.332  -1.379  0.00  0.00     0.049 C 
ATOM     13  C   UNL d   1      -7.020   1.963  -0.076  0.00  0.00     0.051 A 
ATOM     14  S   UNL d   1      -5.401   1.750   0.397  0.00  0.00    -0.102 SA
ENDBRANCH   8   9
ENDBRANCH   5   7
ENDBRANCH   4   5
ENDBRANCH   1   4
BRANCH   3  15
ATOM     15  C   UNL d   1       2.298   4.193  -1.762  0.00  0.00     0.042 A 
ATOM     16  C   UNL d   1       2.022   4.590  -3.076  0.00  0.00     0.129 A 
ATOM     17  F   UNL d   1       0.798   4.993  -3.449  0.00  0.00    -0.205 F 
ATOM     18  C   UNL d   1       3.003   4.553  -4.067  0.00  0.00     0.043 A 
ATOM     19  C   UNL d   1       4.287   4.121  -3.758  0.00  0.00     0.005 A 
ATOM     20  C   UNL d   1       4.586   3.740  -2.450  0.00  0.00     0.025 A 
ATOM     21  C   UNL d   1       3.599   3.776  -1.453  0.00  0.00     0.048 A 
ATOM     22 CL   UNL d   1       4.079   3.288   0.135  0.00  0.00    -0.083 Cl
ENDBRANCH   3  15
TORSDOF 5
