REMARK  7 active torsions:
REMARK  status: ('A' for Active; 'I' for Inactive)
REMARK    1  A    between atoms: N_2  and  S_1 
REMARK    2  A    between atoms: C_8  and  S_1 
REMARK    3  A    between atoms: C_3  and  C_4 
REMARK    4  A    between atoms: C_15  and  C_5 
REMARK    5  A    between atoms: C_11  and  C_9 
REMARK    6  A    between atoms: O_24  and  C_15 
REMARK    7  A    between atoms: C_28  and  O_24 
ROOT
ATOM      1  N   UNL d   1       0.231   1.071  -1.134  0.00  0.00    -0.176 N 
ATOM      2  C   UNL d   1      -0.283   0.778  -2.408  0.00  0.00     0.089 C 
ATOM      3  N   UNL d   1       0.120   2.412  -0.835  0.00  0.00    -0.295 N 
ATOM      4  HN  UNL d   1       0.249   2.866   0.069  1.00  0.00     0.187 HD
ATOM      5  C   UNL d   1      -0.483   2.033  -2.981  0.00  0.00     0.052 C 
ATOM      6  C   UNL d   1      -0.192   2.979  -1.995  0.00  0.00     0.111 C 
ENDROOT
BRANCH   1   7
ATOM      7  S   UNL d   1       1.284   0.057  -0.181  0.00  0.00     0.283 S 
ATOM      8  O   UNL d   1       2.458   0.879   0.049  0.00  0.00    -0.198 OA
ATOM      9  O   UNL d   1       1.353  -1.221  -0.869  0.00  0.00    -0.198 OA
BRANCH   7  10
ATOM     10  C   UNL d   1       0.534  -0.242   1.414  0.00  0.00     0.096 A 
ATOM     11  C   UNL d   1       1.133  -1.164   2.299  0.00  0.00     0.071 A 
ATOM     12  C   UNL d   1       0.379  -1.614   3.406  0.00  0.00     0.018 A 
ATOM     13  C   UNL d   1      -0.905  -1.134   3.653  0.00  0.00     0.001 A 
ATOM     14  C   UNL d   1      -1.439  -0.151   2.830  0.00  0.00     0.002 A 
ATOM     15  C   UNL d   1      -0.718   0.309   1.724  0.00  0.00     0.026 A 
BRANCH  11  16
ATOM     16  C   UNL d   1       2.541  -1.706   2.186  0.00  0.00     0.419 C 
ATOM     17  F   UNL d   1       3.293  -1.256   1.157  0.00  0.00    -0.166 F 
ATOM     18  F   UNL d   1       3.263  -1.423   3.311  0.00  0.00    -0.166 F 
ATOM     19  F   UNL d   1       2.553  -3.066   2.086  0.00  0.00    -0.166 F 
ENDBRANCH  11  16
ENDBRANCH   7  10
ENDBRANCH   1   7
BRANCH   2  20
ATOM     20  C   UNL d   1      -0.583  -0.479  -3.070  0.00  0.00     0.069 A 
ATOM     21  C   UNL d   1      -1.173  -1.673  -2.645  0.00  0.00     0.128 A 
ATOM     22  N   UNL d   1      -1.463  -2.589  -3.670  0.00  0.00    -0.348 N 
ATOM     23  C   UNL d   1      -1.125  -2.104  -4.837  0.00  0.00     0.048 A 
ATOM     24  HN  UNL d   1      -1.880  -3.509  -3.524  1.00  0.00     0.166 HD
ATOM     25  S   UNL d   1      -0.322  -0.601  -4.791  0.00  0.00    -0.072 SA
ATOM     26  C   UNL d   1      -1.431  -2.789  -6.121  0.00  0.00     0.076 C 
BRANCH  21  27
ATOM     27  C   UNL d   1      -1.541  -2.018  -1.282  0.00  0.00     0.311 C 
ATOM     28  O   UNL d   1      -1.630  -1.197  -0.381  0.00  0.00    -0.258 OA
BRANCH  27  29
ATOM     29  O   UNL d   1      -1.708  -3.365  -1.131  0.00  0.00    -0.317 OA
BRANCH  29  30
ATOM     30  C   UNL d   1      -1.432  -3.911   0.158  0.00  0.00     0.175 C 
ATOM     31  C   UNL d   1      -0.074  -4.591   0.066  0.00  0.00     0.034 C 
ENDBRANCH  29  30
ENDBRANCH  27  29
ENDBRANCH  21  27
ENDBRANCH   2  20
TORSDOF 7
