REMARK  5 active torsions:
REMARK  status: ('A' for Active; 'I' for Inactive)
REMARK    1  A    between atoms: C_6  and  C_1 
REMARK    2  A    between atoms: C_9  and  N_2 
REMARK       I    between atoms: N_8  and  C_6 
REMARK    3  A    between atoms: C_20  and  C_7 
REMARK    4  A    between atoms: C_13  and  N_8 
REMARK    5  A    between atoms: C_25  and  C_20 
ROOT
ATOM      1  C   UNL d   1      -0.305   1.085  -0.045  0.00  0.00     0.073 A 
ATOM      2  N   UNL d   1      -0.561  -1.120   0.191  0.00  0.00    -0.267 N 
ATOM      3  N   UNL d   1       0.731  -0.886   0.493  0.00  0.00    -0.297 N 
ATOM      4  HN  UNL d   1       1.420  -1.560   0.826  1.00  0.00     0.187 HD
ATOM      5  C   UNL d   1      -1.228   0.052  -0.093  0.00  0.00     0.135 A 
ATOM      6  C   UNL d   1       0.918   0.419   0.263  0.00  0.00     0.043 A 
ENDROOT
BRANCH   1   7
ATOM      7  C   UNL d   1      -0.515   2.515  -0.291  0.00  0.00     0.259 C 
ATOM      8  N   UNL d   1      -1.829   2.881  -0.539  0.00  0.00    -0.323 N 
ATOM      9  H   UNL d   1      -2.529   2.158  -0.471  0.00  0.00     0.169 HD
ATOM     10  O   UNL d   1       0.433   3.293  -0.276  0.00  0.00    -0.267 OA
BRANCH   8  11
ATOM     11  C   UNL d   1      -2.297   4.150  -0.951  0.00  0.00     0.035 A 
ATOM     12  C   UNL d   1      -1.476   5.269  -1.121  0.00  0.00     0.031 A 
ATOM     13  C   UNL d   1      -1.994   6.468  -1.622  0.00  0.00     0.026 A 
ATOM     14  C   UNL d   1      -3.343   6.559  -1.948  0.00  0.00     0.034 A 
ATOM     15  C   UNL d   1      -4.184   5.468  -1.749  0.00  0.00     0.026 A 
ATOM     16 CL   UNL d   1      -3.968   8.017  -2.611  0.00  0.00    -0.084 Cl
ATOM     17  C   UNL d   1      -3.663   4.269  -1.246  0.00  0.00     0.031 A 
ENDBRANCH   8  11
ENDBRANCH   1   7
BRANCH   6  18
ATOM     18  C   UNL d   1       2.313   0.964   0.353  0.00  0.00     0.059 C 
BRANCH  18  19
ATOM     19  C   UNL d   1       3.309   0.250  -0.571  0.00  0.00     0.002 C 
ATOM     20  C   UNL d   1       2.962   0.386  -2.048  0.00  0.00     0.005 C 
ENDBRANCH  18  19
ENDBRANCH   6  18
BRANCH   2  21
ATOM     21  C   UNL d   1      -1.070  -2.450   0.179  0.00  0.00     0.056 A 
ATOM     22  C   UNL d   1      -2.340  -2.737  -0.337  0.00  0.00     0.033 A 
ATOM     23  C   UNL d   1      -2.804  -4.058  -0.355  0.00  0.00     0.026 A 
ATOM     24  C   UNL d   1      -2.008  -5.085   0.150  0.00  0.00     0.034 A 
ATOM     25  C   UNL d   1      -0.744  -4.810   0.662  0.00  0.00     0.026 A 
ATOM     26 CL   UNL d   1      -2.592  -6.703   0.132  0.00  0.00    -0.084 Cl
ATOM     27  C   UNL d   1      -0.270  -3.496   0.670  0.00  0.00     0.033 A 
ENDBRANCH   2  21
TORSDOF 5
