REMARK  5 active torsions:
REMARK  status: ('A' for Active; 'I' for Inactive)
REMARK    1  A    between atoms: N_2  and  C_1 
REMARK    2  A    between atoms: C_4  and  C_1 
REMARK    3  A    between atoms: C_3  and  C_6 
REMARK    4  A    between atoms: O_12  and  C_3 
REMARK    5  A    between atoms: C_15  and  O_12 
ROOT
ATOM      1  C   UNL d   1       0.205  -0.554  -1.211  0.00  0.00     0.002 A 
ATOM      2  C   UNL d   1      -1.224  -1.193  -3.546  0.00  0.00     0.039 A 
ATOM      3  C   UNL d   1       0.484  -1.735  -1.910  0.00  0.00     0.015 A 
ATOM      4  C   UNL d   1      -0.839   0.274  -1.649  0.00  0.00     0.015 A 
ATOM      5  C   UNL d   1      -0.207  -2.037  -3.088  0.00  0.00     0.018 A 
ATOM      6  C   UNL d   1      -1.556  -0.053  -2.805  0.00  0.00     0.018 A 
ENDROOT
BRANCH   1   7
ATOM      7  C   UNL d   1       1.003  -0.190   0.002  0.00  0.00     0.109 C 
ATOM      8  S   UNL d   1       0.194   0.082   1.463  0.00  0.00    -0.060 SA
BRANCH   7   9
ATOM      9  N   UNL d   1       2.393  -0.081  -0.143  0.00  0.00    -0.371 N 
ATOM     10  C   UNL d   1       3.310   0.301   0.935  0.00  0.00     0.124 C 
ATOM     11  C   UNL d   1       4.478   0.953   0.215  0.00  0.00     0.021 C 
ATOM     12  C   UNL d   1       4.590   0.133  -1.057  0.00  0.00     0.021 C 
ATOM     13  C   UNL d   1       3.143  -0.208  -1.397  0.00  0.00     0.124 C 
ENDBRANCH   7   9
ENDBRANCH   1   7
BRANCH   2  14
ATOM     14  C   UNL d   1      -1.853  -1.492  -4.861  0.00  0.00     0.293 C 
ATOM     15  O   UNL d   1      -1.447  -2.358  -5.615  0.00  0.00    -0.259 OA
BRANCH  14  16
ATOM     16  O   UNL d   1      -2.835  -0.594  -5.115  0.00  0.00    -0.318 OA
BRANCH  16  17
ATOM     17  C   UNL d   1      -3.231  -0.480  -6.487  0.00  0.00     0.174 C 
ATOM     18  C   UNL d   1      -2.338   0.557  -7.145  0.00  0.00     0.034 C 
ENDBRANCH  16  17
ENDBRANCH  14  16
ENDBRANCH   2  14
TORSDOF 5
