REMARK  2 active torsions:
REMARK  status: ('A' for Active; 'I' for Inactive)
REMARK    1  A    between atoms: C_8  and  C_1 
REMARK    2  A    between atoms: C_15  and  C_10 
ROOT
ATOM      1  C   UNL d   1      -0.965  -7.494   0.193  0.00  0.00     0.125 C 
ATOM      2  N   UNL d   1      -1.000  -7.561  -2.389  0.00  0.00    -0.191 NA
ATOM      3  N   UNL d   1      -1.030  -9.739   1.470  0.00  0.00    -0.191 NA
ATOM      4  C   UNL d   1      -0.898  -6.356   0.912  0.00  0.00     0.052 C 
ATOM      5  C   UNL d   1      -0.981  -7.535  -1.229  0.00  0.00     0.111 C 
ATOM      6  C   UNL d   1      -0.995  -8.739   0.886  0.00  0.00     0.111 C 
ENDROOT
BRANCH   4   7
ATOM      7  C   UNL d   1      -0.880  -5.036   0.367  0.00  0.00     0.007 A 
ATOM      8  S   UNL d   1      -0.018  -3.812   1.216  0.00  0.00    -0.088 SA
ATOM      9  C   UNL d   1      -0.338  -2.612   0.039  0.00  0.00     0.034 A 
ATOM     10  C   UNL d   1       0.146  -1.257   0.129  0.00  0.00     0.069 A 
ATOM     11  C   UNL d   1      -1.170  -3.114  -0.942  0.00  0.00     0.023 A 
ATOM     12  C   UNL d   1      -0.457  -0.105  -0.346  0.00  0.00     0.068 A 
ATOM     13  N   UNL d   1       1.326  -0.823   0.693  0.00  0.00    -0.295 N 
ATOM     14  C   UNL d   1       0.396   0.972   0.007  0.00  0.00     0.134 A 
ATOM     15  N   UNL d   1       1.491   0.514   0.639  0.00  0.00    -0.294 N 
ATOM     16  HN  UNL d   1       2.275   1.059   0.998  1.00  0.00     0.187 HD
ATOM     17  C   UNL d   1       2.388  -1.604   1.285  0.00  0.00     0.178 C 
ATOM     18  C   UNL d   1      -1.488  -4.492  -0.749  0.00  0.00     0.020 A 
BRANCH  14  19
ATOM     19  C   UNL d   1       0.146   2.434  -0.255  0.00  0.00     0.434 C 
ATOM     20  F   UNL d   1       1.134   3.251   0.197  0.00  0.00    -0.165 F 
ATOM     21  F   UNL d   1       0.007   2.688  -1.585  0.00  0.00    -0.165 F 
ATOM     22  F   UNL d   1      -1.007   2.854   0.335  0.00  0.00    -0.165 F 
ENDBRANCH  14  19
ENDBRANCH   4   7
TORSDOF 2
