REMARK  6 active torsions:
REMARK  status: ('A' for Active; 'I' for Inactive)
REMARK    1  A    between atoms: C_8  and  C_1 
REMARK    2  A    between atoms: N_7  and  C_2 
REMARK    3  A    between atoms: S_10  and  C_8 
REMARK    4  A    between atoms: C_9  and  O_14 
REMARK    5  A    between atoms: C_15  and  S_10 
REMARK    6  A    between atoms: O_14  and  C_20 
ROOT
ATOM      1  C   UNL d   1       1.635  -2.328  -0.282  0.00  0.00     0.244 C 
ATOM      2  O   UNL d   1       1.333  -3.501  -0.475  0.00  0.00    -0.278 OA
ENDROOT
BRANCH   1   3
ATOM      3  C   UNL d   1       0.679  -1.274   0.016  0.00  0.00     0.143 C 
ATOM      4  C   UNL d   1       0.732   0.114  -0.144  0.00  0.00     0.159 C 
ATOM      5  C   UNL d   1      -0.418   0.643   0.482  0.00  0.00     0.057 C 
ATOM      6  C   UNL d   1      -0.837   2.055   0.671  0.00  0.00     0.072 C 
ATOM      7  N   UNL d   1      -1.201  -0.341   0.932  0.00  0.00    -0.300 N 
ATOM      8  N   UNL d   1      -0.576  -1.477   0.557  0.00  0.00    -0.290 N 
ATOM      9  HN  UNL d   1      -2.078  -0.253   1.445  1.00  0.00     0.187 HD
ATOM     10  C   UNL d   1      -1.278  -2.715   0.814  0.00  0.00     0.178 C 
BRANCH   4  11
ATOM     11  N   UNL d   1       1.728   0.874  -0.825  0.00  0.00    -0.111 N 
ATOM     12  O   UNL d   1       1.985   0.530  -1.985  0.00  0.00    -0.532 OA
ATOM     13  O   UNL d   1       2.227   1.823  -0.210  0.00  0.00    -0.532 OA
ENDBRANCH   4  11
ENDBRANCH   1   3
BRANCH   1  14
ATOM     14  S   UNL d   1       3.316  -1.810  -0.194  0.00  0.00    -0.046 SA
BRANCH  14  15
ATOM     15  C   UNL d   1       4.309  -3.266  -0.429  0.00  0.00     0.008 A 
ATOM     16  C   UNL d   1       5.243  -3.284  -1.473  0.00  0.00     0.021 A 
ATOM     17  C   UNL d   1       6.216  -4.287  -1.550  0.00  0.00     0.038 A 
ATOM     18  C   UNL d   1       6.290  -5.261  -0.557  0.00  0.00     0.078 A 
ATOM     19  C   UNL d   1       5.311  -5.297   0.439  0.00  0.00     0.038 A 
ATOM     20  C   UNL d   1       4.330  -4.300   0.509  0.00  0.00     0.021 A 
BRANCH  18  21
ATOM     21  O   UNL d   1       7.224  -6.250  -0.524  0.00  0.00    -0.255 OA
BRANCH  21  22
ATOM     22  C   UNL d   1       8.588  -5.872  -0.704  0.00  0.00     0.530 C 
ATOM     23  F   UNL d   1       8.773  -4.567  -0.999  0.00  0.00    -0.144 F 
ATOM     24  F   UNL d   1       9.273  -6.145   0.429  0.00  0.00    -0.144 F 
ATOM     25  F   UNL d   1       9.118  -6.612  -1.703  0.00  0.00    -0.144 F 
ENDBRANCH  21  22
ENDBRANCH  18  21
ENDBRANCH  14  15
ENDBRANCH   1  14
TORSDOF 6
