REMARK  5 active torsions:
REMARK  status: ('A' for Active; 'I' for Inactive)
REMARK    1  A    between atoms: C_6  and  C_1 
REMARK    2  A    between atoms: S_15  and  C_3 
REMARK    3  A    between atoms: C_7  and  C_6 
REMARK    4  A    between atoms: N_13  and  N_8 
REMARK    5  A    between atoms: C_17  and  N_13 
ROOT
ATOM      1  C   UNL d   1      -0.159  -4.656   0.730  0.00  0.00     0.180 C 
ATOM      2  N   UNL d   1       0.602  -4.694   1.791  0.00  0.00    -0.287 N 
ATOM      3  HN  UNL d   1       0.870  -3.826   2.255  1.00  0.00     0.188 HD
ATOM      4  C   UNL d   1      -0.548  -5.915   0.124  0.00  0.00     0.123 C 
ATOM      5  N   UNL d   1      -0.800  -6.960  -0.313  0.00  0.00    -0.190 NA
ENDROOT
BRANCH   1   6
ATOM      6  C   UNL d   1      -0.679  -3.347   0.185  0.00  0.00     0.228 C 
ATOM      7  O   UNL d   1      -1.848  -3.343  -0.194  0.00  0.00    -0.284 OA
BRANCH   6   8
ATOM      8  C   UNL d   1       0.193  -2.176   0.149  0.00  0.00     0.066 A 
ATOM      9  S   UNL d   1       1.897  -2.353   0.085  0.00  0.00    -0.078 SA
ATOM     10  C   UNL d   1       2.175  -0.667   0.025  0.00  0.00     0.052 A 
ATOM     11  C   UNL d   1       0.983   0.028   0.034  0.00  0.00    -0.005 A 
ATOM     12  C   UNL d   1      -0.171  -0.832   0.078  0.00  0.00    -0.025 A 
ATOM     13  C   UNL d   1       0.835   1.447  -0.032  0.00  0.00     0.010 A 
ATOM     14  C   UNL d   1      -1.575  -0.274   0.028  0.00  0.00     0.045 A 
ATOM     15  C   UNL d   1      -1.665   1.270   0.052  0.00  0.00     0.032 A 
ATOM     16  C   UNL d   1      -0.371   2.034  -0.018  0.00  0.00    -0.025 A 
BRANCH  10  17
ATOM     17  S   UNL d   1       3.821  -0.059  -0.134  0.00  0.00    -0.126 SA
ATOM     18  C   UNL d   1       4.062   0.789   1.442  0.00  0.00     0.096 C 
ENDBRANCH  10  17
ENDBRANCH   6   8
ENDBRANCH   1   6
BRANCH   2  19
ATOM     19  N   UNL d   1       1.042  -5.892   2.285  0.00  0.00    -0.300 N 
ATOM     20  H   UNL d   1       1.042  -6.750   1.729  0.00  0.00     0.187 HD
BRANCH  19  21
ATOM     21  C   UNL d   1       1.988  -5.904   3.332  0.00  0.00     0.048 A 
ATOM     22  C   UNL d   1       2.399  -4.738   3.992  0.00  0.00     0.032 A 
ATOM     23  C   UNL d   1       3.284  -4.795   5.074  0.00  0.00     0.026 A 
ATOM     24  C   UNL d   1       3.753  -6.027   5.521  0.00  0.00     0.034 A 
ATOM     25  C   UNL d   1       3.344  -7.201   4.896  0.00  0.00     0.026 A 
ATOM     26 CL   UNL d   1       4.831  -6.101   6.859  0.00  0.00    -0.084 Cl
ATOM     27  C   UNL d   1       2.460  -7.137   3.812  0.00  0.00     0.032 A 
ENDBRANCH  19  21
ENDBRANCH   2  19
TORSDOF 5
