REMARK  4 active torsions:
REMARK  status: ('A' for Active; 'I' for Inactive)
REMARK    1  A    between atoms: N_8  and  C_1 
REMARK    2  A    between atoms: N_10  and  C_1 
REMARK    3  A    between atoms: C_2  and  N_10 
REMARK    4  A    between atoms: C_3  and  N_8 
ROOT
ATOM      1  C   UNL d   1       0.913  -0.059   0.019  0.00  0.00     0.052 C 
ENDROOT
BRANCH   1   2
ATOM      2  N   UNL d   1      -0.242  -0.252  -0.074  0.00  0.00    -0.307 N 
ATOM      3  HN  UNL d   1      -0.740  -0.885   0.552  1.00  0.00     0.177 HD
BRANCH   2   4
ATOM      4  C   UNL d   1      -0.899   0.457  -1.120  0.00  0.00     0.052 A 
ATOM      5  C   UNL d   1      -0.422   0.565  -2.454  0.00  0.00    -0.034 A 
ATOM      6  C   UNL d   1      -1.190   1.243  -3.425  0.00  0.00     0.015 A 
ATOM      7  C   UNL d   1       0.908   0.039  -2.932  0.00  0.00     0.050 C 
ATOM      8  C   UNL d   1      -2.446   1.772  -3.131  0.00  0.00    -0.061 A 
ATOM      9  C   UNL d   1      -2.918   1.674  -1.826  0.00  0.00     0.015 A 
ATOM     10  C   UNL d   1      -3.260   2.412  -4.215  0.00  0.00     0.048 C 
ATOM     11  C   UNL d   1      -2.162   1.033  -0.822  0.00  0.00    -0.034 A 
ATOM     12  C   UNL d   1      -2.771   1.006   0.558  0.00  0.00     0.050 C 
ENDBRANCH   2   4
ENDBRANCH   1   2
BRANCH   1  13
ATOM     13  N   UNL d   1       2.078   0.069  -0.019  0.00  0.00    -0.307 N 
ATOM     14  HN  UNL d   1       2.626  -0.408  -0.735  1.00  0.00     0.177 HD
BRANCH  13  15
ATOM     15  C   UNL d   1       2.713   0.889   0.934  0.00  0.00     0.052 A 
ATOM     16  C   UNL d   1       3.962   0.436   1.444  0.00  0.00    -0.034 A 
ATOM     17  C   UNL d   1       4.771   1.281   2.232  0.00  0.00     0.015 A 
ATOM     18  C   UNL d   1       4.526  -0.931   1.137  0.00  0.00     0.050 C 
ATOM     19  C   UNL d   1       4.368   2.580   2.537  0.00  0.00    -0.061 A 
ATOM     20  C   UNL d   1       3.131   3.017   2.070  0.00  0.00     0.015 A 
ATOM     21  C   UNL d   1       5.250   3.488   3.331  0.00  0.00     0.048 C 
ATOM     22  C   UNL d   1       2.293   2.199   1.288  0.00  0.00    -0.034 A 
ATOM     23  C   UNL d   1       1.029   2.870   0.812  0.00  0.00     0.050 C 
ENDBRANCH  13  15
ENDBRANCH   1  13
TORSDOF 4
