REMARK  10 active torsions:
REMARK  status: ('A' for Active; 'I' for Inactive)
REMARK    1  A    between atoms: O_6  and  C_1 
REMARK    2  A    between atoms: C_5  and  C_8 
REMARK    3  A    between atoms: O_16  and  C_5 
REMARK    4  A    between atoms: C_13  and  O_6 
REMARK    5  A    between atoms: C_8  and  O_9 
REMARK    6  A    between atoms: O_9  and  C_14 
REMARK    7  A    between atoms: C_24  and  O_16 
REMARK    8  A    between atoms: O_22  and  C_25 
REMARK    9  A    between atoms: C_26  and  O_22 
REMARK   10  A    between atoms: C_25  and  C_24 
ROOT
ATOM      1  C   UNL d   1      -3.834   1.974   0.573  0.00  0.00     0.078 A 
ATOM      2  C   UNL d   1      -6.090   0.323   0.624  0.00  0.00     0.070 A 
ATOM      3  C   UNL d   1      -4.948  -0.037   1.336  0.00  0.00     0.039 A 
ATOM      4  C   UNL d   1      -3.833   0.801   1.333  0.00  0.00     0.040 A 
ATOM      5  C   UNL d   1      -4.990   2.362  -0.101  0.00  0.00     0.040 A 
ATOM      6  C   UNL d   1      -6.111   1.529  -0.083  0.00  0.00     0.039 A 
ENDROOT
BRANCH   2   7
ATOM      7  O   UNL d   1      -7.225  -0.433   0.528  0.00  0.00    -0.336 OA
BRANCH   7   8
ATOM      8  C   UNL d   1      -7.499  -1.327   1.605  0.00  0.00     0.224 C 
ATOM      9  C   UNL d   1      -8.761  -2.100   1.225  0.00  0.00     0.051 C 
BRANCH   8  10
ATOM     10  C   UNL d   1      -7.804  -0.653   2.948  0.00  0.00     0.288 C 
ATOM     11  O   UNL d   1      -7.699  -1.208   4.037  0.00  0.00    -0.262 OA
BRANCH  10  12
ATOM     12  O   UNL d   1      -8.366   0.567   2.742  0.00  0.00    -0.317 OA
BRANCH  12  13
ATOM     13  C   UNL d   1      -9.337   0.969   3.704  0.00  0.00     0.205 C 
BRANCH  13  14
ATOM     14  C   UNL d   1      -8.833   2.060   4.635  0.00  0.00     0.194 C 
BRANCH  14  15
ATOM     15  O   UNL d   1      -9.960   2.515   5.380  0.00  0.00    -0.389 OA
BRANCH  15  16
ATOM     16  C   UNL d   1      -9.646   3.578   6.269  0.00  0.00     0.163 C 
ATOM     17  C   UNL d   1     -10.935   3.991   6.953  0.00  0.00     0.033 C 
ENDBRANCH  15  16
ENDBRANCH  14  15
ENDBRANCH  13  14
ENDBRANCH  12  13
ENDBRANCH  10  12
ENDBRANCH   8  10
ENDBRANCH   7   8
ENDBRANCH   2   7
BRANCH   1  18
ATOM     18  O   UNL d   1      -2.736   2.800   0.479  0.00  0.00    -0.292 OA
BRANCH  18  19
ATOM     19  C   UNL d   1      -1.500   2.186   0.300  0.00  0.00     0.170 A 
ATOM     20  N   UNL d   1      -1.460   0.971  -0.312  0.00  0.00    -0.344 N 
ATOM     21  C   UNL d   1      -0.257   0.360  -0.391  0.00  0.00     0.114 A 
ATOM     22  HN  UNL d   1      -2.301   0.540  -0.694  1.00  0.00     0.167 HD
ATOM     23  C   UNL d   1       0.917   0.921   0.085  0.00  0.00     0.051 A 
ATOM     24  C   UNL d   1       0.867   2.187   0.659  0.00  0.00     0.053 A 
ATOM     25 CL   UNL d   1       2.399   0.063  -0.017  0.00  0.00    -0.083 Cl
ATOM     26  C   UNL d   1      -0.362   2.838   0.768  0.00  0.00     0.087 A 
ATOM     27 CL   UNL d   1      -0.424   4.395   1.502  0.00  0.00    -0.080 Cl
ENDBRANCH  18  19
ENDBRANCH   1  18
TORSDOF 10
