REMARK  4 active torsions:
REMARK  status: ('A' for Active; 'I' for Inactive)
REMARK    1  A    between atoms: C_7  and  C_1 
REMARK    2  A    between atoms: C_10  and  C_4 
REMARK    3  A    between atoms: C_8  and  C_7 
REMARK    4  A    between atoms: N_12  and  C_9 
ROOT
ATOM      1  C   UNL d   1      -0.057  -1.233  -0.033  0.00  0.00     0.075 A 
ATOM      2  N   UNL d   1      -1.204   0.734  -0.011  0.00  0.00    -0.259 N 
ATOM      3  HN  UNL d   1      -1.956   1.424  -0.005  1.00  0.00     0.195 HD
ATOM      4  C   UNL d   1      -1.343  -0.601   0.084  0.00  0.00     0.081 A 
ATOM      5  O   UNL d   1       0.134   0.994  -0.119  0.00  0.00    -0.241 OA
ATOM      6  C   UNL d   1       0.826  -0.168  -0.101  0.00  0.00     0.089 A 
ATOM      7  C   UNL d   1       2.297  -0.017  -0.099  0.00  0.00     0.080 C 
ENDROOT
BRANCH   1   8
ATOM      8  C   UNL d   1       0.301  -2.639   0.025  0.00  0.00     0.188 C 
ATOM      9  O   UNL d   1      -0.294  -3.467   0.702  0.00  0.00    -0.287 OA
BRANCH   8  10
ATOM     10  C   UNL d   1       1.454  -3.006  -0.846  0.00  0.00     0.072 C 
ATOM     11  C   UNL d   1       2.198  -4.088  -0.578  0.00  0.00     0.088 C 
BRANCH  11  12
ATOM     12  N   UNL d   1       3.319  -4.577  -1.241  0.00  0.00    -0.398 N 
ATOM     13  C   UNL d   1       4.032  -3.846  -2.290  0.00  0.00     0.148 C 
ATOM     14  C   UNL d   1       4.097  -5.683  -0.669  0.00  0.00     0.148 C 
ENDBRANCH  11  12
ENDBRANCH   8  10
ENDBRANCH   1   8
BRANCH   4  15
ATOM     15  C   UNL d   1      -2.691  -1.154   0.274  0.00  0.00    -0.006 A 
ATOM     16  C   UNL d   1      -3.081  -2.395  -0.244  0.00  0.00     0.014 A 
ATOM     17  C   UNL d   1      -4.388  -2.864  -0.063  0.00  0.00     0.001 A 
ATOM     18  C   UNL d   1      -5.326  -2.099   0.629  0.00  0.00     0.000 A 
ATOM     19  C   UNL d   1      -4.958  -0.862   1.146  0.00  0.00     0.001 A 
ATOM     20  C   UNL d   1      -3.654  -0.396   0.970  0.00  0.00     0.014 A 
ENDBRANCH   4  15
TORSDOF 4
