REMARK  5 active torsions:
REMARK  status: ('A' for Active; 'I' for Inactive)
REMARK    1  A    between atoms: C_2  and  C_1 
REMARK       I    between atoms: N_6  and  C_1 
REMARK    2  A    between atoms: O_10  and  C_3 
REMARK    3  A    between atoms: O_11  and  C_4 
REMARK    4  A    between atoms: O_12  and  C_5 
REMARK    5  A    between atoms: C_13  and  N_6 
ROOT
ATOM      1  C   UNL d   1       0.481  -0.836  -1.019  0.00  0.00     0.037 A 
ATOM      2  C   UNL d   1      -0.755  -3.009  -2.351  0.00  0.00     0.135 A 
ATOM      3  C   UNL d   1       0.288  -3.243  -1.430  0.00  0.00     0.105 A 
ATOM      4  C   UNL d   1      -1.192  -1.679  -2.558  0.00  0.00     0.105 A 
ATOM      5  C   UNL d   1       0.880  -2.156  -0.764  0.00  0.00     0.057 A 
ATOM      6  C   UNL d   1      -0.559  -0.606  -1.917  0.00  0.00     0.057 A 
ENDROOT
BRANCH   1   7
ATOM      7  C   UNL d   1       1.106   0.325  -0.311  0.00  0.00     0.252 C 
ATOM      8  N   UNL d   1       2.349   0.092   0.246  0.00  0.00    -0.352 N 
ATOM      9  H   UNL d   1       2.882  -0.667  -0.154  0.00  0.00     0.163 HD
ATOM     10  O   UNL d   1       0.523   1.402  -0.251  0.00  0.00    -0.268 OA
BRANCH   8  11
ATOM     11  C   UNL d   1       3.119   1.088   0.990  0.00  0.00     0.084 C 
ATOM     12  C   UNL d   1       4.469   0.478   1.409  0.00  0.00     0.025 C 
ATOM     13  C   UNL d   1       4.310  -0.616   2.470  0.00  0.00     0.002 C 
ATOM     14  C   UNL d   1       3.519  -0.133   3.683  0.00  0.00     0.000 C 
ATOM     15  C   UNL d   1       2.195   0.514   3.289  0.00  0.00     0.002 C 
ATOM     16  C   UNL d   1       2.394   1.608   2.242  0.00  0.00     0.025 C 
ENDBRANCH   8  11
ENDBRANCH   1   7
BRANCH   3  17
ATOM     17  O   UNL d   1       0.685  -4.536  -1.212  0.00  0.00    -0.353 OA
ATOM     18  C   UNL d   1       1.789  -4.785  -0.352  0.00  0.00     0.210 C 
ENDBRANCH   3  17
BRANCH   4  19
ATOM     19  O   UNL d   1      -2.199  -1.299  -3.414  0.00  0.00    -0.353 OA
ATOM     20  C   UNL d   1      -3.382  -2.091  -3.340  0.00  0.00     0.210 C 
ENDBRANCH   4  19
BRANCH   2  21
ATOM     21  O   UNL d   1      -1.386  -3.948  -3.127  0.00  0.00    -0.351 OA
ATOM     22  C   UNL d   1      -1.174  -5.331  -2.898  0.00  0.00     0.210 C 
ENDBRANCH   2  21
TORSDOF 5
