REMARK  8 active torsions:
REMARK  status: ('A' for Active; 'I' for Inactive)
REMARK    1  A    between atoms: N_2  and  C_1 
REMARK    2  A    between atoms: C_4  and  C_1 
REMARK       I    between atoms: C_3  and  N_2 
REMARK    3  A    between atoms: C_12  and  C_3 
REMARK    4  A    between atoms: O_17  and  C_4 
REMARK    5  A    between atoms: N_9  and  C_5 
REMARK    6  A    between atoms: S_10  and  C_8 
REMARK    7  A    between atoms: C_15  and  N_9 
REMARK    8  A    between atoms: C_14  and  S_10 
ROOT
ATOM      1  N   UNL d   1       3.150  -0.303   1.165  0.00  0.00    -0.362 N 
ATOM      2  H   UNL d   1       2.655  -0.586   2.013  0.00  0.00     0.165 HD
ENDROOT
BRANCH   1   3
ATOM      3  C   UNL d   1       2.359   0.008   0.083  0.00  0.00     0.124 C 
ATOM      4  C   UNL d   1       1.020   0.046  -0.062  0.00  0.00     0.126 C 
BRANCH   4   5
ATOM      5  N   UNL d   1       0.366   0.360  -1.260  0.00  0.00    -0.317 N 
ATOM      6  C   UNL d   1       0.981   0.655  -2.474  0.00  0.00     0.256 C 
ATOM      7  O   UNL d   1       2.195   0.676  -2.660  0.00  0.00    -0.267 OA
ATOM      8  H   UNL d   1      -0.647   0.318  -1.214  0.00  0.00     0.169 HD
BRANCH   6   9
ATOM      9  C   UNL d   1       0.138   0.963  -3.663  0.00  0.00     0.032 A 
ATOM     10  C   UNL d   1      -1.144   1.512  -3.587  0.00  0.00     0.017 A 
ATOM     11  C   UNL d   1      -1.810   1.880  -4.764  0.00  0.00     0.001 A 
ATOM     12  C   UNL d   1      -1.201   1.705  -6.011  0.00  0.00     0.000 A 
ATOM     13  C   UNL d   1       0.072   1.153  -6.093  0.00  0.00     0.001 A 
ATOM     14  C   UNL d   1       0.736   0.785  -4.925  0.00  0.00     0.017 A 
ENDBRANCH   6   9
ENDBRANCH   4   5
BRANCH   4  15
ATOM     15  C   UNL d   1       0.214  -0.274   1.170  0.00  0.00     0.311 C 
ATOM     16  O   UNL d   1       0.694  -0.573   2.256  0.00  0.00    -0.258 OA
BRANCH  15  17
ATOM     17  O   UNL d   1      -1.121  -0.180   0.909  0.00  0.00    -0.321 OA
ATOM     18  C   UNL d   1      -1.918  -0.460   2.067  0.00  0.00     0.213 C 
ENDBRANCH  15  17
ENDBRANCH   4  15
ENDBRANCH   1   3
BRANCH   1  19
ATOM     19  C   UNL d   1       4.538  -0.134   1.258  0.00  0.00     0.047 A 
ATOM     20  C   UNL d   1       5.288   0.682   0.407  0.00  0.00     0.118 A 
ATOM     21  N   UNL d   1       6.637   0.811   0.432  0.00  0.00    -0.358 N 
ATOM     22  C   UNL d   1       7.303   0.070   1.339  0.00  0.00     0.074 A 
ATOM     23  HN  UNL d   1       7.126   1.440  -0.206  1.00  0.00     0.166 HD
ATOM     24  C   UNL d   1       6.661  -0.794   2.218  0.00  0.00     0.039 A 
ATOM     25  C   UNL d   1       5.268  -0.895   2.171  0.00  0.00     0.034 A 
BRANCH  22  26
ATOM     26  S   UNL d   1       9.065   0.300   1.417  0.00  0.00    -0.073 SA
BRANCH  26  27
ATOM     27  C   UNL d   1       9.643  -0.918   0.251  0.00  0.00     0.007 A 
ATOM     28  C   UNL d   1       9.232  -0.924  -1.087  0.00  0.00     0.020 A 
ATOM     29  C   UNL d   1       9.733  -1.881  -1.976  0.00  0.00     0.025 A 
ATOM     30  C   UNL d   1      10.653  -2.828  -1.529  0.00  0.00     0.034 A 
ATOM     31  C   UNL d   1      11.083  -2.820  -0.204  0.00  0.00     0.025 A 
ATOM     32 CL   UNL d   1      11.266  -4.011  -2.617  0.00  0.00    -0.084 Cl
ATOM     33  C   UNL d   1      10.582  -1.864   0.682  0.00  0.00     0.020 A 
ENDBRANCH  26  27
ENDBRANCH  22  26
ENDBRANCH   1  19
TORSDOF 8
