REMARK  2 active torsions:
REMARK  status: ('A' for Active; 'I' for Inactive)
REMARK       I    between atoms: N_2  and  C_1 
REMARK    1  A    between atoms: C_6  and  C_1 
REMARK    2  A    between atoms: C_3  and  N_2 
ROOT
ATOM      1  C   UNL d   1      -1.256   0.339  -1.637  0.00  0.00     0.095 C 
ATOM      2  C   UNL d   1      -2.370   0.950  -0.726  0.00  0.00     0.031 C 
ATOM      3  C   UNL d   1      -2.131   2.425  -0.499  0.00  0.00    -0.024 C 
ATOM      4  C   UNL d   1      -2.344   3.049  -1.665  0.00  0.00    -0.026 C 
ATOM      5  C   UNL d   1      -1.485   1.136  -2.973  0.00  0.00     0.034 C 
ATOM      6  C   UNL d   1      -3.517   1.065  -1.747  0.00  0.00     0.019 C 
ATOM      7  C   UNL d   1      -2.732   1.993  -2.672  0.00  0.00     0.010 C 
ENDROOT
BRANCH   1   8
ATOM      8  N   UNL d   1       0.161   0.308  -1.214  0.00  0.00    -0.349 N 
ATOM      9  C   UNL d   1       0.509   0.348   0.140  0.00  0.00     0.253 C 
ATOM     10  O   UNL d   1      -0.360   0.354   1.026  0.00  0.00    -0.270 OA
ATOM     11  C   UNL d   1       1.079  -0.184  -2.245  0.00  0.00     0.153 C 
BRANCH   9  12
ATOM     12  C   UNL d   1       1.975   0.369   0.600  0.00  0.00     0.269 C 
ATOM     13 CL   UNL d   1       2.645  -1.275   0.601  0.00  0.00    -0.098 Cl
ATOM     14 CL   UNL d   1       2.974   1.528  -0.297  0.00  0.00    -0.098 Cl
ENDBRANCH   9  12
ENDBRANCH   1   8
TORSDOF 2
