REMARK  8 active torsions:
REMARK  status: ('A' for Active; 'I' for Inactive)
REMARK    1  A    between atoms: N_10  and  C_1 
REMARK    2  A    between atoms: S_11  and  C_6 
REMARK    3  A    between atoms: N_13  and  C_9 
REMARK    4  A    between atoms: C_15  and  S_11 
REMARK    5  A    between atoms: C_27  and  N_13 
REMARK    6  A    between atoms: C_14  and  S_16 
REMARK    7  A    between atoms: S_16  and  C_31 
REMARK    8  A    between atoms: C_31  and  C_27 
ROOT
ATOM      1  C   UNL d   1      -1.361  -0.107  -0.017  0.00  0.00     0.684 A 
ATOM      2  N   UNL d   1      -0.623  -1.200   0.099  0.00  0.00    -0.170 N 
ATOM      3  HN  UNL d   1      -1.033  -2.127   0.207  1.00  0.00     0.186 HD
ATOM      4  N   UNL d   1      -0.840   1.111  -0.117  0.00  0.00    -0.166 N 
ATOM      5  HN  UNL d   1      -1.432   1.936  -0.217  1.00  0.00     0.187 HD
ATOM      6  C   UNL d   1       0.692  -1.002   0.064  0.00  0.00     0.166 A 
ATOM      7  N   UNL d   1       1.298   0.178  -0.002  0.00  0.00    -0.312 N 
ATOM      8  HN  UNL d   1       2.313   0.277   0.008  1.00  0.00     0.170 HD
ATOM      9  C   UNL d   1       0.482   1.213  -0.081  0.00  0.00     0.174 A 
ENDROOT
BRANCH   9  10
ATOM     10  N   UNL d   1       1.086   2.456  -0.162  0.00  0.00    -0.263 NA
ATOM     11  H   UNL d   1       2.058   2.362   0.123  0.00  0.00     0.130 HD
BRANCH  10  12
ATOM     12  C   UNL d   1       0.396   3.593   0.436  0.00  0.00     0.105 C 
BRANCH  12  13
ATOM     13  C   UNL d   1       0.696   3.756   1.936  0.00  0.00     0.089 C 
BRANCH  13  14
ATOM     14  S   UNL d   1       2.484   4.055   2.232  0.00  0.00    -0.159 SA
BRANCH  14  15
ATOM     15  C   UNL d   1       2.542   4.368   4.059  0.00  0.00    -0.003 C 
ATOM     16  C   UNL d   1       2.103   3.122   4.835  0.00  0.00     0.026 C 
ATOM     17  C   UNL d   1       4.008   4.682   4.403  0.00  0.00     0.026 C 
ATOM     18  C   UNL d   1       1.678   5.576   4.445  0.00  0.00     0.026 C 
ENDBRANCH  14  15
ENDBRANCH  13  14
ENDBRANCH  12  13
ENDBRANCH  10  12
ENDBRANCH   9  10
BRANCH   6  19
ATOM     19  S   UNL d   1       1.726  -2.447   0.147  0.00  0.00    -0.054 SA
BRANCH  19  20
ATOM     20  C   UNL d   1       2.029  -2.765  -1.582  0.00  0.00     0.008 A 
ATOM     21  C   UNL d   1       3.346  -2.782  -2.057  0.00  0.00     0.021 A 
ATOM     22  C   UNL d   1       3.618  -3.083  -3.395  0.00  0.00     0.025 A 
ATOM     23  C   UNL d   1       2.568  -3.374  -4.265  0.00  0.00     0.034 A 
ATOM     24  C   UNL d   1       1.254  -3.369  -3.806  0.00  0.00     0.025 A 
ATOM     25 CL   UNL d   1       2.901  -3.757  -5.909  0.00  0.00    -0.084 Cl
ATOM     26  C   UNL d   1       0.984  -3.068  -2.465  0.00  0.00     0.021 A 
ENDBRANCH  19  20
ENDBRANCH   6  19
BRANCH   1  27
ATOM     27  N   UNL d   1      -2.726  -0.239  -0.048  0.00  0.00    -0.216 N 
ATOM     28  C   UNL d   1      -3.548   0.709  -0.792  0.00  0.00     0.151 C 
ATOM     29  C   UNL d   1      -4.350  -0.015  -1.883  0.00  0.00     0.094 C 
ATOM     30  S   UNL d   1      -5.447  -1.311  -1.205  0.00  0.00    -0.166 SA
ATOM     31  C   UNL d   1      -4.188  -2.224  -0.242  0.00  0.00     0.094 C 
ATOM     32  C   UNL d   1      -3.392  -1.307   0.688  0.00  0.00     0.151 C 
ENDBRANCH   1  27
TORSDOF 8
