REMARK  1 active torsions:
REMARK  status: ('A' for Active; 'I' for Inactive)
REMARK    1  A    between atoms: C_13  and  C_6 
ROOT
ATOM      1  C   UNL d   1       1.151   0.917  -0.082  0.00  0.00     0.034 A 
ATOM      2  C   UNL d   1       0.758  -0.364  -0.062  0.00  0.00     0.055 A 
ATOM      3  C   UNL d   1      -0.035   1.776  -0.013  0.00  0.00     0.192 A 
ATOM      4  N   UNL d   1       1.650  -1.398  -0.035  0.00  0.00    -0.358 N 
ATOM      5  C   UNL d   1       3.506   0.099   0.218  0.00  0.00     0.057 C 
ATOM      6  C   UNL d   1       2.591   1.308  -0.118  0.00  0.00     0.103 C 
ATOM      7  C   UNL d   1       3.012  -1.171   0.195  0.00  0.00     0.023 C 
ATOM      8  C   UNL d   1      -0.689  -0.438  -0.039  0.00  0.00     0.005 A 
ATOM      9  C   UNL d   1      -1.184   0.867  -0.005  0.00  0.00     0.027 A 
ATOM     10  C   UNL d   1       4.878   0.379   0.505  0.00  0.00     0.098 C 
ATOM     11  N   UNL d   1       5.995   0.607   0.754  0.00  0.00    -0.192 NA
ATOM     12  O   UNL d   1      -0.059   2.986   0.059  0.00  0.00    -0.287 OA
ATOM     13  C   UNL d   1       3.847  -2.408   0.416  0.00  0.00     0.069 C 
ATOM     14  C   UNL d   1      -1.567  -1.507  -0.032  0.00  0.00     0.014 A 
ATOM     15  C   UNL d   1      -2.533   1.166   0.041  0.00  0.00     0.016 A 
ATOM     16  C   UNL d   1      -2.942  -1.234   0.011  0.00  0.00     0.001 A 
ATOM     17  C   UNL d   1      -3.421   0.090   0.048  0.00  0.00     0.001 A 
ATOM     18  H   UNL d   1       1.305  -2.350  -0.034  0.00  0.00     0.166 HD
ENDROOT
BRANCH   6  19
ATOM     19  C   UNL d   1       2.986   1.857  -1.490  0.00  0.00    -0.044 A 
ATOM     20  C   UNL d   1       2.912   1.040  -2.635  0.00  0.00     0.008 A 
ATOM     21  C   UNL d   1       3.445   1.465  -3.848  0.00  0.00     0.001 A 
ATOM     22  C   UNL d   1       4.023   2.727  -3.944  0.00  0.00     0.000 A 
ATOM     23  C   UNL d   1       4.040   3.573  -2.836  0.00  0.00     0.001 A 
ATOM     24  C   UNL d   1       3.527   3.143  -1.611  0.00  0.00     0.008 A 
ENDBRANCH   6  19
TORSDOF 1
