REMARK  2 active torsions:
REMARK  status: ('A' for Active; 'I' for Inactive)
REMARK       I    between atoms: N_2  and  C_1 
REMARK       I    between atoms: N_5  and  C_1 
REMARK    1  A    between atoms: C_3  and  N_2 
REMARK    2  A    between atoms: C_12  and  N_5 
ROOT
ATOM      1  C   UNL d   1       0.573   0.176   0.260  0.00  0.00     0.322 C 
ATOM      2  N   UNL d   1      -0.024   0.983  -0.719  0.00  0.00    -0.333 N 
ATOM      3  N   UNL d   1       1.762   0.643   0.770  0.00  0.00    -0.309 N 
ATOM      4  O   UNL d   1       0.039  -0.870   0.632  0.00  0.00    -0.247 OA
ATOM      5  C   UNL d   1       0.713   1.952  -1.521  0.00  0.00     0.155 C 
ATOM      6  H   UNL d   1       1.917   1.633   0.681  0.00  0.00     0.170 HD
ENDROOT
BRANCH   2   7
ATOM      7  C   UNL d   1      -1.334   0.525  -1.201  0.00  0.00     0.096 C 
ATOM      8  C   UNL d   1      -2.401   1.527  -1.734  0.00  0.00     0.031 C 
ATOM      9  C   UNL d   1      -2.047   2.119  -3.083  0.00  0.00    -0.024 C 
ATOM     10  C   UNL d   1      -3.433   0.493  -2.239  0.00  0.00     0.019 C 
ATOM     11  C   UNL d   1      -2.082   1.124  -3.983  0.00  0.00    -0.026 C 
ATOM     12  C   UNL d   1      -2.459  -0.136  -3.242  0.00  0.00     0.010 C 
ATOM     13  C   UNL d   1      -1.268  -0.538  -2.342  0.00  0.00     0.034 C 
ENDBRANCH   2   7
BRANCH   3  14
ATOM     14  C   UNL d   1       2.696  -0.077   1.554  0.00  0.00     0.036 A 
ATOM     15  C   UNL d   1       2.594  -1.447   1.823  0.00  0.00     0.031 A 
ATOM     16  C   UNL d   1       3.608  -2.119   2.518  0.00  0.00     0.026 A 
ATOM     17  C   UNL d   1       4.732  -1.424   2.950  0.00  0.00     0.034 A 
ATOM     18  C   UNL d   1       4.834  -0.053   2.720  0.00  0.00     0.026 A 
ATOM     19 CL   UNL d   1       6.005  -2.260   3.747  0.00  0.00    -0.084 Cl
ATOM     20  C   UNL d   1       3.816   0.618   2.030  0.00  0.00     0.031 A 
ENDBRANCH   3  14
TORSDOF 2
