REMARK  3 active torsions:
REMARK  status: ('A' for Active; 'I' for Inactive)
REMARK    1  A    between atoms: C_4  and  C_1 
REMARK    2  A    between atoms: C_9  and  N_2 
REMARK       I    between atoms: N_8  and  C_4 
REMARK    3  A    between atoms: C_11  and  N_8 
ROOT
ATOM      1  C   UNL d   1      -0.081   1.219  -0.105  0.00  0.00     0.073 C 
ATOM      2  N   UNL d   1       0.996  -0.729  -0.293  0.00  0.00    -0.260 N 
ATOM      3  C   UNL d   1       1.078   0.628  -0.606  0.00  0.00     0.048 C 
ATOM      4  N   UNL d   1      -0.233  -1.060   0.169  0.00  0.00    -0.304 N 
ATOM      5  HN  UNL d   1      -0.602  -1.992   0.360  1.00  0.00     0.186 HD
ATOM      6  C   UNL d   1      -0.849   0.109   0.317  0.00  0.00     0.126 C 
ATOM      7  C   UNL d   1       2.159   1.182  -1.470  0.00  0.00     0.071 C 
ENDROOT
BRANCH   1   8
ATOM      8  C   UNL d   1      -0.585   2.595  -0.127  0.00  0.00     0.257 C 
ATOM      9  N   UNL d   1       0.290   3.690   0.003  0.00  0.00    -0.347 N 
ATOM     10  C   UNL d   1       1.669   3.582   0.458  0.00  0.00     0.153 C 
ATOM     11  O   UNL d   1      -1.798   2.772  -0.229  0.00  0.00    -0.267 OA
BRANCH   9  12
ATOM     12  C   UNL d   1      -0.307   5.049  -0.020  0.00  0.00     0.090 C 
ATOM     13  C   UNL d   1      -0.698   5.494   1.398  0.00  0.00     0.055 C 
ATOM     14  C   UNL d   1      -1.244   6.918   1.415  0.00  0.00     0.274 C 
ATOM     15  N   UNL d   1      -0.287   7.852   0.807  0.00  0.00     0.084 N 
ATOM     16  C   UNL d   1      -0.032   7.500  -0.596  0.00  0.00     0.274 C 
ATOM     17  C   UNL d   1      -0.778   9.226   0.915  0.00  0.00     0.309 C 
ATOM     18  C   UNL d   1       0.582   6.102  -0.700  0.00  0.00     0.055 C 
ENDBRANCH   9  12
ENDBRANCH   1   8
BRANCH   2  19
ATOM     19  C   UNL d   1       1.970  -1.740  -0.522  0.00  0.00     0.056 A 
ATOM     20  C   UNL d   1       3.338  -1.453  -0.412  0.00  0.00     0.033 A 
ATOM     21  C   UNL d   1       4.285  -2.390  -0.827  0.00  0.00     0.026 A 
ATOM     22  C   UNL d   1       3.865  -3.617  -1.336  0.00  0.00     0.034 A 
ATOM     23  C   UNL d   1       2.509  -3.944  -1.366  0.00  0.00     0.026 A 
ATOM     24 CL   UNL d   1       5.029  -4.723  -1.953  0.00  0.00    -0.084 Cl
ATOM     25  C   UNL d   1       1.557  -3.015  -0.934  0.00  0.00     0.033 A 
ENDBRANCH   2  19
TORSDOF 3
