REMARK  4 active torsions:
REMARK  status: ('A' for Active; 'I' for Inactive)
REMARK    1  A    between atoms: C_3  and  C_1 
REMARK    2  A    between atoms: C_4  and  C_2 
REMARK    3  A    between atoms: O_8  and  C_3 
REMARK    4  A    between atoms: O_9  and  C_4 
ROOT
ATOM      1  C   UNL d   1       0.301   1.269  -0.023  0.00  0.00     0.076 A 
ATOM      2  C   UNL d   1       1.704   1.239  -0.019  0.00  0.00     0.056 A 
ATOM      3  C   UNL d   1      -0.396   0.052  -0.056  0.00  0.00     0.052 A 
ATOM      4 CL   UNL d   1      -2.121  -0.045  -0.126  0.00  0.00    -0.083 Cl
ATOM      5  C   UNL d   1       2.400   0.019  -0.053  0.00  0.00     0.019 A 
ATOM      6  C   UNL d   1       1.696  -1.181  -0.068  0.00  0.00     0.003 A 
ATOM      7  C   UNL d   1       0.303  -1.162  -0.075  0.00  0.00     0.025 A 
ENDROOT
BRANCH   1   8
ATOM      8  C   UNL d   1      -0.452   2.531   0.150  0.00  0.00     0.178 C 
ATOM      9  O   UNL d   1      -1.229   2.682   1.077  0.00  0.00    -0.646 OA
BRANCH   8  10
ATOM     10  O   UNL d   1      -0.269   3.453  -0.813  0.00  0.00    -0.773 OA
ATOM     11  H   UNL d   1       0.593   3.422  -1.294  0.00  0.00     0.167 HD
ENDBRANCH   8  10
ENDBRANCH   1   8
BRANCH   2  12
ATOM     12  C   UNL d   1       2.487   2.479  -0.094  0.00  0.00     0.177 C 
ATOM     13  O   UNL d   1       2.255   3.308  -0.958  0.00  0.00    -0.646 OA
BRANCH  12  14
ATOM     14  O   UNL d   1       3.458   2.572   0.828  0.00  0.00    -0.773 OA
ATOM     15  H   UNL d   1       3.462   1.881   1.519  0.00  0.00     0.167 HD
ENDBRANCH  12  14
ENDBRANCH   2  12
TORSDOF 4
