REMARK  3 active torsions:
REMARK  status: ('A' for Active; 'I' for Inactive)
REMARK    1  A    between atoms: C_7  and  C_1 
REMARK    2  A    between atoms: C_8  and  C_6 
REMARK    3  A    between atoms: C_11  and  C_10 
ROOT
ATOM      1  C   UNL d   1       2.492   1.624  -0.026  0.00  0.00     0.034 A 
ATOM      2  S   UNL d   1       2.814   2.832   1.137  0.00  0.00    -0.086 SA
ATOM      3  C   UNL d   1       4.183   3.392   0.285  0.00  0.00     0.034 A 
ATOM      4  C   UNL d   1       3.410   1.651  -1.056  0.00  0.00     0.023 A 
ATOM      5  C   UNL d   1       4.384   2.681  -0.880  0.00  0.00     0.023 A 
ENDROOT
BRANCH   1   6
ATOM      6  C   UNL d   1       1.355   0.652   0.064  0.00  0.00     0.067 A 
ATOM      7  C   UNL d   1       0.340   0.635   1.039  0.00  0.00     0.068 A 
ATOM      8  C   UNL d   1      -0.483  -0.430   0.713  0.00  0.00     0.136 A 
ATOM      9  N   UNL d   1       0.099  -1.009  -0.383  0.00  0.00    -0.292 N 
ATOM     10  N   UNL d   1       1.189  -0.340  -0.816  0.00  0.00    -0.297 N 
ATOM     11  C   UNL d   1      -0.236  -2.219  -1.099  0.00  0.00     0.178 C 
ATOM     12  HN  UNL d   1       1.761  -0.547  -1.635  1.00  0.00     0.187 HD
BRANCH   8  13
ATOM     13  C   UNL d   1      -1.713  -0.880   1.390  0.00  0.00     0.434 C 
ATOM     14  F   UNL d   1      -2.380  -1.867   0.748  0.00  0.00    -0.165 F 
ATOM     15  F   UNL d   1      -1.445  -1.339   2.639  0.00  0.00    -0.165 F 
ATOM     16  F   UNL d   1      -2.593   0.144   1.534  0.00  0.00    -0.165 F 
ENDBRANCH   8  13
ENDBRANCH   1   6
BRANCH   3  17
ATOM     17  C   UNL d   1       5.059   4.519   0.745  0.00  0.00     0.066 A 
ATOM     18  N   UNL d   1       6.102   4.954   0.023  0.00  0.00    -0.300 N 
ATOM     19  N   UNL d   1       6.614   5.954   0.758  0.00  0.00    -0.311 N 
ATOM     20  HN  UNL d   1       6.431   4.606  -0.877  1.00  0.00     0.187 HD
ATOM     21  C   UNL d   1       5.947   6.170   1.926  0.00  0.00     0.109 A 
ATOM     22  H   UNL d   1       7.425   6.447   0.398  0.00  0.00     0.186 HD
ATOM     23  C   UNL d   1       4.925   5.252   1.949  0.00  0.00     0.051 A 
ENDBRANCH   3  17
TORSDOF 3
