REMARK  9 active torsions:
REMARK  status: ('A' for Active; 'I' for Inactive)
REMARK    1  A    between atoms: C_4  and  S_1 
REMARK    2  A    between atoms: C_11  and  S_1 
REMARK    3  A    between atoms: C_2  and  C_5 
REMARK    4  A    between atoms: C_6  and  C_3 
REMARK       I    between atoms: N_10  and  C_6 
REMARK    5  A    between atoms: C_9  and  S_25 
REMARK    6  A    between atoms: C_26  and  N_10 
REMARK    7  A    between atoms: C_28  and  C_11 
REMARK    8  A    between atoms: S_25  and  C_28 
REMARK    9  A    between atoms: C_27  and  C_26 
ROOT
ATOM      1  C   UNL d   1       1.354  -1.762   6.284  0.00  0.00     0.065 A 
ATOM      2  C   UNL d   1       0.553  -2.156   5.214  0.00  0.00     0.085 A 
ATOM      3  N   UNL d   1       0.304  -3.475   4.945  0.00  0.00    -0.360 N 
ATOM      4  HN  UNL d   1      -0.255  -3.738   4.134  1.00  0.00     0.166 HD
ATOM      5  C   UNL d   1       1.842  -2.798   7.117  0.00  0.00     0.021 A 
ATOM      6  C   UNL d   1       0.806  -4.425   5.763  0.00  0.00     0.089 A 
ATOM      7  C   UNL d   1       1.563  -4.136   6.869  0.00  0.00     0.018 A 
ENDROOT
BRANCH   2   8
ATOM      8  S   UNL d   1      -0.279  -1.061   4.075  0.00  0.00    -0.110 SA
BRANCH   8   9
ATOM      9  C   UNL d   1      -1.869  -1.974   3.895  0.00  0.00     0.096 C 
BRANCH   9  10
ATOM     10  C   UNL d   1      -2.717  -1.381   2.786  0.00  0.00     0.158 C 
BRANCH  10  11
ATOM     11  S   UNL d   1      -4.347  -2.107   2.749  0.00  0.00     0.191 S 
ATOM     12  O   UNL d   1      -5.108  -1.479   1.681  0.00  0.00    -0.221 OA
ATOM     13  O   UNL d   1      -4.195  -3.550   2.780  0.00  0.00    -0.221 OA
BRANCH  11  14
ATOM     14  C   UNL d   1      -5.104  -1.620   4.289  0.00  0.00     0.128 A 
ATOM     15  N   UNL d   1      -4.934  -0.311   4.601  0.00  0.00    -0.356 N 
ATOM     16  C   UNL d   1      -5.493   0.103   5.761  0.00  0.00     0.105 A 
ATOM     17  HN  UNL d   1      -4.415   0.325   3.995  1.00  0.00     0.166 HD
ATOM     18  C   UNL d   1      -6.175  -0.735   6.636  0.00  0.00     0.063 A 
ATOM     19  C   UNL d   1      -6.298  -2.087   6.285  0.00  0.00     0.020 A 
ATOM     20  C   UNL d   1      -5.758  -2.546   5.086  0.00  0.00     0.042 A 
BRANCH  18  21
ATOM     21  C   UNL d   1      -6.750  -0.200   7.915  0.00  0.00     0.418 C 
ATOM     22  F   UNL d   1      -6.571   1.140   8.074  0.00  0.00    -0.166 F 
ATOM     23  F   UNL d   1      -8.089  -0.414   8.014  0.00  0.00    -0.166 F 
ATOM     24  F   UNL d   1      -6.195  -0.783   9.012  0.00  0.00    -0.166 F 
ENDBRANCH  18  21
ENDBRANCH  11  14
ENDBRANCH  10  11
ENDBRANCH   9  10
ENDBRANCH   8   9
ENDBRANCH   2   8
BRANCH   1  25
ATOM     25  C   UNL d   1       1.746  -0.395   6.726  0.00  0.00     0.254 C 
ATOM     26  N   UNL d   1       1.503   0.750   5.989  0.00  0.00    -0.351 N 
ATOM     27  H   UNL d   1       1.088   0.755   5.063  0.00  0.00     0.163 HD
ATOM     28  O   UNL d   1       2.338  -0.299   7.807  0.00  0.00    -0.268 OA
BRANCH  26  29
ATOM     29  C   UNL d   1       2.034   1.984   6.543  0.00  0.00     0.179 C 
BRANCH  29  30
ATOM     30  C   UNL d   1       1.633   3.300   5.924  0.00  0.00     0.026 A 
ATOM     31  N   UNL d   1       0.988   3.334   4.732  0.00  0.00    -0.368 N 
ATOM     32  C   UNL d   1       0.641   4.564   4.269  0.00  0.00     0.088 A 
ATOM     33  HN  UNL d   1       0.776   2.484   4.210  1.00  0.00     0.165 HD
ATOM     34  C   UNL d   1       0.899   5.757   4.931  0.00  0.00     0.017 A 
ATOM     35  C   UNL d   1       1.578   5.703   6.138  0.00  0.00     0.003 A 
ATOM     36  C   UNL d   1       1.960   4.463   6.634  0.00  0.00     0.027 A 
ENDBRANCH  29  30
ENDBRANCH  26  29
ENDBRANCH   1  25
TORSDOF 9
