REMARK  5 active torsions:
REMARK  status: ('A' for Active; 'I' for Inactive)
REMARK    1  A    between atoms: C_5  and  C_4 
REMARK    2  A    between atoms: C_9  and  C_5 
REMARK    3  A    between atoms: C_6  and  N_10 
REMARK    4  A    between atoms: N_15  and  C_6 
REMARK       I    between atoms: N_12  and  C_9 
REMARK    5  A    between atoms: N_10  and  N_12 
ROOT
ATOM      1  N   UNL d   1       0.372   1.139  -0.285  0.00  0.00    -0.325 N 
ATOM      2  C   UNL d   1       1.598   0.565  -0.113  0.00  0.00     0.236 C 
ATOM      3  S   UNL d   1       0.464  -1.948   0.050  0.00  0.00    -0.113 SA
ATOM      4  C   UNL d   1       1.706  -0.748   0.647  0.00  0.00     0.153 C 
ATOM      5  C   UNL d   1      -0.863   0.502  -0.110  0.00  0.00     0.051 A 
ATOM      6  C   UNL d   1      -0.970  -0.888   0.050  0.00  0.00     0.028 A 
ATOM      7  O   UNL d   1       2.614   1.190  -0.422  0.00  0.00    -0.272 OA
ATOM      8  C   UNL d   1      -2.015   1.295  -0.137  0.00  0.00     0.031 A 
ATOM      9  C   UNL d   1      -2.236  -1.471   0.166  0.00  0.00     0.021 A 
ATOM     10  C   UNL d   1      -3.382  -0.674   0.154  0.00  0.00     0.002 A 
ATOM     11  C   UNL d   1      -3.272   0.708   0.010  0.00  0.00     0.002 A 
ATOM     12  H   UNL d   1       0.388   2.092  -0.627  0.00  0.00     0.169 HD
ENDROOT
BRANCH   4  13
ATOM     13  C   UNL d   1       1.561  -0.523   2.151  0.00  0.00     0.129 C 
BRANCH  13  14
ATOM     14  C   UNL d   1       2.567   0.395   2.831  0.00  0.00     0.237 C 
ATOM     15  N   UNL d   1       3.669   0.811   2.123  0.00  0.00    -0.268 N 
ATOM     16  H   UNL d   1       3.709   0.821   1.100  0.00  0.00     0.190 HD
ATOM     17  O   UNL d   1       2.405   0.721   4.011  0.00  0.00    -0.272 OA
BRANCH  15  18
ATOM     18  N   UNL d   1       4.497   1.775   2.731  0.00  0.00    -0.274 N 
ATOM     19  H   UNL d   1       4.239   2.000   3.691  0.00  0.00     0.189 HD
BRANCH  18  20
ATOM     20  C   UNL d   1       5.805   1.911   2.344  0.00  0.00     0.186 C 
ATOM     21  S   UNL d   1       6.555   1.040   1.127  0.00  0.00    -0.040 SA
BRANCH  20  22
ATOM     22  N   UNL d   1       6.529   2.875   2.980  0.00  0.00    -0.370 N 
ATOM     23  C   UNL d   1       6.048   3.943   3.829  0.00  0.00     0.148 C 
ATOM     24  H   UNL d   1       7.494   2.931   2.672  0.00  0.00     0.161 HD
ENDBRANCH  20  22
ENDBRANCH  18  20
ENDBRANCH  15  18
ENDBRANCH  13  14
ENDBRANCH   4  13
TORSDOF 5
