REMARK  8 active torsions:
REMARK  status: ('A' for Active; 'I' for Inactive)
REMARK    1  A    between atoms: N_8  and  S_1 
REMARK    2  A    between atoms: C_14  and  S_1 
REMARK    3  A    between atoms: N_2  and  C_15 
REMARK    4  A    between atoms: C_10  and  C_6 
REMARK    5  A    between atoms: N_19  and  C_11 
REMARK    6  A    between atoms: S_26  and  C_11 
REMARK       I    between atoms: C_13  and  N_20 
REMARK       I    between atoms: N_21  and  C_13 
REMARK    7  A    between atoms: N_20  and  N_19 
REMARK    8  A    between atoms: C_34  and  N_21 
ROOT
ATOM      1  S   UNL d   1       0.938   0.049  -0.183  0.00  0.00     0.264 S 
ATOM      2  O   UNL d   1       0.181   0.280  -1.400  0.00  0.00    -0.200 OA
ATOM      3  O   UNL d   1       2.383   0.164  -0.197  0.00  0.00    -0.200 OA
ENDROOT
BRANCH   1   4
ATOM      4  N   UNL d   1       0.540  -1.393   0.432  0.00  0.00    -0.259 N 
ATOM      5  C   UNL d   1       0.674  -2.431  -0.326  0.00  0.00     0.168 C 
ATOM      6  HN  UNL d   1       0.194  -1.480   1.388  1.00  0.00     0.181 HD
BRANCH   5   7
ATOM      7  N   UNL d   1       1.143  -2.479  -1.631  0.00  0.00    -0.275 N 
ATOM      8  H   UNL d   1       2.126  -2.196  -1.741  0.00  0.00     0.189 HD
BRANCH   7   9
ATOM      9  N   UNL d   1       0.837  -3.611  -2.429  0.00  0.00    -0.249 N 
ATOM     10  C   UNL d   1       1.874  -4.103  -3.218  0.00  0.00     0.339 C 
ATOM     11  N   UNL d   1       1.420  -5.101  -4.055  0.00  0.00    -0.308 N 
ATOM     12  O   UNL d   1       3.015  -3.663  -3.119  0.00  0.00    -0.245 OA
ATOM     13  H   UNL d   1       0.480  -5.424  -3.878  0.00  0.00     0.170 HD
ATOM     14  H   UNL d   1      -0.074  -3.542  -2.871  0.00  0.00     0.192 HD
BRANCH  11  15
ATOM     15  C   UNL d   1       2.135  -5.791  -5.054  0.00  0.00     0.036 A 
ATOM     16  C   UNL d   1       3.465  -5.528  -5.383  0.00  0.00     0.029 A 
ATOM     17  C   UNL d   1       4.096  -6.245  -6.406  0.00  0.00     0.002 A 
ATOM     18  C   UNL d   1       3.402  -7.227  -7.110  0.00  0.00     0.000 A 
ATOM     19  C   UNL d   1       2.076  -7.500  -6.787  0.00  0.00     0.002 A 
ATOM     20  C   UNL d   1       1.447  -6.786  -5.763  0.00  0.00     0.029 A 
ENDBRANCH  11  15
ENDBRANCH   7   9
ENDBRANCH   5   7
BRANCH   5  21
ATOM     21  S   UNL d   1       0.232  -3.994   0.408  0.00  0.00    -0.096 SA
ATOM     22  C   UNL d   1      -1.038  -3.500   1.583  0.00  0.00     0.099 C 
ENDBRANCH   5  21
ENDBRANCH   1   4
BRANCH   1  23
ATOM     23  C   UNL d   1       0.331   1.245   1.001  0.00  0.00     0.080 A 
ATOM     24  C   UNL d   1       1.140   1.675   2.058  0.00  0.00     0.027 A 
ATOM     25  C   UNL d   1       0.705   2.719   2.887  0.00  0.00     0.033 A 
ATOM     26  C   UNL d   1      -0.546   3.322   2.673  0.00  0.00     0.057 A 
ATOM     27  C   UNL d   1      -1.335   2.900   1.593  0.00  0.00     0.033 A 
ATOM     28  C   UNL d   1      -0.902   1.862   0.764  0.00  0.00     0.027 A 
BRANCH  26  29
ATOM     29  N   UNL d   1      -0.978   4.388   3.523  0.00  0.00    -0.255 N 
ATOM     30  C   UNL d   1      -2.269   4.822   3.814  0.00  0.00     0.076 C 
ATOM     31  C   UNL d   1      -2.118   6.059   4.411  0.00  0.00     0.069 C 
ATOM     32  C   UNL d   1      -3.490   4.093   3.591  0.00  0.00     0.033 A 
ATOM     33  C   UNL d   1      -0.724   6.241   4.587  0.00  0.00     0.135 C 
ATOM     34  N   UNL d   1      -0.045   5.170   4.135  0.00  0.00    -0.289 N 
ATOM     35  HN  UNL d   1       0.954   4.985   4.230  1.00  0.00     0.187 HD
ATOM     36  S   UNL d   1      -4.950   4.892   3.162  0.00  0.00    -0.100 SA
ATOM     37  C   UNL d   1      -3.695   2.730   3.712  0.00  0.00     0.021 A 
ATOM     38  C   UNL d   1      -5.813   3.419   3.067  0.00  0.00     0.050 A 
ATOM     39  C   UNL d   1      -5.022   2.337   3.373  0.00  0.00     0.008 A 
BRANCH  33  40
ATOM     40  C   UNL d   1      -0.073   7.440   5.227  0.00  0.00     0.434 C 
ATOM     41  F   UNL d   1       1.283   7.376   5.262  0.00  0.00    -0.165 F 
ATOM     42  F   UNL d   1      -0.393   8.588   4.568  0.00  0.00    -0.165 F 
ATOM     43  F   UNL d   1      -0.491   7.609   6.511  0.00  0.00    -0.165 F 
ENDBRANCH  33  40
ENDBRANCH  26  29
ENDBRANCH   1  23
TORSDOF 8
