REMARK  5 active torsions:
REMARK  status: ('A' for Active; 'I' for Inactive)
REMARK    1  A    between atoms: N_4  and  S_1 
REMARK    2  A    between atoms: C_6  and  S_1 
REMARK    3  A    between atoms: C_2  and  N_5 
REMARK    4  A    between atoms: N_3  and  C_2 
REMARK    5  A    between atoms: N_5  and  C_13 
ROOT
ATOM      1  C   UNL d   1       0.469   0.582   1.566  0.00  0.00     0.079 A 
ATOM      2  C   UNL d   1      -0.096  -0.375   2.416  0.00  0.00     0.027 A 
ATOM      3  C   UNL d   1       0.640   1.897   2.010  0.00  0.00     0.027 A 
ATOM      4  C   UNL d   1      -0.381   1.309   4.135  0.00  0.00     0.034 A 
ATOM      5  C   UNL d   1       0.233   2.251   3.301  0.00  0.00     0.031 A 
ATOM      6  C   UNL d   1      -0.546  -0.004   3.687  0.00  0.00     0.031 A 
ENDROOT
BRANCH   4   7
ATOM      7  N   UNL d   1      -0.762   1.726   5.430  0.00  0.00    -0.333 N 
ATOM      8  H   UNL d   1      -0.108   2.366   5.868  0.00  0.00     0.168 HD
BRANCH   7   9
ATOM      9  C   UNL d   1      -1.585   1.086   6.322  0.00  0.00     0.174 C 
ATOM     10  S   UNL d   1      -1.056   1.049   7.916  0.00  0.00    -0.041 SA
BRANCH   9  11
ATOM     11  N   UNL d   1      -2.815   0.614   5.860  0.00  0.00    -0.358 N 
ATOM     12  C   UNL d   1      -3.753  -0.115   6.738  0.00  0.00     0.129 C 
ATOM     13  C   UNL d   1      -4.614  -1.129   5.962  0.00  0.00    -0.001 C 
ATOM     14  C   UNL d   1      -5.717  -1.693   6.858  0.00  0.00     0.011 C 
ATOM     15  C   UNL d   1      -5.231  -0.527   4.692  0.00  0.00     0.007 C 
ATOM     16  C   UNL d   1      -4.195   0.225   3.866  0.00  0.00     0.020 C 
ATOM     17  C   UNL d   1      -3.492   1.261   4.729  0.00  0.00     0.125 C 
ENDBRANCH   9  11
ENDBRANCH   7   9
ENDBRANCH   4   7
BRANCH   1  18
ATOM     18  S   UNL d   1       1.133   0.080  -0.013  0.00  0.00     0.260 S 
ATOM     19  O   UNL d   1       1.985   1.150  -0.478  0.00  0.00    -0.200 OA
ATOM     20  O   UNL d   1       1.654  -1.260   0.166  0.00  0.00    -0.200 OA
BRANCH  18  21
ATOM     21  N   UNL d   1      -0.206  -0.007  -1.035  0.00  0.00    -0.307 N 
ATOM     22  C   UNL d   1      -0.782   1.212  -1.624  0.00  0.00     0.135 C 
ATOM     23  C   UNL d   1      -2.054   1.609  -0.890  0.00  0.00     0.021 C 
ATOM     24  C   UNL d   1      -3.057   0.458  -0.850  0.00  0.00     0.003 C 
ATOM     25  C   UNL d   1      -2.425  -0.817  -0.299  0.00  0.00     0.021 C 
ATOM     26  C   UNL d   1      -1.115  -1.165  -0.998  0.00  0.00     0.135 C 
ENDBRANCH  18  21
ENDBRANCH   1  18
TORSDOF 5
