REMARK  5 active torsions:
REMARK  status: ('A' for Active; 'I' for Inactive)
REMARK    1  A    between atoms: C_7  and  C_1 
REMARK    2  A    between atoms: C_8  and  C_2 
REMARK    3  A    between atoms: C_9  and  C_6 
REMARK    4  A    between atoms: O_12  and  C_7 
REMARK    5  A    between atoms: C_16  and  O_12 
ROOT
ATOM      1  C   UNL d   1       1.379   0.841  -0.075  0.00  0.00     0.130 A 
ATOM      2  C   UNL d   1       0.092   1.358  -0.055  0.00  0.00     0.085 A 
ATOM      3  N   UNL d   1       1.437  -0.555   0.037  0.00  0.00    -0.344 N 
ATOM      4  HN  UNL d   1       2.300  -1.090   0.131  1.00  0.00     0.167 HD
ATOM      5  S   UNL d   1      -1.041   0.064  -0.002  0.00  0.00    -0.066 SA
ATOM      6  C   UNL d   1       0.234  -1.085   0.004  0.00  0.00     0.086 A 
ENDROOT
BRANCH   6   7
ATOM      7  C   UNL d   1      -0.035  -2.534  -0.003  0.00  0.00    -0.002 A 
ATOM      8  C   UNL d   1       0.887  -3.408   0.596  0.00  0.00     0.014 A 
ATOM      9  C   UNL d   1       0.668  -4.789   0.602  0.00  0.00     0.001 A 
ATOM     10  C   UNL d   1      -0.469  -5.317  -0.001  0.00  0.00     0.000 A 
ATOM     11  C   UNL d   1      -1.385  -4.468  -0.619  0.00  0.00     0.001 A 
ATOM     12  C   UNL d   1      -1.167  -3.087  -0.622  0.00  0.00     0.014 A 
ENDBRANCH   6   7
BRANCH   1  13
ATOM     13  C   UNL d   1       2.612   1.600  -0.293  0.00  0.00     0.311 C 
ATOM     14  O   UNL d   1       2.638   2.718  -0.790  0.00  0.00    -0.258 OA
BRANCH  13  15
ATOM     15  O   UNL d   1       3.716   0.882   0.059  0.00  0.00    -0.317 OA
BRANCH  15  16
ATOM     16  C   UNL d   1       4.973   1.341  -0.452  0.00  0.00     0.175 C 
ATOM     17  C   UNL d   1       5.296   0.520  -1.686  0.00  0.00     0.034 C 
ENDBRANCH  15  16
ENDBRANCH  13  15
ENDBRANCH   1  13
BRANCH   2  18
ATOM     18  C   UNL d   1      -0.429   2.714  -0.085  0.00  0.00     0.165 C 
ATOM     19  O   UNL d   1      -1.505   3.003  -0.614  0.00  0.00    -0.292 OA
ATOM     20  C   UNL d   1       0.347   3.808   0.608  0.00  0.00     0.097 C 
ENDBRANCH   2  18
TORSDOF 5
