REMARK  4 active torsions:
REMARK  status: ('A' for Active; 'I' for Inactive)
REMARK    1  A    between atoms: C_2  and  S_1 
REMARK    2  A    between atoms: C_5  and  S_1 
REMARK    3  A    between atoms: O_15  and  C_8 
REMARK    4  A    between atoms: C_16  and  O_15 
ROOT
ATOM      1  C   UNL d   1       0.225  -1.194  -1.177  0.00  0.00     0.165 C 
ATOM      2  C   UNL d   1      -1.024  -1.784  -0.889  0.00  0.00     0.114 C 
ATOM      3  N   UNL d   1      -2.042  -2.273  -0.618  0.00  0.00    -0.191 NA
ATOM      4  C   UNL d   1       0.884  -1.399  -2.327  0.00  0.00     0.169 C 
ENDROOT
BRANCH   1   5
ATOM      5  S   UNL d   1       0.906  -0.092  -0.035  0.00  0.00     0.218 S 
ATOM      6  O   UNL d   1       0.306   1.216  -0.223  0.00  0.00    -0.216 OA
ATOM      7  O   UNL d   1       2.355  -0.221  -0.041  0.00  0.00    -0.216 OA
BRANCH   5   8
ATOM      8  C   UNL d   1       0.370  -0.680   1.566  0.00  0.00     0.065 A 
ATOM      9  C   UNL d   1       1.146  -1.623   2.250  0.00  0.00     0.025 A 
ATOM     10  C   UNL d   1       0.757  -2.037   3.526  0.00  0.00     0.025 A 
ATOM     11  C   UNL d   1      -0.391  -1.502   4.112  0.00  0.00     0.034 A 
ATOM     12  C   UNL d   1      -1.157  -0.553   3.434  0.00  0.00     0.025 A 
ATOM     13 CL   UNL d   1      -0.856  -2.004   5.691  0.00  0.00    -0.084 Cl
ATOM     14  C   UNL d   1      -0.774  -0.132   2.159  0.00  0.00     0.025 A 
ENDBRANCH   5   8
ENDBRANCH   1   5
BRANCH   4  15
ATOM     15  O   UNL d   1       0.396  -2.196  -3.330  0.00  0.00    -0.361 OA
BRANCH  15  16
ATOM     16  C   UNL d   1       1.424  -2.774  -4.139  0.00  0.00     0.170 C 
ATOM     17  C   UNL d   1       0.758  -3.675  -5.163  0.00  0.00     0.034 C 
ENDBRANCH  15  16
ENDBRANCH   4  15
TORSDOF 4
