REMARK  4 active torsions:
REMARK  status: ('A' for Active; 'I' for Inactive)
REMARK    1  A    between atoms: C_5  and  C_1 
REMARK    2  A    between atoms: S_6  and  C_2 
REMARK    3  A    between atoms: S_7  and  C_2 
REMARK    4  A    between atoms: O_13  and  C_10 
ROOT
ATOM      1  C   UNL d   1       1.054  -0.072   0.089  0.00  0.00     0.078 C 
ATOM      2  C   UNL d   1       0.328  -0.021  -1.061  0.00  0.00     0.057 C 
ATOM      3  C   UNL d   1       0.430  -0.284   1.366  0.00  0.00     0.102 C 
ATOM      4  N   UNL d   1      -0.055  -0.471   2.402  0.00  0.00    -0.191 NA
ENDROOT
BRANCH   1   5
ATOM      5  C   UNL d   1       2.534   0.039   0.122  0.00  0.00    -0.013 A 
ATOM      6  C   UNL d   1       3.163   1.285   0.259  0.00  0.00     0.016 A 
ATOM      7  C   UNL d   1       4.562   1.378   0.323  0.00  0.00     0.037 A 
ATOM      8  C   UNL d   1       5.346   0.227   0.251  0.00  0.00     0.068 A 
ATOM      9  C   UNL d   1       4.720  -1.013   0.108  0.00  0.00     0.037 A 
ATOM     10  C   UNL d   1       3.327  -1.112   0.049  0.00  0.00     0.016 A 
BRANCH   8  11
ATOM     11  O   UNL d   1       6.712   0.171   0.301  0.00  0.00    -0.356 OA
ATOM     12  C   UNL d   1       7.408   1.390   0.528  0.00  0.00     0.210 C 
ENDBRANCH   8  11
ENDBRANCH   1   5
BRANCH   2  13
ATOM     13  S   UNL d   1      -1.431  -0.189  -1.020  0.00  0.00    -0.126 SA
ATOM     14  C   UNL d   1      -2.006   0.844  -2.387  0.00  0.00     0.096 C 
ENDBRANCH   2  13
BRANCH   2  15
ATOM     15  S   UNL d   1       1.108   0.150  -2.630  0.00  0.00    -0.126 SA
ATOM     16  C   UNL d   1       1.057  -1.574  -3.184  0.00  0.00     0.096 C 
ENDBRANCH   2  15
TORSDOF 4
