REMARK  6 active torsions:
REMARK  status: ('A' for Active; 'I' for Inactive)
REMARK    1  A    between atoms: C_7  and  C_1 
REMARK    2  A    between atoms: C_6  and  S_8 
REMARK    3  A    between atoms: N_10  and  C_6 
REMARK    4  A    between atoms: S_8  and  C_7 
REMARK    5  A    between atoms: C_16  and  N_10 
REMARK    6  A    between atoms: C_15  and  C_16 
ROOT
ATOM      1  C   UNL d   1       4.143  -4.106   0.018  0.00  0.00     0.135 C 
ATOM      2  S   UNL d   1       3.236  -5.418   0.503  0.00  0.00    -0.053 SA
ENDROOT
BRANCH   1   3
ATOM      3  S   UNL d   1       3.537  -2.622  -0.698  0.00  0.00    -0.096 SA
BRANCH   3   4
ATOM      4  C   UNL d   1       1.855  -2.485  -0.034  0.00  0.00     0.122 C 
BRANCH   4   5
ATOM      5  C   UNL d   1       1.107  -1.369  -0.706  0.00  0.00    -0.018 A 
ATOM      6  C   UNL d   1       1.119  -0.037  -0.344  0.00  0.00     0.083 A 
ATOM      7  S   UNL d   1       0.124   0.952  -1.300  0.00  0.00    -0.065 SA
ATOM      8 CL   UNL d   1       2.007   0.687   0.941  0.00  0.00    -0.076 Cl
ATOM      9  C   UNL d   1      -0.357  -0.376  -2.227  0.00  0.00     0.076 A 
ATOM     10  C   UNL d   1       0.227  -1.554  -1.835  0.00  0.00     0.041 A 
ATOM     11 CL   UNL d   1      -1.481  -0.166  -3.508  0.00  0.00    -0.076 Cl
ENDBRANCH   4   5
ENDBRANCH   3   4
ENDBRANCH   1   3
BRANCH   1  12
ATOM     12  N   UNL d   1       5.514  -4.025   0.047  0.00  0.00    -0.371 N 
ATOM     13  H   UNL d   1       5.887  -3.142  -0.283  0.00  0.00     0.161 HD
BRANCH  12  14
ATOM     14  C   UNL d   1       6.441  -5.148   0.046  0.00  0.00     0.161 C 
BRANCH  14  15
ATOM     15  C   UNL d   1       7.454  -5.122   1.153  0.00  0.00    -0.025 A 
ATOM     16  C   UNL d   1       8.725  -5.651   0.931  0.00  0.00     0.096 A 
ATOM     17  N   UNL d   1       9.689  -5.759   1.873  0.00  0.00    -0.375 N 
ATOM     18  C   UNL d   1       9.370  -5.334   3.113  0.00  0.00     0.087 A 
ATOM     19  HN  UNL d   1      10.609  -6.142   1.657  1.00  0.00     0.164 HD
ATOM     20  C   UNL d   1       8.135  -4.804   3.447  0.00  0.00     0.018 A 
ATOM     21  C   UNL d   1       7.164  -4.703   2.453  0.00  0.00     0.011 A 
ENDBRANCH  14  15
ENDBRANCH  12  14
ENDBRANCH   1  12
TORSDOF 6
