REMARK  8 active torsions:
REMARK  status: ('A' for Active; 'I' for Inactive)
REMARK       I    between atoms: N_2  and  C_1 
REMARK    1  A    between atoms: C_10  and  C_1 
REMARK    2  A    between atoms: C_6  and  N_2 
REMARK    3  A    between atoms: C_8  and  C_6 
REMARK    4  A    between atoms: S_7  and  C_10 
REMARK    5  A    between atoms: C_14  and  S_7 
REMARK    6  A    between atoms: C_9  and  O_11 
REMARK    7  A    between atoms: O_11  and  C_15 
REMARK    8  A    between atoms: C_15  and  C_14 
ROOT
ATOM      1  C   UNL d   1       0.976   0.144  -0.044  0.00  0.00     0.227 C 
ATOM      2  N   UNL d   1       0.267   0.919  -0.925  0.00  0.00    -0.356 N 
ATOM      3  O   UNL d   1       0.431  -0.602   0.770  0.00  0.00    -0.273 OA
ATOM      4  H   UNL d   1       0.787   1.489  -1.585  0.00  0.00     0.162 HD
ENDROOT
BRANCH   1   5
ATOM      5  C   UNL d   1       2.495   0.207  -0.119  0.00  0.00     0.176 C 
BRANCH   5   6
ATOM      6  S   UNL d   1       3.154   1.318  -1.408  0.00  0.00    -0.158 SA
BRANCH   6   7
ATOM      7  C   UNL d   1       4.948   0.974  -1.224  0.00  0.00     0.101 C 
BRANCH   7   8
ATOM      8  C   UNL d   1       5.301  -0.482  -1.523  0.00  0.00     0.186 C 
BRANCH   8   9
ATOM      9  O   UNL d   1       6.721  -0.648  -1.530  0.00  0.00    -0.350 OA
BRANCH   9  10
ATOM     10  C   UNL d   1       7.166  -1.923  -1.780  0.00  0.00     0.068 A 
ATOM     11  C   UNL d   1       6.358  -3.042  -1.997  0.00  0.00     0.037 A 
ATOM     12  C   UNL d   1       6.933  -4.292  -2.249  0.00  0.00     0.003 A 
ATOM     13  C   UNL d   1       8.318  -4.430  -2.286  0.00  0.00     0.000 A 
ATOM     14  C   UNL d   1       9.129  -3.319  -2.067  0.00  0.00     0.003 A 
ATOM     15  C   UNL d   1       8.555  -2.070  -1.814  0.00  0.00     0.037 A 
ENDBRANCH   9  10
ENDBRANCH   8   9
ENDBRANCH   7   8
ENDBRANCH   6   7
ENDBRANCH   5   6
ENDBRANCH   1   5
BRANCH   2  16
ATOM     16  C   UNL d   1      -1.170   0.826  -1.054  0.00  0.00     0.161 C 
BRANCH  16  17
ATOM     17  C   UNL d   1      -1.875   2.138  -0.837  0.00  0.00    -0.038 A 
ATOM     18  C   UNL d   1      -3.057   2.414  -1.534  0.00  0.00     0.025 A 
ATOM     19  C   UNL d   1      -3.734   3.594  -1.267  0.00  0.00     0.088 A 
ATOM     20  N   UNL d   1      -3.323   4.506  -0.362  0.00  0.00    -0.375 N 
ATOM     21  C   UNL d   1      -2.191   4.218   0.314  0.00  0.00     0.088 A 
ATOM     22  HN  UNL d   1      -3.842   5.369  -0.197  1.00  0.00     0.164 HD
ATOM     23  C   UNL d   1      -1.448   3.063   0.122  0.00  0.00     0.025 A 
ENDBRANCH  16  17
ENDBRANCH   2  16
TORSDOF 8
