REMARK  3 active torsions:
REMARK  status: ('A' for Active; 'I' for Inactive)
REMARK    1  A    between atoms: C_2  and  C_1 
REMARK    2  A    between atoms: C_12  and  C_2 
REMARK    3  A    between atoms: C_8  and  C_3 
ROOT
ATOM      1  C   UNL d   1       0.917   0.020   0.070  0.00  0.00     0.096 C 
ATOM      2  C   UNL d   1       0.274  -0.748   0.973  0.00  0.00     0.038 C 
ATOM      3  C   UNL d   1       0.217   0.864  -0.839  0.00  0.00     0.103 C 
ATOM      4  N   UNL d   1      -0.345   1.526  -1.610  0.00  0.00    -0.191 NA
ENDROOT
BRANCH   1   5
ATOM      5  C   UNL d   1       2.415  -0.034   0.052  0.00  0.00     0.202 C 
ATOM      6  O   UNL d   1       3.057  -0.321   1.059  0.00  0.00    -0.286 OA
BRANCH   5   7
ATOM      7  C   UNL d   1       3.140   0.280  -1.215  0.00  0.00     0.015 A 
ATOM      8  C   UNL d   1       4.396   0.898  -1.141  0.00  0.00     0.015 A 
ATOM      9  C   UNL d   1       5.070   1.262  -2.311  0.00  0.00     0.001 A 
ATOM     10  C   UNL d   1       4.500   1.003  -3.557  0.00  0.00     0.000 A 
ATOM     11  C   UNL d   1       3.276   0.345  -3.638  0.00  0.00     0.001 A 
ATOM     12  C   UNL d   1       2.609  -0.038  -2.473  0.00  0.00     0.015 A 
ENDBRANCH   5   7
ENDBRANCH   1   5
BRANCH   2  13
ATOM     13  C   UNL d   1      -1.190  -0.854   1.036  0.00  0.00    -0.034 A 
ATOM     14  C   UNL d   1      -1.938   0.053   1.800  0.00  0.00     0.021 A 
ATOM     15  C   UNL d   1      -3.320  -0.045   1.768  0.00  0.00    -0.022 A 
ATOM     16  C   UNL d   1      -4.346   0.803   2.414  0.00  0.00     0.068 C 
ATOM     17  C   UNL d   1      -3.949  -1.000   0.983  0.00  0.00     0.075 A 
ATOM     18  C   UNL d   1      -5.579  -0.066   2.153  0.00  0.00     0.180 C 
ATOM     19  O   UNL d   1      -5.318  -0.936   1.028  0.00  0.00    -0.350 OA
ATOM     20  C   UNL d   1      -3.240  -1.902   0.221  0.00  0.00     0.038 A 
ATOM     21  C   UNL d   1      -1.844  -1.834   0.258  0.00  0.00     0.014 A 
ENDBRANCH   2  13
TORSDOF 3
