REMARK  4 active torsions:
REMARK  status: ('A' for Active; 'I' for Inactive)
REMARK    1  A    between atoms: N_2  and  S_1 
REMARK    2  A    between atoms: C_7  and  S_1 
REMARK    3  A    between atoms: N_4  and  S_3 
REMARK       I    between atoms: C_6  and  N_4 
REMARK    4  A    between atoms: C_14  and  C_6 
ROOT
ATOM      1  N   UNL d   1       0.454   1.140  -0.476  0.00  0.00    -0.305 N 
ATOM      2  S   UNL d   1       0.394   3.562   1.745  0.00  0.00    -0.122 SA
ATOM      3  C   UNL d   1       1.311   2.346  -0.673  0.00  0.00     0.146 C 
ATOM      4  C   UNL d   1      -0.821   1.506   0.203  0.00  0.00     0.146 C 
ATOM      5  C   UNL d   1      -0.610   2.047   1.613  0.00  0.00     0.105 C 
ATOM      6  C   UNL d   1       1.740   3.009   0.639  0.00  0.00     0.105 C 
ENDROOT
BRANCH   2   7
ATOM      7  N   UNL d   1      -0.367   4.462   0.799  0.00  0.00    -0.306 N 
ATOM      8  C   UNL d   1      -0.080   5.776   0.883  0.00  0.00     0.261 C 
ATOM      9  O   UNL d   1       0.906   6.330   1.374  0.00  0.00    -0.267 OA
ATOM     10  HN  UNL d   1      -1.054   4.098   0.139  1.00  0.00     0.176 HD
BRANCH   8  11
ATOM     11  C   UNL d   1      -1.099   6.681   0.241  0.00  0.00     0.032 A 
ATOM     12  C   UNL d   1      -0.971   8.069   0.422  0.00  0.00     0.018 A 
ATOM     13  C   UNL d   1      -1.856   8.958  -0.195  0.00  0.00     0.025 A 
ATOM     14  C   UNL d   1      -2.881   8.462  -0.998  0.00  0.00     0.034 A 
ATOM     15  C   UNL d   1      -3.040   7.089  -1.170  0.00  0.00     0.025 A 
ATOM     16 CL   UNL d   1      -3.948   9.554  -1.795  0.00  0.00    -0.084 Cl
ATOM     17  C   UNL d   1      -2.155   6.201  -0.548  0.00  0.00     0.018 A 
ENDBRANCH   8  11
ENDBRANCH   2   7
BRANCH   1  18
ATOM     18  S   UNL d   1       1.190  -0.313  -0.022  0.00  0.00     0.260 S 
ATOM     19  O   UNL d   1       0.175  -1.241   0.433  0.00  0.00    -0.200 OA
ATOM     20  O   UNL d   1       2.381  -0.070   0.763  0.00  0.00    -0.200 OA
BRANCH  18  21
ATOM     21  C   UNL d   1       1.754  -0.943  -1.602  0.00  0.00     0.079 A 
ATOM     22  C   UNL d   1       3.021  -0.596  -2.080  0.00  0.00     0.027 A 
ATOM     23  C   UNL d   1       3.484  -1.150  -3.278  0.00  0.00     0.025 A 
ATOM     24  C   UNL d   1       2.689  -2.063  -3.973  0.00  0.00     0.034 A 
ATOM     25  C   UNL d   1       1.435  -2.429  -3.485  0.00  0.00     0.025 A 
ATOM     26 CL   UNL d   1       3.268  -2.758  -5.438  0.00  0.00    -0.084 Cl
ATOM     27  C   UNL d   1       0.964  -1.868  -2.294  0.00  0.00     0.027 A 
ENDBRANCH  18  21
ENDBRANCH   1  18
TORSDOF 4
