REMARK  3 active torsions:
REMARK  status: ('A' for Active; 'I' for Inactive)
REMARK    1  A    between atoms: C_11  and  C_7 
REMARK    2  A    between atoms: O_17  and  C_8 
REMARK    3  A    between atoms: O_18  and  C_13 
ROOT
ATOM      1  C   UNL d   1       1.192   0.145  -0.008  0.00  0.00     0.101 A 
ATOM      2  N   UNL d   1      -0.784  -1.243   0.001  0.00  0.00    -0.275 N 
ATOM      3  N   UNL d   1      -1.039   1.056  -0.007  0.00  0.00    -0.275 N 
ATOM      4  C   UNL d   1       0.581  -1.212   0.003  0.00  0.00     0.265 A 
ATOM      5  C   UNL d   1       0.299   1.333  -0.058  0.00  0.00     0.265 A 
ATOM      6  C   UNL d   1      -1.621  -0.173  -0.002  0.00  0.00     0.329 A 
ATOM      7  C   UNL d   1       2.538   0.203   0.034  0.00  0.00     0.034 C 
ATOM      8  O   UNL d   1       1.236  -2.249   0.016  0.00  0.00    -0.267 OA
ATOM      9  O   UNL d   1       0.684   2.492  -0.149  0.00  0.00    -0.267 OA
ATOM     10  O   UNL d   1      -2.839  -0.309  -0.006  0.00  0.00    -0.246 OA
ATOM     11  H   UNL d   1      -1.217  -2.156   0.005  0.00  0.00     0.173 HD
ATOM     12  H   UNL d   1      -1.662   1.851  -0.040  0.00  0.00     0.173 HD
ENDROOT
BRANCH   7  13
ATOM     13  C   UNL d   1       3.360   1.417   0.045  0.00  0.00    -0.032 A 
ATOM     14  C   UNL d   1       3.710   2.022   1.259  0.00  0.00     0.051 A 
ATOM     15  C   UNL d   1       4.464   3.196   1.252  0.00  0.00     0.099 A 
ATOM     16  C   UNL d   1       4.882   3.759   0.046  0.00  0.00     0.098 A 
ATOM     17  C   UNL d   1       4.553   3.151  -1.163  0.00  0.00     0.040 A 
ATOM     18  C   UNL d   1       3.792   1.979  -1.163  0.00  0.00     0.014 A 
BRANCH  15  19
ATOM     19  O   UNL d   1       4.796   3.810   2.428  0.00  0.00    -0.358 OA
ATOM     20  H   UNL d   1       4.299   3.398   3.150  0.00  0.00     0.217 HD
ENDBRANCH  15  19
BRANCH  16  21
ATOM     21  O   UNL d   1       5.610   4.916   0.062  0.00  0.00    -0.358 OA
ATOM     22  H   UNL d   1       5.777   5.196  -0.850  0.00  0.00     0.217 HD
ENDBRANCH  16  21
ENDBRANCH   7  13
TORSDOF 3
