REMARK  3 active torsions:
REMARK  status: ('A' for Active; 'I' for Inactive)
REMARK    1  A    between atoms: N_3  and  C_1 
REMARK    2  A    between atoms: S_5  and  C_2 
REMARK    3  A    between atoms: C_10  and  S_5 
ROOT
ATOM      1  C   UNL d   1      -1.941   4.240  -2.076  0.00  0.00     0.127 A 
ATOM      2  C   UNL d   1      -1.468   4.078  -0.781  0.00  0.00     0.079 A 
ATOM      3  S   UNL d   1      -2.290   5.123   0.319  0.00  0.00    -0.092 SA
ATOM      4  C   UNL d   1      -2.980   5.240  -2.136  0.00  0.00     0.045 A 
ATOM      5  C   UNL d   1      -3.263   5.789  -0.908  0.00  0.00     0.053 A 
ENDROOT
BRANCH   2   6
ATOM      6  S   UNL d   1      -0.281   2.940  -0.132  0.00  0.00    -0.081 SA
BRANCH   6   7
ATOM      7  C   UNL d   1       1.167   3.983  -0.163  0.00  0.00     0.006 A 
ATOM      8  C   UNL d   1       1.470   4.811   0.925  0.00  0.00     0.020 A 
ATOM      9  C   UNL d   1       2.655   5.553   0.942  0.00  0.00     0.025 A 
ATOM     10  C   UNL d   1       3.544   5.462  -0.127  0.00  0.00     0.034 A 
ATOM     11  C   UNL d   1       3.254   4.643  -1.216  0.00  0.00     0.025 A 
ATOM     12 CL   UNL d   1       5.018   6.349  -0.091  0.00  0.00    -0.084 Cl
ATOM     13  C   UNL d   1       2.068   3.902  -1.232  0.00  0.00     0.020 A 
ENDBRANCH   6   7
ENDBRANCH   2   6
BRANCH   1  14
ATOM     14  N   UNL d   1      -1.498   3.516  -3.252  0.00  0.00    -0.114 N 
ATOM     15  O   UNL d   1      -0.623   2.651  -3.128  0.00  0.00    -0.532 OA
ATOM     16  O   UNL d   1      -2.035   3.831  -4.323  0.00  0.00    -0.532 OA
ENDBRANCH   1  14
TORSDOF 3
