REMARK  8 active torsions:
REMARK  status: ('A' for Active; 'I' for Inactive)
REMARK    1  A    between atoms: N_4  and  C_1 
REMARK       I    between atoms: C_8  and  N_4 
REMARK    2  A    between atoms: C_7  and  C_5 
REMARK    3  A    between atoms: C_10  and  C_7 
REMARK    4  A    between atoms: C_17  and  C_8 
REMARK    5  A    between atoms: O_18  and  C_10 
REMARK    6  A    between atoms: C_11  and  S_14 
REMARK    7  A    between atoms: S_14  and  C_17 
REMARK    8  A    between atoms: C_21  and  O_18 
ROOT
ATOM      1  N   UNL d   1       0.251  -2.732  -0.107  0.00  0.00    -0.306 N 
ATOM      2  C   UNL d   1       1.266  -3.613  -0.417  0.00  0.00     0.233 C 
ATOM      3  O   UNL d   1       2.393  -3.314  -0.803  0.00  0.00    -0.272 OA
ATOM      4  H   UNL d   1      -0.670  -3.058   0.144  0.00  0.00     0.171 HD
ENDROOT
BRANCH   1   5
ATOM      5  C   UNL d   1       0.459  -1.382  -0.055  0.00  0.00     0.151 A 
ATOM      6  N   UNL d   1       1.574  -0.718  -0.172  0.00  0.00    -0.339 N 
ATOM      7  C   UNL d   1       1.340   0.637  -0.006  0.00  0.00     0.027 A 
ATOM      8  HN  UNL d   1       2.486  -1.134  -0.359  1.00  0.00     0.168 HD
ATOM      9  C   UNL d   1       0.003   0.966   0.156  0.00  0.00     0.078 A 
ATOM     10  S   UNL d   1      -0.950  -0.462   0.217  0.00  0.00    -0.064 SA
BRANCH   7  11
ATOM     11  C   UNL d   1       2.516   1.554  -0.070  0.00  0.00     0.168 C 
BRANCH  11  12
ATOM     12  C   UNL d   1       2.552   2.571   1.046  0.00  0.00     0.264 C 
ATOM     13  O   UNL d   1       1.683   2.763   1.885  0.00  0.00    -0.265 OA
BRANCH  12  14
ATOM     14  O   UNL d   1       3.687   3.325   0.921  0.00  0.00    -0.322 OA
BRANCH  14  15
ATOM     15  C   UNL d   1       3.744   4.494   1.749  0.00  0.00     0.174 C 
ATOM     16  C   UNL d   1       3.044   5.634   1.032  0.00  0.00     0.034 C 
ENDBRANCH  14  15
ENDBRANCH  12  14
ENDBRANCH  11  12
ENDBRANCH   7  11
ENDBRANCH   1   5
BRANCH   2  17
ATOM     17  C   UNL d   1       0.836  -5.069  -0.292  0.00  0.00     0.184 C 
BRANCH  17  18
ATOM     18  S   UNL d   1       2.024  -6.018   0.705  0.00  0.00    -0.103 SA
BRANCH  18  19
ATOM     19  C   UNL d   1       1.887  -5.137   2.248  0.00  0.00     0.069 A 
ATOM     20  N   UNL d   1       0.666  -4.665   2.597  0.00  0.00    -0.361 N 
ATOM     21  C   UNL d   1       0.572  -4.055   3.800  0.00  0.00     0.089 A 
ATOM     22  HN  UNL d   1      -0.142  -4.766   1.983  1.00  0.00     0.165 HD
ATOM     23  C   UNL d   1       1.636  -3.888   4.671  0.00  0.00     0.017 A 
ATOM     24  C   UNL d   1       2.880  -4.371   4.287  0.00  0.00     0.004 A 
ATOM     25  C   UNL d   1       3.010  -5.010   3.057  0.00  0.00     0.037 A 
ENDBRANCH  18  19
ENDBRANCH  17  18
ENDBRANCH   2  17
TORSDOF 8
