REMARK  5 active torsions:
REMARK  status: ('A' for Active; 'I' for Inactive)
REMARK    1  A    between atoms: S_3  and  C_1 
REMARK    2  A    between atoms: S_6  and  C_2 
REMARK    3  A    between atoms: C_13  and  S_3 
REMARK    4  A    between atoms: C_8  and  C_7 
REMARK    5  A    between atoms: O_16  and  C_8 
ROOT
ATOM      1  C   UNL d   1       1.504   0.752   0.004  0.00  0.00     0.089 A 
ATOM      2  C   UNL d   1       0.232   1.307  -0.177  0.00  0.00     0.121 A 
ATOM      3  S   UNL d   1      -0.947   0.050  -0.209  0.00  0.00    -0.071 SA
ATOM      4  C   UNL d   1       1.475  -0.682   0.036  0.00  0.00     0.050 A 
ATOM      5  C   UNL d   1       0.203  -1.198  -0.059  0.00  0.00     0.083 A 
ENDROOT
BRANCH   1   6
ATOM      6  S   UNL d   1       3.057   1.539   0.202  0.00  0.00     0.180 S 
ATOM      7  O   UNL d   1       3.996   0.558  -0.302  0.00  0.00    -0.222 OA
ATOM      8  O   UNL d   1       2.913   2.838  -0.415  0.00  0.00    -0.222 OA
BRANCH   6   9
ATOM      9  C   UNL d   1       3.329   1.687   1.967  0.00  0.00     0.105 C 
ATOM     10  C   UNL d   1       4.682   2.336   2.273  0.00  0.00     0.026 C 
ATOM     11  C   UNL d   1       2.212   2.421   2.687  0.00  0.00     0.026 C 
ENDBRANCH   6   9
ENDBRANCH   1   6
BRANCH   2  12
ATOM     12  S   UNL d   1      -0.471   2.967  -0.300  0.00  0.00     0.179 S 
ATOM     13  O   UNL d   1      -0.293   3.516   1.030  0.00  0.00    -0.222 OA
ATOM     14  O   UNL d   1       0.136   3.559  -1.472  0.00  0.00    -0.222 OA
ATOM     15  C   UNL d   1      -2.235   2.893  -0.605  0.00  0.00     0.167 C 
ENDBRANCH   2  12
BRANCH   5  16
ATOM     16  C   UNL d   1      -0.229  -2.581  -0.040  0.00  0.00     0.299 C 
ATOM     17  O   UNL d   1      -1.389  -2.976  -0.095  0.00  0.00    -0.259 OA
BRANCH  16  18
ATOM     18  O   UNL d   1       0.856  -3.403   0.060  0.00  0.00    -0.322 OA
ATOM     19  C   UNL d   1       0.535  -4.795   0.077  0.00  0.00     0.213 C 
ENDBRANCH  16  18
ENDBRANCH   5  16
TORSDOF 5
