REMARK  2 active torsions:
REMARK  status: ('A' for Active; 'I' for Inactive)
REMARK    1  A    between atoms: C_4  and  C_1 
REMARK    2  A    between atoms: C_5  and  C_2 
ROOT
ATOM      1  C   UNL d   1       1.301   0.540   0.175  0.00  0.00     0.104 A 
ATOM      2  C   UNL d   1       1.244   1.737  -0.417  0.00  0.00     0.104 A 
ATOM      3  C   UNL d   1       0.378   1.522   0.744  0.00  0.00     0.146 A 
ATOM      4  O   UNL d   1      -0.830   1.492   0.807  0.00  0.00    -0.296 OA
ENDROOT
BRANCH   1   5
ATOM      5  C   UNL d   1       2.548  -0.026   0.686  0.00  0.00    -0.046 A 
ATOM      6  C   UNL d   1       2.961   0.178   2.010  0.00  0.00     0.008 A 
ATOM      7  C   UNL d   1       4.248  -0.187   2.409  0.00  0.00     0.001 A 
ATOM      8  C   UNL d   1       5.124  -0.770   1.495  0.00  0.00     0.000 A 
ATOM      9  C   UNL d   1       4.704  -1.023   0.191  0.00  0.00     0.001 A 
ATOM     10  C   UNL d   1       3.417  -0.667  -0.208  0.00  0.00     0.008 A 
ENDBRANCH   1   5
BRANCH   2  11
ATOM     11  C   UNL d   1       2.442   2.549  -0.608  0.00  0.00    -0.046 A 
ATOM     12  C   UNL d   1       3.113   2.460  -1.836  0.00  0.00     0.008 A 
ATOM     13  C   UNL d   1       4.371   3.042  -1.998  0.00  0.00     0.001 A 
ATOM     14  C   UNL d   1       4.962   3.730  -0.941  0.00  0.00     0.000 A 
ATOM     15  C   UNL d   1       4.282   3.867   0.268  0.00  0.00     0.001 A 
ATOM     16  C   UNL d   1       3.022   3.291   0.432  0.00  0.00     0.008 A 
ENDBRANCH   2  11
TORSDOF 2
