REMARK  7 active torsions:
REMARK  status: ('A' for Active; 'I' for Inactive)
REMARK    1  A    between atoms: C_9  and  C_18 
REMARK    2  A    between atoms: O_13  and  C_9 
REMARK    3  A    between atoms: O_16  and  C_12 
REMARK    4  A    between atoms: C_19  and  O_16 
REMARK    5  A    between atoms: C_18  and  C_20 
REMARK    6  A    between atoms: C_21  and  C_19 
REMARK    7  A    between atoms: C_20  and  C_21 
ROOT
ATOM      1  C   UNL d   1       0.004   1.297  -0.028  0.00  0.00     0.198 A 
ATOM      2  C   UNL d   1      -1.251   0.535  -0.025  0.00  0.00     0.051 A 
ATOM      3  C   UNL d   1       1.251   0.520  -0.002  0.00  0.00     0.049 A 
ATOM      4  O   UNL d   1      -0.012  -1.569  -0.046  0.00  0.00    -0.309 OA
ATOM      5  C   UNL d   1      -1.185  -0.857  -0.019  0.00  0.00     0.090 A 
ATOM      6  C   UNL d   1       1.170  -0.870  -0.021  0.00  0.00     0.090 A 
ATOM      7  C   UNL d   1      -2.484   1.198  -0.015  0.00  0.00     0.055 A 
ATOM      8  O   UNL d   1       0.013   2.521  -0.053  0.00  0.00    -0.286 OA
ATOM      9  C   UNL d   1      -2.366  -1.597   0.019  0.00  0.00     0.041 A 
ATOM     10  C   UNL d   1      -3.663   0.457   0.004  0.00  0.00     0.069 A 
ATOM     11  C   UNL d   1      -3.599  -0.939   0.044  0.00  0.00     0.039 A 
ATOM     12  C   UNL d   1       2.493   1.163   0.042  0.00  0.00     0.018 A 
ATOM     13  C   UNL d   1       2.342  -1.628  -0.010  0.00  0.00     0.038 A 
ATOM     14  C   UNL d   1       3.661   0.401   0.062  0.00  0.00     0.001 A 
ATOM     15  C   UNL d   1       3.586  -0.993   0.033  0.00  0.00     0.003 A 
ENDROOT
BRANCH  10  16
ATOM     16  O   UNL d   1      -4.926   0.980   0.030  0.00  0.00    -0.351 OA
BRANCH  16  17
ATOM     17  C   UNL d   1      -5.090   2.266  -0.571  0.00  0.00     0.175 C 
BRANCH  17  18
ATOM     18  C   UNL d   1      -6.554   2.688  -0.426  0.00  0.00     0.027 C 
BRANCH  18  19
ATOM     19  C   UNL d   1      -6.942   2.825   1.049  0.00  0.00     0.012 C 
BRANCH  19  20
ATOM     20  C   UNL d   1      -8.391   3.266   1.236  0.00  0.00     0.110 C 
BRANCH  20  21
ATOM     21  C   UNL d   1      -8.739   3.390   2.705  0.00  0.00     0.139 C 
ATOM     22  O   UNL d   1      -7.978   3.181   3.635  0.00  0.00    -0.650 OA
BRANCH  21  23
ATOM     23  O   UNL d   1     -10.021   3.775   2.898  0.00  0.00    -0.776 OA
ATOM     24  H   UNL d   1     -10.520   3.907   2.069  0.00  0.00     0.167 HD
ENDBRANCH  21  23
ENDBRANCH  20  21
ENDBRANCH  19  20
ENDBRANCH  18  19
ENDBRANCH  17  18
ENDBRANCH  16  17
ENDBRANCH  10  16
TORSDOF 7
