REMARK  5 active torsions:
REMARK  status: ('A' for Active; 'I' for Inactive)
REMARK    1  A    between atoms: C_2  and  C_1 
REMARK    2  A    between atoms: C_3  and  C_1 
REMARK    3  A    between atoms: N_4  and  C_1 
REMARK    4  A    between atoms: N_5  and  C_1 
REMARK       I    between atoms: C_6  and  N_4 
REMARK    5  A    between atoms: C_14  and  N_5 
ROOT
ATOM      1  C   UNL d   1       0.807  -0.007   0.122  0.00  0.00     0.290 C 
ENDROOT
BRANCH   1   2
ATOM      2  C   UNL d   1       0.064  -1.002   1.086  0.00  0.00     0.435 C 
ATOM      3  F   UNL d   1      -1.087  -0.543   1.619  0.00  0.00    -0.167 F 
ATOM      4  F   UNL d   1      -0.267  -2.162   0.455  0.00  0.00    -0.167 F 
ATOM      5  F   UNL d   1       0.859  -1.349   2.133  0.00  0.00    -0.167 F 
ENDBRANCH   1   2
BRANCH   1   6
ATOM      6  C   UNL d   1       0.574   1.428   0.744  0.00  0.00     0.435 C 
ATOM      7  F   UNL d   1      -0.216   1.496   1.830  0.00  0.00    -0.167 F 
ATOM      8  F   UNL d   1       1.780   1.941   1.144  0.00  0.00    -0.167 F 
ATOM      9  F   UNL d   1       0.099   2.315  -0.167  0.00  0.00    -0.167 F 
ENDBRANCH   1   6
BRANCH   1  10
ATOM     10  N   UNL d   1       0.444  -0.099  -1.299  0.00  0.00    -0.324 N 
ATOM     11  C   UNL d   1      -0.845   0.031  -1.718  0.00  0.00     0.215 C 
ATOM     12  O   UNL d   1      -1.760   0.206  -0.928  0.00  0.00    -0.274 OA
ATOM     13  C   UNL d   1      -1.044  -0.105  -3.197  0.00  0.00     0.117 C 
ATOM     14  H   UNL d   1       1.217  -0.198  -1.942  0.00  0.00     0.165 HD
ENDBRANCH   1  10
BRANCH   1  15
ATOM     15  N   UNL d   1       2.311  -0.238  -0.006  0.00  0.00    -0.251 NA
ATOM     16  H   UNL d   1       2.802   0.367   0.660  0.00  0.00     0.130 HD
BRANCH  15  17
ATOM     17  C   UNL d   1       2.892  -1.506  -0.035  0.00  0.00     0.010 A 
ATOM     18  C   UNL d   1       2.290  -2.624  -0.615  0.00  0.00     0.024 A 
ATOM     19  C   UNL d   1       2.918  -3.872  -0.616  0.00  0.00     0.008 A 
ATOM     20  C   UNL d   1       4.204  -4.020  -0.096  0.00  0.00    -0.062 A 
ATOM     21  C   UNL d   1       4.852  -2.897   0.416  0.00  0.00     0.008 A 
ATOM     22  C   UNL d   1       4.846  -5.374  -0.078  0.00  0.00     0.048 C 
ATOM     23  C   UNL d   1       4.207  -1.654   0.431  0.00  0.00     0.024 A 
ENDBRANCH  15  17
ENDBRANCH   1  15
TORSDOF 5
