REMARK  7 active torsions:
REMARK  status: ('A' for Active; 'I' for Inactive)
REMARK    1  A    between atoms: N_10  and  C_1 
REMARK    2  A    between atoms: S_13  and  C_2 
REMARK    3  A    between atoms: S_14  and  C_3 
REMARK    4  A    between atoms: C_15  and  N_10 
REMARK    5  A    between atoms: C_11  and  S_13 
REMARK    6  A    between atoms: C_12  and  S_14 
REMARK    7  A    between atoms: C_28  and  C_15 
ROOT
ATOM      1  C   UNL d   1       0.994  -3.389  -0.755  0.00  0.00     0.135 C 
ATOM      2  N   UNL d   1      -1.140  -4.588   0.290  0.00  0.00    -0.195 NA
ATOM      3  C   UNL d   1      -0.217  -4.046  -0.160  0.00  0.00     0.091 C 
ATOM      4  C   UNL d   1       2.161  -4.395  -0.609  0.00  0.00     0.056 C 
ENDROOT
BRANCH   1   5
ATOM      5  N   UNL d   1       1.386  -2.201   0.032  0.00  0.00    -0.204 N 
ATOM      6  H   UNL d   1       2.356  -1.913  -0.028  0.00  0.00     0.179 HD
BRANCH   5   7
ATOM      7  C   UNL d   1       0.585  -1.076   0.049  0.00  0.00     0.683 A 
ATOM      8  N   UNL d   1      -0.731  -1.193  -0.019  0.00  0.00    -0.170 N 
ATOM      9  C   UNL d   1      -1.418  -0.055  -0.002  0.00  0.00     0.166 A 
ATOM     10  HN  UNL d   1      -1.191  -2.101  -0.081  1.00  0.00     0.186 HD
ATOM     11  N   UNL d   1      -0.885   1.160   0.024  0.00  0.00    -0.316 N 
ATOM     12  C   UNL d   1       0.443   1.162   0.073  0.00  0.00     0.166 A 
ATOM     13  HN  UNL d   1      -1.443   2.013   0.008  1.00  0.00     0.170 HD
ATOM     14  N   UNL d   1       1.218   0.081   0.101  0.00  0.00    -0.170 N 
ATOM     15  HN  UNL d   1       2.234   0.142   0.159  1.00  0.00     0.186 HD
BRANCH   9  16
ATOM     16  S   UNL d   1      -3.178  -0.184  -0.208  0.00  0.00    -0.052 SA
BRANCH  16  17
ATOM     17  C   UNL d   1      -3.751  -0.115   1.487  0.00  0.00     0.030 A 
ATOM     18  C   UNL d   1      -4.056   1.083   2.150  0.00  0.00     0.052 A 
ATOM     19  C   UNL d   1      -4.584   1.063   3.445  0.00  0.00     0.049 A 
ATOM     20 CL   UNL d   1      -3.846   2.635   1.412  0.00  0.00    -0.083 Cl
ATOM     21  C   UNL d   1      -4.837  -0.151   4.090  0.00  0.00     0.041 A 
ATOM     22  C   UNL d   1      -4.564  -1.365   3.446  0.00  0.00    -0.039 A 
ATOM     23 CL   UNL d   1      -5.504  -0.075   5.682  0.00  0.00    -0.084 Cl
ATOM     24  C   UNL d   1      -4.013  -1.329   2.147  0.00  0.00     0.029 A 
ATOM     25  C   UNL d   1      -4.873  -2.711   4.044  0.00  0.00     0.050 C 
ENDBRANCH  16  17
ENDBRANCH   9  16
BRANCH  12  26
ATOM     26  S   UNL d   1       1.245   2.748   0.087  0.00  0.00    -0.052 SA
BRANCH  26  27
ATOM     27  C   UNL d   1       1.431   3.032  -1.673  0.00  0.00     0.030 A 
ATOM     28  C   UNL d   1       2.593   2.709  -2.388  0.00  0.00     0.052 A 
ATOM     29  C   UNL d   1       2.697   3.020  -3.747  0.00  0.00     0.049 A 
ATOM     30 CL   UNL d   1       3.951   1.927  -1.653  0.00  0.00    -0.083 Cl
ATOM     31  C   UNL d   1       1.644   3.654  -4.413  0.00  0.00     0.041 A 
ATOM     32  C   UNL d   1       0.468   3.982  -3.727  0.00  0.00    -0.039 A 
ATOM     33 CL   UNL d   1       1.869   4.009  -6.088  0.00  0.00    -0.084 Cl
ATOM     34  C   UNL d   1       0.379   3.667  -2.355  0.00  0.00     0.029 A 
ATOM     35  C   UNL d   1      -0.712   4.660  -4.368  0.00  0.00     0.050 C 
ENDBRANCH  26  27
ENDBRANCH  12  26
ENDBRANCH   5   7
ENDBRANCH   1   5
BRANCH   1  36
ATOM     36  C   UNL d   1       0.740  -3.027  -2.271  0.00  0.00     0.020 C 
ATOM     37  C   UNL d   1       1.960  -2.410  -2.974  0.00  0.00     0.013 C 
ATOM     38  C   UNL d   1       0.247  -4.216  -3.117  0.00  0.00     0.013 C 
ENDBRANCH   1  36
TORSDOF 7
