REMARK  3 active torsions:
REMARK  status: ('A' for Active; 'I' for Inactive)
REMARK    1  A    between atoms: C_3  and  C_1 
REMARK    2  A    between atoms: C_4  and  C_2 
REMARK       I    between atoms: N_5  and  C_3 
REMARK       I    between atoms: C_11  and  N_5 
REMARK       I    between atoms: N_16  and  C_11 
REMARK    3  A    between atoms: C_19  and  N_16 
ROOT
ATOM      1  C   UNL d   1       0.219  -1.368   0.044  0.00  0.00     0.094 A 
ATOM      2  C   UNL d   1      -0.945  -0.622   0.109  0.00  0.00     0.145 A 
ATOM      3  O   UNL d   1      -0.609   0.701   0.215  0.00  0.00    -0.234 OA
ATOM      4  N   UNL d   1       0.748   0.847   0.323  0.00  0.00    -0.264 N 
ATOM      5  HN  UNL d   1       1.268   1.717   0.441  1.00  0.00     0.194 HD
ATOM      6  C   UNL d   1       1.246  -0.387   0.243  0.00  0.00     0.047 A 
ATOM      7  C   UNL d   1       2.706  -0.596   0.406  0.00  0.00     0.071 C 
ENDROOT
BRANCH   1   8
ATOM      8  C   UNL d   1       0.484  -2.772  -0.204  0.00  0.00     0.264 C 
ATOM      9  N   UNL d   1      -0.383  -3.712   0.308  0.00  0.00    -0.275 N 
ATOM     10  C   UNL d   1      -0.048  -5.023   0.606  0.00  0.00     0.327 C 
ATOM     11  H   UNL d   1      -1.183  -3.392   0.841  0.00  0.00     0.173 HD
ATOM     12  N   UNL d   1       0.997  -5.539  -0.122  0.00  0.00    -0.309 N 
ATOM     13  O   UNL d   1      -0.672  -5.600   1.493  0.00  0.00    -0.247 OA
ATOM     14  H   UNL d   1       1.338  -4.937  -0.868  0.00  0.00     0.170 HD
ATOM     15  O   UNL d   1       1.466  -3.096  -0.873  0.00  0.00    -0.267 OA
BRANCH  12  16
ATOM     16  C   UNL d   1       1.644  -6.781   0.012  0.00  0.00     0.036 A 
ATOM     17  C   UNL d   1       2.578  -7.129  -0.975  0.00  0.00     0.029 A 
ATOM     18  C   UNL d   1       3.276  -8.338  -0.916  0.00  0.00     0.002 A 
ATOM     19  C   UNL d   1       3.061  -9.207   0.153  0.00  0.00     0.000 A 
ATOM     20  C   UNL d   1       2.146  -8.866   1.148  0.00  0.00     0.002 A 
ATOM     21  C   UNL d   1       1.436  -7.662   1.075  0.00  0.00     0.029 A 
ENDBRANCH  12  16
ENDBRANCH   1   8
BRANCH   2  22
ATOM     22  C   UNL d   1      -2.380  -1.008   0.103  0.00  0.00     0.094 A 
ATOM     23  N   UNL d   1      -2.840  -2.258   0.212  0.00  0.00    -0.258 N 
ATOM     24  O   UNL d   1      -4.223  -2.132   0.327  0.00  0.00    -0.242 OA
ATOM     25  HN  UNL d   1      -2.295  -3.120   0.212  1.00  0.00     0.195 HD
ATOM     26  C   UNL d   1      -4.565  -0.815   0.271  0.00  0.00     0.074 A 
ATOM     27  C   UNL d   1      -3.433  -0.066   0.087  0.00  0.00     0.068 A 
ATOM     28  C   UNL d   1      -5.987  -0.468   0.451  0.00  0.00     0.079 C 
ENDBRANCH   2  22
TORSDOF 3
