REMARK  5 active torsions:
REMARK  status: ('A' for Active; 'I' for Inactive)
REMARK    1  A    between atoms: C_5  and  S_1 
REMARK    2  A    between atoms: N_14  and  S_1 
REMARK    3  A    between atoms: C_3  and  C_4 
REMARK    4  A    between atoms: S_18  and  C_8 
REMARK    5  A    between atoms: C_17  and  N_14 
ROOT
ATOM      1  C   UNL d   1       0.543  -3.875   1.022  0.00  0.00     0.018 A 
ATOM      2  C   UNL d   1       0.571  -1.575   0.596  0.00  0.00     0.121 A 
ATOM      3  C   UNL d   1       1.169  -2.794   0.333  0.00  0.00     0.048 A 
ATOM      4  S   UNL d   1      -0.710  -1.740   1.716  0.00  0.00    -0.087 SA
ATOM      5  C   UNL d   1      -0.540  -3.444   1.758  0.00  0.00     0.066 A 
ENDROOT
BRANCH   2   6
ATOM      6  S   UNL d   1       0.930   0.065  -0.016  0.00  0.00     0.269 S 
ATOM      7  O   UNL d   1      -0.294   0.827   0.119  0.00  0.00    -0.200 OA
ATOM      8  O   UNL d   1       1.550  -0.159  -1.304  0.00  0.00    -0.200 OA
BRANCH   6   9
ATOM      9  N   UNL d   1       2.054   0.762   1.042  0.00  0.00    -0.280 N 
ATOM     10  H   UNL d   1       1.619   0.974   1.940  0.00  0.00     0.179 HD
BRANCH   9  11
ATOM     11  C   UNL d   1       3.361   0.193   1.091  0.00  0.00     0.044 A 
ATOM     12  C   UNL d   1       3.712  -0.661   2.134  0.00  0.00     0.054 A 
ATOM     13  C   UNL d   1       4.994  -1.211   2.164  0.00  0.00     0.036 A 
ATOM     14 CL   UNL d   1       5.429  -2.278   3.442  0.00  0.00    -0.084 Cl
ATOM     15  C   UNL d   1       5.923  -0.913   1.168  0.00  0.00     0.024 A 
ATOM     16  C   UNL d   1       5.561  -0.072   0.117  0.00  0.00     0.004 A 
ATOM     17  C   UNL d   1       4.276   0.473   0.073  0.00  0.00     0.030 A 
ENDBRANCH   9  11
ENDBRANCH   6   9
ENDBRANCH   2   6
BRANCH   1  18
ATOM     18  C   UNL d   1       0.926  -5.319   0.951  0.00  0.00     0.134 C 
ATOM     19  N   UNL d   1       2.147  -5.860   0.623  0.00  0.00    -0.315 N 
ATOM     20  C   UNL d   1       1.944  -7.211   0.549  0.00  0.00     0.162 C 
ATOM     21  C   UNL d   1       3.417  -5.185   0.559  0.00  0.00     0.160 C 
ATOM     22  N   UNL d   1       0.719  -7.496   0.918  0.00  0.00    -0.278 N 
ATOM     23  N   UNL d   1       0.089  -6.306   1.214  0.00  0.00    -0.283 N 
ATOM     24  HN  UNL d   1       0.307  -8.428   0.977  1.00  0.00     0.189 HD
ATOM     25  HN  UNL d   1      -0.860  -6.205   1.574  1.00  0.00     0.188 HD
BRANCH  20  26
ATOM     26  S   UNL d   1       3.170  -8.323   0.047  0.00  0.00    -0.097 SA
ATOM     27  C   UNL d   1       2.250  -9.876   0.039  0.00  0.00     0.099 C 
ENDBRANCH  20  26
ENDBRANCH   1  18
TORSDOF 5
