REMARK  7 active torsions:
REMARK  status: ('A' for Active; 'I' for Inactive)
REMARK    1  A    between atoms: C_4  and  C_1 
REMARK    2  A    between atoms: C_5  and  C_2 
REMARK       I    between atoms: N_8  and  C_4 
REMARK    3  A    between atoms: O_21  and  C_5 
REMARK    4  A    between atoms: C_17  and  C_6 
REMARK    5  A    between atoms: C_7  and  O_11 
REMARK    6  A    between atoms: C_18  and  N_8 
REMARK    7  A    between atoms: O_11  and  C_12 
ROOT
ATOM      1  N   UNL d   1      -5.607  -3.325  -3.891  0.00  0.00    -0.344 N 
ATOM      2  HN  UNL d   1      -6.005  -4.065  -3.312  1.00  0.00     0.167 HD
ATOM      3  C   UNL d   1      -4.410  -2.780  -3.607  0.00  0.00     0.148 A 
ATOM      4  C   UNL d   1      -5.775  -1.862  -5.830  0.00  0.00     0.050 A 
ATOM      5  C   UNL d   1      -6.261  -2.851  -4.976  0.00  0.00     0.119 A 
ATOM      6  C   UNL d   1      -3.832  -1.784  -4.383  0.00  0.00     0.059 A 
ATOM      7  C   UNL d   1      -4.528  -1.319  -5.509  0.00  0.00     0.035 A 
ENDROOT
BRANCH   3   8
ATOM      8  O   UNL d   1      -3.681  -3.283  -2.533  0.00  0.00    -0.293 OA
BRANCH   8   9
ATOM      9  C   UNL d   1      -4.384  -3.838  -1.483  0.00  0.00     0.084 A 
ATOM     10  C   UNL d   1      -3.952  -5.034  -0.874  0.00  0.00    -0.018 A 
ATOM     11  C   UNL d   1      -4.685  -5.484   0.255  0.00  0.00     0.034 A 
ATOM     12  C   UNL d   1      -5.798  -4.795   0.738  0.00  0.00     0.034 A 
ATOM     13  C   UNL d   1      -6.218  -3.629   0.121  0.00  0.00     0.026 A 
ATOM     14 CL   UNL d   1      -6.656  -5.398   2.102  0.00  0.00    -0.084 Cl
ATOM     15  C   UNL d   1      -5.497  -3.141  -0.965  0.00  0.00     0.039 A 
BRANCH  10  16
ATOM     16  C   UNL d   1      -2.827  -5.960  -1.343  0.00  0.00     0.021 C 
ATOM     17  C   UNL d   1      -1.418  -5.373  -1.504  0.00  0.00     0.009 C 
ATOM     18  C   UNL d   1      -1.081  -4.805  -2.877  0.00  0.00     0.001 C 
ATOM     19  C   UNL d   1      -1.567  -5.663  -4.041  0.00  0.00     0.000 C 
ATOM     20  C   UNL d   1      -2.990  -6.186  -3.889  0.00  0.00     0.001 C 
ATOM     21  C   UNL d   1      -3.227  -6.840  -2.537  0.00  0.00     0.009 C 
ENDBRANCH  10  16
ENDBRANCH   8   9
ENDBRANCH   3   8
BRANCH   4  22
ATOM     22  N   UNL d   1      -6.445  -1.438  -7.006  0.00  0.00    -0.326 N 
ATOM     23  C   UNL d   1      -7.713  -1.855  -7.373  0.00  0.00     0.227 C 
ATOM     24  O   UNL d   1      -8.489  -2.494  -6.679  0.00  0.00    -0.273 OA
ATOM     25  H   UNL d   1      -5.946  -0.811  -7.627  0.00  0.00     0.169 HD
BRANCH  23  26
ATOM     26  C   UNL d   1      -8.140  -1.488  -8.755  0.00  0.00     0.093 A 
ATOM     27  C   UNL d   1      -9.633  -1.534  -9.061  0.00  0.00     0.097 A 
ATOM     28  C   UNL d   1      -8.710  -2.569  -9.652  0.00  0.00     0.031 A 
BRANCH  27  29
ATOM     29  C   UNL d   1     -10.257  -0.516  -9.930  0.00  0.00     0.144 C 
ATOM     30  O   UNL d   1      -9.603   0.272 -10.595  0.00  0.00    -0.650 OA
BRANCH  29  31
ATOM     31  O   UNL d   1     -11.608  -0.569  -9.935  0.00  0.00    -0.776 OA
ATOM     32  H   UNL d   1     -11.974  -1.277  -9.370  0.00  0.00     0.167 HD
ENDBRANCH  29  31
ENDBRANCH  27  29
ENDBRANCH  23  26
ENDBRANCH   4  22
TORSDOF 7
