REMARK  9 active torsions:
REMARK  status: ('A' for Active; 'I' for Inactive)
REMARK    1  A    between atoms: N_3  and  C_1 
REMARK    2  A    between atoms: N_4  and  C_2 
REMARK    3  A    between atoms: C_5  and  C_13 
REMARK    4  A    between atoms: C_6  and  C_14 
REMARK    5  A    between atoms: O_15  and  C_7 
REMARK    6  A    between atoms: C_10  and  O_16 
REMARK    7  A    between atoms: C_19  and  C_11 
REMARK    8  A    between atoms: C_12  and  O_15 
REMARK    9  A    between atoms: O_16  and  C_23 
ROOT
ATOM      1  C   UNL d   1       3.042  -2.505   1.084  0.00  0.00    -0.014 C 
ATOM      2  C   UNL d   1       2.253  -2.999   0.014  0.00  0.00     0.083 C 
ATOM      3  C   UNL d   1       4.450  -2.691   0.972  0.00  0.00     0.048 C 
ATOM      4  C   UNL d   1       5.027  -3.413  -0.079  0.00  0.00     0.076 C 
ATOM      5  C   UNL d   1       2.863  -3.713  -1.038  0.00  0.00     0.040 C 
ATOM      6  C   UNL d   1       4.214  -4.012  -1.026  0.00  0.00     0.040 C 
ENDROOT
BRANCH   2   7
ATOM      7  O   UNL d   1       0.884  -2.768   0.016  0.00  0.00    -0.308 OA
BRANCH   7   8
ATOM      8  C   UNL d   1       0.107  -3.403  -0.934  0.00  0.00     0.109 A 
ATOM      9  C   UNL d   1      -0.045  -4.793  -1.025  0.00  0.00     0.137 A 
ATOM     10  C   UNL d   1      -0.650  -5.382  -2.143  0.00  0.00     0.055 A 
ATOM     11  C   UNL d   1      -1.172  -4.574  -3.163  0.00  0.00     0.050 A 
ATOM     12  C   UNL d   1      -1.131  -3.176  -3.006  0.00  0.00     0.019 A 
ATOM     13  C   UNL d   1      -0.491  -2.595  -1.900  0.00  0.00     0.040 A 
BRANCH   9  14
ATOM     14  N   UNL d   1       0.515  -5.669  -0.010  0.00  0.00    -0.113 N 
ATOM     15  O   UNL d   1       0.191  -5.462   1.163  0.00  0.00    -0.532 OA
ATOM     16  O   UNL d   1       1.245  -6.586  -0.413  0.00  0.00    -0.532 OA
ENDBRANCH   9  14
BRANCH  11  17
ATOM     17  C   UNL d   1      -1.753  -5.183  -4.420  0.00  0.00     0.417 C 
ATOM     18  F   UNL d   1      -1.560  -6.529  -4.502  0.00  0.00    -0.166 F 
ATOM     19  F   UNL d   1      -3.092  -4.984  -4.524  0.00  0.00    -0.166 F 
ATOM     20  F   UNL d   1      -1.200  -4.659  -5.548  0.00  0.00    -0.166 F 
ENDBRANCH  11  17
ENDBRANCH   7   8
ENDBRANCH   2   7
BRANCH   1  21
ATOM     21  C   UNL d   1       2.486  -1.759   2.329  0.00  0.00    -0.021 C 
ATOM     22  C   UNL d   1       1.008  -2.062   2.665  0.00  0.00     0.019 C 
ATOM     23  C   UNL d   1       3.275  -2.135   3.614  0.00  0.00     0.019 C 
ATOM     24  C   UNL d   1       2.622  -0.237   2.116  0.00  0.00     0.019 C 
ENDBRANCH   1  21
BRANCH   4  25
ATOM     25  O   UNL d   1       6.404  -3.483  -0.152  0.00  0.00    -0.308 OA
BRANCH  25  26
ATOM     26  C   UNL d   1       6.989  -3.394  -1.405  0.00  0.00     0.109 A 
ATOM     27  C   UNL d   1       8.196  -4.048  -1.661  0.00  0.00     0.137 A 
ATOM     28  C   UNL d   1       8.820  -3.987  -2.921  0.00  0.00     0.055 A 
ATOM     29  C   UNL d   1       8.215  -3.269  -3.961  0.00  0.00     0.050 A 
ATOM     30  C   UNL d   1       7.015  -2.595  -3.710  0.00  0.00     0.019 A 
ATOM     31  C   UNL d   1       6.432  -2.625  -2.440  0.00  0.00     0.040 A 
BRANCH  27  32
ATOM     32  N   UNL d   1       8.845  -4.818  -0.619  0.00  0.00    -0.113 N 
ATOM     33  O   UNL d   1       9.995  -4.475  -0.311  0.00  0.00    -0.532 OA
ATOM     34  O   UNL d   1       8.233  -5.792  -0.163  0.00  0.00    -0.532 OA
ENDBRANCH  27  32
BRANCH  29  35
ATOM     35  C   UNL d   1       8.829  -3.196  -5.342  0.00  0.00     0.417 C 
ATOM     36  F   UNL d   1      10.059  -3.768  -5.421  0.00  0.00    -0.166 F 
ATOM     37  F   UNL d   1       8.060  -3.821  -6.277  0.00  0.00    -0.166 F 
ATOM     38  F   UNL d   1       8.977  -1.915  -5.774  0.00  0.00    -0.166 F 
ENDBRANCH  29  35
ENDBRANCH  25  26
ENDBRANCH   4  25
TORSDOF 9
