REMARK  6 active torsions:
REMARK  status: ('A' for Active; 'I' for Inactive)
REMARK    1  A    between atoms: C_6  and  C_1 
REMARK    2  A    between atoms: C_8  and  C_2 
REMARK    3  A    between atoms: C_12  and  N_3 
REMARK    4  A    between atoms: S_11  and  C_8 
REMARK    5  A    between atoms: C_9  and  C_10 
REMARK    6  A    between atoms: C_10  and  S_11 
ROOT
ATOM      1  C   UNL d   1       0.949  -0.517   0.100  0.00  0.00     0.156 A 
ATOM      2  C   UNL d   1      -0.361  -1.017   0.068  0.00  0.00     0.071 A 
ATOM      3  N   UNL d   1       0.877   0.849  -0.183  0.00  0.00    -0.251 N 
ATOM      4  N   UNL d   1      -0.426   1.234  -0.285  0.00  0.00    -0.303 N 
ATOM      5  HN  UNL d   1      -0.777   2.180  -0.435  1.00  0.00     0.186 HD
ATOM      6  C   UNL d   1      -1.145   0.129  -0.149  0.00  0.00     0.126 A 
ENDROOT
BRANCH   2   7
ATOM      7  C   UNL d   1      -0.801  -2.396   0.238  0.00  0.00     0.223 C 
ATOM      8  O   UNL d   1      -0.105  -3.284   0.706  0.00  0.00    -0.280 OA
BRANCH   7   9
ATOM      9  S   UNL d   1      -2.433  -2.746  -0.328  0.00  0.00    -0.082 SA
BRANCH   9  10
ATOM     10  C   UNL d   1      -2.631  -4.426   0.322  0.00  0.00     0.126 C 
BRANCH  10  11
ATOM     11  C   UNL d   1      -2.870  -4.646   1.803  0.00  0.00     0.012 A 
ATOM     12  C   UNL d   1      -2.890  -3.628   2.767  0.00  0.00     0.125 A 
ATOM     13  F   UNL d   1      -2.701  -2.344   2.432  0.00  0.00    -0.205 F 
ATOM     14  C   UNL d   1      -3.106  -3.889   4.122  0.00  0.00     0.043 A 
ATOM     15  C   UNL d   1      -3.310  -5.189   4.562  0.00  0.00     0.005 A 
ATOM     16  C   UNL d   1      -3.299  -6.227   3.636  0.00  0.00     0.024 A 
ATOM     17  C   UNL d   1      -3.082  -5.959   2.277  0.00  0.00     0.044 A 
ATOM     18 CL   UNL d   1      -3.094  -7.324   1.209  0.00  0.00    -0.084 Cl
ENDBRANCH  10  11
ENDBRANCH   9  10
ENDBRANCH   7   9
ENDBRANCH   2   7
BRANCH   1  19
ATOM     19  C   UNL d   1       2.227  -1.214   0.318  0.00  0.00     0.435 C 
ATOM     20  F   UNL d   1       2.132  -2.548   0.508  0.00  0.00    -0.165 F 
ATOM     21  F   UNL d   1       3.060  -1.071  -0.745  0.00  0.00    -0.165 F 
ATOM     22  F   UNL d   1       2.870  -0.733   1.413  0.00  0.00    -0.165 F 
ENDBRANCH   1  19
BRANCH   3  23
ATOM     23  C   UNL d   1       1.879   1.858  -0.446  0.00  0.00     0.057 A 
ATOM     24  C   UNL d   1       3.255   1.671  -0.278  0.00  0.00     0.033 A 
ATOM     25  C   UNL d   1       4.177   2.648  -0.687  0.00  0.00     0.026 A 
ATOM     26  C   UNL d   1       3.736   3.841  -1.242  0.00  0.00     0.034 A 
ATOM     27  C   UNL d   1       2.374   4.086  -1.357  0.00  0.00     0.026 A 
ATOM     28 CL   UNL d   1       4.876   5.003  -1.793  0.00  0.00    -0.084 Cl
ATOM     29  C   UNL d   1       1.454   3.106  -0.956  0.00  0.00     0.033 A 
ENDBRANCH   3  23
TORSDOF 6
