REMARK  6 active torsions:
REMARK  status: ('A' for Active; 'I' for Inactive)
REMARK    1  A    between atoms: N_3  and  C_10 
REMARK    2  A    between atoms: C_15  and  C_4 
REMARK    3  A    between atoms: C_13  and  C_5 
REMARK    4  A    between atoms: C_6  and  C_8 
REMARK    5  A    between atoms: C_17  and  O_21 
REMARK    6  A    between atoms: O_21  and  C_27 
ROOT
ATOM      1  C   UNL d   1      -0.070  -2.581  -0.095  0.00  0.00    -0.002 A 
ATOM      2  C   UNL d   1       0.483  -3.338   0.948  0.00  0.00     0.017 A 
ATOM      3  C   UNL d   1      -0.816  -3.250  -1.081  0.00  0.00     0.017 A 
ATOM      4  C   UNL d   1      -0.411  -5.381   0.002  0.00  0.00     0.077 A 
ATOM      5  C   UNL d   1       0.292  -4.720   1.012  0.00  0.00     0.038 A 
ATOM      6  C   UNL d   1      -0.988  -4.639  -1.028  0.00  0.00     0.038 A 
ENDROOT
BRANCH   1   7
ATOM      7  C   UNL d   1       0.169  -1.131  -0.115  0.00  0.00     0.084 A 
ATOM      8  N   UNL d   1       1.264  -0.558   0.349  0.00  0.00    -0.349 N 
ATOM      9  C   UNL d   1       1.176   0.819   0.248  0.00  0.00     0.050 A 
ATOM     10  HN  UNL d   1       2.065  -1.061   0.730  1.00  0.00     0.166 HD
ATOM     11  C   UNL d   1      -0.003   1.284  -0.298  0.00  0.00     0.082 A 
ATOM     12  S   UNL d   1      -1.027  -0.032  -0.690  0.00  0.00    -0.081 SA
BRANCH   9  13
ATOM     13  C   UNL d   1       2.278   1.672   0.677  0.00  0.00    -0.007 A 
ATOM     14  C   UNL d   1       3.595   1.200   0.570  0.00  0.00     0.049 A 
ATOM     15  C   UNL d   1       4.662   2.013   0.975  0.00  0.00     0.103 A 
ATOM     16  C   UNL d   1       4.429   3.292   1.498  0.00  0.00     0.036 A 
ATOM     17  C   UNL d   1       3.119   3.755   1.617  0.00  0.00     0.003 A 
ATOM     18  C   UNL d   1       2.052   2.951   1.209  0.00  0.00     0.014 A 
BRANCH  15  19
ATOM     19  N   UNL d   1       6.042   1.526   0.846  0.00  0.00    -0.116 N 
ATOM     20  O   UNL d   1       6.214   0.400   0.357  0.00  0.00    -0.532 OA
ATOM     21  O   UNL d   1       6.954   2.272   1.228  0.00  0.00    -0.532 OA
ENDBRANCH  15  19
ENDBRANCH   9  13
ENDBRANCH   1   7
BRANCH   4  22
ATOM     22  O   UNL d   1      -0.632  -6.742  -0.022  0.00  0.00    -0.294 OA
BRANCH  22  23
ATOM     23  C   UNL d   1       0.354  -7.566   0.502  0.00  0.00     0.147 A 
ATOM     24  N   UNL d   1       1.654  -7.203   0.392  0.00  0.00    -0.346 N 
ATOM     25  C   UNL d   1       2.567  -7.977   1.015  0.00  0.00     0.106 A 
ATOM     26  HN  UNL d   1       1.932  -6.379  -0.142  1.00  0.00     0.167 HD
ATOM     27  C   UNL d   1       2.249  -9.123   1.727  0.00  0.00     0.063 A 
ATOM     28  C   UNL d   1       0.903  -9.516   1.755  0.00  0.00     0.022 A 
ATOM     29  C   UNL d   1      -0.061  -8.728   1.129  0.00  0.00     0.057 A 
BRANCH  27  30
ATOM     30  C   UNL d   1       3.310  -9.884   2.458  0.00  0.00     0.418 C 
ATOM     31  F   UNL d   1       4.546  -9.319   2.368  0.00  0.00    -0.166 F 
ATOM     32  F   UNL d   1       3.046  -9.986   3.790  0.00  0.00    -0.166 F 
ATOM     33  F   UNL d   1       3.447 -11.159   2.005  0.00  0.00    -0.166 F 
ENDBRANCH  27  30
ENDBRANCH  22  23
ENDBRANCH   4  22
TORSDOF 6
