REMARK  5 active torsions:
REMARK  status: ('A' for Active; 'I' for Inactive)
REMARK    1  A    between atoms: C_13  and  C_10 
REMARK    2  A    between atoms: S_12  and  C_13 
REMARK    3  A    between atoms: C_15  and  S_12 
REMARK    4  A    between atoms: O_14  and  C_16 
REMARK    5  A    between atoms: C_16  and  C_15 
ROOT
ATOM      1  C   UNL d   1      -0.142  -0.204  -1.054  0.00  0.00     0.085 A 
ATOM      2  C   UNL d   1       0.248   0.656   0.052  0.00  0.00     0.085 A 
ATOM      3  O   UNL d   1       1.881   0.517  -1.372  0.00  0.00    -0.156 OA
ATOM      4  N   UNL d   1       0.882  -0.275  -1.914  0.00  0.00    -0.240 N 
ATOM      5  HN  UNL d   1       0.918  -0.802  -2.786  1.00  0.00     0.197 HD
ATOM      6  N   UNL d   1       1.496   1.086  -0.170  0.00  0.00    -0.240 N 
ATOM      7  HN  UNL d   1       2.048   1.706   0.423  1.00  0.00     0.197 HD
ATOM      8  C   UNL d   1      -1.406  -0.820  -1.122  0.00  0.00     0.041 A 
ATOM      9  C   UNL d   1      -0.609   0.927   1.132  0.00  0.00     0.034 A 
ATOM     10  C   UNL d   1      -2.273  -0.541  -0.037  0.00  0.00    -0.046 A 
ATOM     11  C   UNL d   1      -1.868   0.296   1.052  0.00  0.00     0.010 A 
ENDROOT
BRANCH  10  12
ATOM     12  C   UNL d   1      -3.646  -1.184  -0.023  0.00  0.00     0.112 C 
BRANCH  12  13
ATOM     13  S   UNL d   1      -5.025  -0.004   0.112  0.00  0.00    -0.162 SA
BRANCH  13  14
ATOM     14  C   UNL d   1      -4.804   0.917  -1.445  0.00  0.00     0.100 C 
BRANCH  14  15
ATOM     15  C   UNL d   1      -5.900   1.969  -1.584  0.00  0.00     0.174 C 
BRANCH  15  16
ATOM     16  O   UNL d   1      -5.709   2.696  -2.794  0.00  0.00    -0.400 OA
ATOM     17  H   UNL d   1      -6.408   3.374  -2.829  0.00  0.00     0.209 HD
ENDBRANCH  15  16
ENDBRANCH  14  15
ENDBRANCH  13  14
ENDBRANCH  12  13
ENDBRANCH  10  12
TORSDOF 5
