REMARK  4 active torsions:
REMARK  status: ('A' for Active; 'I' for Inactive)
REMARK       I    between atoms: C_3  and  N_1 
REMARK       I    between atoms: C_4  and  N_1 
REMARK    1  A    between atoms: C_2  and  C_5 
REMARK    2  A    between atoms: C_10  and  C_3 
REMARK       I    between atoms: N_9  and  C_4 
REMARK    3  A    between atoms: C_8  and  N_12 
REMARK    4  A    between atoms: N_12  and  N_9 
ROOT
ATOM      1  N   UNL d   1       3.477  -0.794   0.189  0.00  0.00    -0.274 N 
ATOM      2  C   UNL d   1       4.765  -0.573   0.637  0.00  0.00     0.259 C 
ATOM      3  C   UNL d   1       2.581   0.145  -0.283  0.00  0.00     0.337 C 
ATOM      4  N   UNL d   1       3.041   1.440  -0.314  0.00  0.00    -0.267 N 
ATOM      5  O   UNL d   1       5.365   0.491   0.506  0.00  0.00    -0.267 OA
ATOM      6  O   UNL d   1       1.440  -0.209  -0.574  0.00  0.00    -0.246 OA
ATOM      7  H   UNL d   1       3.084  -1.722   0.207  0.00  0.00     0.173 HD
ATOM      8  H   UNL d   1       4.058   1.573  -0.393  0.00  0.00     0.186 HD
ENDROOT
BRANCH   4   9
ATOM      9  N   UNL d   1       2.285   2.404  -1.032  0.00  0.00    -0.186 NA
ATOM     10  H   UNL d   1       1.615   2.862  -0.415  0.00  0.00     0.154 HD
BRANCH   9  11
ATOM     11  C   UNL d   1       3.132   3.364  -1.640  0.00  0.00     0.099 A 
ATOM     12  N   UNL d   1       4.468   3.147  -1.656  0.00  0.00    -0.350 N 
ATOM     13  C   UNL d   1       5.274   4.045  -2.264  0.00  0.00     0.007 A 
ATOM     14  HN  UNL d   1       4.862   2.316  -1.213  1.00  0.00     0.167 HD
ATOM     15  C   UNL d   1       6.746   3.768  -2.234  0.00  0.00     0.068 C 
ATOM     16  C   UNL d   1       4.781   5.184  -2.883  0.00  0.00     0.041 A 
ATOM     17  C   UNL d   1       3.401   5.411  -2.882  0.00  0.00     0.052 A 
ATOM     18  C   UNL d   1       2.568   4.475  -2.255  0.00  0.00     0.060 A 
BRANCH  17  19
ATOM     19  C   UNL d   1       2.844   6.641  -3.545  0.00  0.00     0.417 C 
ATOM     20  F   UNL d   1       1.488   6.739  -3.464  0.00  0.00    -0.166 F 
ATOM     21  F   UNL d   1       3.333   7.788  -2.997  0.00  0.00    -0.166 F 
ATOM     22  F   UNL d   1       3.146   6.702  -4.870  0.00  0.00    -0.166 F 
ENDBRANCH  17  19
ENDBRANCH   9  11
ENDBRANCH   4   9
BRANCH   2  23
ATOM     23  C   UNL d   1       5.475  -1.718   1.265  0.00  0.00     0.032 A 
ATOM     24  C   UNL d   1       6.876  -1.738   1.182  0.00  0.00     0.018 A 
ATOM     25  C   UNL d   1       7.612  -2.741   1.816  0.00  0.00     0.025 A 
ATOM     26  C   UNL d   1       6.948  -3.725   2.543  0.00  0.00     0.034 A 
ATOM     27  C   UNL d   1       5.554  -3.720   2.630  0.00  0.00     0.025 A 
ATOM     28 CL   UNL d   1       7.854  -4.938   3.359  0.00  0.00    -0.084 Cl
ATOM     29  C   UNL d   1       4.813  -2.718   1.992  0.00  0.00     0.018 A 
ENDBRANCH   2  23
TORSDOF 4
