REMARK  2 active torsions:
REMARK  status: ('A' for Active; 'I' for Inactive)
REMARK    1  A    between atoms: N_3  and  C_1 
REMARK       I    between atoms: C_5  and  N_3 
REMARK    2  A    between atoms: C_11  and  C_5 
ROOT
ATOM      1  C   UNL d   1       3.687  -1.251  -0.742  0.00  0.00     0.100 C 
ATOM      2  C   UNL d   1       4.869  -2.250  -0.969  0.00  0.00    -0.022 C 
ATOM      3  C   UNL d   1       2.797  -1.986   0.322  0.00  0.00    -0.023 C 
ATOM      4  C   UNL d   1       3.595  -3.312   0.533  0.00  0.00    -0.004 C 
ATOM      5  C   UNL d   1       5.052  -2.843   0.437  0.00  0.00     0.016 C 
ATOM      6  C   UNL d   1       4.397  -3.501  -1.740  0.00  0.00     0.011 C 
ATOM      7  C   UNL d   1       3.526  -4.230  -0.707  0.00  0.00     0.006 C 
ATOM      8  C   UNL d   1       6.124  -1.617  -1.538  0.00  0.00     0.017 C 
ATOM      9  C   UNL d   1       2.770  -1.155   1.627  0.00  0.00     0.017 C 
ATOM     10  C   UNL d   1       1.327  -2.213  -0.068  0.00  0.00     0.017 C 
ENDROOT
BRANCH   1  11
ATOM     11  N   UNL d   1       2.986  -0.874  -1.956  0.00  0.00    -0.355 N 
ATOM     12  C   UNL d   1       3.282   0.270  -2.669  0.00  0.00     0.222 C 
ATOM     13  O   UNL d   1       4.158   1.057  -2.328  0.00  0.00    -0.273 OA
ATOM     14  H   UNL d   1       2.318  -1.525  -2.350  0.00  0.00     0.162 HD
BRANCH  12  15
ATOM     15  C   UNL d   1       2.368   0.500  -3.880  0.00  0.00     0.078 C 
ATOM     16  C   UNL d   1       2.474  -0.620  -4.924  0.00  0.00     0.014 C 
ATOM     17  C   UNL d   1       3.756  -0.533  -5.748  0.00  0.00     0.001 C 
ATOM     18  C   UNL d   1       3.889   0.828  -6.421  0.00  0.00     0.000 C 
ATOM     19  C   UNL d   1       3.836   1.958  -5.400  0.00  0.00     0.001 C 
ATOM     20  C   UNL d   1       2.586   1.881  -4.523  0.00  0.00     0.014 C 
ENDBRANCH  12  15
ENDBRANCH   1  11
TORSDOF 2
