REMARK  6 active torsions:
REMARK  status: ('A' for Active; 'I' for Inactive)
REMARK    1  A    between atoms: C_6  and  C_1 
REMARK    2  A    between atoms: C_9  and  N_2 
REMARK    3  A    between atoms: C_14  and  C_3 
REMARK    4  A    between atoms: S_8  and  C_6 
REMARK    5  A    between atoms: C_13  and  S_8 
REMARK    6  A    between atoms: C_25  and  C_14 
ROOT
ATOM      1  C   UNL d   1      -0.213   1.032   0.018  0.00  0.00     0.063 C 
ATOM      2  N   UNL d   1       0.764  -0.972  -0.003  0.00  0.00    -0.260 N 
ATOM      3  C   UNL d   1       1.020   0.393  -0.142  0.00  0.00     0.050 C 
ATOM      4  N   UNL d   1      -0.567  -1.226   0.040  0.00  0.00    -0.304 N 
ATOM      5  HN  UNL d   1      -1.030  -2.134   0.006  1.00  0.00     0.186 HD
ATOM      6  C   UNL d   1      -1.137  -0.025   0.137  0.00  0.00     0.126 C 
ENDROOT
BRANCH   1   7
ATOM      7  C   UNL d   1      -0.468   2.465  -0.018  0.00  0.00     0.227 C 
ATOM      8  O   UNL d   1       0.200   3.252  -0.672  0.00  0.00    -0.279 OA
BRANCH   7   9
ATOM      9  S   UNL d   1      -1.818   3.023   0.972  0.00  0.00    -0.048 SA
BRANCH   9  10
ATOM     10  C   UNL d   1      -0.984   3.939   2.263  0.00  0.00     0.008 A 
ATOM     11  C   UNL d   1       0.093   4.799   2.013  0.00  0.00     0.021 A 
ATOM     12  C   UNL d   1       0.753   5.443   3.065  0.00  0.00     0.025 A 
ATOM     13  C   UNL d   1       0.320   5.253   4.374  0.00  0.00     0.034 A 
ATOM     14  C   UNL d   1      -0.785   4.448   4.635  0.00  0.00     0.025 A 
ATOM     15 CL   UNL d   1       1.157   6.010   5.671  0.00  0.00    -0.084 Cl
ATOM     16  C   UNL d   1      -1.437   3.796   3.582  0.00  0.00     0.021 A 
ENDBRANCH   9  10
ENDBRANCH   7   9
ENDBRANCH   1   7
BRANCH   3  17
ATOM     17  C   UNL d   1       2.371   0.997  -0.442  0.00  0.00     0.060 C 
BRANCH  17  18
ATOM     18  C   UNL d   1       3.125   0.427  -1.651  0.00  0.00     0.002 C 
ATOM     19  C   UNL d   1       2.430   0.637  -2.985  0.00  0.00     0.005 C 
ENDBRANCH  17  18
ENDBRANCH   3  17
BRANCH   2  20
ATOM     20  C   UNL d   1       1.684  -2.054   0.015  0.00  0.00     0.056 A 
ATOM     21  C   UNL d   1       2.927  -1.930   0.647  0.00  0.00     0.033 A 
ATOM     22  C   UNL d   1       3.899  -2.915   0.466  0.00  0.00     0.026 A 
ATOM     23  C   UNL d   1       3.616  -4.029  -0.321  0.00  0.00     0.034 A 
ATOM     24  C   UNL d   1       2.347  -4.202  -0.875  0.00  0.00     0.026 A 
ATOM     25 CL   UNL d   1       4.851  -5.185  -0.632  0.00  0.00    -0.084 Cl
ATOM     26  C   UNL d   1       1.367  -3.223  -0.689  0.00  0.00     0.033 A 
ENDBRANCH   2  20
TORSDOF 6
