REMARK  5 active torsions:
REMARK  status: ('A' for Active; 'I' for Inactive)
REMARK    1  A    between atoms: C_4  and  C_1 
REMARK    2  A    between atoms: C_2  and  O_5 
REMARK    3  A    between atoms: C_3  and  C_2 
REMARK    4  A    between atoms: O_5  and  C_17 
REMARK    5  A    between atoms: C_17  and  C_18 
ROOT
ATOM      1  O   UNL d   1      -0.262  -5.422   3.284  0.00  0.00    -0.313 OA
ENDROOT
BRANCH   1   2
ATOM      2  C   UNL d   1       0.598  -6.364   3.736  0.00  0.00     0.293 C 
ATOM      3  O   UNL d   1       1.471  -6.200   4.571  0.00  0.00    -0.259 OA
BRANCH   2   4
ATOM      4  C   UNL d   1       0.339  -7.687   3.103  0.00  0.00     0.042 A 
ATOM      5  C   UNL d   1       1.139  -8.768   3.504  0.00  0.00     0.041 A 
ATOM      6  C   UNL d   1       0.932 -10.034   2.957  0.00  0.00     0.036 A 
ATOM      7 CL   UNL d   1       1.927 -11.348   3.452  0.00  0.00    -0.084 Cl
ATOM      8  C   UNL d   1      -0.070 -10.244   2.017  0.00  0.00     0.047 A 
ATOM      9  C   UNL d   1      -0.865  -9.171   1.620  0.00  0.00     0.036 A 
ATOM     10  C   UNL d   1      -0.667  -7.893   2.151  0.00  0.00     0.041 A 
ATOM     11 CL   UNL d   1      -2.111  -9.427   0.460  0.00  0.00    -0.084 Cl
ENDBRANCH   2   4
ENDBRANCH   1   2
BRANCH   1  12
ATOM     12  C   UNL d   1      -0.130  -4.117   3.877  0.00  0.00     0.217 C 
BRANCH  12  13
ATOM     13  C   UNL d   1       0.130  -3.094   2.798  0.00  0.00    -0.034 A 
ATOM     14  C   UNL d   1      -0.802  -2.898   1.771  0.00  0.00     0.010 A 
ATOM     15  C   UNL d   1      -0.575  -1.943   0.778  0.00  0.00     0.017 A 
ATOM     16  C   UNL d   1       0.589  -1.159   0.792  0.00  0.00     0.047 A 
ATOM     17  C   UNL d   1       1.520  -1.353   1.823  0.00  0.00     0.017 A 
ATOM     18  C   UNL d   1       1.292  -2.311   2.816  0.00  0.00     0.010 A 
BRANCH  16  19
ATOM     19  C   UNL d   1       0.817  -0.132  -0.290  0.00  0.00     0.417 C 
ATOM     20  F   UNL d   1       1.967   0.582  -0.135  0.00  0.00    -0.166 F 
ATOM     21  F   UNL d   1      -0.185   0.788  -0.355  0.00  0.00    -0.166 F 
ATOM     22  F   UNL d   1       0.890  -0.690  -1.531  0.00  0.00    -0.166 F 
ENDBRANCH  16  19
ENDBRANCH  12  13
ENDBRANCH   1  12
TORSDOF 5
