REMARK  3 active torsions:
REMARK  status: ('A' for Active; 'I' for Inactive)
REMARK    1  A    between atoms: C_7  and  C_3 
REMARK    2  A    between atoms: C_9  and  N_4 
REMARK    3  A    between atoms: O_14  and  C_7 
ROOT
ATOM      1  N   UNL d   1       1.213  -0.647  -0.057  0.00  0.00    -0.285 N 
ATOM      2  HN  UNL d   1       2.088  -1.168  -0.121  1.00  0.00     0.188 HD
ATOM      3  C   UNL d   1       1.205   0.659  -0.096  0.00  0.00     0.174 C 
ATOM      4  N   UNL d   1       0.008  -1.301   0.071  0.00  0.00    -0.267 N 
ATOM      5  C   UNL d   1      -0.069   1.451   0.064  0.00  0.00     0.207 C 
ATOM      6  C   UNL d   1      -1.329   0.703   0.044  0.00  0.00     0.076 C 
ATOM      7  C   UNL d   1      -1.198  -0.625   0.062  0.00  0.00     0.120 C 
ATOM      8  O   UNL d   1      -0.048   2.659   0.244  0.00  0.00    -0.286 OA
ENDROOT
BRANCH   4   9
ATOM      9  C   UNL d   1       0.106  -2.725   0.177  0.00  0.00     0.056 A 
ATOM     10  C   UNL d   1       1.223  -3.317   0.802  0.00  0.00     0.034 A 
ATOM     11  C   UNL d   1       1.321  -4.703   0.954  0.00  0.00     0.044 A 
ATOM     12  C   UNL d   1       0.310  -5.517   0.467  0.00  0.00     0.116 A 
ATOM     13  C   UNL d   1      -0.793  -4.971  -0.174  0.00  0.00     0.044 A 
ATOM     14  F   UNL d   1       0.399  -6.845   0.613  0.00  0.00    -0.206 F 
ATOM     15  C   UNL d   1      -0.895  -3.584  -0.317  0.00  0.00     0.034 A 
ENDBRANCH   4   9
BRANCH   3  16
ATOM     16  C   UNL d   1       2.518   1.368  -0.352  0.00  0.00     0.315 C 
ATOM     17  O   UNL d   1       2.614   2.283  -1.152  0.00  0.00    -0.257 OA
BRANCH  16  18
ATOM     18  O   UNL d   1       3.510   0.810   0.372  0.00  0.00    -0.321 OA
ATOM     19  C   UNL d   1       4.800   1.362   0.100  0.00  0.00     0.213 C 
ENDBRANCH  16  18
ENDBRANCH   3  16
TORSDOF 3
