REMARK  1 active torsions:
REMARK  status: ('A' for Active; 'I' for Inactive)
REMARK    1  A    between atoms: C_5  and  N_1 
ROOT
ATOM      1  C   UNL d   1       2.108  -1.428  -0.046  0.00  0.00     0.141 A 
ATOM      2  N   UNL d   1       2.065  -2.760  -0.259  0.00  0.00    -0.284 N 
ATOM      3  HN  UNL d   1       1.164  -3.231  -0.335  1.00  0.00     0.188 HD
ATOM      4  N   UNL d   1       3.222  -3.486  -0.373  0.00  0.00    -0.304 N 
ATOM      5  HN  UNL d   1       3.178  -4.493  -0.530  1.00  0.00     0.186 HD
ATOM      6  C   UNL d   1       3.326  -0.768   0.063  0.00  0.00     0.054 A 
ATOM      7  C   UNL d   1       4.417  -2.870  -0.279  0.00  0.00     0.022 A 
ATOM      8  C   UNL d   1       4.503  -1.504  -0.057  0.00  0.00     0.030 A 
ATOM      9  C   UNL d   1       5.630  -3.722  -0.462  0.00  0.00     0.069 C 
ENDROOT
BRANCH   1  10
ATOM     10  N   UNL d   1       0.886  -0.689   0.028  0.00  0.00    -0.243 N 
ATOM     11  N   UNL d   1       0.924   0.677   0.119  0.00  0.00    -0.297 N 
ATOM     12  C   UNL d   1      -0.347   1.074   0.039  0.00  0.00     0.024 A 
ATOM     13  HN  UNL d   1       1.750   1.266   0.225  1.00  0.00     0.187 HD
ATOM     14  C   UNL d   1      -0.696   2.515   0.054  0.00  0.00     0.070 C 
ATOM     15  C   UNL d   1      -1.226  -0.017  -0.044  0.00  0.00     0.052 A 
ATOM     16  C   UNL d   1      -0.429  -1.146  -0.007  0.00  0.00     0.034 A 
ATOM     17  C   UNL d   1      -0.884  -2.560  -0.008  0.00  0.00     0.070 C 
ENDBRANCH   1  10
TORSDOF 1
