REMARK  5 active torsions:
REMARK  status: ('A' for Active; 'I' for Inactive)
REMARK    1  A    between atoms: C_2  and  S_1 
REMARK    2  A    between atoms: C_8  and  S_1 
REMARK    3  A    between atoms: N_20  and  C_5 
REMARK    4  A    between atoms: C_6  and  C_11 
REMARK    5  A    between atoms: C_24  and  C_7 
ROOT
ATOM      1  C   UNL d   1       0.473  -0.432  -1.643  0.00  0.00     0.119 A 
ATOM      2  N   UNL d   1      -0.035  -1.925  -3.418  0.00  0.00    -0.335 N 
ATOM      3  HN  UNL d   1       0.002  -2.855  -3.834  1.00  0.00     0.168 HD
ATOM      4  C   UNL d   1       0.505  -1.683  -2.208  0.00  0.00     0.102 A 
ATOM      5  C   UNL d   1      -0.625  -0.896  -4.063  0.00  0.00     0.085 A 
ATOM      6  N   UNL d   1      -0.675   0.362  -3.588  0.00  0.00    -0.354 N 
ATOM      7  HN  UNL d   1      -1.105   1.120  -4.117  1.00  0.00     0.166 HD
ATOM      8  C   UNL d   1      -0.126   0.566  -2.374  0.00  0.00     0.116 A 
ENDROOT
BRANCH   1   9
ATOM      9  S   UNL d   1       0.990  -0.110  -0.008  0.00  0.00     0.226 S 
ATOM     10  O   UNL d   1       0.875  -1.355   0.739  0.00  0.00    -0.216 OA
ATOM     11  O   UNL d   1       0.253   1.057   0.456  0.00  0.00    -0.216 OA
BRANCH   9  12
ATOM     12  C   UNL d   1       2.706   0.351  -0.008  0.00  0.00     0.133 A 
ATOM     13  N   UNL d   1       3.141   0.930  -1.157  0.00  0.00    -0.356 N 
ATOM     14  C   UNL d   1       4.425   1.359  -1.151  0.00  0.00     0.105 A 
ATOM     15  HN  UNL d   1       2.539   1.034  -1.974  1.00  0.00     0.166 HD
ATOM     16  C   UNL d   1       5.282   1.242  -0.061  0.00  0.00     0.063 A 
ATOM     17  C   UNL d   1       4.789   0.622   1.097  0.00  0.00     0.020 A 
ATOM     18  C   UNL d   1       3.475   0.165   1.131  0.00  0.00     0.043 A 
BRANCH  16  19
ATOM     19  C   UNL d   1       6.681   1.780  -0.126  0.00  0.00     0.418 C 
ATOM     20  F   UNL d   1       6.988   2.356  -1.320  0.00  0.00    -0.166 F 
ATOM     21  F   UNL d   1       6.913   2.732   0.818  0.00  0.00    -0.166 F 
ATOM     22  F   UNL d   1       7.620   0.816   0.077  0.00  0.00    -0.166 F 
ENDBRANCH  16  19
ENDBRANCH   9  12
ENDBRANCH   1   9
BRANCH   4  23
ATOM     23  N   UNL d   1       1.154  -2.773  -1.638  0.00  0.00    -0.287 NA
ATOM     24  H   UNL d   1       0.957  -3.595  -2.206  0.00  0.00     0.125 HD
ATOM     25  H   UNL d   1       0.907  -2.912  -0.657  0.00  0.00     0.125 HD
ENDBRANCH   4  23
BRANCH   5  26
ATOM     26  C   UNL d   1      -1.283  -1.187  -5.395  0.00  0.00     0.045 C 
ATOM     27  C   UNL d   1      -2.764  -0.804  -5.377  0.00  0.00     0.017 C 
ATOM     28  C   UNL d   1      -0.551  -0.474  -6.531  0.00  0.00     0.017 C 
ENDBRANCH   5  26
TORSDOF 5
