REMARK  5 active torsions:
REMARK  status: ('A' for Active; 'I' for Inactive)
REMARK    1  A    between atoms: C_18  and  N_1 
REMARK    2  A    between atoms: C_5  and  C_21 
REMARK    3  A    between atoms: C_28  and  C_13 
REMARK    4  A    between atoms: C_17  and  O_25 
REMARK    5  A    between atoms: O_25  and  C_28 
ROOT
ATOM      1  N   UNL d   1      -2.519   3.194  -4.654  0.00  0.00    -0.351 N 
ATOM      2  HN  UNL d   1      -2.578   2.242  -5.015  1.00  0.00     0.166 HD
ATOM      3  C   UNL d   1      -1.880   3.557  -3.479  0.00  0.00     0.049 A 
ATOM      4  C   UNL d   1      -3.042   4.255  -5.239  0.00  0.00     0.075 A 
ATOM      5  S   UNL d   1      -2.819   5.739  -4.400  0.00  0.00    -0.084 SA
ATOM      6  C   UNL d   1      -1.951   4.904  -3.180  0.00  0.00     0.082 A 
ENDROOT
BRANCH   4   7
ATOM      7  C   UNL d   1      -3.736   4.233  -6.569  0.00  0.00     0.240 C 
BRANCH   7   8
ATOM      8  O   UNL d   1      -5.137   4.087  -6.319  0.00  0.00    -0.345 OA
BRANCH   8   9
ATOM      9  C   UNL d   1      -5.951   4.076  -7.428  0.00  0.00     0.071 A 
ATOM     10  C   UNL d   1      -7.255   4.547  -7.178  0.00  0.00     0.070 A 
ATOM     11  C   UNL d   1      -8.118   4.523  -8.288  0.00  0.00     0.087 A 
ATOM     12  N   UNL d   1      -9.397   4.909  -8.380  0.00  0.00    -0.239 N 
ATOM     13  C   UNL d   1      -7.697   4.033  -9.591  0.00  0.00     0.085 A 
ATOM     14  O   UNL d   1      -9.769   4.669  -9.693  0.00  0.00    -0.156 OA
ATOM     15  HN  UNL d   1      -9.977   5.299  -7.637  1.00  0.00     0.197 HD
ATOM     16  N   UNL d   1      -8.729   4.133 -10.435  0.00  0.00    -0.240 N 
ATOM     17  HN  UNL d   1      -8.748   3.870 -11.420  1.00  0.00     0.197 HD
ATOM     18  C   UNL d   1      -6.398   3.548  -9.825  0.00  0.00     0.036 A 
ATOM     19  C   UNL d   1      -5.546   3.583  -8.701  0.00  0.00     0.039 A 
ENDBRANCH   8   9
ENDBRANCH   7   8
ENDBRANCH   4   7
BRANCH   3  20
ATOM     20  C   UNL d   1      -1.188   2.566  -2.659  0.00  0.00    -0.009 A 
ATOM     21  C   UNL d   1      -0.094   2.916  -1.853  0.00  0.00     0.016 A 
ATOM     22  C   UNL d   1       0.581   1.949  -1.101  0.00  0.00     0.037 A 
ATOM     23  C   UNL d   1       0.162   0.615  -1.152  0.00  0.00     0.102 A 
ATOM     24  C   UNL d   1      -0.931   0.246  -1.946  0.00  0.00     0.037 A 
ATOM     25  C   UNL d   1      -1.598   1.223  -2.697  0.00  0.00     0.016 A 
BRANCH  23  26
ATOM     26  N   UNL d   1       0.887  -0.403  -0.381  0.00  0.00    -0.116 N 
ATOM     27  O   UNL d   1       0.497  -1.577  -0.466  0.00  0.00    -0.532 OA
ATOM     28  O   UNL d   1       1.847  -0.029   0.309  0.00  0.00    -0.532 OA
ENDBRANCH  23  26
ENDBRANCH   3  20
TORSDOF 5
