REMARK  12 active torsions:
REMARK  status: ('A' for Active; 'I' for Inactive)
REMARK    1  A    between atoms: C_5  and  C_1 
REMARK    2  A    between atoms: N_11  and  C_4 
REMARK    3  A    between atoms: C_27  and  N_11 
REMARK    4  A    between atoms: O_12  and  C_18 
REMARK    5  A    between atoms: C_14  and  O_12 
REMARK    6  A    between atoms: C_16  and  C_26 
REMARK    7  A    between atoms: C_18  and  C_16 
REMARK    8  A    between atoms: O_24  and  C_16 
REMARK    9  A    between atoms: O_25  and  C_17 
REMARK   10  A    between atoms: N_19  and  C_28 
REMARK   11  A    between atoms: C_26  and  N_19 
REMARK   12  A    between atoms: C_28  and  C_27 
ROOT
ATOM      1  N   UNL d   1      -1.963   1.732   7.859  0.00  0.00     0.087 N 
ATOM      2  H   UNL d   1      -1.161   1.217   8.216  0.00  0.00     0.316 HD
ENDROOT
BRANCH   1   3
ATOM      3  C   UNL d   1      -1.674   2.164   6.481  0.00  0.00     0.284 C 
BRANCH   3   4
ATOM      4  C   UNL d   1      -0.421   3.054   6.335  0.00  0.00     0.125 C 
BRANCH   4   5
ATOM      5  N   UNL d   1      -0.182   3.368   4.941  0.00  0.00    -0.262 NA
ATOM      6  H   UNL d   1      -0.100   2.583   4.305  0.00  0.00     0.130 HD
BRANCH   5   7
ATOM      7  C   UNL d   1       0.907   4.191   4.710  0.00  0.00     0.157 A 
ATOM      8  N   UNL d   1       1.516   4.018   3.534  0.00  0.00    -0.329 N 
ATOM      9  C   UNL d   1       2.562   4.831   3.236  0.00  0.00     0.120 A 
ATOM     10  HN  UNL d   1       1.205   3.299   2.881  1.00  0.00     0.168 HD
ATOM     11  C   UNL d   1       3.010   5.798   4.117  0.00  0.00     0.051 A 
ATOM     12  C   UNL d   1       2.334   5.882   5.308  0.00  0.00     0.093 A 
ATOM     13  N   UNL d   1       1.293   5.092   5.622  0.00  0.00    -0.343 N 
ATOM     14  HN  UNL d   1       0.817   5.175   6.520  1.00  0.00     0.167 HD
BRANCH   9  15
ATOM     15  C   UNL d   1       3.252   4.682   1.893  0.00  0.00     0.432 C 
ATOM     16  F   UNL d   1       2.748   3.691   1.107  0.00  0.00    -0.165 F 
ATOM     17  F   UNL d   1       4.584   4.412   2.025  0.00  0.00    -0.165 F 
ATOM     18  F   UNL d   1       3.185   5.823   1.147  0.00  0.00    -0.165 F 
ENDBRANCH   9  15
ENDBRANCH   5   7
ENDBRANCH   4   5
ENDBRANCH   3   4
ENDBRANCH   1   3
BRANCH   1  19
ATOM     19  C   UNL d   1      -2.296   2.863   8.732  0.00  0.00     0.303 C 
BRANCH  19  20
ATOM     20  C   UNL d   1      -2.636   2.483  10.187  0.00  0.00     0.170 C 
BRANCH  20  21
ATOM     21  C   UNL d   1      -1.464   1.764  10.876  0.00  0.00     0.209 C 
BRANCH  21  22
ATOM     22  O   UNL d   1      -1.825   1.440  12.220  0.00  0.00    -0.349 OA
BRANCH  22  23
ATOM     23  C   UNL d   1      -0.875   0.804  12.970  0.00  0.00     0.069 A 
ATOM     24  C   UNL d   1       0.384   0.394  12.533  0.00  0.00     0.039 A 
ATOM     25  C   UNL d   1       1.265  -0.252  13.410  0.00  0.00     0.039 A 
ATOM     26  C   UNL d   1       0.893  -0.493  14.732  0.00  0.00     0.068 A 
ATOM     27  C   UNL d   1      -0.368  -0.085  15.168  0.00  0.00     0.039 A 
ATOM     28  C   UNL d   1      -1.247   0.559  14.293  0.00  0.00     0.039 A 
BRANCH  26  29
ATOM     29  O   UNL d   1       1.656  -1.113  15.682  0.00  0.00    -0.356 OA
ATOM     30  C   UNL d   1       2.959  -1.525  15.290  0.00  0.00     0.210 C 
ENDBRANCH  26  29
ENDBRANCH  22  23
ENDBRANCH  21  22
ENDBRANCH  20  21
BRANCH  20  31
ATOM     31  O   UNL d   1      -2.964   3.695  10.888  0.00  0.00    -0.392 OA
ATOM     32  H   UNL d   1      -2.142   4.192  11.040  0.00  0.00     0.210 HD
ENDBRANCH  20  31
ENDBRANCH  19  20
ENDBRANCH   1  19
TORSDOF 12
