REMARK  4 active torsions:
REMARK  status: ('A' for Active; 'I' for Inactive)
REMARK    1  A    between atoms: C_2  and  S_1 
REMARK    2  A    between atoms: N_6  and  S_1 
REMARK    3  A    between atoms: C_8  and  C_4 
REMARK    4  A    between atoms: O_13  and  C_8 
ROOT
ATOM      1  C   UNL d   1       0.549  -1.201  -1.139  0.00  0.00     0.146 A 
ATOM      2  N   UNL d   1       1.356  -1.968  -1.970  0.00  0.00    -0.336 N 
ATOM      3  C   UNL d   1       0.584  -2.864  -2.708  0.00  0.00     0.109 A 
ATOM      4  C   UNL d   1      -0.757  -1.589  -1.411  0.00  0.00     0.046 A 
ATOM      5  C   UNL d   1      -0.738  -2.607  -2.382  0.00  0.00     0.039 A 
ATOM      6  C   UNL d   1       2.797  -1.847  -2.112  0.00  0.00     0.157 C 
ENDROOT
BRANCH   1   7
ATOM      7  S   UNL d   1       1.102   0.077  -0.010  0.00  0.00     0.259 S 
ATOM      8  O   UNL d   1       0.349   1.239  -0.425  0.00  0.00    -0.204 OA
ATOM      9  O   UNL d   1       2.547   0.063  -0.015  0.00  0.00    -0.204 OA
BRANCH   7  10
ATOM     10  N   UNL d   1       0.597  -0.361   1.576  0.00  0.00    -0.205 NA
ATOM     11  C   UNL d   1       1.333  -1.524   2.135  0.00  0.00     0.107 C 
ATOM     12  C   UNL d   1       0.425  -2.348   3.043  0.00  0.00     0.015 C 
ATOM     13  C   UNL d   1       0.329  -1.822   4.471  0.00  0.00     0.001 C 
ATOM     14  C   UNL d   1      -0.236  -0.412   4.580  0.00  0.00     0.001 C 
ATOM     15  C   UNL d   1       0.672   0.637   3.951  0.00  0.00     0.015 C 
ATOM     16  C   UNL d   1       0.476   0.842   2.454  0.00  0.00     0.107 C 
ENDBRANCH   7  10
ENDBRANCH   1   7
BRANCH   3  17
ATOM     17  C   UNL d   1       1.120  -3.874  -3.601  0.00  0.00     0.193 C 
ATOM     18  O   UNL d   1       2.202  -4.428  -3.484  0.00  0.00    -0.645 OA
BRANCH  17  19
ATOM     19  O   UNL d   1       0.283  -4.142  -4.632  0.00  0.00    -0.772 OA
ATOM     20  H   UNL d   1      -0.479  -3.537  -4.670  0.00  0.00     0.167 HD
ENDBRANCH  17  19
ENDBRANCH   3  17
TORSDOF 4
