REMARK  4 active torsions:
REMARK  status: ('A' for Active; 'I' for Inactive)
REMARK    1  A    between atoms: C_8  and  C_3 
REMARK    2  A    between atoms: C_9  and  C_4 
REMARK    3  A    between atoms: C_6  and  O_10 
REMARK    4  A    between atoms: O_10  and  C_18 
ROOT
ATOM      1  N   UNL d   1       1.390  -0.576  -0.037  0.00  0.00    -0.349 N 
ATOM      2  HN  UNL d   1       2.276  -1.082  -0.056  1.00  0.00     0.166 HD
ATOM      3  C   UNL d   1       0.199  -1.145  -0.040  0.00  0.00     0.084 A 
ATOM      4  C   UNL d   1       1.271   0.806  -0.005  0.00  0.00     0.050 A 
ATOM      5  S   UNL d   1      -1.126  -0.041   0.018  0.00  0.00    -0.081 SA
ATOM      6  C   UNL d   1      -0.027   1.271   0.019  0.00  0.00     0.082 A 
ENDROOT
BRANCH   3   7
ATOM      7  C   UNL d   1      -0.036  -2.600  -0.037  0.00  0.00    -0.002 A 
ATOM      8  C   UNL d   1       0.871  -3.446   0.618  0.00  0.00     0.017 A 
ATOM      9  C   UNL d   1       0.674  -4.835   0.659  0.00  0.00     0.038 A 
ATOM     10  C   UNL d   1      -0.417  -5.404   0.003  0.00  0.00     0.078 A 
ATOM     11  C   UNL d   1      -1.333  -4.571  -0.636  0.00  0.00     0.038 A 
ATOM     12  C   UNL d   1      -1.145  -3.185  -0.666  0.00  0.00     0.017 A 
BRANCH  10  13
ATOM     13  O   UNL d   1      -0.732  -6.726  -0.026  0.00  0.00    -0.255 OA
BRANCH  13  14
ATOM     14  C   UNL d   1       0.304  -7.697  -0.051  0.00  0.00     0.530 C 
ATOM     15  F   UNL d   1       1.546  -7.185  -0.169  0.00  0.00    -0.144 F 
ATOM     16  F   UNL d   1       0.244  -8.438   1.076  0.00  0.00    -0.144 F 
ATOM     17  F   UNL d   1       0.094  -8.518  -1.105  0.00  0.00    -0.144 F 
ENDBRANCH  13  14
ENDBRANCH  10  13
ENDBRANCH   3   7
BRANCH   4  18
ATOM     18  C   UNL d   1       2.439   1.678  -0.039  0.00  0.00    -0.009 A 
ATOM     19  C   UNL d   1       3.598   1.262  -0.712  0.00  0.00     0.015 A 
ATOM     20  C   UNL d   1       4.712   2.100  -0.797  0.00  0.00     0.024 A 
ATOM     21  C   UNL d   1       4.679   3.360  -0.202  0.00  0.00     0.034 A 
ATOM     22  C   UNL d   1       3.546   3.780   0.490  0.00  0.00     0.024 A 
ATOM     23 CL   UNL d   1       6.040   4.405  -0.324  0.00  0.00    -0.084 Cl
ATOM     24  C   UNL d   1       2.431   2.941   0.574  0.00  0.00     0.015 A 
ENDBRANCH   4  18
TORSDOF 4
