REMARK  5 active torsions:
REMARK  status: ('A' for Active; 'I' for Inactive)
REMARK    1  A    between atoms: N_2  and  S_1 
REMARK    2  A    between atoms: C_10  and  S_1 
REMARK       I    between atoms: C_6  and  N_2 
REMARK    3  A    between atoms: C_3  and  N_8 
REMARK       I    between atoms: N_15  and  C_6 
REMARK    4  A    between atoms: C_7  and  C_9 
REMARK    5  A    between atoms: C_26  and  N_15 
ROOT
ATOM      1  N   UNL d   1       3.825   3.804  -2.816  0.00  0.00    -0.217 N 
ATOM      2  C   UNL d   1       4.289   2.431  -2.911  0.00  0.00     0.143 C 
ATOM      3  C   UNL d   1       2.388   4.011  -2.856  0.00  0.00     0.143 C 
ATOM      4  C   UNL d   1       1.724   3.224  -1.725  0.00  0.00     0.045 C 
ATOM      5  C   UNL d   1       3.691   1.605  -1.772  0.00  0.00     0.045 C 
ATOM      6  C   UNL d   1       2.165   1.750  -1.671  0.00  0.00     0.089 C 
ENDROOT
BRANCH   6   7
ATOM      7  N   UNL d   1       1.469   0.956  -2.682  0.00  0.00    -0.338 N 
ATOM      8  C   UNL d   1       1.078  -0.349  -2.658  0.00  0.00     0.330 C 
ATOM      9  N   UNL d   1       1.504  -1.139  -1.603  0.00  0.00    -0.232 N 
ATOM     10  O   UNL d   1       0.390  -0.770  -3.578  0.00  0.00    -0.246 OA
ATOM     11  H   UNL d   1       2.190  -0.813  -0.936  0.00  0.00     0.183 HD
ATOM     12  H   UNL d   1       1.136   1.419  -3.521  0.00  0.00     0.164 HD
BRANCH   9  13
ATOM     13  S   UNL d   1       1.151  -2.762  -1.437  0.00  0.00     0.266 S 
ATOM     14  O   UNL d   1      -0.275  -2.908  -1.247  0.00  0.00    -0.200 OA
ATOM     15  O   UNL d   1       2.085  -3.262  -0.450  0.00  0.00    -0.200 OA
BRANCH  13  16
ATOM     16  C   UNL d   1       1.617  -3.464  -2.999  0.00  0.00     0.080 A 
ATOM     17  C   UNL d   1       2.964  -3.471  -3.368  0.00  0.00     0.026 A 
ATOM     18  C   UNL d   1       3.321  -3.906  -4.644  0.00  0.00     0.008 A 
ATOM     19  C   UNL d   1       2.342  -4.344  -5.547  0.00  0.00    -0.062 A 
ATOM     20  C   UNL d   1       1.002  -4.391  -5.139  0.00  0.00     0.008 A 
ATOM     21  C   UNL d   1       2.733  -4.725  -6.945  0.00  0.00     0.048 C 
ATOM     22  C   UNL d   1       0.636  -3.955  -3.864  0.00  0.00     0.026 A 
ENDBRANCH  13  16
ENDBRANCH   9  13
ENDBRANCH   6   7
BRANCH   1  23
ATOM     23  C   UNL d   1       4.670   4.815  -2.416  0.00  0.00     0.680 A 
ATOM     24  N   UNL d   1       5.972   4.548  -2.244  0.00  0.00    -0.186 N 
ATOM     25  C   UNL d   1       6.812   5.559  -1.893  0.00  0.00     0.133 A 
ATOM     26  HN  UNL d   1       6.327   3.601  -2.374  1.00  0.00     0.184 HD
ATOM     27  C   UNL d   1       6.359   6.848  -1.697  0.00  0.00     0.052 A 
ATOM     28  C   UNL d   1       5.017   7.036  -1.885  0.00  0.00     0.108 A 
ATOM     29  N   UNL d   1       4.171   6.048  -2.234  0.00  0.00    -0.202 N 
ATOM     30  HN  UNL d   1       3.175   6.233  -2.358  1.00  0.00     0.183 HD
BRANCH  25  31
ATOM     31  C   UNL d   1       8.293   5.272  -1.718  0.00  0.00     0.433 C 
ATOM     32  F   UNL d   1       8.650   3.978  -1.950  0.00  0.00    -0.165 F 
ATOM     33  F   UNL d   1       9.070   6.027  -2.550  0.00  0.00    -0.165 F 
ATOM     34  F   UNL d   1       8.732   5.558  -0.457  0.00  0.00    -0.165 F 
ENDBRANCH  25  31
ENDBRANCH   1  23
TORSDOF 5
