REMARK  3 active torsions:
REMARK  status: ('A' for Active; 'I' for Inactive)
REMARK    1  A    between atoms: N_3  and  C_2 
REMARK    2  A    between atoms: O_13  and  C_5 
REMARK    3  A    between atoms: O_14  and  C_7 
ROOT
ATOM      1  C   UNL d   1       0.053   0.938   0.011  0.00  0.00     0.102 A 
ATOM      2  C   UNL d   1       1.290   1.583   0.007  0.00  0.00     0.128 A 
ATOM      3  C   UNL d   1       0.022  -0.475   0.013  0.00  0.00     0.093 A 
ATOM      4  C   UNL d   1       1.232  -1.213   0.006  0.00  0.00     0.125 A 
ATOM      5  C   UNL d   1       2.495   0.884  -0.006  0.00  0.00     0.077 A 
ATOM      6  C   UNL d   1       2.472  -0.509  -0.004  0.00  0.00     0.105 A 
ATOM      7  C   UNL d   1      -1.160   1.705  -0.021  0.00  0.00     0.104 C 
ATOM      8  N   UNL d   1      -2.133   2.337  -0.071  0.00  0.00    -0.191 NA
ATOM      9 CL   UNL d   1      -1.555  -1.214   0.019  0.00  0.00    -0.080 Cl
ENDROOT
BRANCH   2  10
ATOM     10  N   UNL d   1       1.364   3.030   0.022  0.00  0.00    -0.114 N 
ATOM     11  O   UNL d   1       0.893   3.604   1.010  0.00  0.00    -0.532 OA
ATOM     12  O   UNL d   1       1.935   3.567  -0.933  0.00  0.00    -0.532 OA
ENDBRANCH   2  10
BRANCH   4  13
ATOM     13  O   UNL d   1       1.408  -2.575   0.005  0.00  0.00    -0.351 OA
ATOM     14  C   UNL d   1       0.322  -3.484   0.004  0.00  0.00     0.210 C 
ENDBRANCH   4  13
BRANCH   6  15
ATOM     15  O   UNL d   1       3.616  -1.275  -0.011  0.00  0.00    -0.353 OA
ATOM     16  C   UNL d   1       4.873  -0.602  -0.013  0.00  0.00     0.210 C 
ENDBRANCH   6  15
TORSDOF 3
