REMARK  1 active torsions:
REMARK  status: ('A' for Active; 'I' for Inactive)
REMARK    1  A    between atoms: C_9  and  C_5 
ROOT
ATOM      1  C   UNL d   1       1.624   1.570   0.228  0.00  0.00     0.027 C 
ATOM      2  N   UNL d   1       0.843   1.603  -0.809  0.00  0.00    -0.357 N 
ATOM      3  HN  UNL d   1       1.029   2.250  -1.575  1.00  0.00     0.166 HD
ATOM      4  C   UNL d   1       1.573   0.456   1.273  0.00  0.00     0.065 C 
ATOM      5  C   UNL d   1       2.380  -0.684   0.538  0.00  0.00     0.096 C 
ATOM      6  S   UNL d   1       1.228  -1.713  -0.467  0.00  0.00    -0.117 SA
ATOM      7  C   UNL d   1       2.785   2.493   0.306  0.00  0.00     0.004 A 
ATOM      8  S   UNL d   1       2.374   2.566   3.052  0.00  0.00    -0.128 SA
ATOM      9  C   UNL d   1      -0.268   0.732  -0.864  0.00  0.00     0.049 A 
ATOM     10  C   UNL d   1       1.881   0.849   2.719  0.00  0.00     0.091 C 
ATOM     11  C   UNL d   1      -0.236  -0.676  -0.723  0.00  0.00     0.028 A 
ATOM     12  C   UNL d   1       3.239   2.934   1.551  0.00  0.00     0.012 A 
ATOM     13  C   UNL d   1       3.500   2.795  -0.862  0.00  0.00     0.015 A 
ATOM     14  C   UNL d   1      -1.507   1.379  -0.991  0.00  0.00     0.031 A 
ATOM     15  C   UNL d   1      -1.460  -1.374  -0.674  0.00  0.00     0.021 A 
ATOM     16  C   UNL d   1       4.420   3.679   1.621  0.00  0.00     0.019 A 
ATOM     17  C   UNL d   1       4.691   3.515  -0.778  0.00  0.00     0.001 A 
ATOM     18  C   UNL d   1      -2.708   0.675  -0.921  0.00  0.00     0.002 A 
ATOM     19  C   UNL d   1      -2.683  -0.703  -0.752  0.00  0.00     0.002 A 
ATOM     20  C   UNL d   1       5.153   3.953   0.463  0.00  0.00     0.001 A 
ENDROOT
BRANCH   5  21
ATOM     21  C   UNL d   1       3.528  -1.332   1.337  0.00  0.00    -0.037 C 
ATOM     22  C   UNL d   1       3.717  -2.659   1.770  0.00  0.00    -0.054 C 
ATOM     23  C   UNL d   1       2.993  -3.893   1.312  0.00  0.00     0.049 C 
ATOM     24  C   UNL d   1       4.752  -2.936   2.704  0.00  0.00     0.007 C 
ATOM     25  C   UNL d   1       5.642  -1.965   3.151  0.00  0.00     0.001 C 
ATOM     26  C   UNL d   1       5.564  -0.698   2.615  0.00  0.00     0.001 C 
ATOM     27  C   UNL d   1       4.551  -0.409   1.705  0.00  0.00     0.009 C 
ENDBRANCH   5  21
TORSDOF 1
