REMARK  2 active torsions:
REMARK  status: ('A' for Active; 'I' for Inactive)
REMARK    1  A    between atoms: C_5  and  N_1 
REMARK    2  A    between atoms: C_4  and  C_11 
ROOT
ATOM      1  C   UNL d   1       0.190   0.667   1.064  0.00  0.00     0.102 A 
ATOM      2  C   UNL d   1      -1.404   1.951   2.998  0.00  0.00    -0.001 A 
ATOM      3  C   UNL d   1       0.594   1.897   1.595  0.00  0.00     0.037 A 
ATOM      4  C   UNL d   1      -0.996   0.066   1.498  0.00  0.00     0.037 A 
ATOM      5  C   UNL d   1      -0.202   2.530   2.557  0.00  0.00     0.017 A 
ATOM      6  C   UNL d   1      -1.783   0.710   2.459  0.00  0.00     0.017 A 
ENDROOT
BRANCH   2   7
ATOM      7  C   UNL d   1      -2.237   2.632   3.980  0.00  0.00     0.102 A 
ATOM      8  O   UNL d   1      -3.400   2.009   4.360  0.00  0.00    -0.304 OA
ATOM      9  C   UNL d   1      -3.963   2.866   5.254  0.00  0.00     0.233 A 
ATOM     10  N   UNL d   1      -3.280   3.963   5.482  0.00  0.00    -0.354 N 
ATOM     11  C   UNL d   1      -2.178   3.823   4.674  0.00  0.00     0.127 A 
ATOM     12  HN  UNL d   1      -3.511   4.734   6.109  1.00  0.00     0.166 HD
ENDBRANCH   2   7
BRANCH   1  13
ATOM     13  N   UNL d   1       1.011   0.008   0.041  0.00  0.00    -0.116 N 
ATOM     14  O   UNL d   1       2.047   0.582  -0.324  0.00  0.00    -0.532 OA
ATOM     15  O   UNL d   1       0.619  -1.082  -0.399  0.00  0.00    -0.532 OA
ENDBRANCH   1  13
TORSDOF 2
