REMARK  4 active torsions:
REMARK  status: ('A' for Active; 'I' for Inactive)
REMARK    1  A    between atoms: S_2  and  C_1 
REMARK    2  A    between atoms: C_13  and  S_2 
REMARK    3  A    between atoms: S_14  and  C_3 
REMARK    4  A    between atoms: C_16  and  S_14 
ROOT
ATOM      1  C   UNL d   1      -0.043  -1.183   0.046  0.00  0.00     0.111 A 
ATOM      2  C   UNL d   1       1.220  -0.611  -0.026  0.00  0.00     0.067 A 
ATOM      3  C   UNL d   1      -1.077  -0.171   0.115  0.00  0.00     0.077 A 
ATOM      4  C   UNL d   1      -0.571   1.112   0.045  0.00  0.00     0.114 A 
ATOM      5  S   UNL d   1       1.124   1.107  -0.099  0.00  0.00    -0.068 SA
ATOM      6  C   UNL d   1      -1.328   2.329   0.079  0.00  0.00     0.109 C 
ATOM      7  N   UNL d   1      -1.957   3.304   0.109  0.00  0.00    -0.191 NA
ATOM      8  N   UNL d   1      -2.405  -0.439   0.235  0.00  0.00    -0.396 N 
ATOM      9  H   UNL d   1      -2.756  -1.343  -0.109  0.00  0.00     0.156 HD
ATOM     10  H   UNL d   1      -3.108   0.285   0.077  0.00  0.00     0.156 HD
ENDROOT
BRANCH   1  11
ATOM     11  S   UNL d   1      -0.411  -2.889   0.041  0.00  0.00     0.183 S 
ATOM     12  O   UNL d   1      -1.683  -2.956  -0.663  0.00  0.00    -0.222 OA
ATOM     13  O   UNL d   1       0.757  -3.544  -0.499  0.00  0.00    -0.222 OA
BRANCH  11  14
ATOM     14  C   UNL d   1      -0.683  -3.414   1.732  0.00  0.00     0.105 C 
ATOM     15  C   UNL d   1      -1.169  -4.868   1.728  0.00  0.00     0.026 C 
ATOM     16  C   UNL d   1       0.559  -3.299   2.605  0.00  0.00     0.026 C 
ENDBRANCH  11  14
ENDBRANCH   1  11
BRANCH   2  17
ATOM     17  S   UNL d   1       2.835  -1.308   0.097  0.00  0.00    -0.107 SA
BRANCH  17  18
ATOM     18  C   UNL d   1       3.223  -1.981  -1.545  0.00  0.00     0.203 C 
ATOM     19  C   UNL d   1       2.752  -1.227  -2.712  0.00  0.00     0.069 C 
ATOM     20  N   UNL d   1       2.408  -0.661  -3.667  0.00  0.00    -0.197 NA
ENDBRANCH  17  18
ENDBRANCH   2  17
TORSDOF 4
