REMARK  1 active torsions:
REMARK  status: ('A' for Active; 'I' for Inactive)
REMARK    1  A    between atoms: O_11  and  C_2 
ROOT
ATOM      1  C   UNL d   1       0.016  -0.809   0.013  0.00  0.00     0.027 A 
ATOM      2  C   UNL d   1       1.268  -1.471   0.017  0.00  0.00     0.096 A 
ATOM      3  N   UNL d   1       1.197   1.299  -0.055  0.00  0.00    -0.358 N 
ATOM      4  HN  UNL d   1       1.173   2.319  -0.080  1.00  0.00     0.166 HD
ATOM      5  C   UNL d   1       2.467  -0.746  -0.016  0.00  0.00     0.062 A 
ATOM      6  C   UNL d   1       0.055   0.601  -0.029  0.00  0.00     0.045 A 
ATOM      7  C   UNL d   1       2.388   0.644  -0.048  0.00  0.00     0.025 A 
ATOM      8  C   UNL d   1      -1.251  -1.450   0.048  0.00  0.00     0.040 A 
ATOM      9  C   UNL d   1      -1.137   1.314  -0.051  0.00  0.00     0.032 A 
ATOM     10  I   UNL d   1       4.319  -1.755  -0.050  0.00  0.00    -0.040 I 
ATOM     11  C   UNL d   1      -2.431  -0.706   0.015  0.00  0.00     0.035 A 
ATOM     12  C   UNL d   1      -2.379   0.677  -0.036  0.00  0.00     0.026 A 
ATOM     13 CL   UNL d   1      -3.950  -1.510   0.028  0.00  0.00    -0.084 Cl
ATOM     14  C   UNL d   1       3.592   1.540  -0.095  0.00  0.00     0.069 C 
ENDROOT
BRANCH   2  15
ATOM     15  O   UNL d   1       1.349  -2.844   0.050  0.00  0.00    -0.358 OA
ATOM     16  H   UNL d   1       0.496  -3.248  -0.161  0.00  0.00     0.217 HD
ENDBRANCH   2  15
TORSDOF 1
