REMARK  1 active torsions:
REMARK  status: ('A' for Active; 'I' for Inactive)
REMARK       I    between atoms: C_7  and  N_3 
REMARK    1  A    between atoms: C_9  and  C_4 
REMARK       I    between atoms: N_10  and  C_7 
ROOT
ATOM      1  N   UNL d   1       0.781  -0.652   0.339  0.00  0.00    -0.289 N 
ATOM      2  HN  UNL d   1       1.582  -1.255   0.521  1.00  0.00     0.188 HD
ATOM      3  N   UNL d   1      -0.533  -1.016   0.251  0.00  0.00    -0.216 N 
ATOM      4  C   UNL d   1       0.786   0.677   0.131  0.00  0.00     0.066 A 
ATOM      5  C   UNL d   1      -0.537   1.175  -0.085  0.00  0.00    -0.015 A 
ATOM      6  C   UNL d   1      -1.343   0.061  -0.011  0.00  0.00     0.130 A 
ATOM      7  C   UNL d   1      -0.933  -2.361   0.437  0.00  0.00     0.340 C 
ATOM      8  O   UNL d   1      -2.108  -2.681   0.334  0.00  0.00    -0.245 OA
ATOM      9  N   UNL d   1       0.137  -3.164   0.760  0.00  0.00    -0.346 N 
ATOM     10  C   UNL d   1      -0.985   2.562  -0.358  0.00  0.00     0.052 C 
ATOM     11  C   UNL d   1      -0.050  -4.532   1.153  0.00  0.00     0.151 C 
ATOM     12  H   UNL d   1       1.030  -2.690   0.898  0.00  0.00     0.163 HD
ENDROOT
BRANCH   4  13
ATOM     13  C   UNL d   1       2.043   1.427   0.114  0.00  0.00    -0.007 A 
ATOM     14  C   UNL d   1       3.147   0.924  -0.592  0.00  0.00     0.014 A 
ATOM     15  C   UNL d   1       4.335   1.658  -0.668  0.00  0.00     0.001 A 
ATOM     16  C   UNL d   1       4.430   2.894  -0.035  0.00  0.00     0.000 A 
ATOM     17  C   UNL d   1       3.349   3.395   0.688  0.00  0.00     0.001 A 
ATOM     18  C   UNL d   1       2.161   2.662   0.766  0.00  0.00     0.014 A 
ENDBRANCH   4  13
TORSDOF 1
