REMARK  5 active torsions:
REMARK  status: ('A' for Active; 'I' for Inactive)
REMARK    1  A    between atoms: C_5  and  C_1 
REMARK    2  A    between atoms: C_18  and  C_2 
REMARK    3  A    between atoms: C_6  and  C_9 
REMARK    4  A    between atoms: N_12  and  O_19 
REMARK    5  A    between atoms: O_19  and  C_18 
ROOT
ATOM      1  C   UNL d   1       3.670  -4.028  -0.299  0.00  0.00     0.147 C 
ATOM      2  N   UNL d   1       4.874  -6.329  -0.592  0.00  0.00    -0.190 NA
ATOM      3  C   UNL d   1       4.317  -5.320  -0.460  0.00  0.00     0.120 C 
ATOM      4  N   UNL d   1       2.395  -3.973  -0.045  0.00  0.00    -0.255 N 
ATOM      5  HN  UNL d   1       1.879  -3.101   0.077  1.00  0.00     0.195 HD
ENDROOT
BRANCH   1   6
ATOM      6  C   UNL d   1       4.514  -2.825  -0.398  0.00  0.00     0.047 A 
ATOM      7  C   UNL d   1       4.588  -1.934   0.683  0.00  0.00     0.049 A 
ATOM      8 CL   UNL d   1       3.747  -2.190   2.172  0.00  0.00    -0.083 Cl
ATOM      9  C   UNL d   1       5.403  -0.797   0.608  0.00  0.00     0.025 A 
ATOM     10  C   UNL d   1       6.155  -0.543  -0.538  0.00  0.00     0.003 A 
ATOM     11  C   UNL d   1       6.082  -1.421  -1.618  0.00  0.00     0.025 A 
ATOM     12  C   UNL d   1       5.258  -2.551  -1.558  0.00  0.00     0.049 A 
ATOM     13 CL   UNL d   1       5.173  -3.526  -2.981  0.00  0.00    -0.083 Cl
ENDBRANCH   1   6
BRANCH   4  14
ATOM     14  O   UNL d   1       1.805  -5.248   0.045  0.00  0.00    -0.275 OA
BRANCH  14  15
ATOM     15  C   UNL d   1       0.382  -5.124   0.197  0.00  0.00     0.245 C 
BRANCH  15  16
ATOM     16  C   UNL d   1      -0.339  -6.393  -0.125  0.00  0.00     0.029 A 
ATOM     17  C   UNL d   1      -1.753  -6.588  -0.337  0.00  0.00     0.079 A 
ATOM     18  N   UNL d   1      -2.005  -7.865  -0.661  0.00  0.00    -0.260 N 
ATOM     19  O   UNL d   1      -0.813  -8.534  -0.579  0.00  0.00    -0.242 OA
ATOM     20  HN  UNL d   1      -2.909  -8.261  -0.919  1.00  0.00     0.195 HD
ATOM     21  C   UNL d   1       0.180  -7.672  -0.252  0.00  0.00     0.083 A 
ATOM     22  C   UNL d   1       1.507  -8.303  -0.104  0.00  0.00     0.079 C 
BRANCH  17  23
ATOM     23  C   UNL d   1      -2.877  -5.653  -0.221  0.00  0.00     0.037 A 
ATOM     24  C   UNL d   1      -2.990  -4.512  -1.038  0.00  0.00     0.048 A 
ATOM     25 CL   UNL d   1      -1.883  -4.152  -2.319  0.00  0.00    -0.083 Cl
ATOM     26  C   UNL d   1      -4.070  -3.627  -0.896  0.00  0.00     0.025 A 
ATOM     27  C   UNL d   1      -5.094  -3.894   0.008  0.00  0.00     0.003 A 
ATOM     28  C   UNL d   1      -5.031  -5.044   0.786  0.00  0.00     0.025 A 
ATOM     29  C   UNL d   1      -3.929  -5.907   0.689  0.00  0.00     0.048 A 
ATOM     30 CL   UNL d   1      -3.947  -7.271   1.762  0.00  0.00    -0.083 Cl
ENDBRANCH  17  23
ENDBRANCH  15  16
ENDBRANCH  14  15
ENDBRANCH   4  14
TORSDOF 5
