REMARK  11 active torsions:
REMARK  status: ('A' for Active; 'I' for Inactive)
REMARK    1  A    between atoms: C_6  and  C_1 
REMARK    2  A    between atoms: N_9  and  C_2 
REMARK    3  A    between atoms: C_10  and  N_4 
REMARK    4  A    between atoms: O_24  and  C_6 
REMARK    5  A    between atoms: C_7  and  O_13 
REMARK       I    between atoms: N_11  and  C_7 
REMARK    6  A    between atoms: C_8  and  O_14 
REMARK    7  A    between atoms: C_17  and  N_9 
REMARK    8  A    between atoms: C_21  and  N_11 
REMARK    9  A    between atoms: O_13  and  C_22 
REMARK   10  A    between atoms: O_14  and  C_23 
REMARK   11  A    between atoms: C_36  and  O_24 
ROOT
ATOM      1  C   UNL d   1       1.725   2.836   0.493  0.00  0.00     0.013 A 
ATOM      2  C   UNL d   1       4.255   3.902  -0.093  0.00  0.00     0.081 A 
ATOM      3  C   UNL d   1       2.508   2.288  -0.532  0.00  0.00     0.026 A 
ATOM      4  C   UNL d   1       2.252   3.898   1.243  0.00  0.00     0.026 A 
ATOM      5  C   UNL d   1       3.775   2.811  -0.818  0.00  0.00     0.039 A 
ATOM      6  C   UNL d   1       3.524   4.414   0.973  0.00  0.00     0.039 A 
ENDROOT
BRANCH   1   7
ATOM      7  N   UNL d   1       0.365   2.483   0.687  0.00  0.00    -0.254 NA
ATOM      8  H   UNL d   1      -0.221   3.158   0.181  0.00  0.00     0.134 HD
BRANCH   7   9
ATOM      9  C   UNL d   1      -0.132   1.214   0.487  0.00  0.00     0.095 A 
ATOM     10  C   UNL d   1       0.142   0.007   0.999  0.00  0.00     0.062 A 
ATOM     11  C   UNL d   1      -0.756  -1.072   0.518  0.00  0.00     0.174 A 
ATOM     12  N   UNL d   1      -1.681  -0.342  -0.316  0.00  0.00    -0.334 N 
ATOM     13  C   UNL d   1      -1.335   0.997  -0.370  0.00  0.00     0.266 A 
ATOM     14  O   UNL d   1      -1.888   1.907  -0.978  0.00  0.00    -0.266 OA
BRANCH  10  15
ATOM     15  C   UNL d   1       1.091  -0.320   2.065  0.00  0.00     0.292 C 
ATOM     16  O   UNL d   1       1.402  -1.469   2.337  0.00  0.00    -0.259 OA
BRANCH  15  17
ATOM     17  O   UNL d   1       1.396   0.784   2.783  0.00  0.00    -0.318 OA
BRANCH  17  18
ATOM     18  C   UNL d   1       1.939   0.580   4.089  0.00  0.00     0.174 C 
ATOM     19  C   UNL d   1       0.783   0.430   5.061  0.00  0.00     0.034 C 
ENDBRANCH  17  18
ENDBRANCH  15  17
ENDBRANCH  10  15
BRANCH  12  20
ATOM     20  C   UNL d   1      -2.865  -0.952  -0.975  0.00  0.00     0.025 C 
ATOM     21  C   UNL d   1      -2.976  -2.469  -0.705  0.00  0.00     0.037 C 
ATOM     22  C   UNL d   1      -4.159  -0.297  -0.451  0.00  0.00     0.037 C 
ATOM     23  C   UNL d   1      -2.779  -0.758  -2.500  0.00  0.00     0.037 C 
ENDBRANCH  12  20
ENDBRANCH   7   9
ENDBRANCH   1   7
BRANCH   2  24
ATOM     24  O   UNL d   1       5.502   4.423  -0.496  0.00  0.00    -0.261 OA
BRANCH  24  25
ATOM     25  C   UNL d   1       5.700   5.800  -0.568  0.00  0.00     0.370 C 
ATOM     26  N   UNL d   1       6.903   6.207  -1.096  0.00  0.00    -0.302 N 
ATOM     27  H   UNL d   1       7.000   7.213  -1.026  0.00  0.00     0.171 HD
ATOM     28  O   UNL d   1       4.903   6.652  -0.185  0.00  0.00    -0.238 OA
BRANCH  26  29
ATOM     29  C   UNL d   1       7.992   5.497  -1.627  0.00  0.00     0.037 A 
ATOM     30  C   UNL d   1       7.998   4.129  -1.895  0.00  0.00     0.032 A 
ATOM     31  C   UNL d   1       9.162   3.485  -2.346  0.00  0.00     0.039 A 
ATOM     32  C   UNL d   1      10.325   4.211  -2.581  0.00  0.00     0.078 A 
ATOM     33  C   UNL d   1      10.309   5.589  -2.352  0.00  0.00     0.039 A 
ATOM     34  C   UNL d   1       9.154   6.229  -1.892  0.00  0.00     0.032 A 
BRANCH  32  35
ATOM     35  O   UNL d   1      11.520   3.740  -3.030  0.00  0.00    -0.255 OA
BRANCH  35  36
ATOM     36  C   UNL d   1      11.644   2.401  -3.479  0.00  0.00     0.530 C 
ATOM     37  F   UNL d   1      10.531   1.939  -4.086  0.00  0.00    -0.144 F 
ATOM     38  F   UNL d   1      12.649   2.354  -4.383  0.00  0.00    -0.144 F 
ATOM     39  F   UNL d   1      11.965   1.590  -2.450  0.00  0.00    -0.144 F 
ENDBRANCH  35  36
ENDBRANCH  32  35
ENDBRANCH  26  29
ENDBRANCH  24  25
ENDBRANCH   2  24
TORSDOF 11
