REMARK  3 active torsions:
REMARK  status: ('A' for Active; 'I' for Inactive)
REMARK    1  A    between atoms: S_14  and  C_4 
REMARK    2  A    between atoms: O_13  and  N_7 
REMARK    3  A    between atoms: C_12  and  O_13 
ROOT
ATOM      1  C   UNL d   1       0.387   0.823   0.094  0.00  0.00     0.019 A 
ATOM      2  C   UNL d   1       0.377  -0.613   0.033  0.00  0.00    -0.037 A 
ATOM      3  C   UNL d   1      -0.857   1.580   0.084  0.00  0.00     0.046 C 
ATOM      4  C   UNL d   1       1.690   1.315   0.088  0.00  0.00     0.053 A 
ATOM      5  S   UNL d   1       2.853   0.054   0.117  0.00  0.00    -0.093 SA
ATOM      6  C   UNL d   1       1.651  -1.143   0.063  0.00  0.00     0.059 A 
ATOM      7  N   UNL d   1      -0.797   2.868   0.247  0.00  0.00    -0.261 N 
ATOM      8  HN  UNL d   1       0.059   3.367   0.487  1.00  0.00     0.194 HD
ATOM      9  C   UNL d   1      -0.856  -1.445  -0.099  0.00  0.00     0.049 C 
ATOM     10  C   UNL d   1      -2.211  -0.698   0.000  0.00  0.00    -0.038 C 
ATOM     11  C   UNL d   1      -2.169   0.847  -0.152  0.00  0.00     0.069 C 
ATOM     12  C   UNL d   1      -2.873  -1.057   1.350  0.00  0.00     0.015 C 
ATOM     13  C   UNL d   1      -3.132  -1.241  -1.118  0.00  0.00     0.015 C 
ENDROOT
BRANCH   7  14
ATOM     14  O   UNL d   1      -2.041   3.499   0.056  0.00  0.00    -0.200 OA
BRANCH  14  15
ATOM     15  C   UNL d   1      -2.048   4.710   0.693  0.00  0.00     0.277 C 
ATOM     16  O   UNL d   1      -1.292   5.072   1.593  0.00  0.00    -0.264 OA
ATOM     17  C   UNL d   1      -3.147   5.571   0.151  0.00  0.00     0.128 C 
ENDBRANCH  14  15
ENDBRANCH   7  14
BRANCH   4  18
ATOM     18  S   UNL d   1       2.268   2.979  -0.021  0.00  0.00    -0.126 SA
ATOM     19  C   UNL d   1       2.315   3.413   1.732  0.00  0.00     0.096 C 
ENDBRANCH   4  18
TORSDOF 3
