REMARK  5 active torsions:
REMARK  status: ('A' for Active; 'I' for Inactive)
REMARK    1  A    between atoms: N_5  and  C_14 
REMARK    2  A    between atoms: N_12  and  C_8 
REMARK    3  A    between atoms: C_19  and  N_12 
REMARK    4  A    between atoms: C_14  and  C_15 
REMARK    5  A    between atoms: C_15  and  C_19 
ROOT
ATOM      1  C   UNL d   1       1.700   1.130   0.000  0.00  0.00     0.109 A 
ATOM      2  C   UNL d   1       2.728   2.120  -0.030  0.00  0.00     0.105 C 
ATOM      3  N   UNL d   1       3.551   2.942  -0.040  0.00  0.00    -0.191 NA
ATOM      4  C   UNL d   1       0.331   1.477   0.015  0.00  0.00     0.052 A 
ATOM      5  C   UNL d   1       2.092  -0.215   0.017  0.00  0.00     0.139 A 
ATOM      6  F   UNL d   1       3.392  -0.546   0.004  0.00  0.00    -0.204 F 
ATOM      7  C   UNL d   1      -0.193  -0.926   0.038  0.00  0.00     0.005 A 
ATOM      8  C   UNL d   1      -0.593   0.413   0.022  0.00  0.00     0.031 A 
ATOM      9  C   UNL d   1       1.157  -1.241   0.035  0.00  0.00     0.044 A 
ENDROOT
BRANCH   4  10
ATOM     10  N   UNL d   1      -0.100   2.807  -0.092  0.00  0.00    -0.389 N 
ATOM     11  H   UNL d   1       0.566   3.543   0.140  0.00  0.00     0.159 HD
BRANCH  10  12
ATOM     12  C   UNL d   1      -1.516   3.135  -0.004  0.00  0.00     0.121 C 
BRANCH  12  13
ATOM     13  C   UNL d   1      -1.770   4.637   0.004  0.00  0.00     0.040 C 
BRANCH  13  14
ATOM     14  C   UNL d   1      -3.280   4.883   0.017  0.00  0.00     0.130 C 
BRANCH  14  15
ATOM     15  N   UNL d   1      -3.630   6.285  -0.008  0.00  0.00    -0.352 N 
ATOM     16  C   UNL d   1      -3.872   7.071   1.081  0.00  0.00     0.182 A 
ATOM     17  N   UNL d   1      -4.220   8.286   0.724  0.00  0.00    -0.361 N 
ATOM     18  C   UNL d   1      -4.213   8.277  -0.647  0.00  0.00     0.106 A 
ATOM     19  HN  UNL d   1      -4.446   9.070   1.336  1.00  0.00     0.166 HD
ATOM     20  C   UNL d   1      -3.858   7.037  -1.125  0.00  0.00     0.108 A 
ENDBRANCH  14  15
ENDBRANCH  13  14
ENDBRANCH  12  13
ENDBRANCH  10  12
ENDBRANCH   4  10
TORSDOF 5
