REMARK  4 active torsions:
REMARK  status: ('A' for Active; 'I' for Inactive)
REMARK    1  A    between atoms: N_8  and  C_1 
REMARK    2  A    between atoms: C_11  and  N_8 
REMARK    3  A    between atoms: C_17  and  N_8 
REMARK    4  A    between atoms: C_15  and  C_17 
ROOT
ATOM      1  C   UNL d   1       2.474  -0.677   0.061  0.00  0.00     0.156 C 
ATOM      2  N   UNL d   1       2.190   0.444  -0.531  0.00  0.00    -0.303 N 
ATOM      3  HN  UNL d   1       2.840   0.795  -1.234  1.00  0.00     0.171 HD
ATOM      4  S   UNL d   1       1.448  -1.341   1.339  0.00  0.00    -0.035 SA
ATOM      5  C   UNL d   1       1.065   1.180  -0.265  0.00  0.00     0.260 C 
ATOM      6  C   UNL d   1      -0.104  -0.684   0.835  0.00  0.00     0.093 A 
ATOM      7  C   UNL d   1      -0.175   0.518   0.166  0.00  0.00     0.066 A 
ATOM      8  N   UNL d   1      -1.206  -1.367   1.237  0.00  0.00    -0.359 N 
ATOM      9  HN  UNL d   1      -1.128  -2.269   1.708  1.00  0.00     0.166 HD
ATOM     10  O   UNL d   1       1.022   2.391  -0.455  0.00  0.00    -0.267 OA
ATOM     11  C   UNL d   1      -1.431   1.096  -0.049  0.00  0.00     0.021 A 
ATOM     12  C   UNL d   1      -2.411  -0.808   0.990  0.00  0.00     0.089 A 
ATOM     13  C   UNL d   1      -2.573   0.421   0.374  0.00  0.00     0.018 A 
ENDROOT
BRANCH   1  14
ATOM     14  N   UNL d   1       3.667  -1.359  -0.214  0.00  0.00    -0.324 N 
BRANCH  14  15
ATOM     15  C   UNL d   1       3.782  -2.776  -0.195  0.00  0.00     0.036 A 
ATOM     16  C   UNL d   1       2.700  -3.586  -0.592  0.00  0.00     0.030 A 
ATOM     17  C   UNL d   1       2.742  -4.983  -0.504  0.00  0.00     0.009 A 
ATOM     18  C   UNL d   1       3.895  -5.627  -0.059  0.00  0.00    -0.062 A 
ATOM     19  C   UNL d   1       5.001  -4.851   0.286  0.00  0.00     0.009 A 
ATOM     20  C   UNL d   1       3.934  -7.123   0.033  0.00  0.00     0.048 C 
ATOM     21  C   UNL d   1       4.942  -3.450   0.220  0.00  0.00     0.030 A 
ENDBRANCH  14  15
BRANCH  14  22
ATOM     22  C   UNL d   1       4.899  -0.551  -0.250  0.00  0.00     0.158 C 
BRANCH  22  23
ATOM     23  C   UNL d   1       5.614  -0.680  -1.568  0.00  0.00    -0.017 C 
ATOM     24  C   UNL d   1       6.884  -1.080  -1.714  0.00  0.00     0.008 C 
ENDBRANCH  22  23
ENDBRANCH  14  22
ENDBRANCH   1  14
TORSDOF 4
