REMARK  7 active torsions:
REMARK  status: ('A' for Active; 'I' for Inactive)
REMARK    1  A    between atoms: N_8  and  C_3 
REMARK    2  A    between atoms: S_13  and  C_4 
REMARK       I    between atoms: C_9  and  N_8 
REMARK    3  A    between atoms: C_10  and  C_9 
REMARK       I    between atoms: N_11  and  C_10 
REMARK    4  A    between atoms: C_16  and  N_11 
REMARK    5  A    between atoms: C_15  and  C_16 
REMARK    6  A    between atoms: O_18  and  C_15 
REMARK    7  A    between atoms: O_19  and  C_15 
ROOT
ATOM      1  N   UNL d   1      -2.398   1.494   0.388  0.00  0.00    -0.150 N 
ATOM      2  C   UNL d   1      -3.678   1.353  -0.076  0.00  0.00     0.327 C 
ATOM      3  O   UNL d   1      -4.443   2.188  -0.539  0.00  0.00    -0.261 OA
ATOM      4  H   UNL d   1      -1.875   0.670   0.653  0.00  0.00     0.188 HD
ENDROOT
BRANCH   1   5
ATOM      5  C   UNL d   1      -1.748   2.682   0.505  0.00  0.00     0.702 A 
ATOM      6  N   UNL d   1      -2.355   3.888   0.322  0.00  0.00    -0.167 N 
ATOM      7  C   UNL d   1      -1.398   4.753   0.547  0.00  0.00     0.175 A 
ATOM      8  HN  UNL d   1      -3.326   4.074   0.069  1.00  0.00     0.186 HD
ATOM      9  N   UNL d   1      -0.240   4.086   0.824  0.00  0.00    -0.261 N 
ATOM     10  C   UNL d   1       1.089   4.589   1.058  0.00  0.00     0.181 C 
ATOM     11  N   UNL d   1      -0.458   2.751   0.843  0.00  0.00    -0.128 N 
ATOM     12  HN  UNL d   1       0.192   1.995   1.059  1.00  0.00     0.206 HD
BRANCH   7  13
ATOM     13  S   UNL d   1      -1.560   6.472   0.514  0.00  0.00    -0.096 SA
ATOM     14  C   UNL d   1      -3.352   6.619   0.307  0.00  0.00     0.099 C 
ENDBRANCH   7  13
ENDBRANCH   1   5
BRANCH   2  15
ATOM     15  C   UNL d   1      -4.152  -0.111  -0.012  0.00  0.00     0.310 C 
ATOM     16  N   UNL d   1      -5.370  -0.339  -0.618  0.00  0.00    -0.348 N 
ATOM     17  H   UNL d   1      -5.732   0.419  -1.194  0.00  0.00     0.163 HD
ATOM     18  O   UNL d   1      -3.449  -0.959   0.522  0.00  0.00    -0.262 OA
BRANCH  16  19
ATOM     19  C   UNL d   1      -5.875  -1.687  -0.799  0.00  0.00     0.183 C 
BRANCH  19  20
ATOM     20  C   UNL d   1      -7.295  -1.752  -1.404  0.00  0.00     0.275 C 
BRANCH  20  21
ATOM     21  O   UNL d   1      -7.266  -1.242  -2.742  0.00  0.00    -0.364 OA
ATOM     22  C   UNL d   1      -8.575  -1.071  -3.274  0.00  0.00     0.204 C 
ENDBRANCH  20  21
BRANCH  20  23
ATOM     23  O   UNL d   1      -7.837  -3.076  -1.343  0.00  0.00    -0.364 OA
ATOM     24  C   UNL d   1      -7.125  -4.032  -2.120  0.00  0.00     0.204 C 
ENDBRANCH  20  23
ENDBRANCH  19  20
ENDBRANCH  16  19
ENDBRANCH   2  15
TORSDOF 7
