REMARK  6 active torsions:
REMARK  status: ('A' for Active; 'I' for Inactive)
REMARK    1  A    between atoms: C_2  and  C_1 
REMARK    2  A    between atoms: N_3  and  C_4 
REMARK    3  A    between atoms: N_6  and  N_3 
REMARK       I    between atoms: C_5  and  N_6 
REMARK    4  A    between atoms: C_11  and  C_5 
REMARK    5  A    between atoms: C_13  and  C_11 
REMARK    6  A    between atoms: C_14  and  C_13 
ROOT
ATOM      1  N   UNL d   1       1.004  -2.910  -0.333  0.00  0.00    -0.203 NA
ATOM      2  H   UNL d   1       0.756  -3.855  -0.668  0.00  0.00     0.153 HD
ENDROOT
BRANCH   1   3
ATOM      3  C   UNL d   1       0.038  -2.457   0.602  0.00  0.00     0.042 A 
ATOM      4  C   UNL d   1       0.200  -2.723   1.974  0.00  0.00     0.070 A 
ATOM      5  C   UNL d   1      -0.792  -2.284   2.879  0.00  0.00     0.018 A 
ATOM      6  C   UNL d   1      -1.936  -1.625   2.437  0.00  0.00     0.001 A 
ATOM      7  C   UNL d   1      -2.120  -1.407   1.078  0.00  0.00     0.002 A 
ATOM      8  C   UNL d   1      -1.148  -1.832   0.171  0.00  0.00     0.026 A 
BRANCH   4   9
ATOM      9  C   UNL d   1       1.407  -3.421   2.556  0.00  0.00     0.419 C 
ATOM     10  F   UNL d   1       2.317  -3.906   1.670  0.00  0.00    -0.166 F 
ATOM     11  F   UNL d   1       1.045  -4.495   3.321  0.00  0.00    -0.166 F 
ATOM     12  F   UNL d   1       2.109  -2.606   3.397  0.00  0.00    -0.166 F 
ENDBRANCH   4   9
ENDBRANCH   1   3
BRANCH   1  13
ATOM     13  N   UNL d   1       1.121  -2.046  -1.446  0.00  0.00    -0.287 N 
ATOM     14  C   UNL d   1       1.211  -2.641  -2.689  0.00  0.00     0.232 C 
ATOM     15  O   UNL d   1       1.012  -3.846  -2.856  0.00  0.00    -0.272 OA
ATOM     16  H   UNL d   1       1.653  -1.204  -1.242  0.00  0.00     0.184 HD
BRANCH  14  17
ATOM     17  C   UNL d   1       1.419  -1.707  -3.870  0.00  0.00     0.108 C 
BRANCH  17  18
ATOM     18  C   UNL d   1       2.077  -0.354  -3.590  0.00  0.00     0.048 C 
BRANCH  18  19
ATOM     19  C   UNL d   1       3.441  -0.402  -2.942  0.00  0.00    -0.058 A 
ATOM     20  C   UNL d   1       4.411  -1.335  -3.329  0.00  0.00     0.007 A 
ATOM     21  C   UNL d   1       5.661  -1.361  -2.704  0.00  0.00     0.001 A 
ATOM     22  C   UNL d   1       5.959  -0.446  -1.697  0.00  0.00     0.000 A 
ATOM     23  C   UNL d   1       5.013   0.504  -1.321  0.00  0.00     0.001 A 
ATOM     24  C   UNL d   1       3.764   0.531  -1.944  0.00  0.00     0.007 A 
ENDBRANCH  18  19
ENDBRANCH  17  18
ENDBRANCH  14  17
ENDBRANCH   1  13
TORSDOF 6
