REMARK  4 active torsions:
REMARK  status: ('A' for Active; 'I' for Inactive)
REMARK    1  A    between atoms: C_6  and  C_1 
REMARK    2  A    between atoms: C_8  and  C_2 
REMARK    3  A    between atoms: C_13  and  N_3 
REMARK       I    between atoms: N_14  and  C_8 
REMARK    4  A    between atoms: C_12  and  C_16 
ROOT
ATOM      1  C   UNL d   1      -0.268  -1.214   0.084  0.00  0.00     0.103 A 
ATOM      2  C   UNL d   1       0.983  -0.600   0.058  0.00  0.00     0.086 A 
ATOM      3  N   UNL d   1      -1.204  -0.212  -0.100  0.00  0.00    -0.253 N 
ATOM      4  N   UNL d   1      -0.617   0.981  -0.355  0.00  0.00    -0.297 N 
ATOM      5  HN  UNL d   1      -1.078   1.856  -0.603  1.00  0.00     0.187 HD
ATOM      6  C   UNL d   1       0.689   0.770  -0.213  0.00  0.00     0.040 A 
ATOM      7  C   UNL d   1       1.615   1.909  -0.424  0.00  0.00     0.071 C 
ENDROOT
BRANCH   3   8
ATOM      8  C   UNL d   1      -2.625  -0.225   0.016  0.00  0.00     0.057 A 
ATOM      9  C   UNL d   1      -3.286  -1.048   0.937  0.00  0.00     0.047 A 
ATOM     10  C   UNL d   1      -4.687  -0.979   1.064  0.00  0.00     0.050 A 
ATOM     11  C   UNL d   1      -5.410  -0.092   0.248  0.00  0.00     0.016 A 
ATOM     12  C   UNL d   1      -4.751   0.732  -0.662  0.00  0.00     0.003 A 
ATOM     13  C   UNL d   1      -3.363   0.679  -0.764  0.00  0.00     0.031 A 
BRANCH  10  14
ATOM     14  C   UNL d   1      -5.426  -1.808   2.089  0.00  0.00     0.417 C 
ATOM     15  F   UNL d   1      -4.618  -2.647   2.794  0.00  0.00    -0.166 F 
ATOM     16  F   UNL d   1      -6.066  -1.039   3.012  0.00  0.00    -0.166 F 
ATOM     17  F   UNL d   1      -6.383  -2.596   1.526  0.00  0.00    -0.166 F 
ENDBRANCH  10  14
ENDBRANCH   3   8
BRANCH   1  18
ATOM     18  C   UNL d   1      -0.527  -2.685   0.174  0.00  0.00     0.087 A 
ATOM     19  N   UNL d   1       0.277  -3.513   0.851  0.00  0.00    -0.259 N 
ATOM     20  O   UNL d   1      -0.291  -4.771   0.740  0.00  0.00    -0.242 OA
ATOM     21  HN  UNL d   1       1.133  -3.268   1.347  1.00  0.00     0.195 HD
ATOM     22  C   UNL d   1      -1.421  -4.694  -0.013  0.00  0.00     0.074 A 
ATOM     23  C   UNL d   1      -1.607  -3.394  -0.405  0.00  0.00     0.068 A 
ATOM     24  C   UNL d   1      -2.162  -5.949  -0.232  0.00  0.00     0.079 C 
ENDBRANCH   1  18
BRANCH   2  25
ATOM     25  C   UNL d   1       2.299  -1.228   0.011  0.00  0.00     0.258 C 
ATOM     26  N   UNL d   1       3.338  -0.613   0.710  0.00  0.00    -0.344 N 
ATOM     27  C   UNL d   1       4.711  -1.031   0.425  0.00  0.00     0.152 C 
ATOM     28  C   UNL d   1       3.193   0.085   1.990  0.00  0.00     0.152 C 
ATOM     29  C   UNL d   1       5.654   0.167   0.548  0.00  0.00     0.187 C 
ATOM     30  O   UNL d   1       5.561   0.753   1.857  0.00  0.00    -0.388 OA
ATOM     31  C   UNL d   1       4.226   1.216   2.117  0.00  0.00     0.187 C 
ATOM     32  O   UNL d   1       2.508  -2.167  -0.755  0.00  0.00    -0.267 OA
ENDBRANCH   2  25
TORSDOF 4
