REMARK  6 active torsions:
REMARK  status: ('A' for Active; 'I' for Inactive)
REMARK    1  A    between atoms: C_8  and  C_1 
REMARK    2  A    between atoms: N_12  and  C_2 
REMARK    3  A    between atoms: S_6  and  C_3 
REMARK    4  A    between atoms: C_22  and  S_6 
REMARK    5  A    between atoms: C_7  and  N_13 
REMARK       I    between atoms: C_11  and  N_12 
REMARK       I    between atoms: N_13  and  C_11 
REMARK    6  A    between atoms: C_29  and  C_22 
ROOT
ATOM      1  C   UNL d   1       1.525  -3.019   0.040  0.00  0.00     0.325 C 
ATOM      2  N   UNL d   1       0.409  -2.310  -0.324  0.00  0.00    -0.304 N 
ATOM      3  N   UNL d   1       2.667  -2.279   0.304  0.00  0.00    -0.307 N 
ATOM      4  O   UNL d   1       1.627  -4.247   0.008  0.00  0.00    -0.247 OA
ATOM      5  H   UNL d   1       0.570  -1.377  -0.675  0.00  0.00     0.171 HD
ATOM      6  H   UNL d   1       3.462  -2.762  -0.097  0.00  0.00     0.170 HD
ENDROOT
BRANCH   2   7
ATOM      7  C   UNL d   1      -0.796  -2.897  -0.707  0.00  0.00     0.097 C 
ATOM      8  C   UNL d   1      -1.725  -2.442  -1.706  0.00  0.00     0.097 C 
ATOM      9  N   UNL d   1      -2.759  -3.295  -1.799  0.00  0.00    -0.258 N 
ATOM     10  O   UNL d   1      -2.578  -4.236  -0.817  0.00  0.00    -0.240 OA
ATOM     11  HN  UNL d   1      -3.528  -3.252  -2.468  1.00  0.00     0.195 HD
ATOM     12  C   UNL d   1      -1.449  -3.959  -0.115  0.00  0.00     0.101 C 
ATOM     13  C   UNL d   1      -1.321  -4.706   1.149  0.00  0.00     0.081 C 
BRANCH   8  14
ATOM     14  C   UNL d   1      -1.725  -1.229  -2.533  0.00  0.00     0.038 A 
ATOM     15  C   UNL d   1      -1.987  -1.285  -3.920  0.00  0.00     0.048 A 
ATOM     16 CL   UNL d   1      -2.075  -2.769  -4.814  0.00  0.00    -0.083 Cl
ATOM     17  C   UNL d   1      -2.168  -0.112  -4.669  0.00  0.00     0.025 A 
ATOM     18  C   UNL d   1      -2.055   1.135  -4.066  0.00  0.00     0.003 A 
ATOM     19  C   UNL d   1      -1.748   1.213  -2.713  0.00  0.00     0.025 A 
ATOM     20  C   UNL d   1      -1.599   0.048  -1.948  0.00  0.00     0.048 A 
ATOM     21 CL   UNL d   1      -1.313   0.310  -0.259  0.00  0.00    -0.083 Cl
ENDBRANCH   8  14
ENDBRANCH   2   7
BRANCH   3  22
ATOM     22  C   UNL d   1       2.734  -0.896   0.394  0.00  0.00     0.065 C 
ATOM     23  C   UNL d   1       2.211  -0.049   1.433  0.00  0.00     0.092 C 
ATOM     24  C   UNL d   1       2.424   1.289   1.161  0.00  0.00     0.075 C 
ATOM     25  S   UNL d   1       3.326   1.526  -0.271  0.00  0.00    -0.110 SA
ATOM     26  C   UNL d   1       3.451  -0.160  -0.527  0.00  0.00     0.080 C 
BRANCH  23  27
ATOM     27  S   UNL d   1       1.532  -0.577   2.949  0.00  0.00     0.178 S 
ATOM     28  O   UNL d   1       1.152   0.651   3.620  0.00  0.00    -0.223 OA
ATOM     29  O   UNL d   1       0.570  -1.592   2.597  0.00  0.00    -0.223 OA
BRANCH  27  30
ATOM     30  C   UNL d   1       2.917  -1.306   3.810  0.00  0.00     0.145 C 
BRANCH  30  31
ATOM     31  C   UNL d   1       2.503  -1.783   5.200  0.00  0.00     0.011 C 
ATOM     32  C   UNL d   1       3.657  -2.426   5.953  0.00  0.00     0.006 C 
ENDBRANCH  30  31
ENDBRANCH  27  30
ENDBRANCH  23  27
ENDBRANCH   3  22
TORSDOF 6
