REMARK  6 active torsions:
REMARK  status: ('A' for Active; 'I' for Inactive)
REMARK    1  A    between atoms: S_2  and  C_1 
REMARK    2  A    between atoms: N_10  and  S_2 
REMARK       I    between atoms: C_5  and  N_6 
REMARK    3  A    between atoms: O_11  and  C_5 
REMARK    4  A    between atoms: C_18  and  N_10 
REMARK    5  A    between atoms: C_17  and  O_11 
REMARK    6  A    between atoms: C_21  and  C_18 
ROOT
ATOM      1  C   UNL d   1      -3.050  -6.913  -3.048  0.00  0.00     0.363 C 
ATOM      2  N   UNL d   1      -2.847  -5.534  -3.031  0.00  0.00    -0.328 N 
ATOM      3  O   UNL d   1      -4.140  -7.427  -3.260  0.00  0.00    -0.238 OA
ATOM      4  C   UNL d   1      -1.552  -4.901  -2.811  0.00  0.00     0.128 C 
ATOM      5  C   UNL d   1      -4.002  -4.641  -2.983  0.00  0.00     0.128 C 
ATOM      6  C   UNL d   1      -3.843  -3.456  -3.938  0.00  0.00     0.026 C 
ATOM      7  C   UNL d   1      -1.352  -3.703  -3.745  0.00  0.00     0.026 C 
ATOM      8  C   UNL d   1      -2.519  -2.693  -3.732  0.00  0.00     0.002 C 
ENDROOT
BRANCH   8   9
ATOM      9  C   UNL d   1      -2.593  -1.788  -2.483  0.00  0.00     0.109 C 
BRANCH   9  10
ATOM     10  N   UNL d   1      -1.326  -1.050  -2.300  0.00  0.00    -0.214 NA
ATOM     11  H   UNL d   1      -0.515  -1.645  -2.145  0.00  0.00     0.140 HD
BRANCH  10  12
ATOM     12  S   UNL d   1      -1.304   0.116  -1.053  0.00  0.00     0.258 S 
ATOM     13  O   UNL d   1       0.043   0.622  -1.008  0.00  0.00    -0.204 OA
ATOM     14  O   UNL d   1      -1.941  -0.475   0.107  0.00  0.00    -0.204 OA
BRANCH  12  15
ATOM     15  C   UNL d   1      -2.300   1.473  -1.504  0.00  0.00     0.160 A 
ATOM     16  N   UNL d   1      -3.665   1.382  -1.745  0.00  0.00    -0.341 N 
ATOM     17  C   UNL d   1      -4.037   2.598  -2.077  0.00  0.00     0.183 A 
ATOM     18  HN  UNL d   1      -4.252   0.550  -1.679  1.00  0.00     0.167 HD
ATOM     19  N   UNL d   1      -2.979   3.462  -2.081  0.00  0.00    -0.354 N 
ATOM     20  C   UNL d   1      -1.865   2.768  -1.711  0.00  0.00     0.134 A 
ATOM     21  C   UNL d   1      -3.040   4.855  -2.448  0.00  0.00     0.156 C 
ENDBRANCH  12  15
ENDBRANCH  10  12
ENDBRANCH   9  10
ENDBRANCH   8   9
BRANCH   1  22
ATOM     22  O   UNL d   1      -1.915  -7.627  -2.805  0.00  0.00    -0.294 OA
BRANCH  22  23
ATOM     23  C   UNL d   1      -1.897  -9.085  -2.872  0.00  0.00     0.061 C 
ATOM     24  C   UNL d   1      -2.173  -9.570  -4.304  0.00  0.00     0.046 C 
ATOM     25  C   UNL d   1      -0.471  -9.485  -2.442  0.00  0.00     0.046 C 
ATOM     26  C   UNL d   1      -2.875  -9.752  -1.893  0.00  0.00     0.046 C 
ENDBRANCH  22  23
ENDBRANCH   1  22
TORSDOF 6
