REMARK  3 active torsions:
REMARK  status: ('A' for Active; 'I' for Inactive)
REMARK    1  A    between atoms: C_6  and  C_1 
REMARK    2  A    between atoms: C_5  and  C_2 
REMARK       I    between atoms: N_9  and  C_5 
REMARK    3  A    between atoms: C_15  and  N_9 
ROOT
ATOM      1  C   UNL d   1       0.355  -7.686   0.681  0.00  0.00    -0.078 C 
ATOM      2  C   UNL d   1      -0.445  -8.503   1.040  0.00  0.00     0.018 C 
ATOM      3  C   UNL d   1       1.621  -4.327  -0.298  0.00  0.00     0.036 A 
ATOM      4  C   UNL d   1       1.262  -6.653   0.286  0.00  0.00     0.019 A 
ATOM      5  C   UNL d   1       0.761  -5.371   0.041  0.00  0.00     0.050 A 
ATOM      6  C   UNL d   1       3.490  -5.887  -0.207  0.00  0.00     0.004 A 
ATOM      7  C   UNL d   1       2.987  -4.600  -0.450  0.00  0.00     0.029 A 
ATOM      8  C   UNL d   1       2.625  -6.913   0.166  0.00  0.00     0.021 A 
ENDROOT
BRANCH   3   9
ATOM      9  N   UNL d   1       1.194  -2.991  -0.468  0.00  0.00    -0.323 N 
ATOM     10  C   UNL d   1      -0.020  -2.442  -0.073  0.00  0.00     0.261 C 
ATOM     11  O   UNL d   1      -0.959  -3.070   0.402  0.00  0.00    -0.267 OA
ATOM     12  H   UNL d   1       1.874  -2.367  -0.875  0.00  0.00     0.169 HD
BRANCH  10  13
ATOM     13  C   UNL d   1      -0.129  -1.001  -0.255  0.00  0.00     0.093 A 
ATOM     14  C   UNL d   1      -1.323  -0.232  -0.495  0.00  0.00     0.086 A 
ATOM     15  N   UNL d   1      -1.015   1.070  -0.611  0.00  0.00    -0.259 N 
ATOM     16  O   UNL d   1       0.328   1.183  -0.385  0.00  0.00    -0.241 OA
ATOM     17  HN  UNL d   1      -1.661   1.830  -0.827  1.00  0.00     0.195 HD
ATOM     18  C   UNL d   1       0.868  -0.042  -0.171  0.00  0.00     0.090 A 
ATOM     19  C   UNL d   1       2.317  -0.005   0.112  0.00  0.00     0.080 C 
BRANCH  14  20
ATOM     20  C   UNL d   1      -2.721  -0.641  -0.688  0.00  0.00     0.037 A 
ATOM     21  C   UNL d   1      -3.759  -0.037   0.058  0.00  0.00     0.048 A 
ATOM     22 CL   UNL d   1      -3.466   1.044   1.384  0.00  0.00    -0.083 Cl
ATOM     23  C   UNL d   1      -5.107  -0.289  -0.236  0.00  0.00     0.025 A 
ATOM     24  C   UNL d   1      -5.451  -1.180  -1.247  0.00  0.00     0.003 A 
ATOM     25  C   UNL d   1      -4.445  -1.821  -1.963  0.00  0.00     0.025 A 
ATOM     26  C   UNL d   1      -3.093  -1.544  -1.703  0.00  0.00     0.048 A 
ATOM     27 CL   UNL d   1      -1.949  -2.305  -2.760  0.00  0.00    -0.083 Cl
ENDBRANCH  14  20
ENDBRANCH  10  13
ENDBRANCH   3   9
TORSDOF 3
