REMARK  4 active torsions:
REMARK  status: ('A' for Active; 'I' for Inactive)
REMARK    1  A    between atoms: C_2  and  S_1 
REMARK    2  A    between atoms: C_6  and  S_1 
REMARK    3  A    between atoms: N_9  and  C_3 
REMARK    4  A    between atoms: C_10  and  N_9 
ROOT
ATOM      1  C   UNL d   1       0.485   0.645  -1.603  0.00  0.00     0.159 C 
ATOM      2  C   UNL d   1      -0.293  -0.118  -2.390  0.00  0.00     0.119 C 
ATOM      3  C   UNL d   1       0.977   0.205  -0.352  0.00  0.00     0.113 C 
ATOM      4  N   UNL d   1       1.386  -0.191   0.658  0.00  0.00    -0.191 NA
ENDROOT
BRANCH   1   5
ATOM      5  S   UNL d   1       0.892   2.255  -2.095  0.00  0.00     0.218 S 
ATOM      6  O   UNL d   1       0.536   3.191  -1.044  0.00  0.00    -0.216 OA
ATOM      7  O   UNL d   1       0.446   2.507  -3.455  0.00  0.00    -0.216 OA
BRANCH   5   8
ATOM      8  C   UNL d   1       2.679   2.219  -2.162  0.00  0.00     0.065 A 
ATOM      9  C   UNL d   1       3.324   1.946  -3.374  0.00  0.00     0.025 A 
ATOM     10  C   UNL d   1       4.720   1.946  -3.425  0.00  0.00     0.020 A 
ATOM     11  C   UNL d   1       5.457   2.225  -2.273  0.00  0.00     0.011 A 
ATOM     12  C   UNL d   1       4.813   2.516  -1.069  0.00  0.00     0.020 A 
ATOM     13 BR   UNL d   1       7.346   2.220  -2.345  0.00  0.00    -0.051 Br
ATOM     14  C   UNL d   1       3.418   2.524  -1.013  0.00  0.00     0.025 A 
ENDBRANCH   5   8
ENDBRANCH   1   5
BRANCH   2  15
ATOM     15  N   UNL d   1      -0.730  -1.408  -2.156  0.00  0.00    -0.389 N 
ATOM     16  H   UNL d   1      -0.454  -1.826  -1.266  0.00  0.00     0.159 HD
BRANCH  15  17
ATOM     17  C   UNL d   1      -1.588  -2.252  -2.996  0.00  0.00     0.018 C 
ATOM     18  C   UNL d   1      -0.900  -2.530  -4.337  0.00  0.00     0.037 C 
ATOM     19  C   UNL d   1      -1.797  -3.583  -2.254  0.00  0.00     0.037 C 
ATOM     20  C   UNL d   1      -2.951  -1.583  -3.210  0.00  0.00     0.037 C 
ENDBRANCH  15  17
ENDBRANCH   2  15
TORSDOF 4
