REMARK  3 active torsions:
REMARK  status: ('A' for Active; 'I' for Inactive)
REMARK    1  A    between atoms: C_12  and  C_7 
REMARK    2  A    between atoms: C_13  and  C_10 
REMARK    3  A    between atoms: O_14  and  C_13 
ROOT
ATOM      1  N   UNL d   1      -0.332  -0.586   0.047  0.00  0.00    -0.203 N 
ATOM      2  C   UNL d   1      -0.284   0.792   0.004  0.00  0.00     0.133 A 
ATOM      3  N   UNL d   1      -1.605  -1.055   0.074  0.00  0.00    -0.289 N 
ATOM      4  HN  UNL d   1      -1.910  -2.026   0.129  1.00  0.00     0.188 HD
ATOM      5  C   UNL d   1      -1.580   1.230  -0.014  0.00  0.00     0.082 A 
ATOM      6  C   UNL d   1       0.803  -1.412   0.057  0.00  0.00     0.270 A 
ATOM      7  C   UNL d   1      -2.373   0.047   0.014  0.00  0.00     0.062 A 
ATOM      8  C   UNL d   1       2.095  -0.674   0.037  0.00  0.00     0.103 A 
ATOM      9  N   UNL d   1       0.922   1.404  -0.016  0.00  0.00    -0.342 N 
ATOM     10  C   UNL d   1       2.107   0.674   0.012  0.00  0.00     0.040 A 
ATOM     11  O   UNL d   1       0.728  -2.637   0.075  0.00  0.00    -0.266 OA
ATOM     12  H   UNL d   1       1.025   2.417   0.054  0.00  0.00     0.167 HD
ENDROOT
BRANCH   7  13
ATOM     13  C   UNL d   1      -3.833  -0.043  -0.024  0.00  0.00    -0.008 A 
ATOM     14  C   UNL d   1      -4.500  -1.103   0.608  0.00  0.00     0.014 A 
ATOM     15  C   UNL d   1      -5.893  -1.190   0.567  0.00  0.00     0.001 A 
ATOM     16  C   UNL d   1      -6.633  -0.227  -0.116  0.00  0.00     0.000 A 
ATOM     17  C   UNL d   1      -5.983   0.828  -0.753  0.00  0.00     0.001 A 
ATOM     18  C   UNL d   1      -4.590   0.923  -0.703  0.00  0.00     0.014 A 
ENDBRANCH   7  13
BRANCH  10  19
ATOM     19  C   UNL d   1       3.410   1.445  -0.012  0.00  0.00     0.224 C 
BRANCH  19  20
ATOM     20  O   UNL d   1       3.463   2.305   1.126  0.00  0.00    -0.390 OA
ATOM     21  C   UNL d   1       4.681   3.041   1.163  0.00  0.00     0.201 C 
ENDBRANCH  19  20
ENDBRANCH  10  19
TORSDOF 3
