REMARK  6 active torsions:
REMARK  status: ('A' for Active; 'I' for Inactive)
REMARK    1  A    between atoms: N_6  and  C_1 
REMARK    2  A    between atoms: C_2  and  S_10 
REMARK    3  A    between atoms: C_18  and  N_3 
REMARK    4  A    between atoms: S_10  and  C_5 
REMARK    5  A    between atoms: O_20  and  C_9 
REMARK    6  A    between atoms: C_19  and  C_18 
ROOT
ATOM      1  C   UNL d   1       1.744  -3.562  -0.260  0.00  0.00     0.171 A 
ATOM      2  N   UNL d   1       2.520  -3.494   0.867  0.00  0.00    -0.287 N 
ATOM      3  N   UNL d   1       2.318  -4.339  -1.150  0.00  0.00    -0.276 N 
ATOM      4  HN  UNL d   1       1.954  -4.566  -2.076  1.00  0.00     0.189 HD
ATOM      5  C   UNL d   1       3.618  -4.267   0.588  0.00  0.00     0.240 A 
ATOM      6  N   UNL d   1       3.501  -4.794  -0.607  0.00  0.00    -0.263 N 
ATOM      7  HN  UNL d   1       4.165  -5.426  -1.054  1.00  0.00     0.190 HD
ENDROOT
BRANCH   1   8
ATOM      8  S   UNL d   1       0.189  -2.824  -0.413  0.00  0.00    -0.027 SA
BRANCH   8   9
ATOM      9  C   UNL d   1       0.515  -1.901  -1.864  0.00  0.00     0.121 A 
ATOM     10  S   UNL d   1      -0.289  -2.211  -3.352  0.00  0.00    -0.039 SA
ATOM     11  C   UNL d   1       0.460  -0.837  -4.013  0.00  0.00     0.161 A 
ATOM     12  C   UNL d   1       1.279  -0.232  -3.088  0.00  0.00     0.133 A 
ATOM     13  N   UNL d   1       1.302  -0.843  -1.844  0.00  0.00    -0.352 N 
ATOM     14  HN  UNL d   1       1.843  -0.525  -1.040  1.00  0.00     0.166 HD
BRANCH  11  15
ATOM     15  N   UNL d   1       0.209  -0.402  -5.349  0.00  0.00    -0.107 N 
ATOM     16  O   UNL d   1       0.791   0.628  -5.709  0.00  0.00    -0.531 OA
ATOM     17  O   UNL d   1      -0.574  -1.065  -6.044  0.00  0.00    -0.531 OA
ENDBRANCH  11  15
ENDBRANCH   8   9
ENDBRANCH   1   8
BRANCH   2  18
ATOM     18  C   UNL d   1       2.231  -2.835   2.124  0.00  0.00     0.161 C 
BRANCH  18  19
ATOM     19  C   UNL d   1       2.825  -1.461   2.279  0.00  0.00    -0.017 C 
ATOM     20  C   UNL d   1       3.492  -0.741   1.366  0.00  0.00     0.008 C 
ENDBRANCH  18  19
ENDBRANCH   2  18
BRANCH   5  21
ATOM     21  O   UNL d   1       4.653  -4.479   1.386  0.00  0.00    -0.331 OA
ATOM     22  H   UNL d   1       4.690  -3.776   2.053  0.00  0.00     0.221 HD
ENDBRANCH   5  21
TORSDOF 6
