REMARK  4 active torsions:
REMARK  status: ('A' for Active; 'I' for Inactive)
REMARK    1  A    between atoms: C_2  and  C_1 
REMARK    2  A    between atoms: S_4  and  C_3 
REMARK    3  A    between atoms: C_10  and  S_4 
REMARK    4  A    between atoms: C_11  and  C_10 
ROOT
ATOM      1  C   UNL d   1       1.487   0.096   3.456  0.00  0.00     0.081 A 
ATOM      2  C   UNL d   1       1.248   1.033   2.457  0.00  0.00     0.085 A 
ATOM      3  N   UNL d   1       2.254   1.545   1.696  0.00  0.00    -0.360 N 
ATOM      4  HN  UNL d   1       2.057   2.233   0.969  1.00  0.00     0.166 HD
ATOM      5  C   UNL d   1       2.826  -0.281   3.691  0.00  0.00     0.020 A 
ATOM      6  C   UNL d   1       3.515   1.124   1.922  0.00  0.00     0.089 A 
ATOM      7  C   UNL d   1       3.855   0.234   2.917  0.00  0.00     0.018 A 
ENDROOT
BRANCH   2   8
ATOM      8  S   UNL d   1      -0.383   1.675   2.099  0.00  0.00    -0.107 SA
BRANCH   8   9
ATOM      9  C   UNL d   1      -0.252   2.135   0.344  0.00  0.00     0.119 C 
BRANCH   9  10
ATOM     10  C   UNL d   1      -0.055   1.041  -0.686  0.00  0.00    -0.049 A 
ATOM     11  C   UNL d   1       0.072  -0.322  -0.388  0.00  0.00     0.008 A 
ATOM     12  C   UNL d   1       0.470  -1.234  -1.369  0.00  0.00     0.007 A 
ATOM     13  C   UNL d   1       0.706  -0.813  -2.679  0.00  0.00    -0.062 A 
ATOM     14  C   UNL d   1       0.464   0.522  -3.013  0.00  0.00     0.007 A 
ATOM     15  C   UNL d   1       1.333  -1.744  -3.671  0.00  0.00     0.048 C 
ATOM     16  C   UNL d   1       0.084   1.435  -2.028  0.00  0.00     0.008 A 
ENDBRANCH   9  10
ENDBRANCH   8   9
ENDBRANCH   2   8
BRANCH   1  17
ATOM     17  C   UNL d   1       0.432  -0.550   4.309  0.00  0.00     0.420 C 
ATOM     18  F   UNL d   1      -0.861  -0.370   3.939  0.00  0.00    -0.166 F 
ATOM     19  F   UNL d   1       0.510  -0.150   5.609  0.00  0.00    -0.166 F 
ATOM     20  F   UNL d   1       0.594  -1.909   4.345  0.00  0.00    -0.166 F 
ENDBRANCH   1  17
TORSDOF 4
