REMARK  5 active torsions:
REMARK  status: ('A' for Active; 'I' for Inactive)
REMARK    1  A    between atoms: C_2  and  S_1 
REMARK    2  A    between atoms: C_3  and  O_10 
REMARK    3  A    between atoms: N_9  and  C_4 
REMARK    4  A    between atoms: C_14  and  N_9 
REMARK    5  A    between atoms: O_10  and  C_15 
ROOT
ATOM      1  C   UNL d   1       0.190  -1.107   1.179  0.00  0.00     0.153 C 
ATOM      2  C   UNL d   1      -0.415  -0.447   2.182  0.00  0.00     0.123 C 
ATOM      3  C   UNL d   1       0.534  -0.490  -0.046  0.00  0.00     0.113 C 
ATOM      4  N   UNL d   1       0.756   0.074  -1.031  0.00  0.00    -0.191 NA
ENDROOT
BRANCH   1   5
ATOM      5  S   UNL d   1       0.531  -2.797   1.354  0.00  0.00     0.183 S 
ATOM      6  O   UNL d   1       0.614  -3.142   2.761  0.00  0.00    -0.222 OA
ATOM      7  O   UNL d   1       1.607  -3.176   0.457  0.00  0.00    -0.222 OA
ATOM      8  C   UNL d   1      -0.951  -3.550   0.727  0.00  0.00     0.168 C 
ENDBRANCH   1   5
BRANCH   2   9
ATOM      9  N   UNL d   1      -0.825   0.868   2.203  0.00  0.00    -0.364 N 
ATOM     10  H   UNL d   1      -0.684   1.423   1.359  0.00  0.00     0.165 HD
BRANCH   9  11
ATOM     11  C   UNL d   1      -1.416   1.575   3.262  0.00  0.00     0.032 A 
ATOM     12  C   UNL d   1      -1.208   1.263   4.609  0.00  0.00     0.032 A 
ATOM     13  C   UNL d   1      -1.862   1.973   5.627  0.00  0.00     0.039 A 
ATOM     14  C   UNL d   1      -2.793   2.958   5.310  0.00  0.00     0.078 A 
ATOM     15  C   UNL d   1      -3.004   3.280   3.969  0.00  0.00     0.039 A 
ATOM     16  C   UNL d   1      -2.325   2.596   2.958  0.00  0.00     0.032 A 
BRANCH  14  17
ATOM     17  O   UNL d   1      -3.498   3.713   6.194  0.00  0.00    -0.255 OA
BRANCH  17  18
ATOM     18  C   UNL d   1      -3.906   3.156   7.436  0.00  0.00     0.530 C 
ATOM     19  F   UNL d   1      -3.594   1.853   7.596  0.00  0.00    -0.144 F 
ATOM     20  F   UNL d   1      -3.345   3.862   8.442  0.00  0.00    -0.144 F 
ATOM     21  F   UNL d   1      -5.249   3.274   7.538  0.00  0.00    -0.144 F 
ENDBRANCH  17  18
ENDBRANCH  14  17
ENDBRANCH   9  11
ENDBRANCH   2   9
TORSDOF 5
