REMARK  1 active torsions:
REMARK  status: ('A' for Active; 'I' for Inactive)
REMARK    1  A    between atoms: S_8  and  C_2 
ROOT
ATOM      1  C   UNL d   1      -0.662   1.307   0.004  0.00  0.00     0.078 A 
ATOM      2  C   UNL d   1      -1.372   0.102   0.002  0.00  0.00     0.090 A 
ATOM      3  N   UNL d   1      -0.735  -1.096  -0.000  0.00  0.00    -0.359 N 
ATOM      4  HN  UNL d   1      -1.265  -1.968  -0.001  1.00  0.00     0.166 HD
ATOM      5  C   UNL d   1      -1.273   2.611   0.009  0.00  0.00     0.102 C 
ATOM      6  N   UNL d   1      -1.649   3.704   0.012  0.00  0.00    -0.191 NA
ATOM      7  C   UNL d   1       0.743   1.254   0.001  0.00  0.00     0.033 A 
ATOM      8  C   UNL d   1       0.615  -1.111  -0.003  0.00  0.00     0.095 A 
ATOM      9  C   UNL d   1       1.403   0.026  -0.003  0.00  0.00    -0.045 A 
ATOM     10  C   UNL d   1       2.897  -0.046  -0.008  0.00  0.00     0.049 C 
ENDROOT
BRANCH   2  11
ATOM     11  S   UNL d   1      -3.162   0.009   0.003  0.00  0.00    -0.115 SA
ATOM     12  C   UNL d   1      -3.433  -1.800  -0.001  0.00  0.00     0.097 C 
ENDBRANCH   2  11
TORSDOF 1
