REMARK  6 active torsions:
REMARK  status: ('A' for Active; 'I' for Inactive)
REMARK       I    between atoms: N_2  and  C_1 
REMARK    1  A    between atoms: C_3  and  C_1 
REMARK    2  A    between atoms: C_4  and  N_2 
REMARK    3  A    between atoms: C_5  and  C_4 
REMARK    4  A    between atoms: C_8  and  C_4 
REMARK    5  A    between atoms: O_11  and  C_5 
REMARK    6  A    between atoms: C_12  and  C_8 
ROOT
ATOM      1  C   UNL d   1      -1.105  -0.808   1.015  0.00  0.00     0.253 C 
ATOM      2  N   UNL d   1       0.249  -0.560   1.118  0.00  0.00    -0.343 N 
ATOM      3  O   UNL d   1      -1.755  -1.313   1.923  0.00  0.00    -0.268 OA
ATOM      4  H   UNL d   1       0.776  -0.348   0.280  0.00  0.00     0.163 HD
ENDROOT
BRANCH   2   5
ATOM      5  C   UNL d   1       0.990  -0.813   2.361  0.00  0.00     0.188 C 
BRANCH   5   6
ATOM      6  C   UNL d   1       1.817  -2.106   2.350  0.00  0.00     0.281 C 
ATOM      7  O   UNL d   1       2.603  -2.416   3.240  0.00  0.00    -0.263 OA
BRANCH   6   8
ATOM      8  O   UNL d   1       1.548  -2.884   1.264  0.00  0.00    -0.325 OA
ATOM      9  C   UNL d   1       2.177  -4.166   1.293  0.00  0.00     0.213 C 
ENDBRANCH   6   8
ENDBRANCH   5   6
BRANCH   5  10
ATOM     10  C   UNL d   1       1.909   0.376   2.701  0.00  0.00     0.074 C 
BRANCH  10  11
ATOM     11  C   UNL d   1       1.152   1.661   2.967  0.00  0.00    -0.056 A 
ATOM     12  C   UNL d   1       0.214   1.731   4.009  0.00  0.00     0.007 A 
ATOM     13  C   UNL d   1      -0.504   2.904   4.241  0.00  0.00     0.001 A 
ATOM     14  C   UNL d   1      -0.284   4.025   3.446  0.00  0.00     0.000 A 
ATOM     15  C   UNL d   1       0.661   3.976   2.422  0.00  0.00     0.001 A 
ATOM     16  C   UNL d   1       1.378   2.801   2.184  0.00  0.00     0.007 A 
ENDBRANCH  10  11
ENDBRANCH   5  10
ENDBRANCH   2   5
BRANCH   1  17
ATOM     17  C   UNL d   1      -1.747  -0.382  -0.267  0.00  0.00     0.043 A 
ATOM     18  C   UNL d   1      -2.798  -1.127  -0.878  0.00  0.00    -0.010 A 
ATOM     19  C   UNL d   1      -3.378  -0.606  -2.066  0.00  0.00    -0.025 A 
ATOM     20  C   UNL d   1      -3.313  -2.355  -0.394  0.00  0.00     0.013 A 
ATOM     21  C   UNL d   1      -4.425  -1.294  -2.703  0.00  0.00     0.012 A 
ATOM     22  C   UNL d   1      -2.917   0.603  -2.607  0.00  0.00     0.012 A 
ATOM     23  C   UNL d   1      -4.918  -2.491  -2.189  0.00  0.00     0.001 A 
ATOM     24  C   UNL d   1      -4.361  -3.023  -1.035  0.00  0.00     0.001 A 
ATOM     25  C   UNL d   1      -1.899   1.325  -1.991  0.00  0.00     0.002 A 
ATOM     26  C   UNL d   1      -1.323   0.840  -0.822  0.00  0.00     0.018 A 
ENDBRANCH   1  17
TORSDOF 6
