REMARK  6 active torsions:
REMARK  status: ('A' for Active; 'I' for Inactive)
REMARK    1  A    between atoms: N_6  and  C_1 
REMARK    2  A    between atoms: C_14  and  N_2 
REMARK    3  A    between atoms: C_9  and  C_4 
REMARK       I    between atoms: C_7  and  N_6 
REMARK    4  A    between atoms: C_8  and  C_7 
REMARK    5  A    between atoms: O_22  and  C_9 
REMARK    6  A    between atoms: C_26  and  O_22 
ROOT
ATOM      1  C   UNL d   1       0.035  -1.076  -0.275  0.00  0.00     0.137 A 
ATOM      2  N   UNL d   1       1.297  -0.452  -0.152  0.00  0.00    -0.290 N 
ATOM      3  C   UNL d   1      -0.932  -0.079  -0.241  0.00  0.00     0.097 A 
ATOM      4  C   UNL d   1       1.099   0.931  -0.095  0.00  0.00     0.124 A 
ATOM      5  C   UNL d   1      -0.273   1.176  -0.166  0.00  0.00    -0.004 A 
ATOM      6  C   UNL d   1      -2.358  -0.242  -0.195  0.00  0.00     0.104 C 
ATOM      7  N   UNL d   1      -3.517  -0.275  -0.090  0.00  0.00    -0.191 NA
ATOM      8  C   UNL d   1      -0.941   2.513  -0.090  0.00  0.00     0.052 C 
ENDROOT
BRANCH   1   9
ATOM      9  N   UNL d   1      -0.097  -2.453  -0.407  0.00  0.00    -0.307 N 
ATOM     10  C   UNL d   1      -1.212  -3.122  -0.871  0.00  0.00     0.259 C 
ATOM     11  O   UNL d   1      -2.135  -2.684  -1.533  0.00  0.00    -0.267 OA
ATOM     12  H   UNL d   1       0.717  -3.029  -0.254  0.00  0.00     0.170 HD
BRANCH  10  13
ATOM     13  C   UNL d   1      -1.107  -4.574  -0.611  0.00  0.00     0.054 A 
ATOM     14  C   UNL d   1      -1.025  -5.064   0.699  0.00  0.00     0.051 A 
ATOM     15  C   UNL d   1      -0.607  -6.375   0.919  0.00  0.00     0.048 A 
ATOM     16 CL   UNL d   1      -1.381  -4.086   2.078  0.00  0.00    -0.083 Cl
ATOM     17  C   UNL d   1      -0.292  -7.187  -0.170  0.00  0.00     0.035 A 
ATOM     18  C   UNL d   1      -0.454  -6.725  -1.478  0.00  0.00     0.025 A 
ATOM     19 CL   UNL d   1       0.350  -8.759   0.105  0.00  0.00    -0.084 Cl
ATOM     20  C   UNL d   1      -0.870  -5.413  -1.704  0.00  0.00     0.020 A 
ENDBRANCH  10  13
ENDBRANCH   1   9
BRANCH   2  21
ATOM     21  C   UNL d   1       2.578  -1.111  -0.210  0.00  0.00     0.041 A 
ATOM     22  C   UNL d   1       3.619  -0.549  -0.965  0.00  0.00     0.030 A 
ATOM     23  C   UNL d   1       4.865  -1.180  -1.043  0.00  0.00     0.002 A 
ATOM     24  C   UNL d   1       5.075  -2.395  -0.400  0.00  0.00     0.000 A 
ATOM     25  C   UNL d   1       4.051  -2.965   0.352  0.00  0.00     0.002 A 
ATOM     26  C   UNL d   1       2.817  -2.314   0.472  0.00  0.00     0.030 A 
ENDBRANCH   2  21
BRANCH   4  27
ATOM     27  C   UNL d   1       2.138   1.918   0.124  0.00  0.00     0.311 C 
ATOM     28  O   UNL d   1       3.125   1.782   0.834  0.00  0.00    -0.258 OA
BRANCH  27  29
ATOM     29  O   UNL d   1       1.847   3.038  -0.594  0.00  0.00    -0.317 OA
BRANCH  29  30
ATOM     30  C   UNL d   1       2.737   4.152  -0.455  0.00  0.00     0.175 C 
ATOM     31  C   UNL d   1       3.732   4.152  -1.599  0.00  0.00     0.034 C 
ENDBRANCH  29  30
ENDBRANCH  27  29
ENDBRANCH   4  27
TORSDOF 6
