REMARK  9 active torsions:
REMARK  status: ('A' for Active; 'I' for Inactive)
REMARK    1  A    between atoms: N_5  and  C_1 
REMARK    2  A    between atoms: C_3  and  C_2 
REMARK       I    between atoms: N_6  and  C_3 
REMARK    3  A    between atoms: O_24  and  C_4 
REMARK       I    between atoms: C_9  and  N_6 
REMARK    4  A    between atoms: C_14  and  C_7 
REMARK       I    between atoms: N_15  and  C_9 
REMARK    5  A    between atoms: O_26  and  C_10 
REMARK    6  A    between atoms: O_27  and  C_11 
REMARK    7  A    between atoms: C_13  and  N_15 
REMARK    8  A    between atoms: O_28  and  C_14 
REMARK    9  A    between atoms: O_29  and  C_16 
ROOT
ATOM      1  C   UNL d   1       2.607   3.059  -0.309  0.00  0.00     0.265 C 
ATOM      2  N   UNL d   1       3.887   2.584   0.027  0.00  0.00    -0.275 N 
ATOM      3  C   UNL d   1       4.625   1.430  -0.037  0.00  0.00     0.327 C 
ATOM      4  N   UNL d   1       4.108   0.332  -0.660  0.00  0.00    -0.306 N 
ATOM      5  O   UNL d   1       1.827   2.412  -0.997  0.00  0.00    -0.267 OA
ATOM      6  O   UNL d   1       5.729   1.480   0.492  0.00  0.00    -0.247 OA
ATOM      7  H   UNL d   1       4.479   3.247   0.512  0.00  0.00     0.173 HD
ATOM      8  H   UNL d   1       3.376   0.483  -1.345  0.00  0.00     0.171 HD
ENDROOT
BRANCH   1   9
ATOM      9  C   UNL d   1       2.291   4.454   0.278  0.00  0.00     0.103 C 
ATOM     10  C   UNL d   1       3.373   5.251   0.723  0.00  0.00     0.119 C 
ATOM     11  C   UNL d   1       3.174   6.307   1.610  0.00  0.00     0.139 C 
ATOM     12  C   UNL d   1       1.890   6.775   1.837  0.00  0.00     0.065 C 
ATOM     13  C   UNL d   1       0.801   6.155   1.207  0.00  0.00     0.070 C 
ATOM     14  C   UNL d   1       0.969   4.952   0.468  0.00  0.00     0.108 C 
ATOM     15 CL   UNL d   1      -0.680   7.024   1.441  0.00  0.00    -0.081 Cl
BRANCH  10  16
ATOM     16  O   UNL d   1       4.623   5.014   0.200  0.00  0.00    -0.352 OA
ATOM     17  C   UNL d   1       4.916   5.984  -0.820  0.00  0.00     0.210 C 
ENDBRANCH  10  16
BRANCH  11  18
ATOM     18  N   UNL d   1       4.291   6.900   2.344  0.00  0.00    -0.113 N 
ATOM     19  O   UNL d   1       5.281   6.194   2.567  0.00  0.00    -0.532 OA
ATOM     20  O   UNL d   1       4.154   8.069   2.735  0.00  0.00    -0.532 OA
ENDBRANCH  11  18
BRANCH  14  21
ATOM     21  O   UNL d   1      -0.015   4.198  -0.110  0.00  0.00    -0.353 OA
ATOM     22  C   UNL d   1      -1.383   4.572  -0.050  0.00  0.00     0.210 C 
ENDBRANCH  14  21
ENDBRANCH   1   9
BRANCH   4  23
ATOM     23  C   UNL d   1       4.755  -0.940  -0.642  0.00  0.00     0.071 C 
ATOM     24  C   UNL d   1       4.559  -1.849  -1.699  0.00  0.00     0.114 C 
ATOM     25  C   UNL d   1       5.047  -3.171  -1.607  0.00  0.00     0.108 C 
ATOM     26  C   UNL d   1       5.870  -3.552  -0.534  0.00  0.00     0.087 C 
ATOM     27  C   UNL d   1       6.123  -2.631   0.482  0.00  0.00     0.040 C 
ATOM     28  C   UNL d   1       5.549  -1.353   0.437  0.00  0.00     0.035 C 
BRANCH  24  29
ATOM     29  O   UNL d   1       3.932  -1.418  -2.845  0.00  0.00    -0.352 OA
ATOM     30  C   UNL d   1       4.866  -0.652  -3.625  0.00  0.00     0.210 C 
ENDBRANCH  24  29
BRANCH  25  31
ATOM     31  C   UNL d   1       4.602  -4.207  -2.558  0.00  0.00     0.298 C 
ATOM     32  O   UNL d   1       3.970  -5.195  -2.216  0.00  0.00    -0.259 OA
BRANCH  31  33
ATOM     33  O   UNL d   1       4.990  -3.902  -3.822  0.00  0.00    -0.322 OA
ATOM     34  C   UNL d   1       4.506  -4.826  -4.801  0.00  0.00     0.213 C 
ENDBRANCH  31  33
ENDBRANCH  25  31
BRANCH  26  35
ATOM     35  O   UNL d   1       6.338  -4.840  -0.488  0.00  0.00    -0.355 OA
ATOM     36  C   UNL d   1       7.693  -4.991  -0.070  0.00  0.00     0.210 C 
ENDBRANCH  26  35
ENDBRANCH   4  23
TORSDOF 9
