REMARK  6 active torsions:
REMARK  status: ('A' for Active; 'I' for Inactive)
REMARK    1  A    between atoms: C_16  and  N_1 
REMARK    2  A    between atoms: C_17  and  N_2 
REMARK    3  A    between atoms: C_3  and  C_15 
REMARK    4  A    between atoms: C_15  and  C_4 
REMARK    5  A    between atoms: S_18  and  C_5 
REMARK    6  A    between atoms: S_19  and  C_6 
ROOT
ATOM      1  C   UNL d   1       2.229  -1.399  -0.046  0.00  0.00     0.157 C 
ENDROOT
BRANCH   1   2
ATOM      2  C   UNL d   1       2.263  -2.885  -0.252  0.00  0.00     0.112 A 
ATOM      3  N   UNL d   1       2.288  -3.869   0.736  0.00  0.00    -0.279 N 
ATOM      4  C   UNL d   1       2.479  -5.046   0.015  0.00  0.00     0.164 A 
ATOM      5  N   UNL d   1       2.606  -4.786  -1.265  0.00  0.00    -0.278 N 
ATOM      6  N   UNL d   1       2.480  -3.437  -1.434  0.00  0.00    -0.286 N 
ATOM      7  HN  UNL d   1       2.769  -5.471  -2.004  1.00  0.00     0.189 HD
ATOM      8  HN  UNL d   1       2.542  -2.939  -2.322  1.00  0.00     0.188 HD
BRANCH   3   9
ATOM      9  C   UNL d   1       2.221  -3.685   2.147  0.00  0.00     0.043 A 
ATOM     10  C   UNL d   1       1.326  -2.761   2.694  0.00  0.00     0.030 A 
ATOM     11  C   UNL d   1       1.304  -2.517   4.069  0.00  0.00     0.002 A 
ATOM     12  C   UNL d   1       2.156  -3.219   4.915  0.00  0.00     0.000 A 
ATOM     13  C   UNL d   1       3.029  -4.167   4.385  0.00  0.00     0.002 A 
ATOM     14  C   UNL d   1       3.072  -4.394   3.006  0.00  0.00     0.030 A 
ENDBRANCH   3   9
BRANCH   4  15
ATOM     15  S   UNL d   1       2.345  -6.657   0.638  0.00  0.00    -0.105 SA
ATOM     16  H   UNL d   1       3.480  -6.705   1.345  0.00  0.00     0.110 HD
ENDBRANCH   4  15
ENDBRANCH   1   2
BRANCH   1  17
ATOM     17  C   UNL d   1       0.854  -0.799  -0.054  0.00  0.00     0.112 A 
ATOM     18  N   UNL d   1       0.538   0.532   0.256  0.00  0.00    -0.279 N 
ATOM     19  C   UNL d   1      -0.848   0.519   0.362  0.00  0.00     0.164 A 
ATOM     20  N   UNL d   1      -1.315  -0.683   0.128  0.00  0.00    -0.278 N 
ATOM     21  N   UNL d   1      -0.262  -1.498  -0.156  0.00  0.00    -0.286 N 
ATOM     22  HN  UNL d   1      -2.296  -0.961   0.153  1.00  0.00     0.189 HD
ATOM     23  HN  UNL d   1      -0.325  -2.485  -0.406  1.00  0.00     0.188 HD
BRANCH  18  24
ATOM     24  C   UNL d   1       1.452   1.609   0.464  0.00  0.00     0.043 A 
ATOM     25  C   UNL d   1       2.617   1.707  -0.310  0.00  0.00     0.030 A 
ATOM     26  C   UNL d   1       3.535   2.738  -0.091  0.00  0.00     0.002 A 
ATOM     27  C   UNL d   1       3.282   3.705   0.876  0.00  0.00     0.000 A 
ATOM     28  C   UNL d   1       2.116   3.635   1.634  0.00  0.00     0.002 A 
ATOM     29  C   UNL d   1       1.212   2.585   1.443  0.00  0.00     0.030 A 
ENDBRANCH  18  24
BRANCH  19  30
ATOM     30  S   UNL d   1      -1.906   1.874   0.607  0.00  0.00    -0.105 SA
ATOM     31  H   UNL d   1      -1.086   2.875   0.267  0.00  0.00     0.110 HD
ENDBRANCH  19  30
ENDBRANCH   1  17
TORSDOF 6
