REMARK  1 active torsions:
REMARK  status: ('A' for Active; 'I' for Inactive)
REMARK    1  A    between atoms: C_6  and  C_2 
ROOT
ATOM      1  S   UNL d   1      -1.457  -1.083   0.015  0.00  0.00    -0.079 SA
ATOM      2  C   UNL d   1      -2.809  -0.014   0.026  0.00  0.00     0.051 A 
ATOM      3  C   UNL d   1      -0.358   0.201  -0.008  0.00  0.00     0.052 A 
ATOM      4  C   UNL d   1      -2.386   1.306   0.009  0.00  0.00     0.024 A 
ATOM      5  C   UNL d   1      -0.962   1.431  -0.011  0.00  0.00     0.028 A 
ATOM      6 BR   UNL d   1       1.500  -0.037  -0.028  0.00  0.00    -0.043 Br
ENDROOT
BRANCH   2   7
ATOM      7  C   UNL d   1      -4.154  -0.583   0.051  0.00  0.00     0.162 C 
ATOM      8  O   UNL d   1      -4.381  -1.796   0.062  0.00  0.00    -0.292 OA
ATOM      9  C   UNL d   1      -5.336   0.358   0.065  0.00  0.00     0.097 C 
ENDBRANCH   2   7
TORSDOF 1
