REMARK  10 active torsions:
REMARK  status: ('A' for Active; 'I' for Inactive)
REMARK    1  A    between atoms: CA_12  and  N_1 
REMARK    2  A    between atoms: CA_11  and  N_3 
REMARK    3  A    between atoms: C_7  and  C_13 
REMARK    4  A    between atoms: C_14  and  C_8 
REMARK    5  A    between atoms: CA_12  and  C_9 
REMARK    6  A    between atoms: CA_11  and  C_10 
REMARK    7  A    between atoms: C_25  and  CA_11 
REMARK    8  A    between atoms: C_24  and  CA_12 
REMARK    9  A    between atoms: O_15  and  C_24 
REMARK   10  A    between atoms: O_16  and  C_25 
ROOT
ATOM      1  N   UNL d   1      -5.492  -7.337  -3.287  0.00  0.00    -0.354 N 
ATOM      2  HN  UNL d   1      -6.501  -7.450  -3.191  1.00  0.00     0.166 HD
ATOM      3  C   UNL d   1      -4.917  -6.143  -3.600  0.00  0.00     0.047 A 
ATOM      4  C   UNL d   1      -4.620  -8.367  -3.110  0.00  0.00     0.047 A 
ATOM      5  C   UNL d   1      -2.688  -7.023  -3.555  0.00  0.00     0.005 A 
ATOM      6  C   UNL d   1      -3.541  -5.953  -3.744  0.00  0.00     0.031 A 
ATOM      7  C   UNL d   1      -3.233  -8.256  -3.229  0.00  0.00     0.031 A 
ENDROOT
BRANCH   3   8
ATOM      8  C   UNL d   1      -5.810  -4.959  -3.755  0.00  0.00     0.113 C 
ATOM      9  N   UNL d   1      -5.277  -3.818  -3.982  0.00  0.00    -0.390 N 
ATOM     10  HN  UNL d   1      -4.262  -3.809  -4.077  1.00  0.00     0.159 HD
BRANCH   9  11
ATOM     11  CA  UNL d   1      -5.949  -2.519  -4.124  0.00  0.00     0.112 C 
BRANCH  11  12
ATOM     12  C   UNL d   1      -7.478  -2.538  -3.935  0.00  0.00     0.189 C 
BRANCH  12  13
ATOM     13  O   UNL d   1      -8.111  -3.320  -4.948  0.00  0.00    -0.399 OA
ATOM     14  H   UNL d   1      -9.070  -3.224  -4.820  0.00  0.00     0.209 HD
ENDBRANCH  12  13
ENDBRANCH  11  12
BRANCH  11  15
ATOM     15  C   UNL d   1      -5.199  -1.517  -3.166  0.00  0.00    -0.029 C 
ATOM     16  C   UNL d   1      -5.465  -1.853  -1.686  0.00  0.00     0.016 C 
ATOM     17  C   UNL d   1      -3.671  -1.581  -3.409  0.00  0.00     0.016 C 
ATOM     18  C   UNL d   1      -5.634  -0.062  -3.429  0.00  0.00     0.016 C 
ENDBRANCH  11  15
ENDBRANCH   9  11
ENDBRANCH   3   8
BRANCH   4  19
ATOM     19  C   UNL d   1      -5.190  -9.697  -2.779  0.00  0.00     0.113 C 
ATOM     20  N   UNL d   1      -4.410 -10.702  -2.558  0.00  0.00    -0.390 N 
ATOM     21  HN  UNL d   1      -3.396 -10.594  -2.572  1.00  0.00     0.159 HD
BRANCH  20  22
ATOM     22  CA  UNL d   1      -5.032 -12.014  -2.285  0.00  0.00     0.112 C 
BRANCH  22  23
ATOM     23  C   UNL d   1      -4.042 -13.120  -2.811  0.00  0.00    -0.029 C 
ATOM     24  C   UNL d   1      -2.648 -13.011  -2.156  0.00  0.00     0.016 C 
ATOM     25  C   UNL d   1      -4.589 -14.536  -2.541  0.00  0.00     0.016 C 
ATOM     26  C   UNL d   1      -3.871 -12.972  -4.339  0.00  0.00     0.016 C 
ENDBRANCH  22  23
BRANCH  22  27
ATOM     27  C   UNL d   1      -5.338 -12.129  -0.776  0.00  0.00     0.189 C 
BRANCH  27  28
ATOM     28  O   UNL d   1      -6.365 -11.209  -0.399  0.00  0.00    -0.399 OA
ATOM     29  H   UNL d   1      -6.519 -11.342   0.552  0.00  0.00     0.209 HD
ENDBRANCH  27  28
ENDBRANCH  22  27
ENDBRANCH  20  22
ENDBRANCH   4  19
TORSDOF 10
