REMARK  4 active torsions:
REMARK  status: ('A' for Active; 'I' for Inactive)
REMARK    1  A    between atoms: C_5  and  C_4 
REMARK    2  A    between atoms: C_9  and  C_5 
REMARK       I    between atoms: C_6  and  N_10 
REMARK       I    between atoms: N_11  and  C_6 
REMARK       I    between atoms: N_12  and  C_9 
REMARK    3  A    between atoms: N_10  and  N_12 
REMARK    4  A    between atoms: C_16  and  N_11 
ROOT
ATOM      1  C   UNL d   1       2.386   0.376   2.816  0.00  0.00     0.237 C 
ATOM      2  N   UNL d   1       3.288   1.075   2.045  0.00  0.00    -0.266 N 
ATOM      3  O   UNL d   1       2.362   0.437   4.043  0.00  0.00    -0.272 OA
ATOM      4  H   UNL d   1       3.217   1.153   1.029  0.00  0.00     0.190 HD
ENDROOT
BRANCH   1   5
ATOM      5  C   UNL d   1       1.413  -0.484   2.032  0.00  0.00     0.129 C 
BRANCH   5   6
ATOM      6  C   UNL d   1       1.846  -1.953   1.992  0.00  0.00     0.153 C 
ATOM      7  C   UNL d   1       3.154  -2.138   1.233  0.00  0.00     0.236 C 
ATOM      8  N   UNL d   1       3.145  -1.885  -0.115  0.00  0.00    -0.325 N 
ATOM      9  O   UNL d   1       4.213  -2.389   1.806  0.00  0.00    -0.272 OA
ATOM     10  C   UNL d   1       2.004  -1.902  -0.936  0.00  0.00     0.051 A 
ATOM     11  H   UNL d   1       4.059  -1.831  -0.550  0.00  0.00     0.169 HD
ATOM     12  C   UNL d   1       0.771  -2.405  -0.485  0.00  0.00     0.028 A 
ATOM     13  C   UNL d   1       2.132  -1.436  -2.247  0.00  0.00     0.031 A 
ATOM     14  S   UNL d   1       0.547  -2.973   1.193  0.00  0.00    -0.113 SA
ATOM     15  C   UNL d   1      -0.308  -2.478  -1.371  0.00  0.00     0.021 A 
ATOM     16  C   UNL d   1      -0.178  -2.003  -2.677  0.00  0.00     0.002 A 
ATOM     17  C   UNL d   1       1.034  -1.468  -3.108  0.00  0.00     0.002 A 
ENDBRANCH   5   6
ENDBRANCH   1   5
BRANCH   2  18
ATOM     18  N   UNL d   1       4.112   2.066   2.651  0.00  0.00    -0.249 N 
ATOM     19  C   UNL d   1       4.959   2.747   1.787  0.00  0.00     0.339 C 
ATOM     20  N   UNL d   1       5.766   3.671   2.430  0.00  0.00    -0.308 N 
ATOM     21  O   UNL d   1       4.911   2.525   0.578  0.00  0.00    -0.245 OA
ATOM     22  H   UNL d   1       5.534   3.861   3.398  0.00  0.00     0.170 HD
ATOM     23  H   UNL d   1       4.446   1.814   3.582  0.00  0.00     0.192 HD
BRANCH  20  24
ATOM     24  C   UNL d   1       6.795   4.446   1.849  0.00  0.00     0.036 A 
ATOM     25  C   UNL d   1       7.215   4.300   0.523  0.00  0.00     0.029 A 
ATOM     26  C   UNL d   1       8.305   5.027   0.028  0.00  0.00     0.002 A 
ATOM     27  C   UNL d   1       8.979   5.924   0.850  0.00  0.00     0.000 A 
ATOM     28  C   UNL d   1       8.544   6.115   2.158  0.00  0.00     0.002 A 
ATOM     29  C   UNL d   1       7.457   5.383   2.654  0.00  0.00     0.029 A 
ENDBRANCH  20  24
ENDBRANCH   2  18
TORSDOF 4
