REMARK  4 active torsions:
REMARK  status: ('A' for Active; 'I' for Inactive)
REMARK    1  A    between atoms: C_2  and  C_1 
REMARK    2  A    between atoms: C_13  and  C_3 
REMARK    3  A    between atoms: O_17  and  C_13 
REMARK    4  A    between atoms: N_15  and  O_17 
ROOT
ATOM      1  C   UNL d   1      -1.355  -0.770   0.084  0.00  0.00     0.137 A 
ATOM      2  C   UNL d   1      -0.095  -1.349  -0.029  0.00  0.00     0.102 A 
ATOM      3  O   UNL d   1      -1.189   0.590   0.029  0.00  0.00    -0.235 OA
ATOM      4  N   UNL d   1       0.137   0.920  -0.040  0.00  0.00    -0.264 N 
ATOM      5  HN  UNL d   1       0.535   1.859  -0.079  1.00  0.00     0.194 HD
ATOM      6  C   UNL d   1       0.802  -0.236  -0.046  0.00  0.00     0.048 A 
ATOM      7  C   UNL d   1       2.285  -0.194  -0.097  0.00  0.00     0.071 C 
ENDROOT
BRANCH   1   8
ATOM      8  C   UNL d   1      -2.676  -1.299   0.268  0.00  0.00     0.083 A 
ATOM      9  C   UNL d   1      -3.897  -0.777  -0.152  0.00  0.00     0.043 A 
ATOM     10  N   UNL d   1      -5.011  -1.504   0.260  0.00  0.00    -0.298 N 
ATOM     11  C   UNL d   1      -4.150   0.455  -0.946  0.00  0.00     0.071 C 
ATOM     12  N   UNL d   1      -4.679  -2.538   1.010  0.00  0.00    -0.269 N 
ATOM     13  HN  UNL d   1      -5.971  -1.266   0.012  1.00  0.00     0.187 HD
ATOM     14  S   UNL d   1      -3.036  -2.648   1.266  0.00  0.00     0.006 SA
ATOM     15  HN  UNL d   1      -5.355  -3.199   1.392  1.00  0.00     0.195 HD
ENDBRANCH   1   8
BRANCH   2  16
ATOM     16  C   UNL d   1       0.285  -2.746  -0.145  0.00  0.00     0.320 C 
ATOM     17  O   UNL d   1       1.402  -3.153   0.151  0.00  0.00    -0.257 OA
BRANCH  16  18
ATOM     18  O   UNL d   1      -0.704  -3.533  -0.698  0.00  0.00    -0.195 OA
BRANCH  18  19
ATOM     19  N   UNL d   1      -0.118  -4.434  -1.608  0.00  0.00    -0.266 N 
ATOM     20  C   UNL d   1      -0.836  -5.497  -1.809  0.00  0.00     0.003 C 
ATOM     21  C   UNL d   1      -2.110  -5.850  -1.087  0.00  0.00     0.065 C 
ATOM     22  C   UNL d   1      -0.397  -6.430  -2.912  0.00  0.00     0.065 C 
ATOM     23  HN  UNL d   1       0.779  -4.268  -2.062  1.00  0.00     0.194 HD
ENDBRANCH  18  19
ENDBRANCH  16  18
ENDBRANCH   2  16
TORSDOF 4
