REMARK  6 active torsions:
REMARK  status: ('A' for Active; 'I' for Inactive)
REMARK    1  A    between atoms: C_8  and  C_3 
REMARK    2  A    between atoms: O_16  and  C_7 
REMARK    3  A    between atoms: O_17  and  C_8 
REMARK    4  A    between atoms: C_18  and  C_10 
REMARK    5  A    between atoms: C_14  and  C_18 
REMARK    6  A    between atoms: C_19  and  O_17 
ROOT
ATOM      1  C   UNL d   1      -0.036   0.215  -0.053  0.00  0.00     0.082 A 
ATOM      2  C   UNL d   1      -1.262   1.026  -0.057  0.00  0.00     0.190 A 
ATOM      3  C   UNL d   1      -2.532  -1.028  -0.069  0.00  0.00     0.154 A 
ATOM      4  C   UNL d   1      -2.543   0.309  -0.060  0.00  0.00     0.099 A 
ATOM      5  C   UNL d   1      -0.168  -1.170  -0.073  0.00  0.00     0.093 A 
ATOM      6  O   UNL d   1      -1.384  -1.806  -0.091  0.00  0.00    -0.303 OA
ATOM      7  C   UNL d   1       1.237   0.804  -0.022  0.00  0.00     0.089 A 
ATOM      8  O   UNL d   1      -1.215   2.251  -0.035  0.00  0.00    -0.287 OA
ATOM      9  C   UNL d   1       2.387   0.000  -0.015  0.00  0.00    -0.021 A 
ATOM     10  C   UNL d   1       0.965  -1.980  -0.068  0.00  0.00     0.039 A 
ATOM     11  C   UNL d   1       2.234  -1.397  -0.046  0.00  0.00     0.013 A 
ENDROOT
BRANCH   3  12
ATOM     12  C   UNL d   1      -3.849  -1.716   0.037  0.00  0.00     0.317 C 
ATOM     13  O   UNL d   1      -4.923  -1.143   0.126  0.00  0.00    -0.257 OA
BRANCH  12  14
ATOM     14  O   UNL d   1      -3.642  -3.054   0.140  0.00  0.00    -0.316 OA
BRANCH  14  15
ATOM     15  C   UNL d   1      -4.733  -3.804   0.690  0.00  0.00     0.175 C 
ATOM     16  C   UNL d   1      -4.575  -3.816   2.200  0.00  0.00     0.034 C 
ENDBRANCH  14  15
ENDBRANCH  12  14
ENDBRANCH   3  12
BRANCH   7  17
ATOM     17  O   UNL d   1       1.401   2.164   0.015  0.00  0.00    -0.359 OA
ATOM     18  H   UNL d   1       0.514   2.590   0.003  0.00  0.00     0.217 HD
ENDBRANCH   7  17
BRANCH   9  19
ATOM     19  C   UNL d   1       3.777   0.597   0.021  0.00  0.00     0.067 C 
BRANCH  19  20
ATOM     20  C   UNL d   1       4.455   0.834  -1.304  0.00  0.00    -0.032 C 
ATOM     21  C   UNL d   1       3.960   0.656  -2.536  0.00  0.00     0.007 C 
ENDBRANCH  19  20
ENDBRANCH   9  19
TORSDOF 6
