REMARK  14 active torsions:
REMARK  status: ('A' for Active; 'I' for Inactive)
REMARK       I    between atoms: N_5  and  C_1 
REMARK    1  A    between atoms: O_8  and  C_1 
REMARK    2  A    between atoms: C_2  and  C_3 
REMARK    3  A    between atoms: C_4  and  C_2 
REMARK    4  A    between atoms: C_3  and  N_5 
REMARK    5  A    between atoms: C_3  and  C_6 
REMARK    6  A    between atoms: O_11  and  C_4 
REMARK    7  A    between atoms: O_9  and  C_6 
REMARK    8  A    between atoms: C_7  and  C_16 
REMARK    9  A    between atoms: O_20  and  C_7 
REMARK   10  A    between atoms: C_15  and  O_8 
REMARK   11  A    between atoms: C_17  and  O_9 
REMARK   12  A    between atoms: C_25  and  O_11 
REMARK   13  A    between atoms: C_16  and  C_18 
REMARK   14  A    between atoms: C_19  and  C_17 
ROOT
ATOM      1  C   UNL d   1       1.689   0.693   1.775  0.00  0.00     0.195 C 
ENDROOT
BRANCH   1   2
ATOM      2  C   UNL d   1       2.038  -0.574   2.560  0.00  0.00     0.146 C 
BRANCH   2   3
ATOM      3  C   UNL d   1       3.111  -1.456   1.961  0.00  0.00     0.261 C 
ATOM      4  O   UNL d   1       3.875  -1.147   1.058  0.00  0.00    -0.265 OA
BRANCH   3   5
ATOM      5  O   UNL d   1       3.101  -2.642   2.631  0.00  0.00    -0.316 OA
BRANCH   5   6
ATOM      6  C   UNL d   1       4.219  -3.553   2.526  0.00  0.00     0.132 C 
ATOM      7  C   UNL d   1       4.077  -4.524   1.348  0.00  0.00     0.032 C 
ATOM      8  C   UNL d   1       2.868  -5.451   1.478  0.00  0.00     0.002 C 
ATOM      9  C   UNL d   1       2.812  -6.165   2.828  0.00  0.00     0.000 C 
ATOM     10  C   UNL d   1       2.977  -5.202   3.998  0.00  0.00     0.002 C 
ATOM     11  C   UNL d   1       4.237  -4.344   3.843  0.00  0.00     0.032 C 
ENDBRANCH   5   6
ENDBRANCH   3   5
ENDBRANCH   2   3
ENDBRANCH   1   2
BRANCH   1  12
ATOM     12  N   UNL d   1       1.235   0.386   0.421  0.00  0.00    -0.323 N 
ATOM     13  C   UNL d   1       0.152   0.969  -0.170  0.00  0.00     0.362 C 
ATOM     14  O   UNL d   1      -0.592   1.773   0.372  0.00  0.00    -0.238 OA
ATOM     15  H   UNL d   1       1.848  -0.118  -0.210  0.00  0.00     0.165 HD
BRANCH  13  16
ATOM     16  O   UNL d   1       0.050   0.495  -1.429  0.00  0.00    -0.294 OA
BRANCH  16  17
ATOM     17  C   UNL d   1      -0.971   0.977  -2.344  0.00  0.00     0.061 C 
ATOM     18  C   UNL d   1      -0.749   2.460  -2.656  0.00  0.00     0.046 C 
ATOM     19  C   UNL d   1      -0.755   0.158  -3.626  0.00  0.00     0.046 C 
ATOM     20  C   UNL d   1      -2.392   0.711  -1.835  0.00  0.00     0.046 C 
ENDBRANCH  16  17
ENDBRANCH  13  16
ENDBRANCH   1  12
BRANCH   1  21
ATOM     21  C   UNL d   1       2.795   1.766   1.867  0.00  0.00     0.282 C 
ATOM     22  O   UNL d   1       3.668   1.771   2.728  0.00  0.00    -0.263 OA
BRANCH  21  23
ATOM     23  O   UNL d   1       2.615   2.765   0.955  0.00  0.00    -0.315 OA
BRANCH  23  24
ATOM     24  C   UNL d   1       3.775   3.565   0.674  0.00  0.00     0.217 C 
BRANCH  24  25
ATOM     25  C   UNL d   1       3.895   4.929   1.331  0.00  0.00    -0.034 A 
ATOM     26  C   UNL d   1       3.111   5.371   2.400  0.00  0.00     0.010 A 
ATOM     27  C   UNL d   1       3.365   6.615   3.006  0.00  0.00     0.008 A 
ATOM     28  C   UNL d   1       4.407   7.443   2.557  0.00  0.00    -0.048 A 
ATOM     29  C   UNL d   1       5.180   7.010   1.476  0.00  0.00     0.008 A 
ATOM     30  C   UNL d   1       4.923   5.775   0.874  0.00  0.00     0.010 A 
BRANCH  28  31
ATOM     31  C   UNL d   1       4.740   8.742   3.260  0.00  0.00     0.148 C 
BRANCH  31  32
ATOM     32  C   UNL d   1       4.726   9.989   2.399  0.00  0.00     0.143 C 
ATOM     33  O   UNL d   1       5.467  10.943   2.597  0.00  0.00    -0.650 OA
BRANCH  32  34
ATOM     34  O   UNL d   1       3.776  10.017   1.437  0.00  0.00    -0.776 OA
ATOM     35  H   UNL d   1       3.247   9.196   1.383  0.00  0.00     0.167 HD
ENDBRANCH  32  34
ENDBRANCH  31  32
ENDBRANCH  28  31
ENDBRANCH  24  25
ENDBRANCH  23  24
ENDBRANCH  21  23
ENDBRANCH   1  21
TORSDOF 14
