REMARK  3 active torsions:
REMARK  status: ('A' for Active; 'I' for Inactive)
REMARK    1  A    between atoms: C_7  and  C_1 
REMARK    2  A    between atoms: S_9  and  C_7 
REMARK    3  A    between atoms: C_12  and  S_9 
ROOT
ATOM      1  C   UNL d   1       0.577   1.679   0.067  0.00  0.00    -0.011 A 
ATOM      2  C   UNL d   1      -0.501   0.779   0.002  0.00  0.00     0.087 A 
ATOM      3  C   UNL d   1      -0.282  -0.606  -0.041  0.00  0.00     0.003 A 
ATOM      4  O   UNL d   1      -1.768   1.302   0.010  0.00  0.00    -0.325 OA
ATOM      5  C   UNL d   1       1.028  -1.095  -0.062  0.00  0.00     0.054 A 
ATOM      6  C   UNL d   1       1.884   1.166   0.044  0.00  0.00     0.053 A 
ATOM      7  C   UNL d   1       2.095  -0.207  -0.020  0.00  0.00     0.117 A 
ATOM      8  O   UNL d   1      -2.640  -0.892   0.325  0.00  0.00    -0.362 OA
ATOM      9  C   UNL d   1      -2.772   0.353  -0.349  0.00  0.00     0.345 C 
ATOM     10  C   UNL d   1      -1.450  -1.543  -0.103  0.00  0.00     0.212 C 
ATOM     11  F   UNL d   1       3.347  -0.681  -0.039  0.00  0.00    -0.206 F 
ENDROOT
BRANCH   1  12
ATOM     12  C   UNL d   1       0.360   3.173   0.128  0.00  0.00     0.121 C 
BRANCH  12  13
ATOM     13  S   UNL d   1       0.285   3.902  -1.543  0.00  0.00    -0.125 SA
BRANCH  13  14
ATOM     14  C   UNL d   1       0.067   5.651  -1.237  0.00  0.00     0.001 A 
ATOM     15  C   UNL d   1      -0.073   6.238   0.025  0.00  0.00     0.020 A 
ATOM     16  C   UNL d   1      -0.237   7.624   0.154  0.00  0.00     0.025 A 
ATOM     17  C   UNL d   1      -0.265   8.431  -0.979  0.00  0.00     0.034 A 
ATOM     18  C   UNL d   1      -0.132   7.866  -2.242  0.00  0.00     0.025 A 
ATOM     19 CL   UNL d   1      -0.465  10.132  -0.817  0.00  0.00    -0.084 Cl
ATOM     20  C   UNL d   1       0.032   6.482  -2.367  0.00  0.00     0.020 A 
ENDBRANCH  13  14
ENDBRANCH  12  13
ENDBRANCH   1  12
TORSDOF 3
