REMARK  7 active torsions:
REMARK  status: ('A' for Active; 'I' for Inactive)
REMARK    1  A    between atoms: C_2  and  S_1 
REMARK    2  A    between atoms: N_3  and  S_1 
REMARK    3  A    between atoms: S_5  and  N_3 
REMARK    4  A    between atoms: C_11  and  S_5 
REMARK    5  A    between atoms: C_10  and  O_14 
REMARK    6  A    between atoms: C_16  and  C_10 
REMARK    7  A    between atoms: O_14  and  C_24 
ROOT
ATOM      1  C   UNL d   1       0.616   0.599   3.642  0.00  0.00     0.039 A 
ATOM      2  C   UNL d   1       0.905  -0.666   3.131  0.00  0.00     0.024 A 
ATOM      3  C   UNL d   1       0.028   0.730   4.902  0.00  0.00     0.024 A 
ATOM      4  C   UNL d   1      -0.041  -1.690   5.103  0.00  0.00     0.079 A 
ATOM      5  C   UNL d   1       0.585  -1.811   3.864  0.00  0.00     0.039 A 
ATOM      6  C   UNL d   1      -0.315  -0.420   5.626  0.00  0.00     0.039 A 
ENDROOT
BRANCH   1   7
ATOM      7  S   UNL d   1       0.914   1.985   2.619  0.00  0.00     0.061 S 
ATOM      8  O   UNL d   1       0.984   1.607   1.230  0.00  0.00    -0.244 OA
ATOM      9  C   UNL d   1       2.423   2.755   3.109  0.00  0.00     0.143 C 
BRANCH   7  10
ATOM     10  N   UNL d   1      -0.252   3.120   2.933  0.00  0.00    -0.236 N 
ATOM     11  HN  UNL d   1      -0.001   3.917   3.518  1.00  0.00     0.189 HD
BRANCH  10  12
ATOM     12  S   UNL d   1      -1.830   3.035   2.342  0.00  0.00     0.271 S 
ATOM     13  O   UNL d   1      -2.337   4.381   2.166  0.00  0.00    -0.200 OA
ATOM     14  O   UNL d   1      -1.970   2.039   1.305  0.00  0.00    -0.200 OA
BRANCH  12  15
ATOM     15  C   UNL d   1      -2.843   2.426   3.604  0.00  0.00     0.111 A 
ATOM     16  C   UNL d   1      -2.922   2.946   4.872  0.00  0.00     0.099 A 
ATOM     17  S   UNL d   1      -4.055   2.138   5.850  0.00  0.00    -0.064 SA
ATOM     18 CL   UNL d   1      -2.039   4.250   5.565  0.00  0.00    -0.075 Cl
ATOM     19  C   UNL d   1      -4.468   1.101   4.578  0.00  0.00     0.077 A 
ATOM     20  C   UNL d   1      -3.750   1.328   3.433  0.00  0.00     0.059 A 
ATOM     21 CL   UNL d   1      -5.687  -0.086   4.805  0.00  0.00    -0.076 Cl
ENDBRANCH  12  15
ENDBRANCH  10  12
ENDBRANCH   7  10
ENDBRANCH   1   7
BRANCH   4  22
ATOM     22  O   UNL d   1      -0.451  -2.789   5.908  0.00  0.00    -0.275 OA
BRANCH  22  23
ATOM     23  C   UNL d   1      -0.268  -4.128   5.580  0.00  0.00     0.298 C 
ATOM     24  O   UNL d   1       0.287  -4.577   4.586  0.00  0.00    -0.259 OA
BRANCH  23  25
ATOM     25  C   UNL d   1      -0.841  -5.028   6.620  0.00  0.00     0.040 A 
ATOM     26  C   UNL d   1      -0.727  -6.415   6.418  0.00  0.00     0.019 A 
ATOM     27  C   UNL d   1      -1.243  -7.318   7.349  0.00  0.00     0.025 A 
ATOM     28  C   UNL d   1      -1.877  -6.839   8.493  0.00  0.00     0.034 A 
ATOM     29  C   UNL d   1      -1.995  -5.464   8.710  0.00  0.00     0.025 A 
ATOM     30 CL   UNL d   1      -2.519  -7.946   9.642  0.00  0.00    -0.084 Cl
ATOM     31  C   UNL d   1      -1.477  -4.556   7.774  0.00  0.00     0.019 A 
ENDBRANCH  23  25
ENDBRANCH  22  23
ENDBRANCH   4  22
TORSDOF 7
