REMARK  4 active torsions:
REMARK  status: ('A' for Active; 'I' for Inactive)
REMARK    1  A    between atoms: C_5  and  C_1 
REMARK    2  A    between atoms: C_8  and  C_4 
REMARK       I    between atoms: N_12  and  C_5 
REMARK    3  A    between atoms: N_10  and  N_12 
REMARK    4  A    between atoms: C_18  and  C_17 
ROOT
ATOM      1  C   UNL d   1       2.427   1.695  -0.017  0.00  0.00     0.287 C 
ATOM      2  N   UNL d   1       2.173   3.060  -0.048  0.00  0.00    -0.265 N 
ATOM      3  O   UNL d   1       3.547   1.190  -0.014  0.00  0.00    -0.264 OA
ATOM      4  H   UNL d   1       1.211   3.387  -0.046  0.00  0.00     0.190 HD
ENDROOT
BRANCH   1   5
ATOM      5  C   UNL d   1       1.216   0.864   0.021  0.00  0.00     0.110 A 
ATOM      6  N   UNL d   1      -0.079   1.395   0.021  0.00  0.00    -0.345 N 
ATOM      7  C   UNL d   1      -0.971   0.420   0.073  0.00  0.00     0.091 A 
ATOM      8  HN  UNL d   1      -0.302   2.389  -0.014  1.00  0.00     0.167 HD
ATOM      9  S   UNL d   1      -0.306  -1.172   0.114  0.00  0.00    -0.080 SA
ATOM     10  C   UNL d   1       1.266  -0.518   0.067  0.00  0.00     0.087 A 
BRANCH   7  11
ATOM     11  C   UNL d   1      -2.401   0.642   0.102  0.00  0.00     0.038 A 
ATOM     12  S   UNL d   1      -3.057   2.228  -0.015  0.00  0.00    -0.099 SA
ATOM     13  C   UNL d   1      -4.664   1.658   0.106  0.00  0.00     0.050 A 
ATOM     14  C   UNL d   1      -4.718   0.290   0.229  0.00  0.00     0.008 A 
ATOM     15  C   UNL d   1      -3.418  -0.294   0.223  0.00  0.00     0.022 A 
ENDBRANCH   7  11
ENDBRANCH   1   5
BRANCH   2  16
ATOM     16  N   UNL d   1       3.228   3.926  -0.057  0.00  0.00    -0.308 N 
ATOM     17  C   UNL d   1       2.973   5.194  -0.064  0.00  0.00     0.118 C 
ATOM     18  HN  UNL d   1       4.189   3.583  -0.058  1.00  0.00     0.186 HD
BRANCH  17  19
ATOM     19  C   UNL d   1       4.080   6.181  -0.064  0.00  0.00    -0.019 A 
ATOM     20  C   UNL d   1       5.410   5.744  -0.064  0.00  0.00     0.013 A 
ATOM     21  C   UNL d   1       6.454   6.670  -0.058  0.00  0.00     0.001 A 
ATOM     22  C   UNL d   1       6.173   8.035  -0.049  0.00  0.00     0.000 A 
ATOM     23  C   UNL d   1       4.847   8.475  -0.047  0.00  0.00     0.001 A 
ATOM     24  C   UNL d   1       3.797   7.550  -0.055  0.00  0.00     0.013 A 
ENDBRANCH  17  19
ENDBRANCH   2  16
TORSDOF 4
