REMARK  4 active torsions:
REMARK  status: ('A' for Active; 'I' for Inactive)
REMARK    1  A    between atoms: C_3  and  C_1 
REMARK    2  A    between atoms: C_4  and  CA_2 
REMARK       I    between atoms: N_5  and  C_3 
REMARK    3  A    between atoms: OXT_19  and  C_4 
REMARK    4  A    between atoms: C_13  and  N_5 
ROOT
ATOM      1  C   UNL d   1      -1.898  -4.565  -0.507  0.00  0.00     0.275 C 
ATOM      2  N   UNL d   1      -0.960  -3.935   0.294  0.00  0.00    -0.322 N 
ATOM      3  O   UNL d   1      -1.713  -5.516  -1.257  0.00  0.00    -0.266 OA
ATOM      4  H   UNL d   1      -1.301  -3.153   0.845  0.00  0.00     0.169 HD
ENDROOT
BRANCH   1   5
ATOM      5  C   UNL d   1      -3.232  -3.902  -0.524  0.00  0.00     0.134 A 
ATOM      6  CA  UNL d   1      -4.410  -4.583  -0.784  0.00  0.00     0.139 A 
ATOM      7  N   UNL d   1      -5.582  -3.934  -1.119  0.00  0.00    -0.357 N 
ATOM      8  C   UNL d   1      -5.509  -2.583  -1.133  0.00  0.00     0.105 A 
ATOM      9  HN  UNL d   1      -6.441  -4.438  -1.340  1.00  0.00     0.165 HD
ATOM     10  C   UNL d   1      -4.350  -1.899  -0.803  0.00  0.00     0.105 A 
ATOM     11  N   UNL d   1      -3.193  -2.529  -0.488  0.00  0.00    -0.358 N 
ATOM     12  HN  UNL d   1      -2.346  -2.017  -0.240  1.00  0.00     0.165 HD
BRANCH   6  13
ATOM     13  C   UNL d   1      -4.578  -6.045  -0.565  0.00  0.00     0.196 C 
ATOM     14  O   UNL d   1      -3.838  -6.761   0.078  0.00  0.00    -0.645 OA
BRANCH  13  15
ATOM     15  OXT UNL d   1      -5.774  -6.455  -1.065  0.00  0.00    -0.772 OA
ATOM     16  HXT UNL d   1      -6.272  -5.679  -1.417  0.00  0.00     0.167 HD
ENDBRANCH  13  15
ENDBRANCH   6  13
ENDBRANCH   1   5
BRANCH   2  17
ATOM     17  C   UNL d   1       0.438  -4.149   0.306  0.00  0.00     0.037 A 
ATOM     18  C   UNL d   1       1.101  -5.004  -0.580  0.00  0.00     0.069 A 
ATOM     19  C   UNL d   1       2.502  -5.068  -0.609  0.00  0.00     0.104 A 
ATOM     20  O   UNL d   1       3.022  -5.926  -1.547  0.00  0.00    -0.348 OA
ATOM     21  C   UNL d   1       3.253  -4.251   0.245  0.00  0.00     0.102 A 
ATOM     22  C   UNL d   1       4.250  -6.541  -1.156  0.00  0.00     0.178 C 
ATOM     23  C   UNL d   1       5.441  -5.650  -1.469  0.00  0.00     0.053 C 
ATOM     24  C   UNL d   1       5.176  -4.206  -1.086  0.00  0.00     0.178 C 
ATOM     25  O   UNL d   1       4.620  -4.127   0.230  0.00  0.00    -0.348 OA
ATOM     26  C   UNL d   1       2.598  -3.467   1.194  0.00  0.00     0.042 A 
ATOM     27  C   UNL d   1       1.199  -3.407   1.217  0.00  0.00     0.032 A 
ENDBRANCH   2  17
TORSDOF 4
