REMARK  7 active torsions:
REMARK  status: ('A' for Active; 'I' for Inactive)
REMARK    1  A    between atoms: C_13  and  C_2 
REMARK    2  A    between atoms: S_11  and  C_3 
REMARK    3  A    between atoms: C_8  and  C_9 
REMARK       I    between atoms: C_9  and  N_12 
REMARK    4  A    between atoms: C_10  and  C_24 
REMARK       I    between atoms: N_15  and  C_10 
REMARK    5  A    between atoms: C_24  and  S_11 
REMARK    6  A    between atoms: N_12  and  N_15 
REMARK    7  A    between atoms: C_14  and  C_13 
ROOT
ATOM      1  C   UNL d   1       2.627  -4.350  -0.228  0.00  0.00     0.245 C 
ATOM      2  N   UNL d   1       1.903  -5.319  -0.892  0.00  0.00    -0.267 N 
ATOM      3  O   UNL d   1       3.720  -4.620   0.283  0.00  0.00    -0.271 OA
ATOM      4  H   UNL d   1       1.016  -5.157  -1.367  0.00  0.00     0.190 HD
ENDROOT
BRANCH   1   5
ATOM      5  C   UNL d   1       2.101  -2.922  -0.246  0.00  0.00     0.186 C 
BRANCH   5   6
ATOM      6  S   UNL d   1       0.292  -2.802  -0.126  0.00  0.00    -0.083 SA
BRANCH   6   7
ATOM      7  C   UNL d   1       0.084  -1.084   0.008  0.00  0.00     0.162 A 
ATOM      8  N   UNL d   1      -1.128  -0.467   0.180  0.00  0.00    -0.319 N 
ATOM      9  C   UNL d   1      -0.854   0.875   0.323  0.00  0.00     0.104 A 
ATOM     10  C   UNL d   1      -2.420  -1.102   0.232  0.00  0.00     0.159 C 
ATOM     11  N   UNL d   1       0.449   1.050   0.193  0.00  0.00    -0.286 N 
ATOM     12  N   UNL d   1       1.036  -0.179  -0.006  0.00  0.00    -0.278 N 
ATOM     13  HN  UNL d   1       0.938   1.944   0.233  1.00  0.00     0.188 HD
ATOM     14  HN  UNL d   1       2.031  -0.355  -0.140  1.00  0.00     0.189 HD
BRANCH   9  15
ATOM     15  C   UNL d   1      -1.851   1.949   0.636  0.00  0.00     0.117 C 
BRANCH  15  16
ATOM     16  C   UNL d   1      -2.517   2.532  -0.583  0.00  0.00    -0.044 A 
ATOM     17  C   UNL d   1      -3.886   2.627  -0.771  0.00  0.00     0.057 A 
ATOM     18  S   UNL d   1      -4.308   3.343  -2.266  0.00  0.00    -0.113 SA
ATOM     19  C   UNL d   1      -2.667   3.580  -2.676  0.00  0.00     0.050 A 
ATOM     20  C   UNL d   1      -1.820   3.123  -1.691  0.00  0.00     0.015 A 
ENDBRANCH  15  16
ENDBRANCH   9  15
ENDBRANCH   6   7
ENDBRANCH   5   6
ENDBRANCH   1   5
BRANCH   2  21
ATOM     21  N   UNL d   1       2.458  -6.607  -0.965  0.00  0.00    -0.263 N 
ATOM     22  C   UNL d   1       1.714  -7.657  -1.481  0.00  0.00     0.274 C 
ATOM     23  O   UNL d   1       0.577  -7.492  -1.909  0.00  0.00    -0.266 OA
ATOM     24  H   UNL d   1       3.342  -6.736  -0.471  0.00  0.00     0.190 HD
BRANCH  22  25
ATOM     25  C   UNL d   1       2.385  -8.995  -1.489  0.00  0.00     0.093 A 
ATOM     26  C   UNL d   1       3.333  -9.306  -0.504  0.00  0.00     0.133 A 
ATOM     27  F   UNL d   1       3.637  -8.418   0.456  0.00  0.00    -0.205 F 
ATOM     28  C   UNL d   1       4.000 -10.530  -0.474  0.00  0.00     0.043 A 
ATOM     29  C   UNL d   1       3.727 -11.490  -1.441  0.00  0.00     0.005 A 
ATOM     30  C   UNL d   1       2.783 -11.211  -2.429  0.00  0.00     0.025 A 
ATOM     31  C   UNL d   1       2.112  -9.974  -2.459  0.00  0.00     0.052 A 
ATOM     32 CL   UNL d   1       1.015  -9.745  -3.774  0.00  0.00    -0.083 Cl
ENDBRANCH  22  25
ENDBRANCH   2  21
TORSDOF 7
