REMARK  6 active torsions:
REMARK  status: ('A' for Active; 'I' for Inactive)
REMARK    1  A    between atoms: C_16  and  N_1 
REMARK    2  A    between atoms: C_14  and  C_2 
REMARK    3  A    between atoms: C_5  and  C_7 
REMARK    4  A    between atoms: O_23  and  C_14 
REMARK    5  A    between atoms: C_15  and  C_16 
REMARK    6  A    between atoms: C_27  and  O_23 
ROOT
ATOM      1  C   UNL d   1       4.857   3.295  -0.552  0.00  0.00     0.081 A 
ATOM      2  O   UNL d   1       4.504   2.043  -0.969  0.00  0.00    -0.315 OA
ATOM      3  C   UNL d   1       3.884   1.427   0.077  0.00  0.00     0.071 A 
ATOM      4  C   UNL d   1       4.488   3.470   0.767  0.00  0.00     0.038 A 
ATOM      5  C   UNL d   1       3.864   2.265   1.172  0.00  0.00     0.037 A 
ENDROOT
BRANCH   1   6
ATOM      6  C   UNL d   1       5.511   4.178  -1.574  0.00  0.00     0.185 C 
ATOM      7  C   UNL d   1       4.788   5.461  -1.910  0.00  0.00     0.068 C 
ATOM      8  C   UNL d   1       5.423   6.652  -1.900  0.00  0.00     0.024 C 
ATOM      9  C   UNL d   1       4.857   8.001  -2.256  0.00  0.00     0.069 C 
ATOM     10  N   UNL d   1       6.751   6.684  -1.536  0.00  0.00    -0.312 N 
ATOM     11  C   UNL d   1       7.486   5.621  -1.115  0.00  0.00     0.321 C 
ATOM     12  H   UNL d   1       7.249   7.567  -1.516  0.00  0.00     0.170 HD
ATOM     13  N   UNL d   1       6.851   4.429  -1.077  0.00  0.00    -0.328 N 
ATOM     14  O   UNL d   1       8.655   5.740  -0.766  0.00  0.00    -0.247 OA
ATOM     15  H   UNL d   1       7.422   3.644  -0.799  0.00  0.00     0.165 HD
BRANCH   7  16
ATOM     16  C   UNL d   1       3.331   5.351  -2.189  0.00  0.00     0.293 C 
ATOM     17  O   UNL d   1       2.517   6.228  -1.944  0.00  0.00    -0.259 OA
BRANCH  16  18
ATOM     18  O   UNL d   1       3.032   4.115  -2.660  0.00  0.00    -0.318 OA
BRANCH  18  19
ATOM     19  C   UNL d   1       1.654   3.718  -2.566  0.00  0.00     0.174 C 
ATOM     20  C   UNL d   1       1.093   3.474  -3.950  0.00  0.00     0.034 C 
ENDBRANCH  18  19
ENDBRANCH  16  18
ENDBRANCH   7  16
ENDBRANCH   1   6
BRANCH   3  21
ATOM     21  C   UNL d   1       3.354   0.059  -0.173  0.00  0.00     0.200 C 
BRANCH  21  22
ATOM     22  N   UNL d   1       4.330  -0.927   0.227  0.00  0.00    -0.274 N 
ATOM     23  C   UNL d   1       5.211  -1.524  -0.627  0.00  0.00     0.262 A 
ATOM     24  C   UNL d   1       6.001  -2.455   0.178  0.00  0.00     0.048 A 
ATOM     25  O   UNL d   1       5.341  -1.383  -1.828  0.00  0.00    -0.267 OA
ATOM     26  C   UNL d   1       7.029  -3.303  -0.184  0.00  0.00     0.018 A 
ATOM     27  C   UNL d   1       5.534  -2.383   1.478  0.00  0.00     0.048 A 
ATOM     28  C   UNL d   1       7.588  -4.094   0.824  0.00  0.00     0.001 A 
ATOM     29  C   UNL d   1       7.111  -4.023   2.150  0.00  0.00     0.001 A 
ATOM     30  C   UNL d   1       6.066  -3.157   2.490  0.00  0.00     0.018 A 
ATOM     31  C   UNL d   1       4.452  -1.400   1.505  0.00  0.00     0.262 A 
ATOM     32  O   UNL d   1       3.808  -1.113   2.496  0.00  0.00    -0.267 OA
ENDBRANCH  21  22
ENDBRANCH   3  21
TORSDOF 6
