REMARK  6 active torsions:
REMARK  status: ('A' for Active; 'I' for Inactive)
REMARK    1  A    between atoms: N_3  and  S_1 
REMARK    2  A    between atoms: C_4  and  S_1 
REMARK    3  A    between atoms: C_2  and  C_13 
REMARK    4  A    between atoms: C_15  and  N_3 
REMARK    5  A    between atoms: C_5  and  O_11 
REMARK    6  A    between atoms: O_11  and  C_12 
ROOT
ATOM      1  N   UNL d   1      -0.017  -2.803  -3.985  0.00  0.00    -0.344 N 
ATOM      2  HN  UNL d   1      -0.738  -3.261  -4.543  1.00  0.00     0.167 HD
ATOM      3  C   UNL d   1       1.193  -2.490  -4.507  0.00  0.00     0.148 A 
ATOM      4  C   UNL d   1       0.731  -1.857  -1.889  0.00  0.00     0.058 A 
ATOM      5  C   UNL d   1      -0.221  -2.477  -2.691  0.00  0.00     0.120 A 
ATOM      6  C   UNL d   1       2.218  -1.906  -3.777  0.00  0.00     0.059 A 
ATOM      7  C   UNL d   1       1.971  -1.565  -2.448  0.00  0.00     0.036 A 
ENDROOT
BRANCH   4   8
ATOM      8  N   UNL d   1       0.428  -1.450  -0.560  0.00  0.00    -0.279 N 
ATOM      9  H   UNL d   1      -0.096  -2.097   0.030  0.00  0.00     0.179 HD
BRANCH   8  10
ATOM     10  S   UNL d   1      -0.024   0.158  -0.290  0.00  0.00     0.263 S 
ATOM     11  O   UNL d   1       0.995   1.032  -0.830  0.00  0.00    -0.200 OA
ATOM     12  O   UNL d   1      -0.429   0.233   1.096  0.00  0.00    -0.200 OA
BRANCH  10  13
ATOM     13  C   UNL d   1      -1.493   0.346  -1.283  0.00  0.00     0.079 A 
ATOM     14  C   UNL d   1      -2.737  -0.000  -0.745  0.00  0.00     0.026 A 
ATOM     15  C   UNL d   1      -3.893   0.177  -1.511  0.00  0.00     0.018 A 
ATOM     16  C   UNL d   1      -3.818   0.708  -2.810  0.00  0.00     0.048 A 
ATOM     17  C   UNL d   1      -2.562   1.066  -3.326  0.00  0.00     0.018 A 
ATOM     18  C   UNL d   1      -1.403   0.894  -2.565  0.00  0.00     0.026 A 
BRANCH  16  19
ATOM     19  C   UNL d   1      -5.080   0.900  -3.620  0.00  0.00     0.417 C 
ATOM     20  F   UNL d   1      -4.856   1.413  -4.862  0.00  0.00    -0.166 F 
ATOM     21  F   UNL d   1      -5.753  -0.268  -3.814  0.00  0.00    -0.166 F 
ATOM     22  F   UNL d   1      -5.961   1.745  -3.018  0.00  0.00    -0.166 F 
ENDBRANCH  16  19
ENDBRANCH  10  13
ENDBRANCH   8  10
ENDBRANCH   4   8
BRANCH   3  23
ATOM     23  O   UNL d   1       1.444  -2.743  -5.848  0.00  0.00    -0.292 OA
BRANCH  23  24
ATOM     24  C   UNL d   1       0.373  -2.668  -6.715  0.00  0.00     0.099 A 
ATOM     25  C   UNL d   1       0.273  -3.614  -7.743  0.00  0.00     0.069 A 
ATOM     26  C   UNL d   1      -0.783  -3.553  -8.656  0.00  0.00     0.050 A 
ATOM     27 CL   UNL d   1       1.439  -4.875  -7.921  0.00  0.00    -0.081 Cl
ATOM     28  C   UNL d   1      -1.733  -2.540  -8.544  0.00  0.00     0.035 A 
ATOM     29  C   UNL d   1      -1.628  -1.575  -7.545  0.00  0.00     0.026 A 
ATOM     30 CL   UNL d   1      -3.045  -2.470  -9.655  0.00  0.00    -0.084 Cl
ATOM     31  C   UNL d   1      -0.565  -1.628  -6.643  0.00  0.00     0.041 A 
ENDBRANCH  23  24
ENDBRANCH   3  23
TORSDOF 6
