REMARK  4 active torsions:
REMARK  status: ('A' for Active; 'I' for Inactive)
REMARK    1  A    between atoms: C_2  and  C_1 
REMARK    2  A    between atoms: O_15  and  C_12 
REMARK    3  A    between atoms: C_18  and  C_14 
REMARK    4  A    between atoms: O_17  and  C_18 
ROOT
ATOM      1  C   UNL d   1       2.041  -2.460  -0.012  0.00  0.00     0.135 A 
ATOM      2  N   UNL d   1       2.930  -2.569   0.990  0.00  0.00    -0.321 N 
ATOM      3  HN  UNL d   1       3.001  -1.880   1.739  1.00  0.00     0.169 HD
ATOM      4  N   UNL d   1       1.915  -3.335  -1.034  0.00  0.00    -0.342 N 
ATOM      5  HN  UNL d   1       1.230  -3.190  -1.777  1.00  0.00     0.167 HD
ATOM      6  C   UNL d   1       3.710  -3.647   0.931  0.00  0.00     0.143 A 
ATOM      7  C   UNL d   1       3.674  -4.611  -0.041  0.00  0.00     0.083 A 
ATOM      8  C   UNL d   1       2.736  -4.411  -1.031  0.00  0.00     0.038 A 
ENDROOT
BRANCH   1   9
ATOM      9  C   UNL d   1       1.147  -1.299  -0.005  0.00  0.00     0.084 A 
ATOM     10  N   UNL d   1       1.216  -0.292   0.958  0.00  0.00    -0.351 N 
ATOM     11  C   UNL d   1       0.304   0.625   0.722  0.00  0.00     0.047 A 
ATOM     12  HN  UNL d   1       1.879  -0.270   1.734  1.00  0.00     0.166 HD
ATOM     13  C   UNL d   1       0.100   1.843   1.550  0.00  0.00     0.076 C 
ATOM     14  S   UNL d   1      -0.691   0.345  -0.650  0.00  0.00    -0.087 SA
ATOM     15  C   UNL d   1       0.162  -1.108  -0.957  0.00  0.00     0.084 A 
ENDBRANCH   1   9
BRANCH   6  16
ATOM     16  O   UNL d   1       4.606  -3.736   1.948  0.00  0.00    -0.346 OA
ATOM     17  H   UNL d   1       4.376  -2.930   2.449  0.00  0.00     0.219 HD
ENDBRANCH   6  16
BRANCH   8  18
ATOM     18  C   UNL d   1       2.612  -5.383  -2.178  0.00  0.00     0.224 C 
BRANCH  18  19
ATOM     19  O   UNL d   1       2.325  -6.692  -1.687  0.00  0.00    -0.390 OA
ATOM     20  C   UNL d   1       2.155  -7.617  -2.753  0.00  0.00     0.201 C 
ENDBRANCH  18  19
ENDBRANCH   8  18
TORSDOF 4
