REMARK  2 active torsions:
REMARK  status: ('A' for Active; 'I' for Inactive)
REMARK    1  A    between atoms: C_2  and  S_1 
REMARK    2  A    between atoms: C_4  and  S_1 
ROOT
ATOM      1  S   UNL d   1       0.984  -0.076   0.024  0.00  0.00     0.207 S 
ATOM      2  O   UNL d   1       0.287  -1.204  -0.558  0.00  0.00    -0.217 OA
ATOM      3  O   UNL d   1       2.426  -0.039   0.164  0.00  0.00    -0.217 OA
ENDROOT
BRANCH   1   4
ATOM      4  C   UNL d   1       0.394  -0.003   1.660  0.00  0.00     0.077 A 
ATOM      5  C   UNL d   1       0.600  -1.042   2.642  0.00  0.00    -0.033 A 
ATOM      6  C   UNL d   1       0.009  -0.694   3.845  0.00  0.00     0.057 A 
ATOM      7  C   UNL d   1       1.335  -2.329   2.444  0.00  0.00     0.050 C 
ATOM      8  S   UNL d   1      -0.762   0.827   3.802  0.00  0.00    -0.112 SA
ATOM      9  C   UNL d   1      -0.325   1.061   2.168  0.00  0.00     0.073 A 
ENDBRANCH   1   4
BRANCH   1  10
ATOM     10  C   UNL d   1       0.458   1.402  -0.803  0.00  0.00     0.064 A 
ATOM     11  C   UNL d   1       1.291   2.527  -0.806  0.00  0.00     0.025 A 
ATOM     12  C   UNL d   1       0.872   3.691  -1.455  0.00  0.00     0.025 A 
ATOM     13  C   UNL d   1      -0.363   3.719  -2.103  0.00  0.00     0.034 A 
ATOM     14  C   UNL d   1      -1.183   2.590  -2.118  0.00  0.00     0.025 A 
ATOM     15 CL   UNL d   1      -0.878   5.157  -2.894  0.00  0.00    -0.084 Cl
ATOM     16  C   UNL d   1      -0.771   1.422  -1.471  0.00  0.00     0.025 A 
ENDBRANCH   1  10
TORSDOF 2
