REMARK  5 active torsions:
REMARK  status: ('A' for Active; 'I' for Inactive)
REMARK    1  A    between atoms: C_3  and  C_1 
REMARK       I    between atoms: N_4  and  C_1 
REMARK    2  A    between atoms: C_2  and  C_3 
REMARK    3  A    between atoms: N_5  and  C_2 
REMARK    4  A    between atoms: C_6  and  N_4 
REMARK    5  A    between atoms: C_8  and  N_5 
ROOT
ATOM      1  C   UNL d   1       0.235  -1.402   0.341  0.00  0.00     0.246 C 
ATOM      2  C   UNL d   1       1.174  -2.391   0.929  0.00  0.00     0.080 C 
ATOM      3  N   UNL d   1       1.894  -3.193   1.365  0.00  0.00    -0.196 NA
ENDROOT
BRANCH   1   4
ATOM      4  C   UNL d   1      -0.537  -2.049  -0.804  0.00  0.00     0.105 C 
ATOM      5  S   UNL d   1       0.238  -2.855  -2.076  0.00  0.00    -0.063 SA
BRANCH   4   6
ATOM      6  N   UNL d   1      -1.902  -2.088  -0.870  0.00  0.00    -0.349 N 
ATOM      7  H   UNL d   1      -2.198  -2.783  -1.551  0.00  0.00     0.166 HD
BRANCH   6   8
ATOM      8  C   UNL d   1      -2.920  -1.141  -0.593  0.00  0.00     0.038 A 
ATOM      9  C   UNL d   1      -4.252  -1.488  -0.926  0.00  0.00    -0.035 A 
ATOM     10  C   UNL d   1      -5.248  -0.492  -0.948  0.00  0.00     0.015 A 
ATOM     11  C   UNL d   1      -4.702  -2.874  -1.319  0.00  0.00     0.050 C 
ATOM     12  C   UNL d   1      -4.953   0.836  -0.644  0.00  0.00    -0.061 A 
ATOM     13  C   UNL d   1      -3.658   1.151  -0.234  0.00  0.00     0.009 A 
ATOM     14  C   UNL d   1      -5.994   1.900  -0.841  0.00  0.00     0.048 C 
ATOM     15  C   UNL d   1      -2.657   0.169  -0.186  0.00  0.00     0.030 A 
ENDBRANCH   6   8
ENDBRANCH   4   6
ENDBRANCH   1   4
BRANCH   1  16
ATOM     16  C   UNL d   1       1.028  -0.138   0.012  0.00  0.00     0.246 C 
ATOM     17  N   UNL d   1       0.785   0.436  -1.229  0.00  0.00    -0.324 N 
ATOM     18  H   UNL d   1      -0.140   0.302  -1.627  0.00  0.00     0.169 HD
ATOM     19  O   UNL d   1       1.770   0.368   0.850  0.00  0.00    -0.271 OA
BRANCH  17  20
ATOM     20  C   UNL d   1       1.436   1.613  -1.685  0.00  0.00     0.062 C 
ATOM     21  C   UNL d   1       0.640   2.618  -2.271  0.00  0.00     0.061 C 
ATOM     22 CL   UNL d   1      -1.055   2.382  -2.533  0.00  0.00    -0.082 Cl
ATOM     23  C   UNL d   1       1.186   3.849  -2.635  0.00  0.00     0.026 C 
ATOM     24  C   UNL d   1       2.544   4.079  -2.453  0.00  0.00     0.002 C 
ATOM     25  C   UNL d   1       3.359   3.059  -1.964  0.00  0.00     0.009 C 
ATOM     26  C   UNL d   1       2.827   1.805  -1.607  0.00  0.00    -0.034 C 
ATOM     27  C   UNL d   1       3.814   0.716  -1.280  0.00  0.00     0.050 C 
ENDBRANCH  17  20
ENDBRANCH   1  16
TORSDOF 5
