REMARK  9 active torsions:
REMARK  status: ('A' for Active; 'I' for Inactive)
REMARK    1  A    between atoms: C_2  and  C_1 
REMARK    2  A    between atoms: C_4  and  C_1 
REMARK    3  A    between atoms: C_5  and  C_1 
REMARK    4  A    between atoms: O_13  and  C_1 
REMARK       I    between atoms: C_3  and  N_6 
REMARK    5  A    between atoms: O_7  and  C_3 
REMARK    6  A    between atoms: O_17  and  C_4 
REMARK    7  A    between atoms: N_6  and  C_16 
REMARK    8  A    between atoms: C_20  and  O_7 
REMARK    9  A    between atoms: C_21  and  O_17 
ROOT
ATOM      1  C   UNL d   1       0.184  -0.162   1.413  0.00  0.00    -0.005 A 
ATOM      2  C   UNL d   1      -0.515  -1.356   1.651  0.00  0.00     0.013 A 
ATOM      3  C   UNL d   1       0.543   0.606   2.530  0.00  0.00     0.013 A 
ATOM      4  C   UNL d   1      -0.338  -1.056   4.064  0.00  0.00     0.036 A 
ATOM      5  C   UNL d   1       0.282   0.169   3.835  0.00  0.00     0.030 A 
ATOM      6  C   UNL d   1      -0.768  -1.795   2.957  0.00  0.00     0.030 A 
ENDROOT
BRANCH   1   7
ATOM      7  C   UNL d   1       0.639   0.232  -0.002  0.00  0.00     0.271 C 
BRANCH   7   8
ATOM      8  C   UNL d   1      -0.470   0.246  -1.076  0.00  0.00     0.432 C 
ATOM      9  F   UNL d   1      -0.403  -0.791  -1.942  0.00  0.00    -0.167 F 
ATOM     10  F   UNL d   1      -1.720   0.244  -0.557  0.00  0.00    -0.167 F 
ATOM     11  F   UNL d   1      -0.373   1.373  -1.837  0.00  0.00    -0.167 F 
ENDBRANCH   7   8
BRANCH   7  12
ATOM     12  C   UNL d   1       1.682  -0.790  -0.498  0.00  0.00     0.308 C 
ATOM     13  O   UNL d   1       1.613  -2.005  -0.349  0.00  0.00    -0.261 OA
BRANCH  12  14
ATOM     14  O   UNL d   1       2.732  -0.155  -1.107  0.00  0.00    -0.319 OA
BRANCH  14  15
ATOM     15  C   UNL d   1       3.885  -0.981  -1.337  0.00  0.00     0.174 C 
ATOM     16  C   UNL d   1       4.779  -0.935  -0.113  0.00  0.00     0.034 C 
ENDBRANCH  14  15
ENDBRANCH  12  14
ENDBRANCH   7  12
BRANCH   7  17
ATOM     17  O   UNL d   1       1.268   1.545   0.095  0.00  0.00    -0.368 OA
ATOM     18  H   UNL d   1       1.669   1.722  -0.778  0.00  0.00     0.212 HD
ENDBRANCH   7  17
ENDBRANCH   1   7
BRANCH   4  19
ATOM     19  N   UNL d   1      -0.552  -1.629   5.332  0.00  0.00    -0.302 N 
ATOM     20  C   UNL d   1      -0.154  -1.246   6.590  0.00  0.00     0.370 C 
ATOM     21  O   UNL d   1      -0.480  -1.923   7.564  0.00  0.00    -0.238 OA
ATOM     22  H   UNL d   1      -1.055  -2.507   5.361  0.00  0.00     0.171 HD
BRANCH  20  23
ATOM     23  O   UNL d   1       0.615  -0.096   6.640  0.00  0.00    -0.261 OA
BRANCH  23  24
ATOM     24  C   UNL d   1       1.002   0.436   7.880  0.00  0.00     0.081 A 
ATOM     25  C   UNL d   1       1.665  -0.319   8.845  0.00  0.00     0.037 A 
ATOM     26  C   UNL d   1       2.066   0.296  10.031  0.00  0.00     0.003 A 
ATOM     27  C   UNL d   1       1.820   1.656  10.235  0.00  0.00     0.000 A 
ATOM     28  C   UNL d   1       1.179   2.409   9.250  0.00  0.00     0.003 A 
ATOM     29  C   UNL d   1       0.775   1.801   8.065  0.00  0.00     0.037 A 
ENDBRANCH  23  24
ENDBRANCH  20  23
ENDBRANCH   4  19
TORSDOF 9
