REMARK  6 active torsions:
REMARK  status: ('A' for Active; 'I' for Inactive)
REMARK    1  A    between atoms: C_3  and  S_1 
REMARK    2  A    between atoms: N_12  and  S_1 
REMARK    3  A    between atoms: C_10  and  C_2 
REMARK    4  A    between atoms: C_8  and  C_11 
REMARK    5  A    between atoms: N_13  and  N_12 
REMARK       I    between atoms: C_15  and  N_13 
REMARK    6  A    between atoms: C_19  and  C_15 
ROOT
ATOM      1  C   UNL d   1       0.453  -1.682  -0.183  0.00  0.00     0.122 A 
ATOM      2  S   UNL d   1      -1.116  -2.050  -0.754  0.00  0.00    -0.074 SA
ATOM      3  C   UNL d   1      -0.875  -3.729  -0.549  0.00  0.00     0.034 A 
ATOM      4  C   UNL d   1       1.169  -2.828   0.105  0.00  0.00     0.034 A 
ATOM      5  C   UNL d   1       0.399  -4.010  -0.097  0.00  0.00     0.023 A 
ENDROOT
BRANCH   1   6
ATOM      6  S   UNL d   1       0.861   0.038  -0.053  0.00  0.00     0.282 S 
ATOM      7  O   UNL d   1       0.679   0.603  -1.372  0.00  0.00    -0.198 OA
ATOM      8  O   UNL d   1       2.152   0.073   0.601  0.00  0.00    -0.198 OA
BRANCH   6   9
ATOM      9  N   UNL d   1      -0.244   0.766   0.986  0.00  0.00    -0.220 N 
ATOM     10  H   UNL d   1      -0.963   0.210   1.460  0.00  0.00     0.200 HD
BRANCH   9  11
ATOM     11  N   UNL d   1      -0.087   2.158   1.344  0.00  0.00    -0.256 N 
ATOM     12  C   UNL d   1      -0.982   2.709   2.241  0.00  0.00     0.270 C 
ATOM     13  O   UNL d   1      -1.933   2.089   2.705  0.00  0.00    -0.266 OA
ATOM     14  H   UNL d   1       0.650   2.682   0.881  0.00  0.00     0.191 HD
BRANCH  12  15
ATOM     15  C   UNL d   1      -0.747   4.131   2.611  0.00  0.00     0.035 A 
ATOM     16  C   UNL d   1       0.544   4.668   2.690  0.00  0.00     0.041 A 
ATOM     17  C   UNL d   1       0.712   5.998   3.073  0.00  0.00     0.035 A 
ATOM     18 CL   UNL d   1       2.299   6.656   3.186  0.00  0.00    -0.084 Cl
ATOM     19  C   UNL d   1      -0.389   6.799   3.377  0.00  0.00     0.024 A 
ATOM     20  C   UNL d   1      -1.675   6.263   3.306  0.00  0.00     0.003 A 
ATOM     21  C   UNL d   1      -1.853   4.930   2.931  0.00  0.00     0.017 A 
ENDBRANCH  12  15
ENDBRANCH   9  11
ENDBRANCH   6   9
ENDBRANCH   1   6
BRANCH   3  22
ATOM     22  C   UNL d   1      -1.922  -4.774  -0.794  0.00  0.00     0.067 A 
ATOM     23  C   UNL d   1      -3.207  -4.574  -1.341  0.00  0.00     0.068 A 
ATOM     24  C   UNL d   1      -3.820  -5.813  -1.314  0.00  0.00     0.136 A 
ATOM     25  N   UNL d   1      -2.907  -6.657  -0.745  0.00  0.00    -0.292 N 
ATOM     26  N   UNL d   1      -1.732  -6.058  -0.467  0.00  0.00    -0.297 N 
ATOM     27  C   UNL d   1      -3.079  -8.042  -0.364  0.00  0.00     0.178 C 
ATOM     28  HN  UNL d   1      -0.886  -6.488  -0.092  1.00  0.00     0.187 HD
BRANCH  24  29
ATOM     29  C   UNL d   1      -5.169  -6.219  -1.752  0.00  0.00     0.434 C 
ATOM     30  F   UNL d   1      -5.417  -7.540  -1.585  0.00  0.00    -0.165 F 
ATOM     31  F   UNL d   1      -6.130  -5.553  -1.066  0.00  0.00    -0.165 F 
ATOM     32  F   UNL d   1      -5.364  -5.948  -3.067  0.00  0.00    -0.165 F 
ENDBRANCH  24  29
ENDBRANCH   3  22
TORSDOF 6
