REMARK  3 active torsions:
REMARK  status: ('A' for Active; 'I' for Inactive)
REMARK    1  A    between atoms: C_7  and  N_1 
REMARK    2  A    between atoms: C_5  and  C_8 
REMARK    3  A    between atoms: C_15  and  C_7 
ROOT
ATOM      1  C   UNL d   1       2.082  -2.392  -0.012  0.00  0.00     0.173 C 
ENDROOT
BRANCH   1   2
ATOM      2  N   UNL d   1       1.566  -1.047   0.011  0.00  0.00    -0.286 N 
ATOM      3  C   UNL d   1       1.367  -0.251  -1.100  0.00  0.00     0.373 A 
ATOM      4  O   UNL d   1       0.915   1.025  -0.728  0.00  0.00    -0.259 OA
ATOM      5  O   UNL d   1       1.543  -0.578  -2.264  0.00  0.00    -0.237 OA
ATOM      6  C   UNL d   1       0.868   0.937   0.654  0.00  0.00     0.107 A 
ATOM      7  C   UNL d   1       1.259  -0.300   1.125  0.00  0.00     0.073 A 
ATOM      8  C   UNL d   1       0.473   1.949   1.505  0.00  0.00     0.040 A 
ATOM      9  C   UNL d   1       1.278  -0.597   2.471  0.00  0.00     0.033 A 
ATOM     10  C   UNL d   1       0.882   0.413   3.354  0.00  0.00     0.002 A 
ATOM     11  C   UNL d   1       0.482   1.676   2.876  0.00  0.00     0.003 A 
ENDBRANCH   1   2
BRANCH   1  12
ATOM     12  C   UNL d   1       3.594  -2.415   0.017  0.00  0.00    -0.040 A 
ATOM     13  C   UNL d   1       4.289  -2.425   1.233  0.00  0.00     0.009 A 
ATOM     14  C   UNL d   1       5.680  -2.305   1.257  0.00  0.00     0.017 A 
ATOM     15  C   UNL d   1       6.405  -2.177   0.065  0.00  0.00     0.047 A 
ATOM     16  C   UNL d   1       5.715  -2.231  -1.155  0.00  0.00     0.017 A 
ATOM     17  C   UNL d   1       4.323  -2.342  -1.178  0.00  0.00     0.009 A 
BRANCH  15  18
ATOM     18  C   UNL d   1       7.894  -1.936   0.079  0.00  0.00     0.417 C 
ATOM     19  F   UNL d   1       8.417  -1.833   1.333  0.00  0.00    -0.166 F 
ATOM     20  F   UNL d   1       8.596  -2.925  -0.538  0.00  0.00    -0.166 F 
ATOM     21  F   UNL d   1       8.237  -0.780  -0.558  0.00  0.00    -0.166 F 
ENDBRANCH  15  18
ENDBRANCH   1  12
TORSDOF 3
