REMARK  4 active torsions:
REMARK  status: ('A' for Active; 'I' for Inactive)
REMARK    1  A    between atoms: C_2  and  S_1 
REMARK    2  A    between atoms: C_5  and  S_1 
REMARK    3  A    between atoms: N_8  and  C_3 
REMARK    4  A    between atoms: N_7  and  N_8 
ROOT
ATOM      1  C   UNL d   1       0.424  -1.510  -0.739  0.00  0.00     0.156 C 
ATOM      2  C   UNL d   1      -0.355  -2.291   0.029  0.00  0.00     0.136 C 
ATOM      3  C   UNL d   1       0.935  -0.273  -0.275  0.00  0.00     0.113 C 
ATOM      4  N   UNL d   1       1.283   0.744   0.161  0.00  0.00    -0.191 NA
ENDROOT
BRANCH   1   5
ATOM      5  S   UNL d   1       0.875  -2.035  -2.333  0.00  0.00     0.194 S 
ATOM      6  O   UNL d   1       0.705  -3.476  -2.430  0.00  0.00    -0.221 OA
ATOM      7  O   UNL d   1       2.174  -1.469  -2.655  0.00  0.00    -0.221 OA
BRANCH   5   8
ATOM      8  C   UNL d   1      -0.344  -1.274  -3.464  0.00  0.00     0.058 C 
ATOM      9  C   UNL d   1      -0.309   0.257  -3.364  0.00  0.00     0.031 C 
ATOM     10  C   UNL d   1       0.028  -1.675  -4.907  0.00  0.00     0.031 C 
ATOM     11  C   UNL d   1      -1.761  -1.784  -3.166  0.00  0.00     0.031 C 
ENDBRANCH   5   8
ENDBRANCH   1   5
BRANCH   2  12
ATOM     12  N   UNL d   1      -0.795  -2.045   1.311  0.00  0.00    -0.328 N 
ATOM     13  H   UNL d   1      -0.465  -1.210   1.800  0.00  0.00     0.180 HD
BRANCH  12  14
ATOM     14  N   UNL d   1      -1.607  -2.965   1.979  0.00  0.00    -0.232 NA
ATOM     15  C   UNL d   1      -0.916  -3.416   3.203  0.00  0.00     0.113 C 
ATOM     16  C   UNL d   1      -1.778  -4.404   3.993  0.00  0.00     0.016 C 
ATOM     17  C   UNL d   1      -3.144  -3.814   4.324  0.00  0.00     0.002 C 
ATOM     18  C   UNL d   1      -3.811  -3.263   3.069  0.00  0.00     0.016 C 
ATOM     19  C   UNL d   1      -2.882  -2.307   2.320  0.00  0.00     0.113 C 
ENDBRANCH  12  14
ENDBRANCH   2  12
TORSDOF 4
