REMARK  7 active torsions:
REMARK  status: ('A' for Active; 'I' for Inactive)
REMARK       I    between atoms: N_2  and  C_1 
REMARK       I    between atoms: N_8  and  C_1 
REMARK    1  A    between atoms: C_5  and  N_2 
REMARK    2  A    between atoms: C_9  and  N_3 
REMARK    3  A    between atoms: N_4  and  C_17 
REMARK    4  A    between atoms: O_16  and  C_7 
REMARK    5  A    between atoms: C_15  and  N_8 
REMARK    6  A    between atoms: C_14  and  C_9 
REMARK    7  A    between atoms: C_17  and  C_15 
ROOT
ATOM      1  C   UNL d   1       2.950  -1.221   0.478  0.00  0.00     0.154 C 
ENDROOT
BRANCH   1   2
ATOM      2  N   UNL d   1       2.004  -0.282  -0.109  0.00  0.00    -0.341 N 
ATOM      3  C   UNL d   1       1.665  -0.140  -1.421  0.00  0.00     0.320 C 
ATOM      4  N   UNL d   1       1.888  -1.238  -2.213  0.00  0.00    -0.306 N 
ATOM      5  O   UNL d   1       1.161   0.917  -1.784  0.00  0.00    -0.247 OA
ATOM      6  H   UNL d   1       1.910  -2.123  -1.739  0.00  0.00     0.171 HD
ATOM      7  H   UNL d   1       1.832   0.574   0.406  0.00  0.00     0.164 HD
BRANCH   4   8
ATOM      8  C   UNL d   1       1.575  -1.299  -3.587  0.00  0.00     0.069 A 
ATOM      9  C   UNL d   1       1.060  -2.483  -4.141  0.00  0.00     0.095 A 
ATOM     10  C   UNL d   1       0.868  -2.576  -5.525  0.00  0.00     0.039 A 
ATOM     11  C   UNL d   1       1.192  -1.502  -6.358  0.00  0.00     0.003 A 
ATOM     12  C   UNL d   1       1.699  -0.327  -5.810  0.00  0.00     0.002 A 
ATOM     13  C   UNL d   1       1.873  -0.220  -4.429  0.00  0.00     0.032 A 
BRANCH   9  14
ATOM     14  O   UNL d   1       0.791  -3.623  -3.423  0.00  0.00    -0.354 OA
ATOM     15  C   UNL d   1      -0.161  -3.464  -2.370  0.00  0.00     0.210 C 
ENDBRANCH   9  14
ENDBRANCH   4   8
ENDBRANCH   1   2
BRANCH   1  16
ATOM     16  C   UNL d   1       4.402  -0.780   0.212  0.00  0.00     0.292 C 
BRANCH  16  17
ATOM     17  N   UNL d   1       5.445  -1.652   0.788  0.00  0.00     0.093 N 
ATOM     18  C   UNL d   1       5.423  -3.025   0.236  0.00  0.00     0.302 C 
ATOM     19  C   UNL d   1       5.841  -3.118  -1.248  0.00  0.00     0.303 C 
ATOM     20  N   UNL d   1       7.166  -2.531  -1.549  0.00  0.00     0.096 N 
ATOM     21  C   UNL d   1       7.244  -1.174  -0.967  0.00  0.00     0.303 C 
ATOM     22  C   UNL d   1       6.785  -1.073   0.514  0.00  0.00     0.302 C 
BRANCH  20  23
ATOM     23  C   UNL d   1       8.286  -3.361  -1.067  0.00  0.00     0.311 C 
BRANCH  23  24
ATOM     24  C   UNL d   1       8.288  -4.758  -1.645  0.00  0.00    -0.030 A 
ATOM     25  C   UNL d   1       8.360  -4.957  -3.031  0.00  0.00     0.009 A 
ATOM     26  C   UNL d   1       8.286  -6.244  -3.565  0.00  0.00     0.001 A 
ATOM     27  C   UNL d   1       8.149  -7.342  -2.719  0.00  0.00     0.000 A 
ATOM     28  C   UNL d   1       8.097  -7.158  -1.339  0.00  0.00     0.001 A 
ATOM     29  C   UNL d   1       8.168  -5.873  -0.802  0.00  0.00     0.009 A 
ENDBRANCH  23  24
ENDBRANCH  20  23
ENDBRANCH  16  17
ENDBRANCH   1  16
TORSDOF 7
