REMARK  5 active torsions:
REMARK  status: ('A' for Active; 'I' for Inactive)
REMARK    1  A    between atoms: C_6  and  S_1 
REMARK    2  A    between atoms: C_11  and  S_1 
REMARK    3  A    between atoms: C_4  and  C_6 
REMARK    4  A    between atoms: C_13  and  C_5 
REMARK    5  A    between atoms: C_9  and  C_12 
ROOT
ATOM      1  N   UNL d   1       2.234  -2.814   0.625  0.00  0.00    -0.322 N 
ATOM      2  HN  UNL d   1       3.012  -2.178   0.446  1.00  0.00     0.169 HD
ATOM      3  C   UNL d   1       0.963  -2.518   1.047  0.00  0.00     0.118 A 
ATOM      4  C   UNL d   1       2.198  -4.124   0.509  0.00  0.00     0.182 A 
ATOM      5  N   UNL d   1       0.179  -3.584   1.253  0.00  0.00    -0.246 N 
ATOM      6  HN  UNL d   1      -0.779  -3.608   1.602  1.00  0.00     0.196 HD
ATOM      7  O   UNL d   1       0.991  -4.655   0.876  0.00  0.00    -0.217 OA
ENDROOT
BRANCH   3   8
ATOM      8  C   UNL d   1       0.495  -1.144   1.282  0.00  0.00     0.224 C 
BRANCH   8   9
ATOM      9  S   UNL d   1      -0.146  -0.398  -0.196  0.00  0.00     0.182 S 
ATOM     10  O   UNL d   1       0.868  -0.409  -1.233  0.00  0.00    -0.222 OA
ATOM     11  O   UNL d   1      -0.768   0.860   0.185  0.00  0.00    -0.222 OA
BRANCH   9  12
ATOM     12  C   UNL d   1      -1.464  -1.469  -0.738  0.00  0.00     0.059 A 
ATOM     13  C   UNL d   1      -2.775  -1.220  -0.319  0.00  0.00     0.025 A 
ATOM     14  C   UNL d   1      -3.807  -2.050  -0.764  0.00  0.00     0.025 A 
ATOM     15  C   UNL d   1      -3.523  -3.113  -1.623  0.00  0.00     0.034 A 
ATOM     16  C   UNL d   1      -2.218  -3.348  -2.055  0.00  0.00     0.025 A 
ATOM     17 CL   UNL d   1      -4.797  -4.136  -2.163  0.00  0.00    -0.084 Cl
ATOM     18  C   UNL d   1      -1.183  -2.516  -1.623  0.00  0.00     0.025 A 
ENDBRANCH   9  12
ENDBRANCH   8   9
ENDBRANCH   3   8
BRANCH   4  19
ATOM     19  C   UNL d   1       3.223  -5.058   0.057  0.00  0.00     0.017 A 
ATOM     20  C   UNL d   1       4.505  -4.585  -0.264  0.00  0.00     0.017 A 
ATOM     21  C   UNL d   1       5.508  -5.463  -0.691  0.00  0.00     0.017 A 
ATOM     22  C   UNL d   1       5.250  -6.836  -0.809  0.00  0.00     0.048 A 
ATOM     23  C   UNL d   1       3.966  -7.309  -0.503  0.00  0.00     0.017 A 
ATOM     24  C   UNL d   1       2.966  -6.430  -0.074  0.00  0.00     0.017 A 
BRANCH  22  25
ATOM     25  C   UNL d   1       6.321  -7.804  -1.252  0.00  0.00     0.417 C 
ATOM     26  F   UNL d   1       7.520  -7.213  -1.510  0.00  0.00    -0.166 F 
ATOM     27  F   UNL d   1       6.570  -8.762  -0.317  0.00  0.00    -0.166 F 
ATOM     28  F   UNL d   1       5.980  -8.471  -2.389  0.00  0.00    -0.166 F 
ENDBRANCH  22  25
ENDBRANCH   4  19
TORSDOF 5
