REMARK  5 active torsions:
REMARK  status: ('A' for Active; 'I' for Inactive)
REMARK    1  A    between atoms: C_10  and  C_2 
REMARK    2  A    between atoms: N_21  and  C_10 
REMARK    3  A    between atoms: O_17  and  N_11 
REMARK    4  A    between atoms: C_13  and  O_17 
REMARK       I    between atoms: N_16  and  C_13 
REMARK    5  A    between atoms: C_19  and  N_16 
ROOT
ATOM      1  C   UNL d   1      -3.569  -1.345   0.164  0.00  0.00     0.109 C 
ATOM      2  N   UNL d   1      -3.641  -2.628   0.391  0.00  0.00    -0.244 N 
ATOM      3  HN  UNL d   1      -4.478  -3.132   0.682  1.00  0.00     0.196 HD
ENDROOT
BRANCH   1   4
ATOM      4  C   UNL d   1      -4.822  -0.527   0.263  0.00  0.00     0.006 A 
ATOM      5  C   UNL d   1      -5.853  -0.970   1.116  0.00  0.00     0.048 A 
ATOM      6  C   UNL d   1      -7.015  -0.178   1.081  0.00  0.00     0.086 A 
ATOM      7  C   UNL d   1      -7.134   1.008   0.241  0.00  0.00     0.085 A 
ATOM      8  N   UNL d   1      -8.164  -0.334   1.749  0.00  0.00    -0.240 N 
ATOM      9  N   UNL d   1      -8.353   1.529   0.420  0.00  0.00    -0.240 N 
ATOM     10  C   UNL d   1      -6.091   1.449  -0.591  0.00  0.00     0.035 A 
ATOM     11  O   UNL d   1      -8.983   0.705   1.338  0.00  0.00    -0.156 OA
ATOM     12  HN  UNL d   1      -8.738   2.361  -0.027  1.00  0.00     0.197 HD
ATOM     13  C   UNL d   1      -4.938   0.641  -0.553  0.00  0.00     0.017 A 
ATOM     14  HN  UNL d   1      -8.389  -1.066   2.422  1.00  0.00     0.197 HD
ENDBRANCH   1   4
BRANCH   1  15
ATOM     15  N   UNL d   1      -2.400  -0.707  -0.181  0.00  0.00    -0.286 NA
ATOM     16  H   UNL d   1      -2.259   0.222   0.202  0.00  0.00     0.125 HD
ATOM     17  H   UNL d   1      -1.581  -1.296  -0.057  0.00  0.00     0.125 HD
ENDBRANCH   1  15
BRANCH   2  18
ATOM     18  O   UNL d   1      -2.366  -3.207   0.166  0.00  0.00    -0.179 OA
BRANCH  18  19
ATOM     19  C   UNL d   1      -2.361  -4.589   0.220  0.00  0.00     0.387 C 
ATOM     20  N   UNL d   1      -3.544  -5.135   0.664  0.00  0.00    -0.301 N 
ATOM     21  H   UNL d   1      -4.234  -4.424   0.873  0.00  0.00     0.171 HD
ATOM     22  O   UNL d   1      -1.342  -5.197  -0.086  0.00  0.00    -0.236 OA
BRANCH  20  23
ATOM     23  C   UNL d   1      -3.845  -6.493   0.875  0.00  0.00     0.038 A 
ATOM     24  C   UNL d   1      -2.967  -7.537   0.566  0.00  0.00     0.053 A 
ATOM     25  C   UNL d   1      -3.332  -8.862   0.813  0.00  0.00     0.036 A 
ATOM     26 CL   UNL d   1      -2.240 -10.136   0.424  0.00  0.00    -0.084 Cl
ATOM     27  C   UNL d   1      -4.571  -9.165   1.370  0.00  0.00     0.024 A 
ATOM     28  C   UNL d   1      -5.454  -8.133   1.679  0.00  0.00     0.004 A 
ATOM     29  C   UNL d   1      -5.094  -6.804   1.428  0.00  0.00     0.029 A 
ENDBRANCH  20  23
ENDBRANCH  18  19
ENDBRANCH   2  18
TORSDOF 5
