REMARK  8 active torsions:
REMARK  status: ('A' for Active; 'I' for Inactive)
REMARK    1  A    between atoms: C_2  and  C_1 
REMARK    2  A    between atoms: C_4  and  C_1 
REMARK    3  A    between atoms: C_5  and  C_1 
REMARK    4  A    between atoms: O_13  and  C_1 
REMARK       I    between atoms: C_3  and  N_6 
REMARK    5  A    between atoms: O_7  and  C_3 
REMARK    6  A    between atoms: O_17  and  C_4 
REMARK    7  A    between atoms: N_6  and  C_16 
REMARK    8  A    between atoms: C_20  and  O_7 
ROOT
ATOM      1  C   UNL d   1       0.331   0.626   1.231  0.00  0.00    -0.005 A 
ATOM      2  C   UNL d   1      -0.677   0.034   2.006  0.00  0.00     0.013 A 
ATOM      3  C   UNL d   1       0.972   1.751   1.784  0.00  0.00     0.013 A 
ATOM      4  C   UNL d   1      -0.211   1.515   3.889  0.00  0.00     0.036 A 
ATOM      5  C   UNL d   1       0.708   2.187   3.091  0.00  0.00     0.030 A 
ATOM      6  C   UNL d   1      -0.931   0.462   3.316  0.00  0.00     0.030 A 
ENDROOT
BRANCH   1   7
ATOM      7  C   UNL d   1       0.737   0.113  -0.156  0.00  0.00     0.271 C 
BRANCH   7   8
ATOM      8  C   UNL d   1      -0.129   0.684  -1.303  0.00  0.00     0.432 C 
ATOM      9  F   UNL d   1      -0.685  -0.273  -2.084  0.00  0.00    -0.167 F 
ATOM     10  F   UNL d   1      -1.141   1.473  -0.874  0.00  0.00    -0.167 F 
ATOM     11  F   UNL d   1       0.630   1.447  -2.138  0.00  0.00    -0.167 F 
ENDBRANCH   7   8
BRANCH   7  12
ATOM     12  C   UNL d   1       0.680  -1.418  -0.325  0.00  0.00     0.307 C 
ATOM     13  O   UNL d   1      -0.103  -2.185   0.219  0.00  0.00    -0.261 OA
BRANCH  12  14
ATOM     14  O   UNL d   1       1.633  -1.828  -1.224  0.00  0.00    -0.324 OA
ATOM     15  C   UNL d   1       1.682  -3.245  -1.422  0.00  0.00     0.213 C 
ENDBRANCH  12  14
ENDBRANCH   7  12
BRANCH   7  16
ATOM     16  O   UNL d   1       2.150   0.477  -0.316  0.00  0.00    -0.368 OA
ATOM     17  H   UNL d   1       2.432   0.118  -1.179  0.00  0.00     0.212 HD
ENDBRANCH   7  16
ENDBRANCH   1   7
BRANCH   4  18
ATOM     18  N   UNL d   1      -0.473   1.792   5.241  0.00  0.00    -0.302 N 
ATOM     19  C   UNL d   1       0.089   2.671   6.134  0.00  0.00     0.370 C 
ATOM     20  O   UNL d   1      -0.329   2.701   7.288  0.00  0.00    -0.238 OA
ATOM     21  H   UNL d   1      -1.180   1.228   5.695  0.00  0.00     0.171 HD
BRANCH  19  22
ATOM     22  O   UNL d   1       1.107   3.469   5.627  0.00  0.00    -0.261 OA
BRANCH  22  23
ATOM     23  C   UNL d   1       1.764   4.515   6.318  0.00  0.00     0.081 A 
ATOM     24  C   UNL d   1       1.781   4.661   7.701  0.00  0.00     0.037 A 
ATOM     25  C   UNL d   1       2.440   5.755   8.267  0.00  0.00     0.003 A 
ATOM     26  C   UNL d   1       3.090   6.684   7.452  0.00  0.00     0.000 A 
ATOM     27  C   UNL d   1       3.094   6.517   6.068  0.00  0.00     0.003 A 
ATOM     28  C   UNL d   1       2.433   5.429   5.499  0.00  0.00     0.037 A 
ENDBRANCH  22  23
ENDBRANCH  19  22
ENDBRANCH   4  18
TORSDOF 8
