REMARK  1 active torsions:
REMARK  status: ('A' for Active; 'I' for Inactive)
REMARK    1  A    between atoms: O_13  and  C_10 
ROOT
ATOM      1  C   UNL d   1      -0.010   1.506  -0.001  0.00  0.00     0.198 A 
ATOM      2  C   UNL d   1      -1.258   0.735  -0.001  0.00  0.00     0.049 A 
ATOM      3  C   UNL d   1      -1.184  -0.656  -0.001  0.00  0.00     0.093 A 
ATOM      4  O   UNL d   1      -0.002  -1.359  -0.002  0.00  0.00    -0.309 OA
ATOM      5  C   UNL d   1       1.242   0.743  -0.001  0.00  0.00     0.049 A 
ATOM      6  C   UNL d   1       1.175  -0.648  -0.002  0.00  0.00     0.090 A 
ATOM      7  C   UNL d   1      -2.363  -1.403  -0.001  0.00  0.00     0.074 A 
ATOM      8  C   UNL d   1      -2.494   1.390   0.000  0.00  0.00     0.021 A 
ATOM      9  O   UNL d   1      -0.017   2.731  -0.002  0.00  0.00    -0.286 OA
ATOM     10  C   UNL d   1      -3.594  -0.749  -0.000  0.00  0.00     0.068 A 
ATOM     11  C   UNL d   1      -3.671   0.642   0.001  0.00  0.00     0.037 A 
ATOM     12  C   UNL d   1       2.474   1.404  -0.000  0.00  0.00     0.018 A 
ATOM     13  C   UNL d   1       2.359  -1.388  -0.001  0.00  0.00     0.038 A 
ATOM     14  C   UNL d   1       3.653   0.660   0.000  0.00  0.00     0.001 A 
ATOM     15  C   UNL d   1       3.595  -0.734   0.000  0.00  0.00     0.003 A 
ENDROOT
BRANCH  10  16
ATOM     16  O   UNL d   1      -4.722  -1.515  -0.001  0.00  0.00    -0.361 OA
ATOM     17  H   UNL d   1      -5.498  -0.930  -0.002  0.00  0.00     0.217 HD
ENDBRANCH  10  16
TORSDOF 1
