REMARK  2 active torsions:
REMARK  status: ('A' for Active; 'I' for Inactive)
REMARK    1  A    between atoms: C_6  and  C_1 
REMARK    2  A    between atoms: C_5  and  C_6 
ROOT
ATOM      1  C   UNL d   1       0.126  -1.028  -0.031  0.00  0.00    -0.007 A 
ATOM      2  N   UNL d   1      -0.791   1.082  -0.148  0.00  0.00    -0.304 N 
ATOM      3  HN  UNL d   1      -1.451   1.858  -0.191  1.00  0.00     0.186 HD
ATOM      4  N   UNL d   1       0.542   1.135  -0.139  0.00  0.00    -0.304 N 
ATOM      5  C   UNL d   1       1.151  -0.090  -0.088  0.00  0.00     0.030 A 
ATOM      6  C   UNL d   1      -1.061  -0.223  -0.086  0.00  0.00     0.030 A 
ATOM      7  C   UNL d   1       2.634  -0.167  -0.098  0.00  0.00     0.070 C 
ATOM      8  C   UNL d   1      -2.475  -0.681  -0.086  0.00  0.00     0.070 C 
ATOM      9  H   UNL d   1       0.982   2.047  -0.175  0.00  0.00     0.186 HD
ENDROOT
BRANCH   1  10
ATOM     10  C   UNL d   1       0.084  -2.528   0.060  0.00  0.00     0.084 C 
BRANCH  10  11
ATOM     11  C   UNL d   1       1.474  -3.109   0.104  0.00  0.00    -0.010 A 
ATOM     12  C   UNL d   1       2.153  -3.293   1.326  0.00  0.00     0.042 A 
ATOM     13 CL   UNL d   1       1.437  -2.890   2.849  0.00  0.00    -0.084 Cl
ATOM     14  C   UNL d   1       3.460  -3.797   1.361  0.00  0.00     0.024 A 
ATOM     15  C   UNL d   1       4.112  -4.138   0.181  0.00  0.00     0.003 A 
ATOM     16  C   UNL d   1       3.454  -3.989  -1.035  0.00  0.00     0.024 A 
ATOM     17  C   UNL d   1       2.148  -3.485  -1.076  0.00  0.00     0.042 A 
ATOM     18 CL   UNL d   1       1.429  -3.323  -2.642  0.00  0.00    -0.084 Cl
ENDBRANCH  10  11
ENDBRANCH   1  10
TORSDOF 2
