REMARK  4 active torsions:
REMARK  status: ('A' for Active; 'I' for Inactive)
REMARK    1  A    between atoms: C_3  and  O_13 
REMARK    2  A    between atoms: C_4  and  O_12 
REMARK    3  A    between atoms: C_7  and  O_14 
REMARK    4  A    between atoms: C_11  and  C_8 
ROOT
ATOM      1  C   UNL d   1      -0.155   0.715   0.334  0.00  0.00     0.187 C 
ATOM      2  O   UNL d   1       1.079   1.400   0.100  0.00  0.00    -0.346 OA
ATOM      3  C   UNL d   1      -1.344   1.599  -0.071  0.00  0.00     0.186 C 
ATOM      4  C   UNL d   1      -2.664   0.797   0.022  0.00  0.00     0.207 C 
ATOM      5  C   UNL d   1      -0.177  -0.602  -0.418  0.00  0.00     0.180 C 
ATOM      6  O   UNL d   1      -1.372  -1.318  -0.105  0.00  0.00    -0.348 OA
ATOM      7  C   UNL d   1      -2.529  -0.629  -0.587  0.00  0.00     0.291 C 
ATOM      8  C   UNL d   1       2.219   0.627   0.481  0.00  0.00     0.295 C 
ATOM      9  O   UNL d   1       2.247  -0.641  -0.191  0.00  0.00    -0.354 OA
ATOM     10  C   UNL d   1       1.052  -1.397   0.008  0.00  0.00     0.206 C 
ENDROOT
BRANCH   8  11
ATOM     11  C   UNL d   1       2.447   0.510   1.986  0.00  0.00    -0.004 A 
ATOM     12  C   UNL d   1       1.780   1.337   2.904  0.00  0.00     0.012 A 
ATOM     13  C   UNL d   1       1.973   1.188   4.277  0.00  0.00     0.001 A 
ATOM     14  C   UNL d   1       2.874   0.239   4.755  0.00  0.00     0.000 A 
ATOM     15  C   UNL d   1       3.587  -0.552   3.859  0.00  0.00     0.001 A 
ATOM     16  C   UNL d   1       3.378  -0.418   2.485  0.00  0.00     0.012 A 
ENDBRANCH   8  11
BRANCH   3  17
ATOM     17  O   UNL d   1      -1.332   2.705   0.871  0.00  0.00    -0.385 OA
ATOM     18  C   UNL d   1      -2.153   3.802   0.499  0.00  0.00     0.202 C 
ENDBRANCH   3  17
BRANCH   4  19
ATOM     19  O   UNL d   1      -3.716   1.575  -0.588  0.00  0.00    -0.383 OA
ATOM     20  C   UNL d   1      -5.011   1.013  -0.448  0.00  0.00     0.202 C 
ENDBRANCH   4  19
BRANCH   7  21
ATOM     21  O   UNL d   1      -2.533  -0.594  -2.017  0.00  0.00    -0.363 OA
ATOM     22  C   UNL d   1      -2.744  -1.891  -2.566  0.00  0.00     0.204 C 
ENDBRANCH   7  21
TORSDOF 4
