REMARK  5 active torsions:
REMARK  status: ('A' for Active; 'I' for Inactive)
REMARK    1  A    between atoms: C_2  and  C_1 
REMARK    2  A    between atoms: S_14  and  C_8 
REMARK    3  A    between atoms: C_17  and  S_14 
REMARK    4  A    between atoms: C_15  and  C_17 
REMARK    5  A    between atoms: C_16  and  C_15 
ROOT
ATOM      1  C   UNL d   1       0.609  -0.813   0.000  0.00  0.00     0.192 A 
ATOM      2  O   UNL d   1       0.824   0.486   0.398  0.00  0.00    -0.266 OA
ATOM      3  N   UNL d   1      -0.651  -1.015  -0.347  0.00  0.00    -0.275 N 
ATOM      4  HN  UNL d   1      -1.058  -1.893  -0.670  1.00  0.00     0.189 HD
ATOM      5  C   UNL d   1      -0.412   1.051   0.233  0.00  0.00     0.204 A 
ATOM      6  N   UNL d   1      -1.308   0.184  -0.190  0.00  0.00    -0.272 N 
ATOM      7  HN  UNL d   1      -2.296   0.365  -0.367  1.00  0.00     0.189 HD
ENDROOT
BRANCH   5   8
ATOM      8  S   UNL d   1      -0.738   2.733   0.519  0.00  0.00    -0.077 SA
BRANCH   8   9
ATOM      9  C   UNL d   1      -2.481   2.817  -0.001  0.00  0.00     0.166 C 
BRANCH   9  10
ATOM     10  C   UNL d   1      -3.009   4.243  -0.025  0.00  0.00     0.169 C 
ATOM     11  O   UNL d   1      -2.306   5.236   0.144  0.00  0.00    -0.291 OA
BRANCH  10  12
ATOM     12  C   UNL d   1      -4.473   4.450  -0.280  0.00  0.00     0.011 A 
ATOM     13  C   UNL d   1      -5.341   3.397  -0.602  0.00  0.00     0.017 A 
ATOM     14  C   UNL d   1      -6.706   3.644  -0.797  0.00  0.00     0.025 A 
ATOM     15  C   UNL d   1      -7.207   4.939  -0.679  0.00  0.00     0.034 A 
ATOM     16  C   UNL d   1      -6.353   5.996  -0.379  0.00  0.00     0.025 A 
ATOM     17 CL   UNL d   1      -8.888   5.230  -0.896  0.00  0.00    -0.084 Cl
ATOM     18  C   UNL d   1      -4.990   5.753  -0.183  0.00  0.00     0.017 A 
ENDBRANCH  10  12
ENDBRANCH   9  10
ENDBRANCH   8   9
ENDBRANCH   5   8
BRANCH   1  19
ATOM     19  C   UNL d   1       1.661  -1.880  -0.061  0.00  0.00     0.092 A 
ATOM     20  N   UNL d   1       2.967  -1.685   0.363  0.00  0.00    -0.350 N 
ATOM     21  C   UNL d   1       3.660  -2.794   0.193  0.00  0.00     0.047 A 
ATOM     22  HN  UNL d   1       3.336  -0.815   0.747  1.00  0.00     0.166 HD
ATOM     23  C   UNL d   1       5.093  -2.971   0.562  0.00  0.00     0.076 C 
ATOM     24  S   UNL d   1       2.800  -4.105  -0.513  0.00  0.00    -0.087 SA
ATOM     25  C   UNL d   1       1.389  -3.138  -0.560  0.00  0.00     0.085 A 
ENDBRANCH   1  19
TORSDOF 5
