REMARK  5 active torsions:
REMARK  status: ('A' for Active; 'I' for Inactive)
REMARK    1  A    between atoms: C_6  and  S_1 
REMARK    2  A    between atoms: C_8  and  S_1 
REMARK    3  A    between atoms: C_4  and  C_6 
REMARK    4  A    between atoms: C_14  and  C_5 
REMARK    5  A    between atoms: C_10  and  C_8 
ROOT
ATOM      1  N   UNL d   1       1.456   1.512   2.669  0.00  0.00    -0.352 N 
ATOM      2  HN  UNL d   1       1.699   0.522   2.633  1.00  0.00     0.166 HD
ATOM      3  C   UNL d   1       0.895   2.185   1.686  0.00  0.00     0.065 A 
ATOM      4  C   UNL d   1       1.669   2.341   3.763  0.00  0.00     0.049 A 
ATOM      5  S   UNL d   1       0.586   3.845   2.018  0.00  0.00    -0.085 SA
ATOM      6  C   UNL d   1       1.283   3.652   3.569  0.00  0.00     0.081 A 
ENDROOT
BRANCH   3   7
ATOM      7  C   UNL d   1       0.485   1.589   0.390  0.00  0.00     0.205 C 
BRANCH   7   8
ATOM      8  S   UNL d   1       1.853   1.667  -0.752  0.00  0.00     0.156 S 
ATOM      9  O   UNL d   1       2.326   3.041  -0.821  0.00  0.00    -0.227 OA
ATOM     10  O   UNL d   1       1.417   1.029  -1.988  0.00  0.00    -0.227 OA
BRANCH   8  11
ATOM     11  C   UNL d   1       3.167   0.678  -0.045  0.00  0.00     0.205 C 
BRANCH  11  12
ATOM     12  C   UNL d   1       2.710  -0.712   0.178  0.00  0.00     0.066 A 
ATOM     13  O   UNL d   1       2.766  -1.159   1.465  0.00  0.00    -0.326 OA
ATOM     14  C   UNL d   1       2.330  -2.443   1.464  0.00  0.00     0.142 A 
ATOM     15  C   UNL d   1       2.001  -2.837   0.189  0.00  0.00     0.027 A 
ATOM     16  C   UNL d   1       2.253  -1.722  -0.645  0.00  0.00     0.035 A 
ENDBRANCH  11  12
ENDBRANCH   8  11
ENDBRANCH   7   8
ENDBRANCH   3   7
BRANCH   4  17
ATOM     17  C   UNL d   1       2.292   1.852   4.989  0.00  0.00    -0.009 A 
ATOM     18  C   UNL d   1       3.193   0.780   4.934  0.00  0.00     0.014 A 
ATOM     19  C   UNL d   1       3.842   0.337   6.091  0.00  0.00     0.001 A 
ATOM     20  C   UNL d   1       3.585   0.950   7.316  0.00  0.00     0.000 A 
ATOM     21  C   UNL d   1       2.668   1.995   7.390  0.00  0.00     0.001 A 
ATOM     22  C   UNL d   1       2.021   2.441   6.234  0.00  0.00     0.014 A 
ENDBRANCH   4  17
TORSDOF 5
