REMARK  2 active torsions:
REMARK  status: ('A' for Active; 'I' for Inactive)
REMARK    1  A    between atoms: C_7  and  C_2 
REMARK    2  A    between atoms: O_12  and  C_7 
ROOT
ATOM      1  O   UNL d   1      -0.004   1.310   0.076  0.00  0.00    -0.310 OA
ATOM      2  C   UNL d   1       0.022  -1.622   0.009  0.00  0.00     0.081 A 
ATOM      3  C   UNL d   1      -1.245  -0.792  -0.009  0.00  0.00    -0.014 A 
ATOM      4  C   UNL d   1       1.277  -0.769   0.001  0.00  0.00    -0.014 A 
ATOM      5  C   UNL d   1       1.183   0.624   0.037  0.00  0.00     0.083 A 
ATOM      6  C   UNL d   1      -1.177   0.603   0.030  0.00  0.00     0.083 A 
ATOM      7  C   UNL d   1       2.554  -1.353  -0.055  0.00  0.00     0.011 A 
ATOM      8  C   UNL d   1      -2.512  -1.399  -0.074  0.00  0.00     0.011 A 
ATOM      9  C   UNL d   1       2.335   1.416   0.042  0.00  0.00     0.038 A 
ATOM     10  C   UNL d   1      -2.344   1.374   0.029  0.00  0.00     0.038 A 
ATOM     11  C   UNL d   1       3.705  -0.562  -0.040  0.00  0.00     0.001 A 
ATOM     12  C   UNL d   1      -3.677  -0.628  -0.067  0.00  0.00     0.001 A 
ATOM     13  C   UNL d   1       3.596   0.825   0.010  0.00  0.00     0.003 A 
ATOM     14  C   UNL d   1      -3.593   0.759  -0.013  0.00  0.00     0.003 A 
ENDROOT
BRANCH   2  15
ATOM     15  C   UNL d   1       0.029  -2.636   1.183  0.00  0.00     0.178 C 
BRANCH  15  16
ATOM     16  O   UNL d   1      -0.043  -2.019   2.467  0.00  0.00    -0.400 OA
ATOM     17  H   UNL d   1       0.559  -1.255   2.465  0.00  0.00     0.209 HD
ENDBRANCH  15  16
ENDBRANCH   2  15
TORSDOF 2
