REMARK  4 active torsions:
REMARK  status: ('A' for Active; 'I' for Inactive)
REMARK    1  A    between atoms: C_8  and  N_3 
REMARK    2  A    between atoms: C_9  and  C_4 
REMARK    3  A    between atoms: C_7  and  C_10 
REMARK    4  A    between atoms: O_17  and  C_9 
ROOT
ATOM      1  N   UNL d   1      -1.438  -0.685  -0.098  0.00  0.00    -0.289 N 
ATOM      2  HN  UNL d   1      -2.198  -1.359  -0.196  1.00  0.00     0.187 HD
ATOM      3  N   UNL d   1      -0.089  -0.960   0.019  0.00  0.00    -0.224 N 
ATOM      4  C   UNL d   1      -1.539   0.609  -0.057  0.00  0.00     0.110 A 
ATOM      5  C   UNL d   1       0.714   0.190   0.138  0.00  0.00     0.248 A 
ATOM      6  C   UNL d   1      -0.248   1.338   0.075  0.00  0.00     0.170 A 
ATOM      7  O   UNL d   1       1.920   0.314   0.267  0.00  0.00    -0.271 OA
ENDROOT
BRANCH   3   8
ATOM      8  C   UNL d   1       0.324  -2.314   0.082  0.00  0.00     0.060 A 
ATOM      9  C   UNL d   1       1.661  -2.662   0.317  0.00  0.00     0.047 A 
ATOM     10  C   UNL d   1       2.059  -4.003   0.450  0.00  0.00     0.050 A 
ATOM     11  C   UNL d   1       1.103  -5.016   0.303  0.00  0.00     0.016 A 
ATOM     12  C   UNL d   1      -0.226  -4.691   0.043  0.00  0.00     0.003 A 
ATOM     13  C   UNL d   1      -0.612  -3.352  -0.059  0.00  0.00     0.031 A 
BRANCH  10  14
ATOM     14  C   UNL d   1       3.490  -4.347   0.787  0.00  0.00     0.417 C 
ATOM     15  F   UNL d   1       4.301  -3.261   0.913  0.00  0.00    -0.166 F 
ATOM     16  F   UNL d   1       3.592  -5.024   1.965  0.00  0.00    -0.166 F 
ATOM     17  F   UNL d   1       4.073  -5.142  -0.152  0.00  0.00    -0.166 F 
ENDBRANCH  10  14
ENDBRANCH   3   8
BRANCH   4  18
ATOM     18  C   UNL d   1      -2.826   1.382  -0.118  0.00  0.00     0.307 C 
ATOM     19  O   UNL d   1      -2.834   2.598  -0.037  0.00  0.00    -0.258 OA
BRANCH  18  20
ATOM     20  O   UNL d   1      -3.875   0.555  -0.257  0.00  0.00    -0.322 OA
ATOM     21  C   UNL d   1      -5.136   1.218  -0.312  0.00  0.00     0.213 C 
ENDBRANCH  18  20
ENDBRANCH   4  18
TORSDOF 4
