REMARK  5 active torsions:
REMARK  status: ('A' for Active; 'I' for Inactive)
REMARK    1  A    between atoms: C_3  and  C_1 
REMARK    2  A    between atoms: C_8  and  C_2 
REMARK    3  A    between atoms: C_18  and  C_12 
REMARK    4  A    between atoms: O_20  and  C_18 
REMARK    5  A    between atoms: C_23  and  O_20 
ROOT
ATOM      1  C   UNL d   1      -0.033  -1.300  -0.026  0.00  0.00     0.052 A 
ATOM      2  C   UNL d   1       0.758  -0.207   0.464  0.00  0.00     0.081 A 
ATOM      3  N   UNL d   1       0.103   0.948   0.242  0.00  0.00    -0.259 N 
ATOM      4  HN  UNL d   1       0.437   1.886   0.463  1.00  0.00     0.195 HD
ATOM      5  O   UNL d   1      -1.099   0.626  -0.338  0.00  0.00    -0.241 OA
ATOM      6  C   UNL d   1      -1.178  -0.715  -0.518  0.00  0.00     0.087 A 
ATOM      7  C   UNL d   1      -2.408  -1.206  -1.168  0.00  0.00     0.080 C 
ENDROOT
BRANCH   1   8
ATOM      8  C   UNL d   1       0.310  -2.720  -0.034  0.00  0.00     0.054 A 
ATOM      9  N   UNL d   1       1.108  -3.218   0.977  0.00  0.00    -0.351 N 
ATOM     10  C   UNL d   1       1.332  -4.504   0.793  0.00  0.00     0.075 A 
ATOM     11  HN  UNL d   1       1.472  -2.669   1.756  1.00  0.00     0.166 HD
ATOM     12  S   UNL d   1       0.604  -5.179  -0.613  0.00  0.00    -0.084 SA
ATOM     13  C   UNL d   1      -0.059  -3.645  -0.989  0.00  0.00     0.082 A 
BRANCH  10  14
ATOM     14  C   UNL d   1       2.172  -5.361   1.692  0.00  0.00     0.240 C 
BRANCH  14  15
ATOM     15  O   UNL d   1       1.302  -5.864   2.701  0.00  0.00    -0.345 OA
BRANCH  15  16
ATOM     16  C   UNL d   1       1.866  -6.628   3.682  0.00  0.00     0.069 A 
ATOM     17  C   UNL d   1       3.191  -7.066   3.731  0.00  0.00     0.037 A 
ATOM     18  C   UNL d   1       3.628  -7.857   4.796  0.00  0.00     0.003 A 
ATOM     19  C   UNL d   1       2.747  -8.213   5.819  0.00  0.00     0.000 A 
ATOM     20  C   UNL d   1       1.424  -7.774   5.777  0.00  0.00     0.003 A 
ATOM     21  C   UNL d   1       0.989  -6.988   4.711  0.00  0.00     0.037 A 
ENDBRANCH  15  16
ENDBRANCH  14  15
ENDBRANCH  10  14
ENDBRANCH   1   8
BRANCH   2  22
ATOM     22  C   UNL d   1       2.120  -0.186   1.024  0.00  0.00     0.015 A 
ATOM     23  C   UNL d   1       2.519   0.672   2.071  0.00  0.00     0.048 A 
ATOM     24  C   UNL d   1       3.845   0.674   2.529  0.00  0.00     0.048 A 
ATOM     25 CL   UNL d   1       1.438   1.748   2.893  0.00  0.00    -0.083 Cl
ATOM     26  C   UNL d   1       4.779  -0.193   1.972  0.00  0.00     0.035 A 
ATOM     27  C   UNL d   1       4.410  -1.052   0.946  0.00  0.00     0.025 A 
ATOM     28 CL   UNL d   1       6.398  -0.204   2.553  0.00  0.00    -0.084 Cl
ATOM     29  C   UNL d   1       3.099  -1.030   0.463  0.00  0.00     0.017 A 
ENDBRANCH   2  22
TORSDOF 5
