REMARK  6 active torsions:
REMARK  status: ('A' for Active; 'I' for Inactive)
REMARK    1  A    between atoms: N_4  and  S_1 
REMARK    2  A    between atoms: C_5  and  C_2 
REMARK    3  A    between atoms: C_3  and  N_4 
REMARK    4  A    between atoms: O_16  and  C_5 
REMARK    5  A    between atoms: C_6  and  C_7 
REMARK    6  A    between atoms: O_17  and  C_6 
ROOT
ATOM      1  C   UNL d   1       2.158   2.780   1.335  0.00  0.00     0.061 A 
ATOM      2  C   UNL d   1       0.857   2.533   0.850  0.00  0.00     0.039 A 
ATOM      3  C   UNL d   1      -0.051   4.186   2.408  0.00  0.00     0.041 A 
ATOM      4  C   UNL d   1      -0.236   3.256   1.371  0.00  0.00     0.043 A 
ATOM      5  C   UNL d   1       2.322   3.708   2.380  0.00  0.00     0.020 A 
ATOM      6  C   UNL d   1       1.234   4.394   2.916  0.00  0.00     0.019 A 
ENDROOT
BRANCH   2   7
ATOM      7  N   UNL d   1       0.564   1.571  -0.182  0.00  0.00    -0.185 NA
ATOM      8  H   UNL d   1       1.161   0.737  -0.134  0.00  0.00     0.146 HD
BRANCH   7   9
ATOM      9  S   UNL d   1       0.649   2.105  -1.793  0.00  0.00     0.210 S 
ATOM     10  O   UNL d   1       1.096   0.962  -2.557  0.00  0.00    -0.211 OA
ATOM     11  O   UNL d   1       1.342   3.374  -1.845  0.00  0.00    -0.211 OA
ATOM     12  C   UNL d   1      -1.070   2.365  -2.178  0.00  0.00     0.180 C 
ENDBRANCH   7   9
ENDBRANCH   2   7
BRANCH   1  13
ATOM     13  C   UNL d   1       3.424   2.143   0.870  0.00  0.00     0.294 C 
ATOM     14  O   UNL d   1       4.518   2.481   1.301  0.00  0.00    -0.259 OA
BRANCH  13  15
ATOM     15  O   UNL d   1       3.221   1.155  -0.034  0.00  0.00    -0.322 OA
ATOM     16  C   UNL d   1       4.437   0.578  -0.530  0.00  0.00     0.213 C 
ENDBRANCH  13  15
ENDBRANCH   1  13
BRANCH   3  17
ATOM     17  C   UNL d   1      -1.149   4.978   3.028  0.00  0.00     0.293 C 
ATOM     18  O   UNL d   1      -0.964   5.741   3.964  0.00  0.00    -0.259 OA
BRANCH  17  19
ATOM     19  O   UNL d   1      -2.340   4.756   2.420  0.00  0.00    -0.323 OA
ATOM     20  C   UNL d   1      -3.398   5.548   2.972  0.00  0.00     0.213 C 
ENDBRANCH  17  19
ENDBRANCH   3  17
TORSDOF 6
