REMARK  3 active torsions:
REMARK  status: ('A' for Active; 'I' for Inactive)
REMARK    1  A    between atoms: C_7  and  O_9 
REMARK    2  A    between atoms: C_14  and  C_7 
REMARK    3  A    between atoms: O_9  and  C_11 
ROOT
ATOM      1  C   UNL d   1       1.306   1.437   0.007  0.00  0.00     0.295 A 
ATOM      2  C   UNL d   1       0.640  -0.938  -0.079  0.00  0.00    -0.033 A 
ATOM      3  C   UNL d   1       1.587   0.004  -0.053  0.00  0.00     0.025 A 
ATOM      4  C   UNL d   1      -1.062   0.799   0.021  0.00  0.00     0.093 A 
ATOM      5  O   UNL d   1      -0.040   1.779   0.052  0.00  0.00    -0.274 OA
ATOM      6  C   UNL d   1      -0.763  -0.567  -0.054  0.00  0.00     0.005 A 
ATOM      7  C   UNL d   1      -2.370   1.273   0.065  0.00  0.00     0.075 A 
ATOM      8  C   UNL d   1      -1.824  -1.475  -0.102  0.00  0.00     0.017 A 
ATOM      9  C   UNL d   1      -3.414   0.354   0.057  0.00  0.00     0.082 A 
ATOM     10  O   UNL d   1       2.202   2.274   0.016  0.00  0.00    -0.259 OA
ATOM     11  C   UNL d   1      -3.149  -1.015  -0.050  0.00  0.00     0.038 A 
ATOM     12  C   UNL d   1       1.231  -2.305  -0.123  0.00  0.00     0.040 C 
ATOM     13  C   UNL d   1       2.961  -0.562  -0.085  0.00  0.00     0.046 C 
ATOM     14  C   UNL d   1       2.698  -2.033   0.247  0.00  0.00     0.009 C 
ENDROOT
BRANCH   9  15
ATOM     15  O   UNL d   1      -4.769   0.745   0.092  0.00  0.00    -0.275 OA
BRANCH  15  16
ATOM     16  C   UNL d   1      -5.141   1.788   0.930  0.00  0.00     0.298 C 
ATOM     17  O   UNL d   1      -4.420   2.435   1.676  0.00  0.00    -0.259 OA
BRANCH  16  18
ATOM     18  C   UNL d   1      -6.612   1.978   0.896  0.00  0.00     0.039 A 
ATOM     19  C   UNL d   1      -7.395   1.651  -0.218  0.00  0.00     0.017 A 
ATOM     20  C   UNL d   1      -8.779   1.844  -0.172  0.00  0.00     0.001 A 
ATOM     21  C   UNL d   1      -9.381   2.359   0.978  0.00  0.00     0.000 A 
ATOM     22  C   UNL d   1      -8.601   2.702   2.081  0.00  0.00     0.001 A 
ATOM     23  C   UNL d   1      -7.220   2.521   2.037  0.00  0.00     0.017 A 
ENDBRANCH  16  18
ENDBRANCH  15  16
ENDBRANCH   9  15
TORSDOF 3
