REMARK  4 active torsions:
REMARK  status: ('A' for Active; 'I' for Inactive)
REMARK    1  A    between atoms: C_6  and  C_1 
REMARK    2  A    between atoms: N_9  and  C_3 
REMARK    3  A    between atoms: C_7  and  C_4 
REMARK    4  A    between atoms: O_12  and  C_6 
ROOT
ATOM      1  C   UNL d   1      -0.239   1.074   0.008  0.00  0.00     0.107 A 
ATOM      2  S   UNL d   1       1.343   0.406   0.034  0.00  0.00    -0.081 SA
ATOM      3  C   UNL d   1      -1.185   0.066  -0.015  0.00  0.00     0.050 A 
ATOM      4  C   UNL d   1       0.772  -1.214  -0.008  0.00  0.00     0.018 A 
ATOM      5  C   UNL d   1      -0.610  -1.232  -0.025  0.00  0.00     0.050 A 
ENDROOT
BRANCH   4   6
ATOM      6  C   UNL d   1       1.706  -2.357   0.015  0.00  0.00    -0.019 A 
ATOM      7  C   UNL d   1       1.303  -3.579   0.586  0.00  0.00     0.016 A 
ATOM      8  C   UNL d   1       2.174  -4.671   0.642  0.00  0.00     0.043 A 
ATOM      9  C   UNL d   1       3.455  -4.550   0.123  0.00  0.00     0.116 A 
ATOM     10  C   UNL d   1       3.876  -3.364  -0.462  0.00  0.00     0.043 A 
ATOM     11  F   UNL d   1       4.296  -5.590   0.190  0.00  0.00    -0.206 F 
ATOM     12  C   UNL d   1       3.003  -2.274  -0.521  0.00  0.00     0.016 A 
ENDBRANCH   4   6
BRANCH   1  13
ATOM     13  C   UNL d   1      -0.382   2.521   0.017  0.00  0.00     0.302 C 
ATOM     14  O   UNL d   1       0.524   3.345   0.032  0.00  0.00    -0.259 OA
BRANCH  13  15
ATOM     15  O   UNL d   1      -1.710   2.862   0.006  0.00  0.00    -0.322 OA
ATOM     16  C   UNL d   1      -1.966   4.265   0.009  0.00  0.00     0.213 C 
ENDBRANCH  13  15
ENDBRANCH   1  13
BRANCH   3  17
ATOM     17  N   UNL d   1      -2.518   0.248  -0.026  0.00  0.00    -0.398 N 
ATOM     18  H   UNL d   1      -2.930   1.180   0.001  0.00  0.00     0.156 HD
ATOM     19  H   UNL d   1      -3.190  -0.512  -0.009  0.00  0.00     0.156 HD
ENDBRANCH   3  17
TORSDOF 4
