REMARK  6 active torsions:
REMARK  status: ('A' for Active; 'I' for Inactive)
REMARK    1  A    between atoms: C_3  and  C_1 
REMARK    2  A    between atoms: C_2  and  O_11 
REMARK    3  A    between atoms: C_9  and  C_3 
REMARK    4  A    between atoms: N_10  and  C_4 
REMARK    5  A    between atoms: C_14  and  N_10 
REMARK    6  A    between atoms: O_11  and  C_21 
ROOT
ATOM      1  C   UNL d   1       1.035   0.024   0.037  0.00  0.00     0.110 C 
ATOM      2  C   UNL d   1       0.372  -0.623   1.029  0.00  0.00     0.115 C 
ATOM      3  C   UNL d   1       0.311   0.764  -1.009  0.00  0.00     0.105 C 
ATOM      4  N   UNL d   1      -0.278   1.335  -1.830  0.00  0.00    -0.191 NA
ENDROOT
BRANCH   1   5
ATOM      5  C   UNL d   1       2.553  -0.002   0.083  0.00  0.00     0.204 C 
ATOM      6  O   UNL d   1       3.185  -0.150   1.127  0.00  0.00    -0.286 OA
BRANCH   5   7
ATOM      7  C   UNL d   1       3.291   0.189  -1.198  0.00  0.00     0.016 A 
ATOM      8  C   UNL d   1       4.517   0.863  -1.181  0.00  0.00     0.018 A 
ATOM      9  C   UNL d   1       5.216   1.096  -2.373  0.00  0.00     0.038 A 
ATOM     10  C   UNL d   1       4.681   0.680  -3.591  0.00  0.00     0.078 A 
ATOM     11  C   UNL d   1       3.494  -0.056  -3.598  0.00  0.00     0.038 A 
ATOM     12  C   UNL d   1       2.807  -0.315  -2.410  0.00  0.00     0.018 A 
BRANCH  10  13
ATOM     13  O   UNL d   1       5.252   0.846  -4.814  0.00  0.00    -0.255 OA
BRANCH  13  14
ATOM     14  C   UNL d   1       5.968   2.041  -5.100  0.00  0.00     0.530 C 
ATOM     15  F   UNL d   1       5.975   2.941  -4.096  0.00  0.00    -0.144 F 
ATOM     16  F   UNL d   1       7.245   1.724  -5.407  0.00  0.00    -0.144 F 
ATOM     17  F   UNL d   1       5.410   2.629  -6.182  0.00  0.00    -0.144 F 
ENDBRANCH  13  14
ENDBRANCH  10  13
ENDBRANCH   5   7
ENDBRANCH   1   5
BRANCH   2  18
ATOM     18  N   UNL d   1      -0.998  -0.783   1.113  0.00  0.00    -0.364 N 
ATOM     19  H   UNL d   1      -1.548  -0.490   0.308  0.00  0.00     0.165 HD
BRANCH  18  20
ATOM     20  C   UNL d   1      -1.749  -1.371   2.142  0.00  0.00     0.033 A 
ATOM     21  C   UNL d   1      -1.332  -1.378   3.477  0.00  0.00     0.055 A 
ATOM     22  C   UNL d   1      -2.089  -2.024   4.462  0.00  0.00     0.058 A 
ATOM     23 CL   UNL d   1      -1.520  -1.943   6.092  0.00  0.00    -0.082 Cl
ATOM     24  C   UNL d   1      -3.262  -2.701   4.112  0.00  0.00     0.055 A 
ATOM     25  C   UNL d   1      -3.680  -2.713   2.782  0.00  0.00     0.028 A 
ATOM     26 CL   UNL d   1      -4.230  -3.543   5.268  0.00  0.00    -0.083 Cl
ATOM     27  C   UNL d   1      -2.930  -2.050   1.808  0.00  0.00     0.031 A 
ENDBRANCH  18  20
ENDBRANCH   2  18
TORSDOF 6
