REMARK  6 active torsions:
REMARK  status: ('A' for Active; 'I' for Inactive)
REMARK    1  A    between atoms: C_2  and  S_1 
REMARK    2  A    between atoms: N_5  and  S_1 
REMARK    3  A    between atoms: C_8  and  C_4 
REMARK    4  A    between atoms: C_12  and  N_5 
REMARK    5  A    between atoms: C_13  and  N_5 
REMARK    6  A    between atoms: O_15  and  C_8 
ROOT
ATOM      1  S   UNL d   1       0.856  -0.249  -0.410  0.00  0.00     0.277 S 
ATOM      2  O   UNL d   1       0.241   0.366  -1.555  0.00  0.00    -0.199 OA
ATOM      3  O   UNL d   1       2.288  -0.465  -0.412  0.00  0.00    -0.199 OA
ENDROOT
BRANCH   1   4
ATOM      4  C   UNL d   1       0.190  -1.919  -0.456  0.00  0.00     0.151 C 
ATOM      5  N   UNL d   1       0.577  -2.890  -1.391  0.00  0.00    -0.336 N 
ATOM      6  C   UNL d   1       0.166  -4.151  -0.965  0.00  0.00     0.111 C 
ATOM      7  C   UNL d   1       1.308  -2.653  -2.618  0.00  0.00     0.157 C 
ATOM      8  C   UNL d   1      -0.598  -3.951   0.165  0.00  0.00     0.039 C 
ATOM      9  C   UNL d   1      -0.704  -2.564   0.387  0.00  0.00     0.046 C 
BRANCH   6  10
ATOM     10  C   UNL d   1       0.469  -5.429  -1.601  0.00  0.00     0.309 C 
ATOM     11  O   UNL d   1       1.072  -5.592  -2.646  0.00  0.00    -0.258 OA
BRANCH  10  12
ATOM     12  O   UNL d   1      -0.046  -6.435  -0.831  0.00  0.00    -0.321 OA
ATOM     13  C   UNL d   1       0.098  -7.754  -1.357  0.00  0.00     0.213 C 
ENDBRANCH  10  12
ENDBRANCH   6  10
ENDBRANCH   1   4
BRANCH   1  14
ATOM     14  N   UNL d   1       0.395   0.581   1.058  0.00  0.00    -0.296 N 
BRANCH  14  15
ATOM     15  C   UNL d   1      -1.102   0.945   1.178  0.00  0.00     0.096 C 
ATOM     16  C   UNL d   1      -1.636   1.861   0.055  0.00  0.00     0.026 C 
ATOM     17  C   UNL d   1      -1.095   3.285   0.139  0.00  0.00     0.002 C 
ATOM     18  C   UNL d   1      -1.517   3.928   1.453  0.00  0.00     0.000 C 
ATOM     19  C   UNL d   1      -1.069   3.082   2.639  0.00  0.00     0.002 C 
ATOM     20  C   UNL d   1      -1.526   1.623   2.507  0.00  0.00     0.026 C 
ENDBRANCH  14  15
BRANCH  14  21
ATOM     21  C   UNL d   1       1.111   0.282   2.388  0.00  0.00     0.096 C 
ATOM     22  C   UNL d   1       2.621   0.544   2.503  0.00  0.00     0.026 C 
ATOM     23  C   UNL d   1       3.571  -0.620   2.232  0.00  0.00     0.002 C 
ATOM     24  C   UNL d   1       3.096  -1.982   2.724  0.00  0.00     0.000 C 
ATOM     25  C   UNL d   1       1.603  -2.206   2.589  0.00  0.00     0.002 C 
ATOM     26  C   UNL d   1       0.744  -1.041   3.054  0.00  0.00     0.026 C 
ENDBRANCH  14  21
ENDBRANCH   1  14
TORSDOF 6
