REMARK  4 active torsions:
REMARK  status: ('A' for Active; 'I' for Inactive)
REMARK    1  A    between atoms: C_2  and  S_1 
REMARK    2  A    between atoms: O_7  and  S_1 
REMARK    3  A    between atoms: C_10  and  C_4 
REMARK    4  A    between atoms: C_13  and  O_7 
ROOT
ATOM      1  C   UNL d   1       0.380  -0.516   1.585  0.00  0.00     0.128 A 
ATOM      2  S   UNL d   1      -0.227   0.616   2.716  0.00  0.00    -0.074 SA
ATOM      3  C   UNL d   1      -0.432  -0.576   3.936  0.00  0.00     0.033 A 
ATOM      4  C   UNL d   1       0.318  -1.802   2.087  0.00  0.00     0.035 A 
ATOM      5  C   UNL d   1      -0.159  -1.836   3.429  0.00  0.00     0.023 A 
ENDROOT
BRANCH   1   6
ATOM      6  S   UNL d   1       1.001   0.127   0.037  0.00  0.00     0.309 S 
ATOM      7  O   UNL d   1       1.947  -0.873  -0.416  0.00  0.00    -0.192 OA
ATOM      8  O   UNL d   1       1.392   1.501   0.291  0.00  0.00    -0.192 OA
BRANCH   6   9
ATOM      9  O   UNL d   1      -0.339   0.070  -0.891  0.00  0.00    -0.229 OA
BRANCH   9  10
ATOM     10  C   UNL d   1      -0.312   0.459  -2.210  0.00  0.00     0.089 A 
ATOM     11  C   UNL d   1      -1.244  -0.160  -3.050  0.00  0.00     0.040 A 
ATOM     12  C   UNL d   1      -1.346   0.215  -4.394  0.00  0.00     0.026 A 
ATOM     13  C   UNL d   1      -0.521   1.218  -4.898  0.00  0.00     0.034 A 
ATOM     14  C   UNL d   1       0.416   1.834  -4.071  0.00  0.00     0.026 A 
ATOM     15 CL   UNL d   1      -0.671   1.712  -6.539  0.00  0.00    -0.084 Cl
ATOM     16  C   UNL d   1       0.520   1.455  -2.727  0.00  0.00     0.040 A 
ENDBRANCH   9  10
ENDBRANCH   6   9
ENDBRANCH   1   6
BRANCH   3  17
ATOM     17  C   UNL d   1      -0.850  -0.226   5.303  0.00  0.00     0.049 A 
ATOM     18  N   UNL d   1      -1.535  -1.206   5.944  0.00  0.00    -0.365 N 
ATOM     19  C   UNL d   1      -1.892  -0.981   7.229  0.00  0.00     0.088 A 
ATOM     20  HN  UNL d   1      -1.772  -2.080   5.474  1.00  0.00     0.165 HD
ATOM     21  C   UNL d   1      -1.585   0.176   7.924  0.00  0.00     0.017 A 
ATOM     22  C   UNL d   1      -0.877   1.169   7.259  0.00  0.00     0.004 A 
ATOM     23  C   UNL d   1      -0.505   0.971   5.929  0.00  0.00     0.031 A 
ENDBRANCH   3  17
TORSDOF 4
