REMARK  3 active torsions:
REMARK  status: ('A' for Active; 'I' for Inactive)
REMARK    1  A    between atoms: C_7  and  S_1 
REMARK    2  A    between atoms: N_9  and  S_1 
REMARK    3  A    between atoms: C_2  and  C_7 
ROOT
ATOM      1  C   UNL d   1      -1.965   4.008   2.987  0.00  0.00     0.147 A 
ATOM      2  N   UNL d   1      -2.937   4.223   3.846  0.00  0.00    -0.336 N 
ATOM      3  HN  UNL d   1      -3.076   3.686   4.702  1.00  0.00     0.168 HD
ATOM      4  S   UNL d   1      -2.049   5.024   1.583  0.00  0.00    -0.052 SA
ATOM      5  N   UNL d   1       0.364   0.923   1.440  0.00  0.00    -0.209 NA
ATOM      6  N   UNL d   1      -0.988   3.069   3.156  0.00  0.00    -0.360 N 
ATOM      7  C   UNL d   1      -3.431   5.822   2.206  0.00  0.00     0.036 A 
ATOM      8  C   UNL d   1      -3.745   5.267   3.445  0.00  0.00     0.051 A 
ATOM      9  C   UNL d   1       0.480   2.424   1.262  0.00  0.00     0.127 C 
ATOM     10  C   UNL d   1      -4.175   6.871   1.639  0.00  0.00     0.045 A 
ATOM     11  C   UNL d   1       0.339   3.208   2.569  0.00  0.00     0.140 C 
ATOM     12  C   UNL d   1      -4.831   5.809   4.167  0.00  0.00     0.032 A 
ATOM     13  C   UNL d   1      -5.245   7.380   2.374  0.00  0.00     0.035 A 
ATOM     14  C   UNL d   1      -1.301   0.618   3.363  0.00  0.00     0.035 C 
ATOM     15  C   UNL d   1      -1.055   0.563   1.856  0.00  0.00     0.109 C 
ATOM     16  C   UNL d   1      -1.164   1.963   4.079  0.00  0.00     0.126 C 
ATOM     17  C   UNL d   1      -5.570   6.869   3.626  0.00  0.00     0.026 A 
ATOM     18 CL   UNL d   1      -6.175   8.674   1.719  0.00  0.00    -0.084 Cl
ENDROOT
BRANCH   5  19
ATOM     19  S   UNL d   1       0.762   0.079  -0.044  0.00  0.00     0.212 S 
ATOM     20  O   UNL d   1       0.679  -1.338   0.250  0.00  0.00    -0.211 OA
ATOM     21  O   UNL d   1      -0.076   0.681  -1.056  0.00  0.00    -0.211 OA
BRANCH  19  22
ATOM     22  C   UNL d   1       2.511   0.483  -0.295  0.00  0.00     0.175 C 
BRANCH  22  23
ATOM     23  C   UNL d   1       3.155  -0.133  -1.532  0.00  0.00     0.042 C 
ATOM     24  C   UNL d   1       4.686   0.159  -1.726  0.00  0.00    -0.028 C 
ATOM     25  C   UNL d   1       4.742  -0.608  -3.076  0.00  0.00     0.001 C 
ATOM     26  C   UNL d   1       5.623  -0.436  -0.657  0.00  0.00     0.016 C 
ATOM     27  C   UNL d   1       5.055   1.656  -1.837  0.00  0.00     0.016 C 
ATOM     28  C   UNL d   1       4.163  -1.997  -2.717  0.00  0.00     0.007 C 
ATOM     29  C   UNL d   1       3.698   0.107  -3.957  0.00  0.00     0.084 C 
ATOM     30  C   UNL d   1       3.077  -1.671  -1.667  0.00  0.00     0.019 C 
ATOM     31  C   UNL d   1       2.663   0.397  -2.886  0.00  0.00     0.137 C 
ATOM     32  O   UNL d   1       1.640   1.018  -3.099  0.00  0.00    -0.297 OA
ENDBRANCH  22  23
ENDBRANCH  19  22
ENDBRANCH   5  19
TORSDOF 3
