REMARK  3 active torsions:
REMARK  status: ('A' for Active; 'I' for Inactive)
REMARK    1  A    between atoms: C_2  and  N_1 
REMARK    2  A    between atoms: C_10  and  C_5 
REMARK    3  A    between atoms: O_15  and  C_10 
ROOT
ATOM      1  N   UNL d   1       1.879  -0.022  -0.035  0.00  0.00    -0.242 N 
ATOM      2  C   UNL d   1       1.097  -1.153  -0.086  0.00  0.00     0.266 A 
ATOM      3  C   UNL d   1       1.129   1.125   0.051  0.00  0.00     0.266 A 
ATOM      4  C   UNL d   1      -0.269   0.692   0.035  0.00  0.00     0.048 A 
ATOM      5  C   UNL d   1      -0.286  -0.691  -0.026  0.00  0.00     0.048 A 
ATOM      6  O   UNL d   1       1.462   2.296   0.102  0.00  0.00    -0.267 OA
ATOM      7  O   UNL d   1       1.411  -2.329  -0.121  0.00  0.00    -0.267 OA
ATOM      8  C   UNL d   1      -1.464  -1.412  -0.027  0.00  0.00     0.018 A 
ATOM      9  C   UNL d   1      -1.434   1.433   0.058  0.00  0.00     0.018 A 
ATOM     10  C   UNL d   1      -2.641   0.727   0.042  0.00  0.00     0.001 A 
ATOM     11  C   UNL d   1      -2.656  -0.684   0.009  0.00  0.00     0.001 A 
ENDROOT
BRANCH   1  12
ATOM     12  C   UNL d   1       3.266  -0.046  -0.154  0.00  0.00     0.075 A 
ATOM     13  C   UNL d   1       3.918  -0.683  -1.205  0.00  0.00     0.108 A 
ATOM     14  S   UNL d   1       5.619  -0.589  -1.037  0.00  0.00    -0.093 SA
ATOM     15  C   UNL d   1       5.496   0.335   0.388  0.00  0.00     0.059 A 
ATOM     16  C   UNL d   1       4.189   0.563   0.774  0.00  0.00    -0.026 A 
ATOM     17  C   UNL d   1       3.833   1.283   2.036  0.00  0.00     0.051 C 
BRANCH  13  18
ATOM     18  C   UNL d   1       3.310  -1.262  -2.393  0.00  0.00     0.302 C 
ATOM     19  O   UNL d   1       2.202  -0.958  -2.826  0.00  0.00    -0.259 OA
BRANCH  18  20
ATOM     20  O   UNL d   1       4.124  -2.190  -2.979  0.00  0.00    -0.322 OA
ATOM     21  C   UNL d   1       3.547  -2.809  -4.128  0.00  0.00     0.213 C 
ENDBRANCH  18  20
ENDBRANCH  13  18
ENDBRANCH   1  12
TORSDOF 3
