REMARK  2 active torsions:
REMARK  status: ('A' for Active; 'I' for Inactive)
REMARK    1  A    between atoms: C_2  and  C_1 
REMARK       I    between atoms: N_3  and  C_2 
REMARK    2  A    between atoms: C_4  and  N_3 
ROOT
ATOM      1  C   UNL d   1      -3.006   0.157   0.118  0.00  0.00     0.231 C 
ATOM      2  N   UNL d   1      -3.639   1.379  -0.007  0.00  0.00    -0.326 N 
ATOM      3  O   UNL d   1      -3.593  -0.902   0.342  0.00  0.00    -0.272 OA
ATOM      4  H   UNL d   1      -3.090   2.158  -0.345  0.00  0.00     0.169 HD
ENDROOT
BRANCH   1   5
ATOM      5  C   UNL d   1      -1.464   0.173  -0.018  0.00  0.00     0.042 C 
ATOM      6  C   UNL d   1      -0.805   0.963   1.137  0.00  0.00     0.024 C 
ATOM      7  C   UNL d   1       0.733   0.888   1.036  0.00  0.00    -0.013 C 
ATOM      8  C   UNL d   1       1.187  -0.580   1.103  0.00  0.00     0.009 C 
ATOM      9  C   UNL d   1       1.185   1.484  -0.308  0.00  0.00     0.009 C 
ATOM     10  C   UNL d   1       0.566  -1.373  -0.057  0.00  0.00    -0.013 C 
ATOM     11  C   UNL d   1      -0.960  -1.298   0.057  0.00  0.00     0.024 C 
ATOM     12  C   UNL d   1       0.994  -0.763  -1.399  0.00  0.00     0.009 C 
ATOM     13  C   UNL d   1       0.547   0.706  -1.473  0.00  0.00    -0.013 C 
ATOM     14  C   UNL d   1      -0.990   0.781  -1.358  0.00  0.00     0.024 C 
ENDBRANCH   1   5
BRANCH   2  15
ATOM     15  C   UNL d   1      -5.013   1.640   0.243  0.00  0.00     0.037 A 
ATOM     16  C   UNL d   1      -5.885   0.716   0.831  0.00  0.00     0.053 A 
ATOM     17  C   UNL d   1      -7.211   1.061   1.104  0.00  0.00     0.037 A 
ATOM     18 CL   UNL d   1      -8.254  -0.088   1.856  0.00  0.00    -0.084 Cl
ATOM     19  C   UNL d   1      -7.696   2.323   0.795  0.00  0.00     0.048 A 
ATOM     20  C   UNL d   1      -6.840   3.242   0.196  0.00  0.00     0.037 A 
ATOM     21  C   UNL d   1      -5.507   2.909  -0.080  0.00  0.00     0.053 A 
ATOM     22 CL   UNL d   1      -7.426   4.810  -0.200  0.00  0.00    -0.084 Cl
ENDBRANCH   2  15
TORSDOF 2
