REMARK  7 active torsions:
REMARK  status: ('A' for Active; 'I' for Inactive)
REMARK    1  A    between atoms: S_8  and  C_1 
REMARK    2  A    between atoms: C_9  and  S_8 
REMARK    3  A    between atoms: C_10  and  C_9 
REMARK    4  A    between atoms: C_13  and  C_10 
REMARK    5  A    between atoms: C_11  and  C_12 
REMARK    6  A    between atoms: C_12  and  C_14 
REMARK    7  A    between atoms: C_14  and  C_13 
ROOT
ATOM      1  C   UNL d   1      -2.648   0.352  -1.420  0.00  0.00     0.160 A 
ATOM      2  N   UNL d   1      -2.928  -0.617  -2.331  0.00  0.00    -0.331 N 
ATOM      3  N   UNL d   1      -1.940  -0.147  -0.437  0.00  0.00    -0.279 N 
ATOM      4  HN  UNL d   1      -1.601   0.357   0.382  1.00  0.00     0.189 HD
ATOM      5  N   UNL d   1      -1.739  -1.485  -0.719  0.00  0.00    -0.294 N 
ATOM      6  HN  UNL d   1      -1.222  -2.150  -0.144  1.00  0.00     0.187 HD
ATOM      7  C   UNL d   1      -2.334  -1.746  -1.861  0.00  0.00     0.199 A 
ATOM      8  H   UNL d   1      -3.463  -0.500  -3.178  0.00  0.00     0.168 HD
ENDROOT
BRANCH   1   9
ATOM      9  S   UNL d   1      -3.202   1.956  -1.668  0.00  0.00    -0.092 SA
BRANCH   9  10
ATOM     10  C   UNL d   1      -2.702   2.754  -0.108  0.00  0.00     0.082 C 
BRANCH  10  11
ATOM     11  C   UNL d   1      -3.191   4.206  -0.046  0.00  0.00     0.010 C 
BRANCH  11  12
ATOM     12  C   UNL d   1      -4.718   4.327   0.005  0.00  0.00     0.001 C 
BRANCH  12  13
ATOM     13  C   UNL d   1      -5.180   5.785   0.013  0.00  0.00     0.000 C 
BRANCH  13  14
ATOM     14  C   UNL d   1      -6.709   5.857   0.000  0.00  0.00    -0.000 C 
BRANCH  14  15
ATOM     15  C   UNL d   1      -7.210   7.298  -0.010  0.00  0.00    -0.005 C 
ATOM     16  C   UNL d   1      -8.730   7.349  -0.020  0.00  0.00     0.005 C 
ENDBRANCH  14  15
ENDBRANCH  13  14
ENDBRANCH  12  13
ENDBRANCH  11  12
ENDBRANCH  10  11
ENDBRANCH   9  10
ENDBRANCH   1   9
TORSDOF 7
