REMARK  3 active torsions:
REMARK  status: ('A' for Active; 'I' for Inactive)
REMARK    1  A    between atoms: C_7  and  C_1 
REMARK    2  A    between atoms: S_14  and  C_8 
REMARK    3  A    between atoms: C_13  and  C_9 
ROOT
ATOM      1  C   UNL d   1      -0.222   1.240  -0.213  0.00  0.00     0.165 A 
ATOM      2  N   UNL d   1      -0.750   0.057  -0.256  0.00  0.00    -0.331 N 
ATOM      3  HN  UNL d   1      -1.737  -0.198  -0.295  1.00  0.00     0.168 HD
ATOM      4  O   UNL d   1       1.127   1.315  -0.172  0.00  0.00    -0.255 OA
ATOM      5  C   UNL d   1       0.343  -0.767  -0.234  0.00  0.00     0.111 A 
ATOM      6  C   UNL d   1       1.593   0.034  -0.204  0.00  0.00     0.316 A 
ATOM      7  C   UNL d   1       0.345  -2.103  -0.164  0.00  0.00     0.047 C 
ATOM      8  O   UNL d   1       2.747  -0.341  -0.173  0.00  0.00    -0.257 OA
ENDROOT
BRANCH   1   9
ATOM      9  C   UNL d   1      -0.980   2.493  -0.074  0.00  0.00     0.049 A 
ATOM     10  C   UNL d   1      -0.550   3.769  -0.446  0.00  0.00     0.083 A 
ATOM     11  N   UNL d   1      -1.310   4.873  -0.203  0.00  0.00    -0.360 N 
ATOM     12  C   UNL d   1      -2.507   4.717   0.401  0.00  0.00     0.089 A 
ATOM     13  HN  UNL d   1      -0.981   5.800  -0.473  1.00  0.00     0.166 HD
ATOM     14  C   UNL d   1      -3.020   3.493   0.773  0.00  0.00     0.018 A 
ATOM     15  C   UNL d   1      -2.246   2.368   0.525  0.00  0.00     0.020 A 
BRANCH  10  16
ATOM     16  S   UNL d   1       0.979   4.085  -1.323  0.00  0.00    -0.116 SA
ATOM     17  C   UNL d   1       0.956   5.897  -1.428  0.00  0.00     0.097 C 
ENDBRANCH  10  16
ENDBRANCH   1   9
BRANCH   7  18
ATOM     18  C   UNL d   1      -0.884  -2.895  -0.103  0.00  0.00    -0.034 A 
ATOM     19  C   UNL d   1      -1.409  -3.471  -1.264  0.00  0.00     0.013 A 
ATOM     20  C   UNL d   1      -2.588  -4.219  -1.207  0.00  0.00     0.024 A 
ATOM     21  C   UNL d   1      -3.242  -4.389   0.012  0.00  0.00     0.034 A 
ATOM     22  C   UNL d   1      -2.729  -3.817   1.174  0.00  0.00     0.024 A 
ATOM     23 CL   UNL d   1      -4.693  -5.311   0.084  0.00  0.00    -0.084 Cl
ATOM     24  C   UNL d   1      -1.551  -3.067   1.117  0.00  0.00     0.013 A 
ENDBRANCH   7  18
TORSDOF 3
