REMARK  7 active torsions:
REMARK  status: ('A' for Active; 'I' for Inactive)
REMARK    1  A    between atoms: O_11  and  C_1 
REMARK    2  A    between atoms: C_3  and  C_2 
REMARK       I    between atoms: N_8  and  C_3 
REMARK    3  A    between atoms: O_13  and  C_4 
REMARK    4  A    between atoms: O_12  and  C_5 
REMARK    5  A    between atoms: C_10  and  N_8 
REMARK    6  A    between atoms: C_14  and  C_10 
REMARK    7  A    between atoms: O_20  and  C_15 
ROOT
ATOM      1  C   UNL d   1      -2.756   0.501  -0.164  0.00  0.00     0.252 C 
ATOM      2  N   UNL d   1      -3.212   1.797  -0.131  0.00  0.00    -0.353 N 
ATOM      3  O   UNL d   1      -3.517  -0.458  -0.306  0.00  0.00    -0.268 OA
ATOM      4  H   UNL d   1      -2.593   2.569   0.071  0.00  0.00     0.163 HD
ENDROOT
BRANCH   1   5
ATOM      5  C   UNL d   1      -1.289   0.246  -0.060  0.00  0.00     0.037 A 
ATOM      6  C   UNL d   1      -0.314   1.244  -0.069  0.00  0.00     0.057 A 
ATOM      7  C   UNL d   1       1.056   0.922  -0.091  0.00  0.00     0.105 A 
ATOM      8  C   UNL d   1       1.457  -0.427  -0.084  0.00  0.00     0.135 A 
ATOM      9  C   UNL d   1       0.477  -1.437   0.032  0.00  0.00     0.105 A 
ATOM     10  C   UNL d   1      -0.877  -1.092  -0.006  0.00  0.00     0.057 A 
BRANCH   7  11
ATOM     11  O   UNL d   1       1.832   2.053  -0.134  0.00  0.00    -0.353 OA
ATOM     12  C   UNL d   1       3.245   1.935  -0.175  0.00  0.00     0.210 C 
ENDBRANCH   7  11
BRANCH   8  13
ATOM     13  O   UNL d   1       2.795  -0.732  -0.089  0.00  0.00    -0.351 OA
ATOM     14  C   UNL d   1       3.196  -1.677  -1.085  0.00  0.00     0.210 C 
ENDBRANCH   8  13
BRANCH   9  15
ATOM     15  O   UNL d   1       0.908  -2.735   0.173  0.00  0.00    -0.353 OA
ATOM     16  C   UNL d   1      -0.041  -3.669   0.681  0.00  0.00     0.210 C 
ENDBRANCH   9  15
ENDBRANCH   1   5
BRANCH   2  17
ATOM     17  C   UNL d   1      -4.596   2.112  -0.417  0.00  0.00     0.161 C 
BRANCH  17  18
ATOM     18  C   UNL d   1      -5.444   2.292   0.816  0.00  0.00    -0.040 A 
ATOM     19  C   UNL d   1      -6.051   3.525   1.093  0.00  0.00     0.011 A 
ATOM     20  C   UNL d   1      -6.904   3.676   2.195  0.00  0.00     0.037 A 
ATOM     21  C   UNL d   1      -7.159   2.598   3.040  0.00  0.00     0.068 A 
ATOM     22  C   UNL d   1      -6.552   1.369   2.774  0.00  0.00     0.037 A 
ATOM     23  C   UNL d   1      -5.706   1.214   1.673  0.00  0.00     0.011 A 
BRANCH  21  24
ATOM     24  O   UNL d   1      -7.970   2.610   4.141  0.00  0.00    -0.356 OA
ATOM     25  C   UNL d   1      -8.634   3.831   4.439  0.00  0.00     0.210 C 
ENDBRANCH  21  24
ENDBRANCH  17  18
ENDBRANCH   2  17
TORSDOF 7
