REMARK  4 active torsions:
REMARK  status: ('A' for Active; 'I' for Inactive)
REMARK    1  A    between atoms: C_5  and  C_1 
REMARK    2  A    between atoms: N_3  and  C_2 
REMARK       I    between atoms: N_19  and  C_5 
REMARK    3  A    between atoms: C_11  and  C_18 
REMARK    4  A    between atoms: N_13  and  N_19 
ROOT
ATOM      1  C   UNL d   1       0.185  -2.656  -0.073  0.00  0.00     0.288 C 
ATOM      2  N   UNL d   1      -0.835  -3.595  -0.052  0.00  0.00    -0.265 N 
ATOM      3  O   UNL d   1       0.006  -1.450  -0.223  0.00  0.00    -0.264 OA
ATOM      4  H   UNL d   1      -0.612  -4.581  -0.097  0.00  0.00     0.190 HD
ENDROOT
BRANCH   2   5
ATOM      5  N   UNL d   1      -2.138  -3.193  -0.115  0.00  0.00    -0.308 N 
ATOM      6  C   UNL d   1      -3.031  -4.132  -0.101  0.00  0.00     0.126 C 
ATOM      7  HN  UNL d   1      -2.394  -2.207  -0.171  1.00  0.00     0.186 HD
BRANCH   6   8
ATOM      8  C   UNL d   1      -4.430  -3.781  -0.151  0.00  0.00     0.024 A 
ATOM      9  S   UNL d   1      -5.622  -5.007  -0.105  0.00  0.00    -0.065 SA
ATOM     10  C   UNL d   1      -6.881  -3.865  -0.172  0.00  0.00     0.144 A 
ATOM     11  C   UNL d   1      -6.421  -2.568  -0.243  0.00  0.00     0.045 A 
ATOM     12  C   UNL d   1      -4.995  -2.523  -0.231  0.00  0.00     0.023 A 
BRANCH  10  13
ATOM     13  N   UNL d   1      -8.259  -4.284  -0.151  0.00  0.00    -0.108 N 
ATOM     14  O   UNL d   1      -9.107  -3.383  -0.188  0.00  0.00    -0.531 OA
ATOM     15  O   UNL d   1      -8.503  -5.496  -0.098  0.00  0.00    -0.531 OA
ENDBRANCH  10  13
ENDBRANCH   6   8
ENDBRANCH   2   5
BRANCH   1  16
ATOM     16  C   UNL d   1       1.515  -3.206   0.028  0.00  0.00     0.125 A 
ATOM     17  C   UNL d   1       2.055  -4.344   0.612  0.00  0.00     0.038 A 
ATOM     18  N   UNL d   1       3.415  -4.396   0.393  0.00  0.00    -0.354 N 
ATOM     19  C   UNL d   1       1.437  -5.419   1.424  0.00  0.00     0.071 C 
ATOM     20  C   UNL d   1       3.716  -3.300  -0.259  0.00  0.00     0.181 A 
ATOM     21  HN  UNL d   1       4.056  -5.137   0.679  1.00  0.00     0.166 HD
ATOM     22  N   UNL d   1       2.611  -2.538  -0.477  0.00  0.00    -0.346 N 
ATOM     23  H   UNL d   1       2.576  -1.639  -0.942  0.00  0.00     0.167 HD
ENDBRANCH   1  16
TORSDOF 4
