REMARK  3 active torsions:
REMARK  status: ('A' for Active; 'I' for Inactive)
REMARK    1  A    between atoms: N_2  and  S_1 
REMARK    2  A    between atoms: C_5  and  S_1 
REMARK       I    between atoms: C_4  and  N_2 
REMARK       I    between atoms: N_6  and  C_4 
REMARK    3  A    between atoms: C_11  and  N_6 
ROOT
ATOM      1  N   UNL d   1       0.743  -0.328   1.351  0.00  0.00    -0.265 N 
ATOM      2  HN  UNL d   1       0.111   0.182   1.968  1.00  0.00     0.180 HD
ATOM      3  C   UNL d   1       1.092  -1.629   1.701  0.00  0.00     0.332 C 
ATOM      4  N   UNL d   1       0.673  -2.591   0.827  0.00  0.00    -0.308 N 
ATOM      5  O   UNL d   1       1.713  -1.853   2.735  0.00  0.00    -0.246 OA
ATOM      6  H   UNL d   1       0.382  -2.224  -0.070  0.00  0.00     0.170 HD
ENDROOT
BRANCH   1   7
ATOM      7  S   UNL d   1       1.250   0.384   0.095  0.00  0.00     0.056 S 
ATOM      8  O   UNL d   1       1.124  -0.194  -1.230  0.00  0.00    -0.245 OA
ATOM      9  C   UNL d   1       2.946   0.875   0.311  0.00  0.00     0.142 C 
BRANCH   7  10
ATOM     10  C   UNL d   1       0.470   1.991   0.057  0.00  0.00     0.038 A 
ATOM     11  C   UNL d   1       0.174   2.635   1.262  0.00  0.00     0.022 A 
ATOM     12  C   UNL d   1      -0.175   3.984   1.249  0.00  0.00     0.008 A 
ATOM     13  C   UNL d   1      -0.231   4.690   0.039  0.00  0.00    -0.062 A 
ATOM     14  C   UNL d   1      -0.006   4.010  -1.166  0.00  0.00     0.008 A 
ATOM     15  C   UNL d   1      -0.458   6.174   0.056  0.00  0.00     0.048 C 
ATOM     16  C   UNL d   1       0.339   2.657  -1.162  0.00  0.00     0.022 A 
ENDBRANCH   7  10
ENDBRANCH   1   7
BRANCH   4  17
ATOM     17  C   UNL d   1       0.474  -3.963   1.063  0.00  0.00     0.036 A 
ATOM     18  C   UNL d   1       0.482  -4.537   2.339  0.00  0.00     0.031 A 
ATOM     19  C   UNL d   1       0.109  -5.877   2.513  0.00  0.00     0.026 A 
ATOM     20  C   UNL d   1      -0.250  -6.651   1.414  0.00  0.00     0.034 A 
ATOM     21  C   UNL d   1      -0.215  -6.106   0.134  0.00  0.00     0.026 A 
ATOM     22 CL   UNL d   1      -0.760  -8.279   1.638  0.00  0.00    -0.084 Cl
ATOM     23  C   UNL d   1       0.141  -4.764  -0.038  0.00  0.00     0.031 A 
ENDBRANCH   4  17
TORSDOF 3
