REMARK  5 active torsions:
REMARK  status: ('A' for Active; 'I' for Inactive)
REMARK    1  A    between atoms: C_3  and  S_1 
REMARK    2  A    between atoms: C_4  and  S_1 
REMARK    3  A    between atoms: C_2  and  C_5 
REMARK    4  A    between atoms: C_8  and  C_3 
REMARK    5  A    between atoms: O_18  and  C_8 
ROOT
ATOM      1  C   UNL d   1       0.422   0.464   1.656  0.00  0.00     0.128 A 
ATOM      2  C   UNL d   1      -0.383   0.915   4.224  0.00  0.00     0.063 A 
ATOM      3  N   UNL d   1       0.015  -0.614   2.380  0.00  0.00    -0.356 N 
ATOM      4  HN  UNL d   1      -0.000  -1.555   1.989  1.00  0.00     0.166 HD
ATOM      5  C   UNL d   1      -0.367  -0.355   3.655  0.00  0.00     0.105 A 
ATOM      6  C   UNL d   1       0.011   1.995   3.422  0.00  0.00     0.020 A 
ATOM      7  C   UNL d   1       0.430   1.771   2.115  0.00  0.00     0.043 A 
ENDROOT
BRANCH   1   8
ATOM      8  S   UNL d   1       1.018   0.076   0.021  0.00  0.00     0.200 S 
ATOM      9  O   UNL d   1       1.294   1.328  -0.669  0.00  0.00    -0.221 OA
ATOM     10  O   UNL d   1       2.091  -0.894   0.173  0.00  0.00    -0.221 OA
BRANCH   8  11
ATOM     11  C   UNL d   1      -0.304  -0.716  -0.821  0.00  0.00     0.258 C 
BRANCH  11  12
ATOM     12  C   UNL d   1      -1.477   0.195  -0.907  0.00  0.00     0.272 C 
ATOM     13  O   UNL d   1      -1.819   1.005  -0.056  0.00  0.00    -0.264 OA
BRANCH  12  14
ATOM     14  O   UNL d   1      -2.176  -0.043  -2.055  0.00  0.00    -0.326 OA
ATOM     15  C   UNL d   1      -3.319   0.801  -2.218  0.00  0.00     0.213 C 
ENDBRANCH  12  14
ENDBRANCH  11  12
ENDBRANCH   8  11
ENDBRANCH   1   8
BRANCH   2  16
ATOM     16  C   UNL d   1      -0.791   1.123   5.652  0.00  0.00     0.418 C 
ATOM     17  F   UNL d   1      -1.122  -0.027   6.300  0.00  0.00    -0.166 F 
ATOM     18  F   UNL d   1       0.195   1.698   6.393  0.00  0.00    -0.166 F 
ATOM     19  F   UNL d   1      -1.871   1.944   5.770  0.00  0.00    -0.166 F 
ENDBRANCH   2  16
TORSDOF 5
