REMARK  5 active torsions:
REMARK  status: ('A' for Active; 'I' for Inactive)
REMARK    1  A    between atoms: C_8  and  C_1 
REMARK    2  A    between atoms: C_4  and  C_2 
REMARK    3  A    between atoms: S_7  and  C_3 
REMARK    4  A    between atoms: C_12  and  S_7 
REMARK    5  A    between atoms: O_19  and  C_8 
ROOT
ATOM      1  C   UNL d   1      -0.043  -1.483   0.004  0.00  0.00     0.086 A 
ATOM      2  C   UNL d   1       1.164  -0.804   0.002  0.00  0.00     0.136 A 
ATOM      3  C   UNL d   1       0.031   1.240  -0.026  0.00  0.00     0.150 A 
ATOM      4  N   UNL d   1       1.193   0.568   0.018  0.00  0.00    -0.332 N 
ATOM      5  HN  UNL d   1       2.081   1.068   0.061  1.00  0.00     0.168 HD
ATOM      6  N   UNL d   1      -1.173   0.654  -0.006  0.00  0.00    -0.345 N 
ATOM      7  HN  UNL d   1      -2.037   1.197   0.014  1.00  0.00     0.167 HD
ATOM      8  C   UNL d   1      -1.179  -0.696  -0.013  0.00  0.00     0.110 A 
ENDROOT
BRANCH   3   9
ATOM      9  S   UNL d   1       0.100   3.006   0.002  0.00  0.00    -0.036 SA
BRANCH   9  10
ATOM     10  C   UNL d   1       0.258   3.384  -1.734  0.00  0.00     0.077 A 
ATOM     11  N   UNL d   1       0.140   2.389  -2.644  0.00  0.00    -0.360 N 
ATOM     12  C   UNL d   1       0.244   2.723  -3.950  0.00  0.00     0.089 A 
ATOM     13  HN  UNL d   1      -0.021   1.424  -2.356  1.00  0.00     0.166 HD
ATOM     14  C   UNL d   1       0.462   4.011  -4.403  0.00  0.00     0.017 A 
ATOM     15  C   UNL d   1       0.583   5.023  -3.460  0.00  0.00     0.004 A 
ATOM     16  C   UNL d   1       0.480   4.707  -2.106  0.00  0.00     0.037 A 
ENDBRANCH   9  10
ENDBRANCH   3   9
BRANCH   2  17
ATOM     17  C   UNL d   1       2.523  -1.468  -0.075  0.00  0.00     0.433 C 
ATOM     18  F   UNL d   1       2.532  -2.817  -0.253  0.00  0.00    -0.165 F 
ATOM     19  F   UNL d   1       3.267  -0.990  -1.118  0.00  0.00    -0.165 F 
ATOM     20  F   UNL d   1       3.274  -1.239   1.042  0.00  0.00    -0.165 F 
ENDBRANCH   2  17
BRANCH   1  21
ATOM     21  C   UNL d   1      -0.258  -2.936  -0.027  0.00  0.00     0.296 C 
ATOM     22  O   UNL d   1      -1.130  -3.453  -0.701  0.00  0.00    -0.259 OA
BRANCH  21  23
ATOM     23  O   UNL d   1       0.551  -3.559   0.857  0.00  0.00    -0.322 OA
ATOM     24  C   UNL d   1       0.453  -4.988   0.821  0.00  0.00     0.213 C 
ENDBRANCH  21  23
ENDBRANCH   1  21
TORSDOF 5
