REMARK  4 active torsions:
REMARK  status: ('A' for Active; 'I' for Inactive)
REMARK    1  A    between atoms: C_2  and  C_1 
REMARK    2  A    between atoms: O_8  and  C_1 
REMARK    3  A    between atoms: C_14  and  O_8 
REMARK    4  A    between atoms: C_11  and  C_10 
ROOT
ATOM      1  C   UNL d   1       1.026  -0.169   0.046  0.00  0.00     0.277 C 
ATOM      2  O   UNL d   1       2.228  -0.350  -0.125  0.00  0.00    -0.264 OA
ENDROOT
BRANCH   1   3
ATOM      3  C   UNL d   1       0.466   0.972   0.889  0.00  0.00     0.157 C 
ATOM      4  C   UNL d   1      -0.304   0.486   2.100  0.00  0.00    -0.006 A 
ATOM      5  C   UNL d   1      -1.485   1.131   2.476  0.00  0.00     0.083 A 
ATOM      6  C   UNL d   1       0.189  -0.546   2.917  0.00  0.00     0.011 A 
ATOM      7  C   UNL d   1      -2.147   0.774   3.654  0.00  0.00     0.038 A 
ATOM      8  O   UNL d   1      -2.068   2.139   1.752  0.00  0.00    -0.310 OA
ATOM      9  C   UNL d   1      -1.647  -0.247   4.458  0.00  0.00     0.003 A 
ATOM     10  C   UNL d   1      -0.485  -0.916   4.083  0.00  0.00     0.001 A 
ATOM     11  C   UNL d   1      -1.504   2.510   0.557  0.00  0.00     0.083 A 
ATOM     12  C   UNL d   1      -0.301   1.990   0.071  0.00  0.00    -0.006 A 
ATOM     13  C   UNL d   1      -2.202   3.484  -0.162  0.00  0.00     0.038 A 
ATOM     14  C   UNL d   1       0.208   2.494  -1.139  0.00  0.00     0.011 A 
ATOM     15  C   UNL d   1      -0.491   3.468  -1.855  0.00  0.00     0.001 A 
ATOM     16  C   UNL d   1      -1.698   3.960  -1.370  0.00  0.00     0.003 A 
ENDBRANCH   1   3
BRANCH   1  17
ATOM     17  O   UNL d   1      -0.003  -0.964  -0.464  0.00  0.00    -0.278 OA
BRANCH  17  18
ATOM     18  C   UNL d   1       0.247  -2.108  -1.254  0.00  0.00     0.079 A 
ATOM     19  C   UNL d   1      -0.702  -3.123  -1.157  0.00  0.00     0.038 A 
ATOM     20  C   UNL d   1      -0.578  -4.273  -1.948  0.00  0.00     0.015 A 
ATOM     21  C   UNL d   1       0.482  -4.427  -2.862  0.00  0.00    -0.026 A 
ATOM     22  C   UNL d   1       1.424  -3.381  -2.930  0.00  0.00     0.015 A 
ATOM     23  C   UNL d   1       1.310  -2.229  -2.139  0.00  0.00     0.038 A 
BRANCH  21  24
ATOM     24  C   UNL d   1       0.582  -5.617  -3.744  0.00  0.00    -0.026 A 
ATOM     25  C   UNL d   1       1.826  -6.166  -4.109  0.00  0.00     0.012 A 
ATOM     26  C   UNL d   1       1.918  -7.262  -4.976  0.00  0.00     0.001 A 
ATOM     27  C   UNL d   1       0.764  -7.846  -5.488  0.00  0.00     0.000 A 
ATOM     28  C   UNL d   1      -0.480  -7.335  -5.133  0.00  0.00     0.001 A 
ATOM     29  C   UNL d   1      -0.567  -6.233  -4.276  0.00  0.00     0.012 A 
ENDBRANCH  21  24
ENDBRANCH  17  18
ENDBRANCH   1  17
TORSDOF 4
