REMARK  10 active torsions:
REMARK  status: ('A' for Active; 'I' for Inactive)
REMARK    1  A    between atoms: C_6  and  S_1 
REMARK    2  A    between atoms: N_12  and  S_1 
REMARK    3  A    between atoms: C_3  and  O_9 
REMARK    4  A    between atoms: O_9  and  C_19 
REMARK       I    between atoms: C_10  and  N_11 
REMARK    5  A    between atoms: N_11  and  C_14 
REMARK    6  A    between atoms: C_29  and  N_12 
REMARK    7  A    between atoms: C_20  and  O_26 
REMARK    8  A    between atoms: C_25  and  C_29 
REMARK    9  A    between atoms: C_33  and  C_25 
REMARK   10  A    between atoms: O_26  and  C_33 
ROOT
ATOM      1  C   UNL d   1      -0.707   6.800   4.061  0.00  0.00     0.100 A 
ATOM      2  C   UNL d   1      -0.086   5.557   3.849  0.00  0.00     0.098 A 
ATOM      3  C   UNL d   1      -2.139   6.913   4.019  0.00  0.00     0.104 C 
ATOM      4  N   UNL d   1      -3.294   7.012   4.005  0.00  0.00    -0.191 NA
ATOM      5  C   UNL d   1       0.093   7.920   4.335  0.00  0.00     0.057 A 
ATOM      6 CL   UNL d   1      -0.576   9.496   4.579  0.00  0.00    -0.083 Cl
ATOM      7  C   UNL d   1       1.302   5.431   4.012  0.00  0.00     0.039 A 
ATOM      8  C   UNL d   1       2.087   6.550   4.271  0.00  0.00     0.005 A 
ATOM      9  C   UNL d   1       1.485   7.796   4.420  0.00  0.00     0.025 A 
ENDROOT
BRANCH   2  10
ATOM     10  O   UNL d   1      -0.886   4.473   3.541  0.00  0.00    -0.309 OA
BRANCH  10  11
ATOM     11  C   UNL d   1      -0.400   3.482   2.713  0.00  0.00     0.076 A 
ATOM     12  C   UNL d   1      -0.839   2.184   2.986  0.00  0.00     0.039 A 
ATOM     13  C   UNL d   1      -0.413   1.112   2.196  0.00  0.00     0.028 A 
ATOM     14  C   UNL d   1       0.452   1.347   1.123  0.00  0.00     0.079 A 
ATOM     15  C   UNL d   1       0.875   2.646   0.826  0.00  0.00     0.028 A 
ATOM     16  C   UNL d   1       0.432   3.715   1.611  0.00  0.00     0.039 A 
BRANCH  14  17
ATOM     17  S   UNL d   1       0.926   0.011   0.048  0.00  0.00     0.258 S 
ATOM     18  O   UNL d   1       0.622   0.432  -1.301  0.00  0.00    -0.201 OA
ATOM     19  O   UNL d   1       0.413  -1.224   0.603  0.00  0.00    -0.201 OA
BRANCH  17  20
ATOM     20  N   UNL d   1       2.604  -0.024   0.173  0.00  0.00    -0.315 N 
ATOM     21  H   UNL d   1       3.015   0.749  -0.346  0.00  0.00     0.172 HD
BRANCH  20  22
ATOM     22  C   UNL d   1       3.228  -0.468   1.428  0.00  0.00     0.134 C 
BRANCH  22  23
ATOM     23  C   UNL d   1       4.762  -0.453   1.317  0.00  0.00     0.047 C 
BRANCH  23  24
ATOM     24  C   UNL d   1       5.252   0.971   1.110  0.00  0.00     0.177 C 
BRANCH  24  25
ATOM     25  O   UNL d   1       6.678   1.106   1.113  0.00  0.00    -0.351 OA
BRANCH  25  26
ATOM     26  C   UNL d   1       7.092   2.382   0.782  0.00  0.00     0.070 A 
ATOM     27  C   UNL d   1       6.217   3.458   0.582  0.00  0.00     0.066 A 
ATOM     28  C   UNL d   1       6.655   4.715   0.179  0.00  0.00     0.037 A 
ATOM     29  C   UNL d   1       8.028   4.919   0.038  0.00  0.00     0.029 A 
ATOM     30  C   UNL d   1       8.925   3.864   0.269  0.00  0.00     0.005 A 
ATOM     31  C   UNL d   1       8.457   2.595   0.629  0.00  0.00     0.037 A 
BRANCH  28  32
ATOM     32  N   UNL d   1       5.754   5.769  -0.108  0.00  0.00    -0.327 N 
ATOM     33  C   UNL d   1       4.366   5.706  -0.076  0.00  0.00     0.218 C 
ATOM     34  O   UNL d   1       3.672   4.747   0.255  0.00  0.00    -0.274 OA
ATOM     35  C   UNL d   1       3.689   6.980  -0.503  0.00  0.00     0.117 C 
ATOM     36  H   UNL d   1       6.176   6.638  -0.417  0.00  0.00     0.169 HD
ENDBRANCH  28  32
ENDBRANCH  25  26
ENDBRANCH  24  25
ENDBRANCH  23  24
ENDBRANCH  22  23
ENDBRANCH  20  22
ENDBRANCH  17  20
ENDBRANCH  14  17
ENDBRANCH  10  11
ENDBRANCH   2  10
TORSDOF 10
