REMARK  3 active torsions:
REMARK  status: ('A' for Active; 'I' for Inactive)
REMARK    1  A    between atoms: C_11  and  C_3 
REMARK    2  A    between atoms: C_12  and  C_4 
REMARK    3  A    between atoms: C_14  and  C_10 
ROOT
ATOM      1  C   UNL d   1       0.279  -0.770   0.052  0.00  0.00     0.144 A 
ATOM      2  N   UNL d   1       0.274   0.613   0.025  0.00  0.00    -0.202 N 
ATOM      3  C   UNL d   1       2.345   0.068  -0.019  0.00  0.00     0.147 A 
ATOM      4  C   UNL d   1       1.604  -1.169   0.029  0.00  0.00     0.053 A 
ATOM      5  N   UNL d   1       1.519   1.135   0.014  0.00  0.00    -0.284 N 
ATOM      6  HN  UNL d   1       1.779   2.121   0.028  1.00  0.00     0.187 HD
ATOM      7  N   UNL d   1      -0.926  -1.401   0.081  0.00  0.00    -0.339 N 
ATOM      8  C   UNL d   1      -0.880   1.417  -0.001  0.00  0.00     0.270 A 
ATOM      9  C   UNL d   1      -2.153   0.658  -0.009  0.00  0.00     0.106 A 
ATOM     10  C   UNL d   1      -2.109  -0.686   0.035  0.00  0.00     0.049 A 
ATOM     11  O   UNL d   1      -0.828   2.639  -0.024  0.00  0.00    -0.266 OA
ATOM     12  H   UNL d   1      -1.016  -2.412   0.167  0.00  0.00     0.167 HD
ENDROOT
BRANCH   4  13
ATOM     13  C   UNL d   1       2.065  -2.554  -0.013  0.00  0.00    -0.020 A 
ATOM     14  C   UNL d   1       3.207  -2.950   0.698  0.00  0.00     0.012 A 
ATOM     15  C   UNL d   1       3.734  -4.237   0.548  0.00  0.00     0.001 A 
ATOM     16  C   UNL d   1       3.093  -5.163  -0.268  0.00  0.00     0.000 A 
ATOM     17  C   UNL d   1       1.923  -4.806  -0.932  0.00  0.00     0.001 A 
ATOM     18  C   UNL d   1       1.420  -3.506  -0.816  0.00  0.00     0.012 A 
ENDBRANCH   4  13
BRANCH   3  19
ATOM     19  C   UNL d   1       3.837   0.293  -0.117  0.00  0.00     0.434 C 
ATOM     20  F   UNL d   1       4.549  -0.833  -0.381  0.00  0.00    -0.165 F 
ATOM     21  F   UNL d   1       4.161   1.171  -1.105  0.00  0.00    -0.165 F 
ATOM     22  F   UNL d   1       4.345   0.799   1.040  0.00  0.00    -0.165 F 
ENDBRANCH   3  19
BRANCH  10  23
ATOM     23  C   UNL d   1      -3.380  -1.421   0.028  0.00  0.00    -0.009 A 
ATOM     24  C   UNL d   1      -3.985  -1.784  -1.182  0.00  0.00     0.013 A 
ATOM     25  C   UNL d   1      -5.236  -2.404  -1.185  0.00  0.00     0.001 A 
ATOM     26  C   UNL d   1      -5.888  -2.666   0.019  0.00  0.00     0.000 A 
ATOM     27  C   UNL d   1      -5.286  -2.316   1.229  0.00  0.00     0.001 A 
ATOM     28  C   UNL d   1      -4.037  -1.696   1.236  0.00  0.00     0.013 A 
ENDBRANCH  10  23
TORSDOF 3
