REMARK  5 active torsions:
REMARK  status: ('A' for Active; 'I' for Inactive)
REMARK    1  A    between atoms: C_7  and  O_14 
REMARK    2  A    between atoms: C_12  and  N_9 
REMARK    3  A    between atoms: C_10  and  C_12 
REMARK    4  A    between atoms: C_13  and  C_10 
REMARK    5  A    between atoms: O_14  and  C_27 
ROOT
ATOM      1  C   UNL d   1       2.859  -0.917   0.212  0.00  0.00     0.148 A 
ATOM      2  N   UNL d   1       1.815  -1.234  -0.533  0.00  0.00    -0.335 N 
ATOM      3  HN  UNL d   1       1.790  -2.023  -1.179  1.00  0.00     0.168 HD
ATOM      4  S   UNL d   1       2.613   0.512   1.159  0.00  0.00    -0.052 SA
ATOM      5  N   UNL d   1       4.010  -1.647   0.222  0.00  0.00    -0.358 N 
ATOM      6  C   UNL d   1       0.759  -0.362  -0.328  0.00  0.00     0.053 A 
ATOM      7  C   UNL d   1       1.011   0.674   0.568  0.00  0.00     0.035 A 
ATOM      8  N   UNL d   1       5.791  -3.934   0.813  0.00  0.00     0.099 N 
ATOM      9  C   UNL d   1      -0.511  -0.446  -0.936  0.00  0.00     0.054 A 
ATOM     10  C   UNL d   1       4.237  -2.671  -0.801  0.00  0.00     0.155 C 
ATOM     11  C   UNL d   1       5.094  -1.474   1.187  0.00  0.00     0.155 C 
ATOM     12  C   UNL d   1       0.042   1.643   0.878  0.00  0.00     0.023 A 
ATOM     13  C   UNL d   1      -1.481   0.508  -0.624  0.00  0.00     0.036 A 
ATOM     14  C   UNL d   1       5.506  -2.847   1.783  0.00  0.00     0.292 C 
ATOM     15  C   UNL d   1       4.647  -4.010  -0.139  0.00  0.00     0.292 C 
ATOM     16  C   UNL d   1      -1.212   1.542   0.268  0.00  0.00     0.025 A 
ATOM     17 CL   UNL d   1      -3.040   0.401  -1.349  0.00  0.00    -0.084 Cl
ENDROOT
BRANCH   8  18
ATOM     18  C   UNL d   1       7.056  -3.756   0.073  0.00  0.00     0.356 C 
BRANCH  18  19
ATOM     19  C   UNL d   1       8.287  -3.635   0.966  0.00  0.00     0.187 C 
ATOM     20  O   UNL d   1       8.918  -2.574   1.003  0.00  0.00    -0.290 OA
BRANCH  19  21
ATOM     21  C   UNL d   1       8.775  -4.784   1.793  0.00  0.00     0.012 A 
ATOM     22  C   UNL d   1       8.018  -5.933   2.041  0.00  0.00     0.018 A 
ATOM     23  C   UNL d   1       8.479  -6.902   2.945  0.00  0.00     0.038 A 
ATOM     24  C   UNL d   1       9.688  -6.721   3.619  0.00  0.00     0.078 A 
ATOM     25  C   UNL d   1      10.494  -5.631   3.294  0.00  0.00     0.038 A 
ATOM     26  C   UNL d   1      10.038  -4.665   2.394  0.00  0.00     0.018 A 
BRANCH  24  27
ATOM     27  O   UNL d   1      10.193  -7.574   4.551  0.00  0.00    -0.255 OA
BRANCH  27  28
ATOM     28  C   UNL d   1       9.298  -8.074   5.540  0.00  0.00     0.530 C 
ATOM     29  F   UNL d   1       8.043  -7.584   5.452  0.00  0.00    -0.144 F 
ATOM     30  F   UNL d   1       9.243  -9.420   5.444  0.00  0.00    -0.144 F 
ATOM     31  F   UNL d   1       9.779  -7.758   6.764  0.00  0.00    -0.144 F 
ENDBRANCH  27  28
ENDBRANCH  24  27
ENDBRANCH  19  21
ENDBRANCH  18  19
ENDBRANCH   8  18
TORSDOF 5
