REMARK  3 active torsions:
REMARK  status: ('A' for Active; 'I' for Inactive)
REMARK       I    between atoms: N_7  and  C_1 
REMARK       I    between atoms: N_8  and  C_1 
REMARK    1  A    between atoms: C_4  and  N_9 
REMARK    2  A    between atoms: N_9  and  N_7 
REMARK    3  A    between atoms: C_12  and  N_8 
ROOT
ATOM      1  C   UNL d   1       1.123   0.023   0.152  0.00  0.00     0.335 C 
ATOM      2  N   UNL d   1       0.387  -0.790   1.003  0.00  0.00    -0.267 N 
ATOM      3  N   UNL d   1       0.336   0.987  -0.438  0.00  0.00    -0.308 N 
ATOM      4  O   UNL d   1       2.333  -0.131   0.011  0.00  0.00    -0.246 OA
ATOM      5  H   UNL d   1      -0.585  -0.986   0.783  0.00  0.00     0.186 HD
ATOM      6  H   UNL d   1      -0.533   1.183   0.039  0.00  0.00     0.170 HD
ENDROOT
BRANCH   2   7
ATOM      7  N   UNL d   1       1.082  -1.900   1.547  0.00  0.00    -0.185 NA
ATOM      8  H   UNL d   1       2.092  -1.720   1.509  0.00  0.00     0.154 HD
BRANCH   7   9
ATOM      9  C   UNL d   1       0.693  -2.169   2.885  0.00  0.00     0.113 A 
ATOM     10  N   UNL d   1      -0.410  -1.609   3.431  0.00  0.00    -0.289 N 
ATOM     11  N   UNL d   1      -0.790  -1.910   4.719  0.00  0.00    -0.304 N 
ATOM     12  HN  UNL d   1      -0.967  -0.955   2.882  1.00  0.00     0.188 HD
ATOM     13  C   UNL d   1      -0.075  -2.792   5.446  0.00  0.00     0.022 A 
ATOM     14  HN  UNL d   1      -1.614  -1.465   5.124  1.00  0.00     0.186 HD
ATOM     15  C   UNL d   1       1.037  -3.419   4.910  0.00  0.00     0.029 A 
ATOM     16  C   UNL d   1      -0.537  -3.057   6.842  0.00  0.00     0.069 C 
ATOM     17  C   UNL d   1       1.422  -3.104   3.609  0.00  0.00     0.047 A 
ENDBRANCH   7   9
ENDBRANCH   2   7
BRANCH   3  18
ATOM     18  C   UNL d   1       0.718   1.864  -1.472  0.00  0.00     0.036 A 
ATOM     19  C   UNL d   1       1.864   1.674  -2.248  0.00  0.00     0.031 A 
ATOM     20  C   UNL d   1       2.178   2.561  -3.282  0.00  0.00     0.026 A 
ATOM     21  C   UNL d   1       1.346   3.646  -3.543  0.00  0.00     0.034 A 
ATOM     22  C   UNL d   1       0.198   3.845  -2.779  0.00  0.00     0.026 A 
ATOM     23 CL   UNL d   1       1.730   4.734  -4.817  0.00  0.00    -0.084 Cl
ATOM     24  C   UNL d   1      -0.119   2.952  -1.750  0.00  0.00     0.031 A 
ENDBRANCH   3  18
TORSDOF 3
