REMARK  5 active torsions:
REMARK  status: ('A' for Active; 'I' for Inactive)
REMARK    1  A    between atoms: N_3  and  S_1 
REMARK    2  A    between atoms: C_9  and  S_1 
REMARK    3  A    between atoms: C_6  and  C_2 
REMARK    4  A    between atoms: C_5  and  N_3 
REMARK    5  A    between atoms: C_11  and  C_6 
ROOT
ATOM      1  C   UNL d   1       0.469  -3.360  -2.111  0.00  0.00     0.111 C 
ATOM      2  C   UNL d   1       0.892  -2.137  -1.749  0.00  0.00     0.124 C 
ATOM      3  C   UNL d   1       0.825  -3.954  -3.348  0.00  0.00     0.105 C 
ATOM      4  N   UNL d   1       1.055  -4.484  -4.357  0.00  0.00    -0.191 NA
ENDROOT
BRANCH   1   5
ATOM      5  C   UNL d   1      -0.394  -4.073  -1.126  0.00  0.00     0.204 C 
ATOM      6  O   UNL d   1      -0.377  -3.775   0.068  0.00  0.00    -0.286 OA
BRANCH   5   7
ATOM      7  C   UNL d   1      -1.319  -5.155  -1.571  0.00  0.00     0.016 A 
ATOM      8  C   UNL d   1      -1.599  -6.197  -0.673  0.00  0.00     0.017 A 
ATOM      9  C   UNL d   1      -2.474  -7.227  -1.034  0.00  0.00     0.025 A 
ATOM     10  C   UNL d   1      -3.076  -7.217  -2.290  0.00  0.00     0.034 A 
ATOM     11  C   UNL d   1      -2.828  -6.174  -3.179  0.00  0.00     0.025 A 
ATOM     12 CL   UNL d   1      -4.146  -8.486  -2.740  0.00  0.00    -0.084 Cl
ATOM     13  C   UNL d   1      -1.965  -5.134  -2.815  0.00  0.00     0.017 A 
ENDBRANCH   5   7
ENDBRANCH   1   5
BRANCH   2  14
ATOM     14  N   UNL d   1       1.641  -1.316  -2.666  0.00  0.00    -0.322 N 
ATOM     15  HN  UNL d   1       1.844  -1.660  -3.605  1.00  0.00     0.175 HD
BRANCH  14  16
ATOM     16  S   UNL d   1       2.139   0.086  -2.236  0.00  0.00     0.052 S 
ATOM     17  O   UNL d   1       2.874   0.337  -1.012  0.00  0.00    -0.245 OA
ATOM     18  C   UNL d   1       0.742   1.188  -2.235  0.00  0.00     0.142 C 
BRANCH  16  19
ATOM     19  C   UNL d   1       3.116   0.731  -3.586  0.00  0.00     0.038 A 
ATOM     20  C   UNL d   1       2.811   0.372  -4.904  0.00  0.00     0.023 A 
ATOM     21  C   UNL d   1       3.554   0.916  -5.955  0.00  0.00     0.025 A 
ATOM     22  C   UNL d   1       4.592   1.808  -5.684  0.00  0.00     0.034 A 
ATOM     23  C   UNL d   1       4.904   2.155  -4.369  0.00  0.00     0.025 A 
ATOM     24 CL   UNL d   1       5.494   2.488  -6.982  0.00  0.00    -0.084 Cl
ATOM     25  C   UNL d   1       4.168   1.613  -3.313  0.00  0.00     0.023 A 
ENDBRANCH  16  19
ENDBRANCH  14  16
ENDBRANCH   2  14
TORSDOF 5
