REMARK  2 active torsions:
REMARK  status: ('A' for Active; 'I' for Inactive)
REMARK    1  A    between atoms: C_8  and  C_7 
REMARK    2  A    between atoms: O_18  and  C_12 
ROOT
ATOM      1  C   UNL d   1       1.189   0.028  -0.172  0.00  0.00     0.101 A 
ATOM      2  N   UNL d   1      -0.745  -1.390  -0.414  0.00  0.00    -0.275 N 
ATOM      3  N   UNL d   1      -0.897   0.824  -1.072  0.00  0.00    -0.275 N 
ATOM      4  C   UNL d   1       0.562  -1.311  -0.030  0.00  0.00     0.265 A 
ATOM      5  C   UNL d   1       0.399   1.134  -0.772  0.00  0.00     0.265 A 
ATOM      6  C   UNL d   1      -1.494  -0.392  -0.952  0.00  0.00     0.329 A 
ATOM      7  C   UNL d   1       2.477   0.133   0.214  0.00  0.00     0.037 C 
ATOM      8  O   UNL d   1       0.833   2.257  -1.004  0.00  0.00    -0.267 OA
ATOM      9  O   UNL d   1       1.165  -2.302   0.368  0.00  0.00    -0.267 OA
ATOM     10  O   UNL d   1      -2.646  -0.583  -1.325  0.00  0.00    -0.246 OA
ATOM     11  H   UNL d   1      -1.183  -2.298  -0.353  0.00  0.00     0.173 HD
ATOM     12  H   UNL d   1      -1.448   1.560  -1.491  0.00  0.00     0.173 HD
ENDROOT
BRANCH   7  13
ATOM     13  C   UNL d   1       3.335   1.315   0.074  0.00  0.00    -0.000 A 
ATOM     14  C   UNL d   1       4.219   1.541  -0.997  0.00  0.00     0.078 A 
ATOM     15  C   UNL d   1       4.957   2.737  -1.026  0.00  0.00     0.039 A 
ATOM     16  C   UNL d   1       4.836   3.696  -0.020  0.00  0.00     0.022 A 
ATOM     17  C   UNL d   1       3.974   3.459   1.042  0.00  0.00     0.011 A 
ATOM     18  C   UNL d   1       3.233   2.280   1.097  0.00  0.00     0.033 A 
ATOM     19 BR   UNL d   1       3.799   4.748   2.413  0.00  0.00    -0.051 Br
BRANCH  14  20
ATOM     20  O   UNL d   1       4.506   0.757  -2.081  0.00  0.00    -0.355 OA
ATOM     21  C   UNL d   1       3.885  -0.504  -2.253  0.00  0.00     0.210 C 
ENDBRANCH  14  20
ENDBRANCH   7  13
TORSDOF 2
