REMARK  4 active torsions:
REMARK  status: ('A' for Active; 'I' for Inactive)
REMARK    1  A    between atoms: S_9  and  C_1 
REMARK    2  A    between atoms: N_3  and  C_10 
REMARK    3  A    between atoms: N_18  and  C_6 
REMARK    4  A    between atoms: C_13  and  S_9 
ROOT
ATOM      1  C   UNL d   1       2.066  -1.333  -1.526  0.00  0.00     0.180 A 
ATOM      2  N   UNL d   1       2.738  -1.515  -2.696  0.00  0.00    -0.168 N 
ATOM      3  N   UNL d   1       0.852  -0.902  -1.772  0.00  0.00    -0.265 N 
ATOM      4  HN  UNL d   1       0.129  -0.699  -1.081  1.00  0.00     0.189 HD
ATOM      5  C   UNL d   1       1.872  -1.151  -3.684  0.00  0.00     0.692 A 
ATOM      6  N   UNL d   1       0.735  -0.775  -3.144  0.00  0.00    -0.130 N 
ATOM      7  HN  UNL d   1      -0.089  -0.448  -3.648  1.00  0.00     0.205 HD
ATOM      8  H   UNL d   1       3.690  -1.829  -2.788  0.00  0.00     0.186 HD
ENDROOT
BRANCH   1   9
ATOM      9  S   UNL d   1       2.745  -1.734   0.003  0.00  0.00    -0.034 SA
BRANCH   9  10
ATOM     10  C   UNL d   1       4.192  -0.695  -0.029  0.00  0.00     0.077 A 
ATOM     11  N   UNL d   1       5.057  -0.838  -1.068  0.00  0.00    -0.358 N 
ATOM     12  C   UNL d   1       6.181  -0.072  -1.048  0.00  0.00     0.124 A 
ATOM     13  HN  UNL d   1       4.871  -1.490  -1.830  1.00  0.00     0.166 HD
ATOM     14  C   UNL d   1       6.477   0.825  -0.033  0.00  0.00     0.118 A 
ATOM     15  C   UNL d   1       5.585   0.957   1.031  0.00  0.00     0.040 A 
ATOM     16  C   UNL d   1       4.425   0.179   1.032  0.00  0.00     0.040 A 
BRANCH  14  17
ATOM     17  N   UNL d   1       7.705   1.607  -0.088  0.00  0.00    -0.114 N 
ATOM     18  O   UNL d   1       8.450   1.435  -1.061  0.00  0.00    -0.532 OA
ATOM     19  O   UNL d   1       7.928   2.393   0.843  0.00  0.00    -0.532 OA
ENDBRANCH  14  17
ENDBRANCH   9  10
ENDBRANCH   1   9
BRANCH   5  20
ATOM     20  N   UNL d   1       2.214  -1.207  -4.976  0.00  0.00    -0.233 N 
ATOM     21  H   UNL d   1       3.153  -1.372  -5.314  0.00  0.00     0.174 HD
ATOM     22  H   UNL d   1       1.566  -0.825  -5.659  0.00  0.00     0.174 HD
ENDBRANCH   5  20
TORSDOF 4
