REMARK  3 active torsions:
REMARK  status: ('A' for Active; 'I' for Inactive)
REMARK    1  A    between atoms: C_4  and  C_1 
REMARK    2  A    between atoms: C_3  and  C_2 
REMARK       I    between atoms: N_12  and  C_4 
REMARK    3  A    between atoms: C_16  and  N_12 
ROOT
ATOM      1  C   UNL d   1      -0.151  -1.189   0.318  0.00  0.00     0.094 A 
ATOM      2  C   UNL d   1      -1.409  -0.610   0.443  0.00  0.00     0.145 A 
ATOM      3  O   UNL d   1      -1.306   0.726   0.166  0.00  0.00    -0.234 OA
ATOM      4  N   UNL d   1      -0.005   1.074  -0.074  0.00  0.00    -0.264 N 
ATOM      5  HN  UNL d   1       0.354   2.003  -0.297  1.00  0.00     0.194 HD
ATOM      6  C   UNL d   1       0.695  -0.055   0.045  0.00  0.00     0.047 A 
ATOM      7  C   UNL d   1       2.174  -0.008  -0.090  0.00  0.00     0.071 C 
ENDROOT
BRANCH   1   8
ATOM      8  C   UNL d   1       0.357  -2.558   0.434  0.00  0.00     0.261 C 
ATOM      9  N   UNL d   1      -0.548  -3.579   0.632  0.00  0.00    -0.323 N 
ATOM     10  H   UNL d   1      -1.522  -3.321   0.755  0.00  0.00     0.169 HD
ATOM     11  O   UNL d   1       1.567  -2.751   0.322  0.00  0.00    -0.267 OA
BRANCH   9  12
ATOM     12  C   UNL d   1      -0.290  -4.970   0.668  0.00  0.00     0.036 A 
ATOM     13  C   UNL d   1       0.978  -5.544   0.533  0.00  0.00     0.053 A 
ATOM     14  C   UNL d   1       1.125  -6.934   0.532  0.00  0.00     0.036 A 
ATOM     15 CL   UNL d   1       2.692  -7.627   0.349  0.00  0.00    -0.084 Cl
ATOM     16  C   UNL d   1       0.020  -7.768   0.669  0.00  0.00     0.024 A 
ATOM     17  C   UNL d   1      -1.245  -7.207   0.824  0.00  0.00     0.004 A 
ATOM     18  C   UNL d   1      -1.397  -5.817   0.827  0.00  0.00     0.029 A 
ENDBRANCH   9  12
ENDBRANCH   1   8
BRANCH   2  19
ATOM     19  C   UNL d   1      -2.730  -1.168   0.854  0.00  0.00     0.094 A 
ATOM     20  N   UNL d   1      -2.940  -2.446   1.183  0.00  0.00    -0.258 N 
ATOM     21  O   UNL d   1      -4.251  -2.518   1.616  0.00  0.00    -0.242 OA
ATOM     22  HN  UNL d   1      -2.270  -3.213   1.126  1.00  0.00     0.195 HD
ATOM     23  C   UNL d   1      -4.822  -1.287   1.536  0.00  0.00     0.074 A 
ATOM     24  C   UNL d   1      -3.910  -0.403   1.014  0.00  0.00     0.068 A 
ATOM     25  C   UNL d   1      -6.201  -1.169   2.040  0.00  0.00     0.079 C 
ENDBRANCH   2  19
TORSDOF 3
