REMARK  3 active torsions:
REMARK  status: ('A' for Active; 'I' for Inactive)
REMARK    1  A    between atoms: S_9  and  C_1 
REMARK    2  A    between atoms: C_6  and  C_8 
REMARK    3  A    between atoms: C_12  and  S_9 
ROOT
ATOM      1  C   UNL d   1       4.346  -4.207   0.124  0.00  0.00     0.063 A 
ATOM      2  N   UNL d   1       2.383  -3.603  -1.150  0.00  0.00    -0.359 N 
ATOM      3  HN  UNL d   1       1.924  -3.481  -2.053  1.00  0.00     0.166 HD
ATOM      4  C   UNL d   1       1.723  -3.361   0.007  0.00  0.00     0.074 A 
ATOM      5  C   UNL d   1       3.669  -4.012  -1.069  0.00  0.00     0.105 A 
ATOM      6  C   UNL d   1       3.639  -3.978   1.308  0.00  0.00     0.020 A 
ATOM      7  C   UNL d   1       2.313  -3.549   1.250  0.00  0.00     0.038 A 
ENDROOT
BRANCH   4   8
ATOM      8  S   UNL d   1       0.036  -2.828  -0.133  0.00  0.00    -0.069 SA
BRANCH   8   9
ATOM      9  C   UNL d   1       0.113  -1.086  -0.001  0.00  0.00     0.054 A 
ATOM     10  C   UNL d   1       1.080  -0.196  -0.423  0.00  0.00     0.041 A 
ATOM     11  N   UNL d   1       0.595   1.044  -0.104  0.00  0.00    -0.304 N 
ATOM     12  C   UNL d   1       2.382  -0.347  -1.112  0.00  0.00     0.071 C 
ATOM     13  N   UNL d   1      -0.607   1.027   0.487  0.00  0.00    -0.304 N 
ATOM     14  H   UNL d   1       1.027   1.944  -0.278  0.00  0.00     0.186 HD
ATOM     15  C   UNL d   1      -0.924  -0.274   0.534  0.00  0.00     0.041 A 
ATOM     16  HN  UNL d   1      -1.153   1.820   0.823  1.00  0.00     0.186 HD
ATOM     17  C   UNL d   1      -2.235  -0.689   1.097  0.00  0.00     0.071 C 
ENDBRANCH   8   9
ENDBRANCH   4   8
BRANCH   1  18
ATOM     18  C   UNL d   1       5.779  -4.643   0.128  0.00  0.00     0.418 C 
ATOM     19  F   UNL d   1       6.308  -4.792  -1.118  0.00  0.00    -0.166 F 
ATOM     20  F   UNL d   1       6.588  -3.755   0.770  0.00  0.00    -0.166 F 
ATOM     21  F   UNL d   1       5.961  -5.836   0.757  0.00  0.00    -0.166 F 
ENDBRANCH   1  18
TORSDOF 3
