REMARK  4 active torsions:
REMARK  status: ('A' for Active; 'I' for Inactive)
REMARK    1  A    between atoms: C_8  and  C_1 
REMARK    2  A    between atoms: S_12  and  C_5 
REMARK    3  A    between atoms: C_9  and  C_14 
REMARK    4  A    between atoms: C_14  and  S_12 
ROOT
ATOM      1  S   UNL d   1       2.060  -2.069  -1.790  0.00  0.00    -0.088 SA
ENDROOT
BRANCH   1   2
ATOM      2  C   UNL d   1       1.646  -0.445  -1.353  0.00  0.00     0.162 A 
ATOM      3  N   UNL d   1       1.419   0.559  -2.263  0.00  0.00    -0.312 N 
ATOM      4  C   UNL d   1       1.180   1.693  -1.512  0.00  0.00     0.209 A 
ATOM      5  C   UNL d   1       1.422   0.393  -3.695  0.00  0.00     0.160 C 
ATOM      6  N   UNL d   1       1.230   1.356  -0.232  0.00  0.00    -0.279 N 
ATOM      7  N   UNL d   1       1.522   0.021  -0.136  0.00  0.00    -0.278 N 
ATOM      8  HN  UNL d   1       1.075   1.987   0.554  1.00  0.00     0.188 HD
ATOM      9  HN  UNL d   1       1.626  -0.512   0.727  1.00  0.00     0.189 HD
BRANCH   4  10
ATOM     10  C   UNL d   1       0.919   3.071  -2.016  0.00  0.00     0.450 C 
ATOM     11  F   UNL d   1       0.933   3.177  -3.370  0.00  0.00    -0.163 F 
ATOM     12  F   UNL d   1      -0.295   3.535  -1.620  0.00  0.00    -0.163 F 
ATOM     13  F   UNL d   1       1.845   3.957  -1.565  0.00  0.00    -0.163 F 
ENDBRANCH   4  10
ENDBRANCH   1   2
BRANCH   1  14
ATOM     14  C   UNL d   1       2.150  -2.849  -0.147  0.00  0.00     0.123 C 
BRANCH  14  15
ATOM     15  C   UNL d   1       2.694  -4.258  -0.219  0.00  0.00    -0.011 A 
ATOM     16  C   UNL d   1       1.854  -5.378  -0.344  0.00  0.00     0.087 A 
ATOM     17  C   UNL d   1       2.382  -6.679  -0.360  0.00  0.00     0.003 A 
ATOM     18  O   UNL d   1       0.503  -5.157  -0.417  0.00  0.00    -0.325 OA
ATOM     19  C   UNL d   1       1.462  -7.856  -0.464  0.00  0.00     0.212 C 
ATOM     20  C   UNL d   1       3.768  -6.862  -0.302  0.00  0.00     0.054 A 
ATOM     21  O   UNL d   1       0.143  -7.492  -0.081  0.00  0.00    -0.362 OA
ATOM     22  C   UNL d   1      -0.248  -6.316  -0.776  0.00  0.00     0.345 C 
ATOM     23  C   UNL d   1       4.601  -5.756  -0.206  0.00  0.00     0.117 A 
ATOM     24  C   UNL d   1       4.083  -4.466  -0.162  0.00  0.00     0.053 A 
ATOM     25  F   UNL d   1       5.928  -5.936  -0.145  0.00  0.00    -0.206 F 
ENDBRANCH  14  15
ENDBRANCH   1  14
TORSDOF 4
