REMARK  6 active torsions:
REMARK  status: ('A' for Active; 'I' for Inactive)
REMARK    1  A    between atoms: C_2  and  S_1 
REMARK    2  A    between atoms: N_8  and  S_1 
REMARK    3  A    between atoms: C_15  and  N_8 
REMARK    4  A    between atoms: N_12  and  C_16 
REMARK    5  A    between atoms: C_14  and  C_15 
REMARK    6  A    between atoms: C_16  and  C_14 
ROOT
ATOM      1  S   UNL d   1       0.971  -0.042  -0.101  0.00  0.00     0.259 S 
ATOM      2  O   UNL d   1       0.580   0.476  -1.391  0.00  0.00    -0.201 OA
ATOM      3  O   UNL d   1       0.578  -1.365   0.338  0.00  0.00    -0.201 OA
ENDROOT
BRANCH   1   4
ATOM      4  C   UNL d   1       0.462   1.131   1.151  0.00  0.00     0.088 A 
ATOM      5  C   UNL d   1       0.845   2.481   1.112  0.00  0.00     0.000 A 
ATOM      6  C   UNL d   1       0.530   3.275   2.227  0.00  0.00     0.129 A 
ATOM      7  C   UNL d   1       1.614   3.148   0.007  0.00  0.00     0.053 C 
ATOM      8  F   UNL d   1       0.924   4.558   2.240  0.00  0.00    -0.205 F 
ATOM      9  C   UNL d   1      -0.148   2.773   3.343  0.00  0.00    -0.023 A 
ATOM     10  C   UNL d   1      -0.558   1.440   3.339  0.00  0.00     0.011 A 
ATOM     11  C   UNL d   1      -0.414   3.666   4.517  0.00  0.00     0.051 C 
ATOM     12  C   UNL d   1      -0.253   0.622   2.249  0.00  0.00     0.026 A 
ENDBRANCH   1   4
BRANCH   1  13
ATOM     13  N   UNL d   1       2.654   0.033  -0.003  0.00  0.00    -0.315 N 
ATOM     14  H   UNL d   1       3.072   0.710  -0.637  0.00  0.00     0.172 HD
BRANCH  13  15
ATOM     15  C   UNL d   1       3.268  -0.201   1.308  0.00  0.00     0.134 C 
BRANCH  15  16
ATOM     16  C   UNL d   1       4.788  -0.120   1.218  0.00  0.00     0.050 C 
BRANCH  16  17
ATOM     17  C   UNL d   1       5.372  -0.236   2.633  0.00  0.00     0.273 C 
BRANCH  17  18
ATOM     18  N   UNL d   1       6.840  -0.196   2.703  0.00  0.00     0.080 N 
ATOM     19  C   UNL d   1       7.391   1.068   2.212  0.00  0.00     0.309 C 
ATOM     20  C   UNL d   1       7.263  -0.405   4.094  0.00  0.00     0.309 C 
ENDBRANCH  17  18
ENDBRANCH  16  17
ENDBRANCH  15  16
ENDBRANCH  13  15
ENDBRANCH   1  13
TORSDOF 6
