REMARK  5 active torsions:
REMARK  status: ('A' for Active; 'I' for Inactive)
REMARK    1  A    between atoms: C_7  and  C_1 
REMARK    2  A    between atoms: N_8  and  C_2 
REMARK    3  A    between atoms: S_10  and  C_7 
REMARK    4  A    between atoms: C_9  and  C_11 
REMARK    5  A    between atoms: C_14  and  S_10 
ROOT
ATOM      1  C   UNL d   1       1.637  -2.167  -0.577  0.00  0.00     0.245 C 
ATOM      2  O   UNL d   1       1.344  -3.319  -0.866  0.00  0.00    -0.278 OA
ENDROOT
BRANCH   1   3
ATOM      3  C   UNL d   1       0.643  -1.166  -0.234  0.00  0.00     0.143 C 
ATOM      4  C   UNL d   1      -0.737  -1.359  -0.253  0.00  0.00     0.159 C 
ATOM      5  C   UNL d   1      -1.338  -0.115   0.009  0.00  0.00     0.057 C 
ATOM      6  C   UNL d   1      -2.772   0.265   0.009  0.00  0.00     0.072 C 
ATOM      7  N   UNL d   1      -0.406   0.806   0.261  0.00  0.00    -0.300 N 
ATOM      8  N   UNL d   1       0.766   0.135   0.219  0.00  0.00    -0.290 N 
ATOM      9  HN  UNL d   1      -0.548   1.800   0.444  1.00  0.00     0.187 HD
ATOM     10  C   UNL d   1       1.916   0.849   0.731  0.00  0.00     0.178 C 
BRANCH   4  11
ATOM     11  N   UNL d   1      -1.435  -2.579  -0.502  0.00  0.00    -0.111 N 
ATOM     12  O   UNL d   1      -1.458  -2.977  -1.673  0.00  0.00    -0.532 OA
ATOM     13  O   UNL d   1      -2.015  -3.086   0.465  0.00  0.00    -0.532 OA
ENDBRANCH   4  11
ENDBRANCH   1   3
BRANCH   1  14
ATOM     14  S   UNL d   1       3.328  -1.754  -0.484  0.00  0.00    -0.028 SA
BRANCH  14  15
ATOM     15  C   UNL d   1       3.666  -1.080  -2.089  0.00  0.00     0.077 A 
ATOM     16  N   UNL d   1       3.865   0.259  -2.117  0.00  0.00    -0.359 N 
ATOM     17  C   UNL d   1       4.475   0.785  -3.208  0.00  0.00     0.105 A 
ATOM     18  HN  UNL d   1       3.565   0.853  -1.344  1.00  0.00     0.166 HD
ATOM     19  C   UNL d   1       4.909   0.036  -4.290  0.00  0.00     0.063 A 
ATOM     20  C   UNL d   1       4.608  -1.330  -4.281  0.00  0.00     0.020 A 
ATOM     21  C   UNL d   1       3.981  -1.898  -3.167  0.00  0.00     0.038 A 
BRANCH  19  22
ATOM     22  C   UNL d   1       5.734   0.662  -5.376  0.00  0.00     0.418 C 
ATOM     23  F   UNL d   1       5.995   1.983  -5.168  0.00  0.00    -0.166 F 
ATOM     24  F   UNL d   1       6.951   0.064  -5.504  0.00  0.00    -0.166 F 
ATOM     25  F   UNL d   1       5.148   0.584  -6.601  0.00  0.00    -0.166 F 
ENDBRANCH  19  22
ENDBRANCH  14  15
ENDBRANCH   1  14
TORSDOF 5
