REMARK  2 active torsions:
REMARK  status: ('A' for Active; 'I' for Inactive)
REMARK    1  A    between atoms: C_11  and  C_6 
REMARK    2  A    between atoms: O_20  and  C_16 
ROOT
ATOM      1  C   UNL d   1       1.926   1.438  -0.000  0.00  0.00     0.026 C 
ATOM      2  N   UNL d   1       0.846   1.473  -0.702  0.00  0.00    -0.357 N 
ATOM      3  HN  UNL d   1       0.805   2.162  -1.453  1.00  0.00     0.166 HD
ATOM      4  C   UNL d   1       2.364   0.420   0.991  0.00  0.00     0.055 C 
ATOM      5  S   UNL d   1       0.767  -1.831   0.638  0.00  0.00    -0.117 SA
ATOM      6  C   UNL d   1       2.330  -0.992   0.437  0.00  0.00     0.095 C 
ATOM      7  C   UNL d   1       2.838   2.591   0.087  0.00  0.00    -0.007 A 
ATOM      8  C   UNL d   1      -0.287   0.646  -0.525  0.00  0.00     0.049 A 
ATOM      9  C   UNL d   1      -0.432  -0.677  -0.043  0.00  0.00     0.028 A 
ATOM     10  C   UNL d   1       1.784   0.918   2.310  0.00  0.00     0.017 C 
ATOM     11  C   UNL d   1       3.174   2.938   1.423  0.00  0.00    -0.046 A 
ATOM     12  C   UNL d   1       2.394   2.332   2.596  0.00  0.00     0.040 C 
ATOM     13  C   UNL d   1       3.601   2.988  -1.005  0.00  0.00     0.014 A 
ATOM     14  C   UNL d   1      -1.472   1.339  -0.861  0.00  0.00     0.031 A 
ATOM     15  C   UNL d   1      -1.733  -1.241   0.011  0.00  0.00     0.021 A 
ATOM     16  C   UNL d   1       4.325   3.696   1.638  0.00  0.00     0.008 A 
ATOM     17  C   UNL d   1       4.761   3.721  -0.761  0.00  0.00     0.001 A 
ATOM     18  C   UNL d   1      -2.878  -0.529  -0.334  0.00  0.00     0.002 A 
ATOM     19  C   UNL d   1      -2.755   0.781  -0.752  0.00  0.00     0.002 A 
ATOM     20  C   UNL d   1       5.125   4.061   0.550  0.00  0.00     0.001 A 
ENDROOT
BRANCH   6  21
ATOM     21  C   UNL d   1       3.550  -1.673   1.091  0.00  0.00    -0.043 A 
ATOM     22  C   UNL d   1       4.802  -1.486   0.472  0.00  0.00     0.011 A 
ATOM     23  C   UNL d   1       5.978  -1.558   1.220  0.00  0.00     0.037 A 
ATOM     24  C   UNL d   1       5.937  -1.859   2.581  0.00  0.00     0.068 A 
ATOM     25  C   UNL d   1       4.712  -2.160   3.176  0.00  0.00     0.037 A 
ATOM     26  C   UNL d   1       3.525  -2.078   2.435  0.00  0.00     0.011 A 
BRANCH  24  27
ATOM     27  O   UNL d   1       7.146  -1.780   3.216  0.00  0.00    -0.356 OA
ATOM     28  C   UNL d   1       7.178  -2.152   4.588  0.00  0.00     0.210 C 
ENDBRANCH  24  27
ENDBRANCH   6  21
TORSDOF 2
