REMARK  5 active torsions:
REMARK  status: ('A' for Active; 'I' for Inactive)
REMARK    1  A    between atoms: N_2  and  S_1 
REMARK    2  A    between atoms: C_16  and  S_1 
REMARK    3  A    between atoms: N_5  and  C_4 
REMARK    4  A    between atoms: S_21  and  C_4 
REMARK    5  A    between atoms: C_7  and  N_6 
ROOT
ATOM      1  C   UNL d   1       3.804   4.484  -2.480  0.00  0.00     0.072 A 
ATOM      2  N   UNL d   1       0.829   6.413  -1.961  0.00  0.00    -0.191 NA
ATOM      3  N   UNL d   1       6.327   2.078  -3.253  0.00  0.00    -0.191 NA
ATOM      4  C   UNL d   1       1.945   6.116  -2.065  0.00  0.00     0.102 C 
ATOM      5  C   UNL d   1       5.821   3.088  -2.978  0.00  0.00     0.102 C 
ATOM      6  C   UNL d   1       3.336   5.793  -2.213  0.00  0.00     0.072 A 
ATOM      7  C   UNL d   1       5.220   4.340  -2.603  0.00  0.00     0.072 A 
ATOM      8  C   UNL d   1       6.101   5.420  -2.409  0.00  0.00     0.025 A 
ATOM      9  C   UNL d   1       4.235   6.870  -2.040  0.00  0.00     0.025 A 
ATOM     10  C   UNL d   1       5.609   6.683  -2.123  0.00  0.00     0.003 A 
ENDROOT
BRANCH   1  11
ATOM     11  N   UNL d   1       2.992   3.357  -2.635  0.00  0.00    -0.375 N 
ATOM     12  C   UNL d   1       1.620   3.376  -3.197  0.00  0.00     0.143 C 
ATOM     13  C   UNL d   1       1.256   1.996  -3.820  0.00  0.00     0.145 C 
ATOM     14  N   UNL d   1       1.601   0.858  -2.942  0.00  0.00    -0.358 N 
ATOM     15  C   UNL d   1       2.947   0.924  -2.346  0.00  0.00     0.145 C 
ATOM     16  C   UNL d   1       3.146   2.273  -1.631  0.00  0.00     0.143 C 
BRANCH  14  17
ATOM     17  C   UNL d   1       0.754  -0.201  -2.706  0.00  0.00     0.151 C 
ATOM     18  N   UNL d   1       0.186  -1.047  -3.484  0.00  0.00    -0.260 N 
ATOM     19  HN  UNL d   1      -0.487  -1.693  -3.072  1.00  0.00     0.181 HD
BRANCH  18  20
ATOM     20  S   UNL d   1       0.461  -1.160  -5.066  0.00  0.00     0.264 S 
ATOM     21  O   UNL d   1       0.124   0.092  -5.720  0.00  0.00    -0.200 OA
ATOM     22  O   UNL d   1      -0.130  -2.393  -5.544  0.00  0.00    -0.200 OA
BRANCH  20  23
ATOM     23  C   UNL d   1       2.223  -1.396  -5.224  0.00  0.00     0.079 A 
ATOM     24  C   UNL d   1       2.821  -2.479  -4.570  0.00  0.00     0.025 A 
ATOM     25  C   UNL d   1       4.207  -2.628  -4.623  0.00  0.00     0.002 A 
ATOM     26  C   UNL d   1       4.982  -1.700  -5.322  0.00  0.00     0.000 A 
ATOM     27  C   UNL d   1       4.376  -0.639  -5.997  0.00  0.00     0.002 A 
ATOM     28  C   UNL d   1       2.991  -0.490  -5.961  0.00  0.00     0.025 A 
ENDBRANCH  20  23
ENDBRANCH  18  20
BRANCH  17  29
ATOM     29  S   UNL d   1       0.418  -0.422  -0.964  0.00  0.00    -0.098 SA
ATOM     30  C   UNL d   1      -0.496  -1.981  -0.954  0.00  0.00     0.099 C 
ENDBRANCH  17  29
ENDBRANCH  14  17
ENDBRANCH   1  11
TORSDOF 5
