REMARK  3 active torsions:
REMARK  status: ('A' for Active; 'I' for Inactive)
REMARK    1  A    between atoms: O_11  and  C_1 
REMARK    2  A    between atoms: N_7  and  C_8 
REMARK    3  A    between atoms: C_12  and  O_11 
ROOT
ATOM      1  C   UNL d   1       2.980  -5.398  -1.178  0.00  0.00     0.033 A 
ATOM      2  C   UNL d   1       3.128  -4.010  -1.218  0.00  0.00     0.066 A 
ATOM      3  C   UNL d   1       3.743  -3.303  -0.169  0.00  0.00     0.080 A 
ATOM      4  C   UNL d   1       3.525  -6.063  -0.066  0.00  0.00     0.029 A 
ATOM      5  C   UNL d   1       4.187  -5.376   0.958  0.00  0.00     0.005 A 
ATOM      6  C   UNL d   1       4.296  -3.990   0.907  0.00  0.00     0.037 A 
ENDROOT
BRANCH   3   7
ATOM      7  O   UNL d   1       3.873  -1.931  -0.175  0.00  0.00    -0.288 OA
BRANCH   7   8
ATOM      8  C   UNL d   1       2.885  -1.164  -0.649  0.00  0.00     0.193 A 
ATOM      9  N   UNL d   1       1.629  -1.550  -0.702  0.00  0.00    -0.329 N 
ATOM     10  C   UNL d   1       0.869  -0.601  -1.348  0.00  0.00     0.053 A 
ATOM     11  HN  UNL d   1       1.270  -2.425  -0.320  1.00  0.00     0.168 HD
ATOM     12  C   UNL d   1      -0.503  -0.720  -1.647  0.00  0.00     0.054 A 
ATOM     13  C   UNL d   1       1.558   0.549  -1.738  0.00  0.00     0.035 A 
ATOM     14  C   UNL d   1      -1.137   0.310  -2.341  0.00  0.00     0.036 A 
ATOM     15 CL   UNL d   1      -2.806   0.161  -2.732  0.00  0.00    -0.084 Cl
ATOM     16  C   UNL d   1      -0.438   1.450  -2.728  0.00  0.00     0.025 A 
ATOM     17  C   UNL d   1       0.921   1.593  -2.429  0.00  0.00     0.023 A 
ATOM     18  S   UNL d   1       3.204   0.409  -1.243  0.00  0.00    -0.044 SA
ENDBRANCH   7   8
ENDBRANCH   3   7
BRANCH   1  19
ATOM     19  N   UNL d   1       2.359  -6.125  -2.185  0.00  0.00    -0.377 N 
ATOM     20  C   UNL d   1       2.286  -5.630  -3.571  0.00  0.00     0.149 C 
ATOM     21  C   UNL d   1       0.892  -5.082  -3.911  0.00  0.00     0.187 C 
ATOM     22  O   UNL d   1      -0.137  -6.040  -3.618  0.00  0.00    -0.388 OA
ATOM     23  C   UNL d   1      -0.115  -6.366  -2.219  0.00  0.00     0.187 C 
ATOM     24  C   UNL d   1       1.226  -6.994  -1.802  0.00  0.00     0.149 C 
ENDBRANCH   1  19
TORSDOF 3
