REMARK  2 active torsions:
REMARK  status: ('A' for Active; 'I' for Inactive)
REMARK       I    between atoms: C_8  and  N_3 
REMARK    1  A    between atoms: C_12  and  C_5 
REMARK       I    between atoms: N_14  and  C_8 
REMARK    2  A    between atoms: C_22  and  N_14 
ROOT
ATOM      1  C   UNL d   1      -0.093  -1.086  -0.092  0.00  0.00     0.058 A 
ATOM      2  C   UNL d   1      -0.334  -2.503  -0.009  0.00  0.00     0.082 C 
ATOM      3  N   UNL d   1      -0.089  -3.288   1.115  0.00  0.00    -0.205 N 
ATOM      4  S   UNL d   1      -0.346  -0.065   1.268  0.00  0.00    -0.067 SA
ATOM      5  C   UNL d   1       0.044   1.315   0.339  0.00  0.00     0.092 A 
ATOM      6  N   UNL d   1       0.307   1.067  -0.928  0.00  0.00    -0.352 N 
ATOM      7  HN  UNL d   1       0.538   1.778  -1.622  1.00  0.00     0.166 HD
ATOM      8  C   UNL d   1       0.712  -2.994   2.242  0.00  0.00     0.342 C 
ATOM      9  C   UNL d   1       0.225  -0.298  -1.190  0.00  0.00     0.025 A 
ATOM     10  N   UNL d   1      -0.773  -4.476   1.055  0.00  0.00    -0.301 N 
ATOM     11  HN  UNL d   1      -0.931  -5.152   1.803  1.00  0.00     0.186 HD
ATOM     12  C   UNL d   1      -0.954  -3.341  -0.913  0.00  0.00     0.052 C 
ATOM     13  N   UNL d   1       0.088  -3.397   3.399  0.00  0.00    -0.337 N 
ATOM     14  C   UNL d   1      -1.185  -4.536  -0.214  0.00  0.00     0.110 C 
ATOM     15  O   UNL d   1       1.763  -2.385   2.112  0.00  0.00    -0.245 OA
ATOM     16  C   UNL d   1       0.466  -0.748  -2.586  0.00  0.00     0.070 C 
ATOM     17  H   UNL d   1      -0.777  -3.922   3.290  0.00  0.00     0.164 HD
ENDROOT
BRANCH   5  18
ATOM     18  C   UNL d   1       0.043   2.663   0.871  0.00  0.00     0.038 A 
ATOM     19  S   UNL d   1      -0.225   3.029   2.532  0.00  0.00    -0.099 SA
ATOM     20  C   UNL d   1      -0.096   4.710   2.266  0.00  0.00     0.050 A 
ATOM     21  C   UNL d   1       0.156   5.003   0.944  0.00  0.00     0.008 A 
ATOM     22  C   UNL d   1       0.240   3.823   0.146  0.00  0.00     0.022 A 
ENDBRANCH   5  18
BRANCH  13  23
ATOM     23  C   UNL d   1       0.608  -3.160   4.736  0.00  0.00     0.078 C 
ATOM     24  C   UNL d   1       1.771  -4.095   5.043  0.00  0.00     0.032 C 
ATOM     25  C   UNL d   1       0.991  -1.700   4.989  0.00  0.00     0.032 C 
ENDBRANCH  13  23
TORSDOF 2
