REMARK  6 active torsions:
REMARK  status: ('A' for Active; 'I' for Inactive)
REMARK    1  A    between atoms: S_2  and  C_1 
REMARK    2  A    between atoms: C_14  and  S_2 
REMARK    3  A    between atoms: S_17  and  C_3 
REMARK    4  A    between atoms: N_7  and  C_4 
REMARK       I    between atoms: C_8  and  N_7 
REMARK       I    between atoms: N_13  and  C_8 
REMARK    5  A    between atoms: C_9  and  C_10 
REMARK    6  A    between atoms: C_18  and  N_13 
ROOT
ATOM      1  N   UNL d   1      -0.129  -2.025  -0.467  0.00  0.00    -0.303 N 
ATOM      2  C   UNL d   1      -1.207  -2.809  -0.148  0.00  0.00     0.325 C 
ATOM      3  N   UNL d   1      -2.198  -2.256   0.610  0.00  0.00    -0.309 N 
ATOM      4  O   UNL d   1      -1.175  -3.986  -0.505  0.00  0.00    -0.247 OA
ATOM      5  H   UNL d   1       0.626  -2.584  -0.849  0.00  0.00     0.171 HD
ATOM      6  H   UNL d   1      -1.926  -1.454   1.163  0.00  0.00     0.170 HD
ENDROOT
BRANCH   1   7
ATOM      7  C   UNL d   1       0.054  -0.656  -0.447  0.00  0.00     0.080 C 
ATOM      8  C   UNL d   1       1.227   0.011  -0.730  0.00  0.00     0.062 C 
ATOM      9  C   UNL d   1       1.128   1.423  -0.483  0.00  0.00     0.086 C 
ATOM     10  C   UNL d   1      -0.180   1.799  -0.213  0.00  0.00     0.064 C 
ATOM     11  S   UNL d   1      -1.207   0.424  -0.136  0.00  0.00    -0.064 SA
BRANCH   9  12
ATOM     12  S   UNL d   1       2.465   2.531  -0.522  0.00  0.00     0.180 S 
ATOM     13  O   UNL d   1       2.256   3.246  -1.760  0.00  0.00    -0.222 OA
ATOM     14  O   UNL d   1       2.419   3.179   0.772  0.00  0.00    -0.222 OA
BRANCH  12  15
ATOM     15  C   UNL d   1       4.019   1.665  -0.667  0.00  0.00     0.105 C 
ATOM     16  C   UNL d   1       5.144   2.707  -0.732  0.00  0.00     0.026 C 
ATOM     17  C   UNL d   1       4.313   0.699   0.474  0.00  0.00     0.026 C 
ENDBRANCH  12  15
ENDBRANCH   9  12
BRANCH  10  18
ATOM     18  S   UNL d   1      -0.909   3.365   0.147  0.00  0.00    -0.126 SA
ATOM     19  C   UNL d   1      -0.412   4.411  -1.237  0.00  0.00     0.096 C 
ENDBRANCH  10  18
ENDBRANCH   1   7
BRANCH   3  20
ATOM     20  C   UNL d   1      -3.479  -2.790   0.839  0.00  0.00     0.037 A 
ATOM     21  C   UNL d   1      -4.080  -3.702  -0.034  0.00  0.00     0.045 A 
ATOM     22  C   UNL d   1      -5.404  -4.128   0.171  0.00  0.00     0.050 A 
ATOM     23  C   UNL d   1      -6.096  -3.681   1.307  0.00  0.00     0.016 A 
ATOM     24  C   UNL d   1      -5.497  -2.784   2.188  0.00  0.00     0.003 A 
ATOM     25  C   UNL d   1      -4.203  -2.321   1.940  0.00  0.00     0.029 A 
BRANCH  22  26
ATOM     26  C   UNL d   1      -6.097  -5.019  -0.829  0.00  0.00     0.417 C 
ATOM     27  F   UNL d   1      -5.373  -5.249  -1.960  0.00  0.00    -0.166 F 
ATOM     28  F   UNL d   1      -6.402  -6.245  -0.321  0.00  0.00    -0.166 F 
ATOM     29  F   UNL d   1      -7.280  -4.489  -1.253  0.00  0.00    -0.166 F 
ENDBRANCH  22  26
ENDBRANCH   3  20
TORSDOF 6
