REMARK  4 active torsions:
REMARK  status: ('A' for Active; 'I' for Inactive)
REMARK    1  A    between atoms: C_8  and  C_1 
REMARK    2  A    between atoms: C_15  and  C_7 
REMARK    3  A    between atoms: S_14  and  C_15 
REMARK    4  A    between atoms: C_16  and  S_14 
ROOT
ATOM      1  C   UNL d   1      -0.226  -1.054  -0.010  0.00  0.00     0.174 A 
ATOM      2  N   UNL d   1       1.004  -0.627   0.192  0.00  0.00    -0.277 N 
ATOM      3  HN  UNL d   1       1.837  -1.203   0.313  1.00  0.00     0.189 HD
ATOM      4  O   UNL d   1      -1.121  -0.024  -0.156  0.00  0.00    -0.277 OA
ATOM      5  N   UNL d   1       0.947   0.750   0.208  0.00  0.00    -0.281 N 
ATOM      6  HN  UNL d   1       1.729   1.392   0.339  1.00  0.00     0.189 HD
ATOM      7  C   UNL d   1      -0.317   1.075   0.021  0.00  0.00     0.150 A 
ENDROOT
BRANCH   7   8
ATOM      8  C   UNL d   1      -0.913   2.436  -0.047  0.00  0.00     0.165 C 
BRANCH   8   9
ATOM      9  S   UNL d   1      -2.578   2.532   0.699  0.00  0.00    -0.122 SA
BRANCH   9  10
ATOM     10  C   UNL d   1      -3.028   4.243   0.436  0.00  0.00     0.001 A 
ATOM     11  C   UNL d   1      -4.385   4.531   0.216  0.00  0.00     0.020 A 
ATOM     12  C   UNL d   1      -4.823   5.850   0.064  0.00  0.00     0.025 A 
ATOM     13  C   UNL d   1      -3.905   6.894   0.137  0.00  0.00     0.034 A 
ATOM     14  C   UNL d   1      -2.557   6.627   0.358  0.00  0.00     0.025 A 
ATOM     15 CL   UNL d   1      -4.441   8.519  -0.029  0.00  0.00    -0.084 Cl
ATOM     16  C   UNL d   1      -2.120   5.305   0.512  0.00  0.00     0.020 A 
ENDBRANCH   9  10
ENDBRANCH   8   9
ENDBRANCH   7   8
BRANCH   1  17
ATOM     17  C   UNL d   1      -0.738  -2.417  -0.077  0.00  0.00     0.020 A 
ATOM     18  C   UNL d   1       0.138  -3.493   0.142  0.00  0.00     0.040 A 
ATOM     19  C   UNL d   1      -0.327  -4.808   0.090  0.00  0.00     0.036 A 
ATOM     20 CL   UNL d   1       0.765  -6.109   0.365  0.00  0.00    -0.084 Cl
ATOM     21  C   UNL d   1      -1.664  -5.077  -0.180  0.00  0.00     0.047 A 
ATOM     22  C   UNL d   1      -2.537  -4.015  -0.398  0.00  0.00     0.036 A 
ATOM     23  C   UNL d   1      -2.085  -2.695  -0.347  0.00  0.00     0.040 A 
ATOM     24 CL   UNL d   1      -4.194  -4.335  -0.736  0.00  0.00    -0.084 Cl
ENDBRANCH   1  17
TORSDOF 4
