REMARK  7 active torsions:
REMARK  status: ('A' for Active; 'I' for Inactive)
REMARK    1  A    between atoms: C_12  and  C_3 
REMARK    2  A    between atoms: C_11  and  C_4 
REMARK    3  A    between atoms: C_15  and  C_10 
REMARK       I    between atoms: N_13  and  C_11 
REMARK    4  A    between atoms: C_16  and  N_13 
REMARK    5  A    between atoms: N_19  and  C_16 
REMARK    6  A    between atoms: C_17  and  C_18 
REMARK    7  A    between atoms: C_23  and  N_19 
ROOT
ATOM      1  C   UNL d   1       0.226  -0.366  -0.397  0.00  0.00     0.144 A 
ATOM      2  N   UNL d   1       0.260   0.996  -0.070  0.00  0.00    -0.234 N 
ATOM      3  C   UNL d   1      -0.862   1.794  -0.271  0.00  0.00     0.144 A 
ATOM      4  C   UNL d   1       1.495  -0.873  -0.165  0.00  0.00     0.089 A 
ATOM      5  N   UNL d   1      -0.917  -0.979  -0.833  0.00  0.00    -0.336 N 
ATOM      6  HN  UNL d   1      -0.930  -1.975  -1.051  1.00  0.00     0.167 HD
ATOM      7  C   UNL d   1      -2.003   1.233  -0.716  0.00  0.00     0.071 A 
ATOM      8  N   UNL d   1       1.460   1.330   0.453  0.00  0.00    -0.302 N 
ATOM      9  HN  UNL d   1       1.753   2.245   0.796  1.00  0.00     0.186 HD
ATOM     10  C   UNL d   1      -1.992  -0.248  -0.961  0.00  0.00     0.120 A 
ATOM     11  C   UNL d   1       2.176   0.207   0.425  0.00  0.00     0.128 A 
ENDROOT
BRANCH   4  12
ATOM     12  C   UNL d   1       1.904  -2.241  -0.430  0.00  0.00     0.242 C 
ATOM     13  N   UNL d   1       3.009  -2.735   0.240  0.00  0.00    -0.201 NA
ATOM     14  H   UNL d   1       2.902  -3.743   0.238  0.00  0.00     0.139 HD
ATOM     15  O   UNL d   1       1.252  -3.026  -1.116  0.00  0.00    -0.273 OA
BRANCH  13  16
ATOM     16  C   UNL d   1       4.357  -2.467   0.059  0.00  0.00     0.157 C 
ATOM     17  S   UNL d   1       5.023  -1.372  -1.008  0.00  0.00    -0.046 SA
BRANCH  16  18
ATOM     18  N   UNL d   1       5.208  -3.288   0.775  0.00  0.00    -0.338 N 
ATOM     19  H   UNL d   1       6.160  -3.303   0.417  0.00  0.00     0.168 HD
BRANCH  18  20
ATOM     20  C   UNL d   1       4.891  -4.197   1.805  0.00  0.00     0.034 A 
ATOM     21  C   UNL d   1       5.669  -5.350   1.925  0.00  0.00     0.045 A 
ATOM     22  C   UNL d   1       5.323  -6.349   2.853  0.00  0.00     0.050 A 
ATOM     23  C   UNL d   1       4.226  -6.142   3.705  0.00  0.00     0.016 A 
ATOM     24  C   UNL d   1       3.491  -4.963   3.632  0.00  0.00     0.003 A 
ATOM     25  C   UNL d   1       3.826  -3.993   2.689  0.00  0.00     0.029 A 
BRANCH  22  26
ATOM     26  C   UNL d   1       6.099  -7.641   2.938  0.00  0.00     0.417 C 
ATOM     27  F   UNL d   1       6.990  -7.804   1.921  0.00  0.00    -0.166 F 
ATOM     28  F   UNL d   1       6.819  -7.738   4.089  0.00  0.00    -0.166 F 
ATOM     29  F   UNL d   1       5.291  -8.736   2.905  0.00  0.00    -0.166 F 
ENDBRANCH  22  26
ENDBRANCH  18  20
ENDBRANCH  16  18
ENDBRANCH  13  16
ENDBRANCH   4  12
BRANCH   3  30
ATOM     30  C   UNL d   1      -0.762   3.252  -0.001  0.00  0.00     0.434 C 
ATOM     31  F   UNL d   1       0.207   3.635   0.856  0.00  0.00    -0.165 F 
ATOM     32  F   UNL d   1      -0.577   3.941  -1.158  0.00  0.00    -0.165 F 
ATOM     33  F   UNL d   1      -1.929   3.716   0.525  0.00  0.00    -0.165 F 
ENDBRANCH   3  30
BRANCH  10  34
ATOM     34  C   UNL d   1      -3.313  -0.888  -1.404  0.00  0.00     0.432 C 
ATOM     35  F   UNL d   1      -4.386  -0.102  -1.102  0.00  0.00    -0.165 F 
ATOM     36  F   UNL d   1      -3.359  -1.089  -2.747  0.00  0.00    -0.165 F 
ATOM     37  F   UNL d   1      -3.546  -2.089  -0.812  0.00  0.00    -0.165 F 
ENDBRANCH  10  34
TORSDOF 7
