REMARK  6 active torsions:
REMARK  status: ('A' for Active; 'I' for Inactive)
REMARK    1  A    between atoms: C_3  and  N_1 
REMARK    2  A    between atoms: C_17  and  N_4 
REMARK    3  A    between atoms: C_16  and  C_9 
REMARK    4  A    between atoms: C_14  and  C_10 
REMARK    5  A    between atoms: C_27  and  C_17 
REMARK    6  A    between atoms: C_28  and  C_27 
ROOT
ATOM      1  N   UNL d   1      -0.117   0.951   0.024  0.00  0.00    -0.209 N 
ATOM      2  C   UNL d   1       1.062   0.252   0.014  0.00  0.00     0.334 A 
ATOM      3  N   UNL d   1       0.745  -1.106  -0.036  0.00  0.00    -0.316 N 
ATOM      4  C   UNL d   1      -1.207   0.116   0.031  0.00  0.00     0.261 A 
ATOM      5  C   UNL d   1      -0.684  -1.322   0.027  0.00  0.00     0.215 A 
ATOM      6  O   UNL d   1       2.207   0.671   0.006  0.00  0.00    -0.246 OA
ATOM      7  O   UNL d   1      -2.397   0.397   0.088  0.00  0.00    -0.270 OA
ENDROOT
BRANCH   1   8
ATOM      8  C   UNL d   1      -0.147   2.323   0.134  0.00  0.00     0.178 A 
ATOM      9  S   UNL d   1      -1.554   3.193  -0.311  0.00  0.00    -0.036 SA
ATOM     10  C   UNL d   1      -0.772   4.635   0.211  0.00  0.00     0.077 A 
ATOM     11  N   UNL d   1       0.465   4.428   0.616  0.00  0.00    -0.295 N 
ATOM     12  N   UNL d   1       0.836   3.102   0.534  0.00  0.00    -0.278 N 
ATOM     13  HN  UNL d   1       1.081   5.168   0.953  1.00  0.00     0.187 HD
ATOM     14  HN  UNL d   1       1.771   2.762   0.759  1.00  0.00     0.189 HD
BRANCH  10  15
ATOM     15  C   UNL d   1      -1.473   5.984   0.208  0.00  0.00    -0.001 C 
ATOM     16  C   UNL d   1      -2.784   5.915   1.015  0.00  0.00     0.021 C 
ATOM     17  C   UNL d   1      -0.565   7.045   0.863  0.00  0.00     0.021 C 
ATOM     18  C   UNL d   1      -1.779   6.437  -1.232  0.00  0.00     0.021 C 
ENDBRANCH  10  15
ENDBRANCH   1   8
BRANCH   3  19
ATOM     19  C   UNL d   1       1.728  -2.182  -0.036  0.00  0.00     0.129 C 
BRANCH  19  20
ATOM     20  C   UNL d   1       1.537  -3.188  -1.170  0.00  0.00     0.020 C 
BRANCH  20  21
ATOM     21  C   UNL d   1       1.731  -2.563  -2.552  0.00  0.00    -0.003 C 
ATOM     22  C   UNL d   1       1.559  -3.599  -3.651  0.00  0.00     0.005 C 
ENDBRANCH  20  21
ENDBRANCH  19  20
ENDBRANCH   3  19
BRANCH   5  23
ATOM     23  C   UNL d   1      -1.113  -2.121   1.238  0.00  0.00    -0.026 A 
ATOM     24  C   UNL d   1      -1.909  -3.267   1.068  0.00  0.00     0.013 A 
ATOM     25  C   UNL d   1      -2.271  -4.049   2.168  0.00  0.00     0.043 A 
ATOM     26  C   UNL d   1      -1.844  -3.687   3.438  0.00  0.00     0.116 A 
ATOM     27  C   UNL d   1      -1.068  -2.551   3.635  0.00  0.00     0.043 A 
ATOM     28  F   UNL d   1      -2.177  -4.448   4.487  0.00  0.00    -0.206 F 
ATOM     29  C   UNL d   1      -0.708  -1.766   2.538  0.00  0.00     0.013 A 
ENDBRANCH   5  23
TORSDOF 6
