REMARK  4 active torsions:
REMARK  status: ('A' for Active; 'I' for Inactive)
REMARK    1  A    between atoms: C_2  and  N_1 
REMARK    2  A    between atoms: S_5  and  C_10 
REMARK    3  A    between atoms: C_8  and  S_5 
REMARK    4  A    between atoms: C_10  and  C_11 
ROOT
ATOM      1  C   UNL d   1       0.280   1.286  -0.122  0.00  0.00     0.102 A 
ATOM      2  C   UNL d   1      -0.753   1.373  -1.065  0.00  0.00     0.036 A 
ATOM      3  C   UNL d   1       0.609   2.388   0.676  0.00  0.00     0.036 A 
ATOM      4  C   UNL d   1      -1.153   3.679  -0.399  0.00  0.00    -0.048 A 
ATOM      5  C   UNL d   1      -0.106   3.579   0.532  0.00  0.00     0.010 A 
ATOM      6  C   UNL d   1      -1.462   2.570  -1.202  0.00  0.00     0.010 A 
ENDROOT
BRANCH   4   7
ATOM      7  C   UNL d   1      -1.931   4.968  -0.531  0.00  0.00     0.117 C 
BRANCH   7   8
ATOM      8  S   UNL d   1      -1.140   6.121  -1.702  0.00  0.00    -0.125 SA
BRANCH   8   9
ATOM      9  C   UNL d   1      -2.294   7.486  -1.715  0.00  0.00     0.001 A 
ATOM     10  C   UNL d   1      -2.974   7.926  -0.573  0.00  0.00     0.020 A 
ATOM     11  C   UNL d   1      -3.853   9.013  -0.640  0.00  0.00     0.025 A 
ATOM     12  C   UNL d   1      -4.044   9.677  -1.848  0.00  0.00     0.034 A 
ATOM     13  C   UNL d   1      -3.360   9.267  -2.989  0.00  0.00     0.025 A 
ATOM     14 CL   UNL d   1      -5.124  11.014  -1.927  0.00  0.00    -0.084 Cl
ATOM     15  C   UNL d   1      -2.486   8.177  -2.920  0.00  0.00     0.020 A 
ENDBRANCH   8   9
ENDBRANCH   7   8
ENDBRANCH   4   7
BRANCH   1  16
ATOM     16  N   UNL d   1       1.023   0.029   0.033  0.00  0.00    -0.116 N 
ATOM     17  O   UNL d   1       0.696  -0.927  -0.686  0.00  0.00    -0.532 OA
ATOM     18  O   UNL d   1       1.930  -0.005   0.876  0.00  0.00    -0.532 OA
ENDBRANCH   1  16
TORSDOF 4
