REMARK  4 active torsions:
REMARK  status: ('A' for Active; 'I' for Inactive)
REMARK       I    between atoms: N_2  and  C_1 
REMARK    1  A    between atoms: C_4  and  C_1 
REMARK    2  A    between atoms: C_3  and  N_2 
REMARK    3  A    between atoms: C_7  and  C_5 
REMARK    4  A    between atoms: C_8  and  C_7 
ROOT
ATOM      1  C   UNL d   1       0.661  -1.732   1.807  0.00  0.00     0.041 A 
ATOM      2  C   UNL d   1       1.923  -1.619   2.427  0.00  0.00    -0.027 A 
ATOM      3  C   UNL d   1      -0.010  -2.967   1.867  0.00  0.00     0.030 A 
ATOM      4  C   UNL d   1       2.410  -2.721   3.169  0.00  0.00     0.010 A 
ATOM      5  C   UNL d   1       0.506  -4.051   2.574  0.00  0.00     0.002 A 
ATOM      6  C   UNL d   1       1.710  -3.923   3.246  0.00  0.00     0.001 A 
ENDROOT
BRANCH   1   7
ATOM      7  N   UNL d   1       0.057  -0.625   1.147  0.00  0.00    -0.326 N 
ATOM      8  C   UNL d   1      -1.318  -0.420   1.059  0.00  0.00     0.229 C 
ATOM      9  O   UNL d   1      -2.162  -1.199   1.506  0.00  0.00    -0.272 OA
ATOM     10  H   UNL d   1       0.653   0.164   0.955  0.00  0.00     0.169 HD
BRANCH   8  11
ATOM     11  C   UNL d   1      -1.772   0.856   0.316  0.00  0.00     0.030 C 
ATOM     12  C   UNL d   1      -1.696   0.614  -1.197  0.00  0.00     0.025 C 
ATOM     13  C   UNL d   1      -3.243   1.135   0.699  0.00  0.00     0.025 C 
ATOM     14  C   UNL d   1      -0.945   2.093   0.692  0.00  0.00     0.025 C 
ENDBRANCH   8  11
ENDBRANCH   1   7
BRANCH   2  15
ATOM     15  C   UNL d   1       2.805  -0.385   2.382  0.00  0.00     0.079 C 
BRANCH  15  16
ATOM     16  C   UNL d   1       3.944  -0.486   1.388  0.00  0.00    -0.054 A 
ATOM     17  C   UNL d   1       3.856   0.122   0.128  0.00  0.00     0.007 A 
ATOM     18  C   UNL d   1       4.897  -0.003  -0.795  0.00  0.00     0.001 A 
ATOM     19  C   UNL d   1       6.036  -0.744  -0.475  0.00  0.00     0.000 A 
ATOM     20  C   UNL d   1       6.139  -1.350   0.773  0.00  0.00     0.001 A 
ATOM     21  C   UNL d   1       5.105  -1.214   1.700  0.00  0.00     0.007 A 
ENDBRANCH  15  16
ENDBRANCH   2  15
TORSDOF 4
