REMARK  6 active torsions:
REMARK  status: ('A' for Active; 'I' for Inactive)
REMARK       I    between atoms: N_2  and  C_1 
REMARK    1  A    between atoms: C_4  and  C_1 
REMARK    2  A    between atoms: C_3  and  N_2 
REMARK    3  A    between atoms: N_6  and  C_3 
REMARK    4  A    between atoms: C_5  and  C_7 
REMARK    5  A    between atoms: O_14  and  C_5 
REMARK    6  A    between atoms: C_12  and  N_6 
ROOT
ATOM      1  C   UNL d   1       0.884   0.630   2.411  0.00  0.00     0.179 C 
ATOM      2  S   UNL d   1      -0.021   1.192   1.116  0.00  0.00    -0.040 SA
ENDROOT
BRANCH   1   3
ATOM      3  N   UNL d   1       0.173   0.281   3.540  0.00  0.00    -0.299 N 
ATOM      4  C   UNL d   1       0.613  -0.213   4.757  0.00  0.00     0.259 C 
ATOM      5  O   UNL d   1       1.799  -0.188   5.088  0.00  0.00    -0.267 OA
ATOM      6  H   UNL d   1      -0.827   0.325   3.384  0.00  0.00     0.171 HD
BRANCH   4   7
ATOM      7  C   UNL d   1      -0.417  -0.788   5.685  0.00  0.00     0.054 A 
ATOM      8  C   UNL d   1      -1.810  -0.612   5.593  0.00  0.00     0.049 A 
ATOM      9 CL   UNL d   1      -2.594   0.393   4.423  0.00  0.00    -0.083 Cl
ATOM     10  C   UNL d   1      -2.668  -1.250   6.502  0.00  0.00     0.025 A 
ATOM     11  C   UNL d   1      -2.157  -2.055   7.516  0.00  0.00     0.002 A 
ATOM     12  C   UNL d   1      -0.782  -2.225   7.633  0.00  0.00     0.001 A 
ATOM     13  C   UNL d   1       0.079  -1.598   6.727  0.00  0.00     0.019 A 
ENDBRANCH   4   7
ENDBRANCH   1   3
BRANCH   1  14
ATOM     14  N   UNL d   1       2.247   0.488   2.491  0.00  0.00    -0.333 N 
ATOM     15  H   UNL d   1       2.624   0.546   3.438  0.00  0.00     0.168 HD
BRANCH  14  16
ATOM     16  C   UNL d   1       3.182   0.315   1.450  0.00  0.00     0.035 A 
ATOM     17  C   UNL d   1       2.843  -0.301   0.243  0.00  0.00     0.047 A 
ATOM     18  C   UNL d   1       3.806  -0.532  -0.748  0.00  0.00     0.041 A 
ATOM     19  C   UNL d   1       5.124  -0.114  -0.534  0.00  0.00     0.018 A 
ATOM     20  C   UNL d   1       5.476   0.487   0.676  0.00  0.00     0.003 A 
ATOM     21  C   UNL d   1       4.513   0.676   1.674  0.00  0.00     0.029 A 
BRANCH  18  22
ATOM     22  C   UNL d   1       3.474  -1.263  -2.001  0.00  0.00     0.293 C 
ATOM     23  O   UNL d   1       4.258  -1.428  -2.922  0.00  0.00    -0.259 OA
BRANCH  22  24
ATOM     24  O   UNL d   1       2.211  -1.754  -1.932  0.00  0.00    -0.323 OA
ATOM     25  C   UNL d   1       1.818  -2.562  -3.041  0.00  0.00     0.213 C 
ENDBRANCH  22  24
ENDBRANCH  18  22
ENDBRANCH  14  16
ENDBRANCH   1  14
TORSDOF 6
