REMARK  3 active torsions:
REMARK  status: ('A' for Active; 'I' for Inactive)
REMARK    1  A    between atoms: S_2  and  C_1 
REMARK    2  A    between atoms: C_11  and  S_2 
REMARK    3  A    between atoms: C_5  and  C_3 
REMARK       I    between atoms: N_6  and  C_5 
ROOT
ATOM      1  C   UNL d   1       0.726   1.262  -0.308  0.00  0.00     0.078 C 
ATOM      2  C   UNL d   1       0.353  -1.008   0.149  0.00  0.00     0.080 C 
ATOM      3  C   UNL d   1       1.188  -0.094  -0.510  0.00  0.00    -0.017 C 
ATOM      4  S   UNL d   1      -0.744  -0.185   1.192  0.00  0.00    -0.094 SA
ATOM      5  C   UNL d   1      -0.399   1.321   0.490  0.00  0.00     0.075 C 
ATOM      6  C   UNL d   1       2.405  -0.458  -1.313  0.00  0.00     0.051 C 
ENDROOT
BRANCH   2   7
ATOM      7  C   UNL d   1       0.469  -2.483   0.190  0.00  0.00     0.265 C 
ATOM      8  N   UNL d   1      -0.699  -3.301   0.141  0.00  0.00    -0.313 N 
ATOM      9  C   UNL d   1      -0.657  -4.741   0.333  0.00  0.00     0.043 A 
ATOM     10  C   UNL d   1      -2.037  -2.736  -0.096  0.00  0.00     0.133 C 
ATOM     11  C   UNL d   1      -1.787  -5.536   0.032  0.00  0.00    -0.031 A 
ATOM     12  C   UNL d   1       0.471  -5.411   0.834  0.00  0.00     0.031 A 
ATOM     13  C   UNL d   1      -1.754  -6.935   0.214  0.00  0.00     0.016 A 
ATOM     14  C   UNL d   1      -3.087  -4.952  -0.448  0.00  0.00     0.042 C 
ATOM     15  C   UNL d   1      -0.615  -7.579   0.692  0.00  0.00    -0.061 A 
ATOM     16  C   UNL d   1       0.497  -6.803   1.006  0.00  0.00     0.009 A 
ATOM     17  C   UNL d   1      -0.604  -9.068   0.859  0.00  0.00     0.048 C 
ATOM     18  C   UNL d   1      -2.905  -3.567  -1.015  0.00  0.00     0.025 C 
ATOM     19  O   UNL d   1       1.606  -2.962   0.210  0.00  0.00    -0.266 OA
ENDBRANCH   2   7
BRANCH   1  20
ATOM     20  S   UNL d   1       1.489   2.736  -0.856  0.00  0.00     0.207 S 
ATOM     21  O   UNL d   1       2.351   2.370  -1.963  0.00  0.00    -0.217 OA
ATOM     22  O   UNL d   1       0.411   3.688  -0.994  0.00  0.00    -0.217 OA
BRANCH  20  23
ATOM     23  C   UNL d   1       2.490   3.201   0.534  0.00  0.00     0.064 A 
ATOM     24  C   UNL d   1       3.828   2.802   0.594  0.00  0.00     0.025 A 
ATOM     25  C   UNL d   1       4.590   3.129   1.717  0.00  0.00     0.025 A 
ATOM     26  C   UNL d   1       4.017   3.859   2.760  0.00  0.00     0.034 A 
ATOM     27  C   UNL d   1       2.688   4.276   2.687  0.00  0.00     0.025 A 
ATOM     28 CL   UNL d   1       4.958   4.249   4.146  0.00  0.00    -0.084 Cl
ATOM     29  C   UNL d   1       1.919   3.953   1.567  0.00  0.00     0.025 A 
ENDBRANCH  20  23
ENDBRANCH   1  20
TORSDOF 3
