REMARK  5 active torsions:
REMARK  status: ('A' for Active; 'I' for Inactive)
REMARK    1  A    between atoms: N_2  and  S_1 
REMARK    2  A    between atoms: C_6  and  S_1 
REMARK       I    between atoms: C_3  and  N_8 
REMARK       I    between atoms: N_7  and  C_3 
REMARK    3  A    between atoms: C_12  and  N_7 
REMARK    4  A    between atoms: N_8  and  C_13 
REMARK    5  A    between atoms: C_13  and  C_16 
ROOT
ATOM      1  N   UNL d   1       0.492  -0.745  -1.336  0.00  0.00    -0.307 N 
ATOM      2  C   UNL d   1       1.056   0.064  -2.446  0.00  0.00     0.136 C 
ATOM      3  C   UNL d   1       0.702  -2.210  -1.465  0.00  0.00     0.136 C 
ATOM      4  C   UNL d   1       0.577  -0.461  -3.796  0.00  0.00     0.027 C 
ATOM      5  C   UNL d   1       0.253  -2.721  -2.834  0.00  0.00     0.027 C 
ATOM      6  C   UNL d   1       0.900  -1.946  -3.994  0.00  0.00     0.006 C 
ENDROOT
BRANCH   6   7
ATOM      7  C   UNL d   1       2.408  -2.257  -4.096  0.00  0.00     0.129 C 
BRANCH   7   8
ATOM      8  N   UNL d   1       3.074  -1.588  -5.199  0.00  0.00    -0.342 N 
ATOM      9  C   UNL d   1       3.834  -0.451  -5.012  0.00  0.00     0.320 C 
ATOM     10  N   UNL d   1       4.432  -0.040  -6.181  0.00  0.00    -0.309 N 
ATOM     11  O   UNL d   1       3.941   0.085  -3.917  0.00  0.00    -0.247 OA
ATOM     12  H   UNL d   1       4.433  -0.706  -6.937  0.00  0.00     0.170 HD
ATOM     13  H   UNL d   1       2.888  -1.906  -6.138  0.00  0.00     0.164 HD
BRANCH  10  14
ATOM     14  C   UNL d   1       5.181   1.139  -6.382  0.00  0.00     0.036 A 
ATOM     15  C   UNL d   1       5.273   2.173  -5.446  0.00  0.00     0.029 A 
ATOM     16  C   UNL d   1       6.008   3.329  -5.730  0.00  0.00     0.002 A 
ATOM     17  C   UNL d   1       6.657   3.463  -6.954  0.00  0.00     0.000 A 
ATOM     18  C   UNL d   1       6.577   2.438  -7.893  0.00  0.00     0.002 A 
ATOM     19  C   UNL d   1       5.842   1.283  -7.609  0.00  0.00     0.029 A 
ENDBRANCH  10  14
ENDBRANCH   7   8
ENDBRANCH   6   7
BRANCH   1  20
ATOM     20  S   UNL d   1       0.775  -0.113   0.237  0.00  0.00     0.260 S 
ATOM     21  O   UNL d   1      -0.086  -0.840   1.151  0.00  0.00    -0.200 OA
ATOM     22  O   UNL d   1       0.742   1.332   0.175  0.00  0.00    -0.200 OA
BRANCH  20  23
ATOM     23  C   UNL d   1       2.454  -0.606   0.600  0.00  0.00     0.079 A 
ATOM     24  C   UNL d   1       3.532   0.141   0.120  0.00  0.00     0.025 A 
ATOM     25  C   UNL d   1       4.836  -0.267   0.414  0.00  0.00     0.002 A 
ATOM     26  C   UNL d   1       5.057  -1.400   1.200  0.00  0.00     0.000 A 
ATOM     27  C   UNL d   1       3.978  -2.128   1.700  0.00  0.00     0.002 A 
ATOM     28  C   UNL d   1       2.673  -1.730   1.407  0.00  0.00     0.025 A 
ENDBRANCH  20  23
ENDBRANCH   1  20
TORSDOF 5
