REMARK  6 active torsions:
REMARK  status: ('A' for Active; 'I' for Inactive)
REMARK       I    between atoms: N_5  and  C_1 
REMARK    1  A    between atoms: C_8  and  C_1 
REMARK    2  A    between atoms: C_2  and  N_7 
REMARK    3  A    between atoms: C_3  and  O_4 
REMARK    4  A    between atoms: O_4  and  C_8 
REMARK    5  A    between atoms: N_7  and  N_5 
REMARK    6  A    between atoms: C_11  and  C_6 
ROOT
ATOM      1  O   UNL d   1       0.506  -2.092  -0.110  0.00  0.00    -0.336 OA
ENDROOT
BRANCH   1   2
ATOM      2  C   UNL d   1       1.726  -2.730  -0.238  0.00  0.00     0.081 A 
ATOM      3  C   UNL d   1       2.898  -1.985   0.058  0.00  0.00     0.007 A 
ATOM      4  C   UNL d   1       4.146  -2.635  -0.121  0.00  0.00     0.015 A 
ATOM      5  C   UNL d   1       4.249  -3.965  -0.526  0.00  0.00     0.001 A 
ATOM      6  C   UNL d   1       3.098  -4.688  -0.778  0.00  0.00     0.003 A 
ATOM      7  C   UNL d   1       1.852  -4.076  -0.639  0.00  0.00     0.037 A 
BRANCH   3   8
ATOM      8  C   UNL d   1       2.909  -0.582   0.562  0.00  0.00    -0.023 A 
ATOM      9  C   UNL d   1       3.839  -0.183   1.550  0.00  0.00     0.012 A 
ATOM     10  C   UNL d   1       3.921   1.137   2.002  0.00  0.00     0.001 A 
ATOM     11  C   UNL d   1       3.051   2.095   1.498  0.00  0.00     0.000 A 
ATOM     12  C   UNL d   1       2.109   1.730   0.538  0.00  0.00     0.001 A 
ATOM     13  C   UNL d   1       2.051   0.412   0.068  0.00  0.00     0.012 A 
ENDBRANCH   3   8
ENDBRANCH   1   2
BRANCH   1  14
ATOM     14  C   UNL d   1      -0.686  -2.839  -0.348  0.00  0.00     0.218 C 
ATOM     15  C   UNL d   1      -1.117  -3.539   0.939  0.00  0.00     0.050 C 
BRANCH  14  16
ATOM     16  C   UNL d   1      -1.860  -1.990  -0.857  0.00  0.00     0.265 C 
ATOM     17  N   UNL d   1      -2.123  -0.815  -0.195  0.00  0.00    -0.266 N 
ATOM     18  H   UNL d   1      -1.533  -0.419   0.537  0.00  0.00     0.190 HD
ATOM     19  O   UNL d   1      -2.603  -2.398  -1.757  0.00  0.00    -0.269 OA
BRANCH  17  20
ATOM     20  N   UNL d   1      -3.323  -0.168  -0.529  0.00  0.00    -0.274 N 
ATOM     21  H   UNL d   1      -3.846  -0.626  -1.272  0.00  0.00     0.189 HD
BRANCH  20  22
ATOM     22  C   UNL d   1      -3.747   0.988   0.053  0.00  0.00     0.186 C 
ATOM     23  S   UNL d   1      -2.881   1.852   1.197  0.00  0.00    -0.040 SA
ATOM     24  N   UNL d   1      -4.971   1.459  -0.319  0.00  0.00    -0.370 N 
ATOM     25  C   UNL d   1      -5.980   0.856  -1.171  0.00  0.00     0.148 C 
ATOM     26  H   UNL d   1      -5.246   2.304   0.169  0.00  0.00     0.161 HD
ENDBRANCH  20  22
ENDBRANCH  17  20
ENDBRANCH  14  16
ENDBRANCH   1  14
TORSDOF 6
