REMARK  5 active torsions:
REMARK  status: ('A' for Active; 'I' for Inactive)
REMARK    1  A    between atoms: N_8  and  C_3 
REMARK    2  A    between atoms: S_13  and  C_4 
REMARK    3  A    between atoms: C_15  and  N_7 
REMARK    4  A    between atoms: N_14  and  C_10 
REMARK    5  A    between atoms: C_16  and  C_15 
ROOT
ATOM      1  N   UNL d   1      -0.976   5.735  -1.112  0.00  0.00    -0.197 NA
ATOM      2  C   UNL d   1      -0.620   4.632  -1.163  0.00  0.00     0.060 C 
ATOM      3  C   UNL d   1      -0.189   3.233  -1.205  0.00  0.00     0.146 C 
ENDROOT
BRANCH   3   4
ATOM      4  C   UNL d   1      -0.710   2.490   0.018  0.00  0.00     0.166 C 
BRANCH   4   5
ATOM      5  N   UNL d   1      -0.309   1.100   0.016  0.00  0.00    -0.255 N 
ATOM      6  C   UNL d   1      -1.050  -0.045  -0.007  0.00  0.00     0.176 A 
ATOM      7  N   UNL d   1      -0.252  -1.090   0.033  0.00  0.00    -0.167 N 
ATOM      8  C   UNL d   1       0.993  -0.518   0.065  0.00  0.00     0.700 A 
ATOM      9  HN  UNL d   1      -0.498  -2.080   0.040  1.00  0.00     0.186 HD
ATOM     10  N   UNL d   1       0.999   0.816   0.066  0.00  0.00    -0.128 N 
ATOM     11  HN  UNL d   1       1.794   1.455   0.098  1.00  0.00     0.206 HD
BRANCH   6  12
ATOM     12  S   UNL d   1      -2.774  -0.045  -0.134  0.00  0.00    -0.096 SA
ATOM     13  C   UNL d   1      -3.215  -1.500   0.833  0.00  0.00     0.099 C 
ENDBRANCH   6  12
BRANCH   8  14
ATOM     14  N   UNL d   1       2.243  -1.124   0.073  0.00  0.00    -0.186 N 
ATOM     15  C   UNL d   1       2.242  -2.410   0.041  0.00  0.00     0.195 C 
ATOM     16  HN  UNL d   1       3.107  -0.583   0.103  1.00  0.00     0.185 HD
BRANCH  15  17
ATOM     17  N   UNL d   1       3.394  -3.179   0.028  0.00  0.00    -0.385 N 
ATOM     18  C   UNL d   1       3.374  -4.628   0.021  0.00  0.00     0.149 C 
ATOM     19  C   UNL d   1       4.714  -2.563   0.029  0.00  0.00     0.149 C 
ENDBRANCH  15  17
ENDBRANCH   8  14
ENDBRANCH   4   5
ENDBRANCH   3   4
TORSDOF 5
