REMARK  4 active torsions:
REMARK  status: ('A' for Active; 'I' for Inactive)
REMARK    1  A    between atoms: C_3  and  C_1 
REMARK    2  A    between atoms: C_2  and  C_6 
REMARK    3  A    between atoms: O_8  and  C_2 
REMARK    4  A    between atoms: N_4  and  O_8 
ROOT
ATOM      1  N   UNL d   1       0.373  -4.117   5.105  0.00  0.00    -0.266 N 
ATOM      2  HN  UNL d   1       0.291  -3.100   5.089  1.00  0.00     0.194 HD
ATOM      3  C   UNL d   1       0.160  -4.823   6.174  0.00  0.00     0.010 C 
ATOM      4  C   UNL d   1      -0.224  -4.073   7.455  0.00  0.00     0.054 C 
ATOM      5  C   UNL d   1       0.304  -6.337   6.268  0.00  0.00     0.054 C 
ATOM      6  C   UNL d   1      -1.531  -3.283   7.305  0.00  0.00     0.006 C 
ATOM      7  C   UNL d   1      -0.712  -7.070   5.389  0.00  0.00     0.006 C 
ATOM      8  C   UNL d   1      -2.581  -3.613   8.381  0.00  0.00     0.000 C 
ATOM      9  C   UNL d   1      -1.619  -8.036   6.168  0.00  0.00     0.000 C 
ATOM     10  C   UNL d   1      -3.965  -3.948   7.798  0.00  0.00     0.000 C 
ATOM     11  C   UNL d   1      -3.110  -7.849   5.838  0.00  0.00     0.000 C 
ATOM     12  C   UNL d   1      -4.478  -5.338   8.211  0.00  0.00     0.000 C 
ATOM     13  C   UNL d   1      -3.974  -7.591   7.083  0.00  0.00     0.000 C 
ATOM     14  C   UNL d   1      -4.752  -6.266   7.016  0.00  0.00     0.000 C 
ENDROOT
BRANCH   1  15
ATOM     15  O   UNL d   1       0.730  -4.876   3.962  0.00  0.00    -0.195 OA
BRANCH  15  16
ATOM     16  C   UNL d   1       0.889  -4.030   2.891  0.00  0.00     0.315 C 
ATOM     17  O   UNL d   1       0.796  -2.804   2.906  0.00  0.00    -0.257 OA
BRANCH  16  18
ATOM     18  C   UNL d   1       1.201  -4.757   1.621  0.00  0.00     0.042 A 
ATOM     19  C   UNL d   1       1.312  -6.151   1.534  0.00  0.00     0.034 A 
ATOM     20  C   UNL d   1       1.630  -6.774   0.307  0.00  0.00     0.048 A 
ATOM     21  C   UNL d   1       1.822  -5.986  -0.840  0.00  0.00     0.016 A 
ATOM     22  C   UNL d   1       1.704  -4.600  -0.767  0.00  0.00     0.002 A 
ATOM     23  C   UNL d   1       1.399  -3.993   0.454  0.00  0.00     0.018 A 
BRANCH  20  24
ATOM     24  C   UNL d   1       1.780  -8.274   0.206  0.00  0.00     0.417 C 
ATOM     25  F   UNL d   1       1.610  -8.914   1.395  0.00  0.00    -0.166 F 
ATOM     26  F   UNL d   1       3.012  -8.642  -0.244  0.00  0.00    -0.166 F 
ATOM     27  F   UNL d   1       0.885  -8.833  -0.654  0.00  0.00    -0.166 F 
ENDBRANCH  20  24
ENDBRANCH  16  18
ENDBRANCH  15  16
ENDBRANCH   1  15
TORSDOF 4
