REMARK  3 active torsions:
REMARK  status: ('A' for Active; 'I' for Inactive)
REMARK    1  A    between atoms: C_12  and  C_1 
REMARK    2  A    between atoms: C_14  and  C_8 
REMARK    3  A    between atoms: C_13  and  C_12 
ROOT
ATOM      1  C   UNL d   1      -2.409  -0.737   0.053  0.00  0.00     0.065 A 
ATOM      2  C   UNL d   1      -0.249   0.467  -0.006  0.00  0.00     0.089 A 
ATOM      3  C   UNL d   1      -1.324  -1.615   0.039  0.00  0.00    -0.026 A 
ATOM      4  C   UNL d   1      -0.053  -0.905   0.013  0.00  0.00     0.027 A 
ATOM      5  S   UNL d   1      -1.892   0.895  -0.022  0.00  0.00    -0.067 SA
ATOM      6  N   UNL d   1       0.695   1.422  -0.028  0.00  0.00    -0.335 N 
ATOM      7  HN  UNL d   1       0.482   2.420  -0.029  1.00  0.00     0.168 HD
ATOM      8  C   UNL d   1       1.942   0.936  -0.049  0.00  0.00     0.116 A 
ATOM      9  N   UNL d   1       2.264  -0.373  -0.039  0.00  0.00    -0.345 N 
ATOM     10  HN  UNL d   1       3.244  -0.654  -0.054  1.00  0.00     0.167 HD
ATOM     11  C   UNL d   1       1.292  -1.319  -0.010  0.00  0.00     0.020 A 
ATOM     12  C   UNL d   1      -1.427  -3.112   0.045  0.00  0.00     0.050 C 
ATOM     13  C   UNL d   1       1.770  -2.739  -0.019  0.00  0.00     0.069 C 
ENDROOT
BRANCH   1  14
ATOM     14  C   UNL d   1      -3.831  -1.077  -0.001  0.00  0.00     0.199 C 
ATOM     15  O   UNL d   1      -4.236  -2.089  -0.577  0.00  0.00    -0.286 OA
BRANCH  14  16
ATOM     16  C   UNL d   1      -4.886  -0.233   0.641  0.00  0.00     0.015 A 
ATOM     17  C   UNL d   1      -4.664   0.514   1.806  0.00  0.00     0.017 A 
ATOM     18  C   UNL d   1      -5.702   1.270   2.365  0.00  0.00     0.025 A 
ATOM     19  C   UNL d   1      -6.968   1.260   1.780  0.00  0.00     0.034 A 
ATOM     20  C   UNL d   1      -7.212   0.493   0.644  0.00  0.00     0.025 A 
ATOM     21 CL   UNL d   1      -8.239   2.189   2.472  0.00  0.00    -0.084 Cl
ATOM     22  C   UNL d   1      -6.174  -0.253   0.079  0.00  0.00     0.017 A 
ENDBRANCH  14  16
ENDBRANCH   1  14
BRANCH   8  23
ATOM     23  C   UNL d   1       3.072   1.892  -0.099  0.00  0.00     0.008 A 
ATOM     24  C   UNL d   1       2.879   3.283  -0.008  0.00  0.00     0.015 A 
ATOM     25  C   UNL d   1       3.957   4.175  -0.064  0.00  0.00     0.001 A 
ATOM     26  C   UNL d   1       5.256   3.696  -0.216  0.00  0.00     0.000 A 
ATOM     27  C   UNL d   1       5.479   2.327  -0.308  0.00  0.00     0.001 A 
ATOM     28  C   UNL d   1       4.400   1.440  -0.249  0.00  0.00     0.015 A 
ENDBRANCH   8  23
TORSDOF 3
