REMARK  1 active torsions:
REMARK  status: ('A' for Active; 'I' for Inactive)
REMARK    1  A    between atoms: C_4  and  C_1 
ROOT
ATOM      1  C   UNL d   1       1.183  -1.196  -0.017  0.00  0.00     0.131 A 
ATOM      2  N   UNL d   1       0.032   0.928  -0.002  0.00  0.00    -0.275 N 
ATOM      3  C   UNL d   1       1.239   0.278  -0.007  0.00  0.00     0.265 A 
ATOM      4  C   UNL d   1      -1.197   0.332   0.012  0.00  0.00     0.327 A 
ATOM      5  C   UNL d   1      -0.026  -1.776  -0.010  0.00  0.00     0.114 A 
ATOM      6  N   UNL d   1      -1.177  -1.036   0.006  0.00  0.00    -0.318 N 
ATOM      7  O   UNL d   1       2.287   0.909  -0.002  0.00  0.00    -0.267 OA
ATOM      8  O   UNL d   1      -2.242   0.970   0.030  0.00  0.00    -0.247 OA
ATOM      9  H   UNL d   1       0.050   1.937   0.006  0.00  0.00     0.173 HD
ATOM     10  H   UNL d   1      -2.087  -1.487   0.016  0.00  0.00     0.170 HD
ENDROOT
BRANCH   1  11
ATOM     11  C   UNL d   1       2.451  -1.966  -0.028  0.00  0.00     0.424 C 
ATOM     12  F   UNL d   1       3.593  -1.244  -0.087  0.00  0.00    -0.166 F 
ATOM     13  F   UNL d   1       2.547  -2.751   1.080  0.00  0.00    -0.166 F 
ATOM     14  F   UNL d   1       2.484  -2.820  -1.089  0.00  0.00    -0.166 F 
ENDBRANCH   1  11
TORSDOF 1
