REMARK  1 active torsions:
REMARK  status: ('A' for Active; 'I' for Inactive)
REMARK    1  A    between atoms: S_5  and  C_1 
ROOT
ATOM      1  C   UNL d   1       1.176  -1.534   0.126  0.00  0.00     0.115 A 
ATOM      2  C   UNL d   1       0.054  -0.725   0.071  0.00  0.00     0.046 A 
ATOM      3  C   UNL d   1       0.375   0.686   0.010  0.00  0.00    -0.014 A 
ATOM      4  S   UNL d   1       2.604  -0.584   0.073  0.00  0.00    -0.066 SA
ATOM      5  C   UNL d   1       1.744   0.889  -0.017  0.00  0.00     0.093 A 
ATOM      6  C   UNL d   1      -1.329  -1.186   0.069  0.00  0.00     0.162 C 
ATOM      7  C   UNL d   1       2.401   2.156  -0.110  0.00  0.00     0.107 C 
ATOM      8  C   UNL d   1      -0.707   1.748  -0.041  0.00  0.00     0.050 C 
ATOM      9  N   UNL d   1       2.911   3.201  -0.183  0.00  0.00    -0.191 NA
ATOM     10  C   UNL d   1      -2.107   1.188   0.351  0.00  0.00    -0.037 C 
ATOM     11  C   UNL d   1      -2.346  -0.154  -0.379  0.00  0.00     0.093 C 
ATOM     12  O   UNL d   1      -1.663  -2.302   0.446  0.00  0.00    -0.292 OA
ATOM     13  C   UNL d   1      -3.216   2.170  -0.066  0.00  0.00     0.015 C 
ATOM     14  C   UNL d   1      -2.197   0.998   1.882  0.00  0.00     0.015 C 
ENDROOT
BRANCH   1  15
ATOM     15  S   UNL d   1       1.405  -3.312   0.099  0.00  0.00     0.179 S 
ATOM     16  O   UNL d   1       0.631  -3.748  -1.049  0.00  0.00    -0.222 OA
ATOM     17  O   UNL d   1       2.833  -3.550   0.171  0.00  0.00    -0.222 OA
ATOM     18  C   UNL d   1       0.686  -3.949   1.586  0.00  0.00     0.167 C 
ENDBRANCH   1  15
TORSDOF 1
