REMARK  5 active torsions:
REMARK  status: ('A' for Active; 'I' for Inactive)
REMARK    1  A    between atoms: O_9  and  C_1 
REMARK    2  A    between atoms: C_10  and  N_3 
REMARK    3  A    between atoms: N_6  and  C_11 
REMARK    4  A    between atoms: C_20  and  O_9 
REMARK    5  A    between atoms: O_26  and  C_21 
ROOT
ATOM      1  C   UNL d   1      -0.720   1.268  -0.110  0.00  0.00     0.168 C 
ATOM      2  C   UNL d   1      -1.427  -0.018  -0.434  0.00  0.00     0.302 C 
ATOM      3  N   UNL d   1      -0.737  -1.200  -0.110  0.00  0.00    -0.219 N 
ATOM      4  N   UNL d   1       0.621  -1.217   0.161  0.00  0.00    -0.300 N 
ATOM      5  HN  UNL d   1       1.115  -2.091   0.341  1.00  0.00     0.186 HD
ATOM      6  C   UNL d   1       0.602   1.232   0.070  0.00  0.00     0.090 C 
ATOM      7  C   UNL d   1       1.238  -0.081   0.177  0.00  0.00     0.134 C 
ATOM      8  O   UNL d   1      -2.561   0.037  -0.917  0.00  0.00    -0.263 OA
ATOM      9 CL   UNL d   1       1.592   2.611   0.297  0.00  0.00    -0.080 Cl
ENDROOT
BRANCH   1  10
ATOM     10  O   UNL d   1      -1.396   2.491  -0.098  0.00  0.00    -0.303 OA
BRANCH  10  11
ATOM     11  C   UNL d   1      -2.681   2.575   0.389  0.00  0.00     0.076 A 
ATOM     12  C   UNL d   1      -3.193   1.782   1.421  0.00  0.00     0.040 A 
ATOM     13  C   UNL d   1      -4.540   1.893   1.791  0.00  0.00     0.039 A 
ATOM     14  C   UNL d   1      -5.366   2.831   1.171  0.00  0.00     0.068 A 
ATOM     15  C   UNL d   1      -4.826   3.675   0.198  0.00  0.00     0.039 A 
ATOM     16  C   UNL d   1      -3.490   3.550  -0.192  0.00  0.00     0.040 A 
BRANCH  14  17
ATOM     17  O   UNL d   1      -6.694   3.027   1.428  0.00  0.00    -0.356 OA
ATOM     18  C   UNL d   1      -7.321   2.105   2.311  0.00  0.00     0.210 C 
ENDBRANCH  14  17
ENDBRANCH  10  11
ENDBRANCH   1  10
BRANCH   3  19
ATOM     19  C   UNL d   1      -1.351  -2.504  -0.091  0.00  0.00     0.060 A 
ATOM     20  C   UNL d   1      -2.587  -2.767  -0.703  0.00  0.00     0.034 A 
ATOM     21  C   UNL d   1      -3.201  -4.022  -0.611  0.00  0.00     0.038 A 
ATOM     22  C   UNL d   1      -2.583  -5.042   0.113  0.00  0.00     0.103 A 
ATOM     23  C   UNL d   1      -1.345  -4.820   0.720  0.00  0.00     0.038 A 
ATOM     24  C   UNL d   1      -0.734  -3.562   0.606  0.00  0.00     0.034 A 
BRANCH  22  25
ATOM     25  N   UNL d   1      -3.244  -6.347   0.240  0.00  0.00    -0.116 N 
ATOM     26  O   UNL d   1      -2.672  -7.220   0.906  0.00  0.00    -0.532 OA
ATOM     27  O   UNL d   1      -4.338  -6.497  -0.322  0.00  0.00    -0.532 OA
ENDBRANCH  22  25
ENDBRANCH   3  19
TORSDOF 5
