REMARK  4 active torsions:
REMARK  status: ('A' for Active; 'I' for Inactive)
REMARK    1  A    between atoms: N_7  and  C_1 
REMARK    2  A    between atoms: C_10  and  C_4 
REMARK    3  A    between atoms: C_11  and  C_6 
REMARK       I    between atoms: C_8  and  N_7 
REMARK    4  A    between atoms: C_9  and  C_8 
ROOT
ATOM      1  C   UNL d   1       1.308  -0.761   0.066  0.00  0.00     0.085 A 
ATOM      2  N   UNL d   1       0.276   1.249   0.112  0.00  0.00    -0.300 N 
ATOM      3  HN  UNL d   1       0.093   2.250   0.179  1.00  0.00     0.187 HD
ATOM      4  C   UNL d   1       1.470   0.655   0.021  0.00  0.00     0.062 A 
ATOM      5  N   UNL d   1      -0.631   0.263   0.098  0.00  0.00    -0.297 N 
ATOM      6  C   UNL d   1      -0.077  -1.006   0.101  0.00  0.00     0.064 A 
ATOM      7  C   UNL d   1      -1.980   0.759  -0.033  0.00  0.00     0.177 C 
ENDROOT
BRANCH   1   8
ATOM      8  N   UNL d   1       2.317  -1.712  -0.100  0.00  0.00    -0.319 N 
ATOM      9  C   UNL d   1       2.861  -2.403   0.980  0.00  0.00     0.263 C 
ATOM     10  O   UNL d   1       2.361  -2.431   2.102  0.00  0.00    -0.267 OA
ATOM     11  H   UNL d   1       3.028  -1.465  -0.774  0.00  0.00     0.169 HD
BRANCH   9  12
ATOM     12  C   UNL d   1       4.119  -3.112   0.693  0.00  0.00     0.072 A 
ATOM     13  S   UNL d   1       5.094  -2.742  -0.673  0.00  0.00    -0.097 SA
ATOM     14  C   UNL d   1       6.321  -3.830  -0.191  0.00  0.00     0.050 A 
ATOM     15  C   UNL d   1       5.973  -4.526   0.944  0.00  0.00     0.009 A 
ATOM     16  C   UNL d   1       4.704  -4.114   1.450  0.00  0.00     0.025 A 
ENDBRANCH   9  12
ENDBRANCH   1   8
BRANCH   4  17
ATOM     17  C   UNL d   1       2.695   1.567  -0.028  0.00  0.00    -0.005 C 
ATOM     18  C   UNL d   1       3.075   1.976   1.410  0.00  0.00     0.021 C 
ATOM     19  C   UNL d   1       3.924   0.920  -0.688  0.00  0.00     0.021 C 
ATOM     20  C   UNL d   1       2.394   2.854  -0.839  0.00  0.00     0.021 C 
ENDBRANCH   4  17
BRANCH   6  21
ATOM     21  C   UNL d   1      -0.840  -2.349  -0.020  0.00  0.00    -0.005 C 
ATOM     22  C   UNL d   1      -0.664  -2.861  -1.467  0.00  0.00     0.021 C 
ATOM     23  C   UNL d   1      -0.291  -3.392   0.973  0.00  0.00     0.021 C 
ATOM     24  C   UNL d   1      -2.353  -2.317   0.266  0.00  0.00     0.021 C 
ENDBRANCH   6  21
TORSDOF 4
