REMARK  3 active torsions:
REMARK  status: ('A' for Active; 'I' for Inactive)
REMARK       I    between atoms: N_2  and  C_1 
REMARK    1  A    between atoms: C_4  and  C_1 
REMARK       I    between atoms: C_3  and  N_5 
REMARK    2  A    between atoms: C_14  and  C_3 
REMARK    3  A    between atoms: N_5  and  C_15 
ROOT
ATOM      1  C   UNL d   1       1.031   0.037   0.053  0.00  0.00     0.277 C 
ATOM      2  N   UNL d   1       0.285   1.080  -0.511  0.00  0.00    -0.346 N 
ATOM      3  C   UNL d   1       0.759   1.719  -1.735  0.00  0.00     0.128 C 
ATOM      4  C   UNL d   1      -0.884   1.716   0.093  0.00  0.00     0.128 C 
ATOM      5  O   UNL d   1       2.160  -0.224  -0.374  0.00  0.00    -0.265 OA
ATOM      6  C   UNL d   1      -1.642   2.383  -2.225  0.00  0.00     0.087 C 
ATOM      7  C   UNL d   1      -2.045   1.730  -0.895  0.00  0.00     0.045 C 
ATOM      8  C   UNL d   1      -0.356   1.754  -2.779  0.00  0.00     0.045 C 
ENDROOT
BRANCH   6   9
ATOM      9  N   UNL d   1      -1.507   3.828  -2.063  0.00  0.00    -0.356 N 
ATOM     10  C   UNL d   1      -1.713   4.727  -3.091  0.00  0.00     0.222 C 
ATOM     11  O   UNL d   1      -2.051   4.371  -4.217  0.00  0.00    -0.273 OA
ATOM     12  H   UNL d   1      -1.109   4.190  -1.207  0.00  0.00     0.162 HD
BRANCH  10  13
ATOM     13  C   UNL d   1      -1.481   6.193  -2.635  0.00  0.00     0.078 C 
ATOM     14  C   UNL d   1      -1.686   7.344  -3.656  0.00  0.00     0.014 C 
ATOM     15  C   UNL d   1      -0.534   8.079  -2.938  0.00  0.00     0.002 C 
ATOM     16  C   UNL d   1      -0.011   6.687  -2.532  0.00  0.00     0.014 C 
ENDBRANCH  10  13
ENDBRANCH   6   9
BRANCH   1  17
ATOM     17  C   UNL d   1       0.460  -0.732   1.146  0.00  0.00     0.142 A 
ATOM     18  O   UNL d   1      -0.896  -0.917   1.237  0.00  0.00    -0.317 OA
ATOM     19  C   UNL d   1      -1.131  -1.692   2.325  0.00  0.00     0.143 A 
ATOM     20  C   UNL d   1       0.052  -2.055   2.920  0.00  0.00     0.027 A 
ATOM     21  C   UNL d   1       1.078  -1.451   2.154  0.00  0.00     0.045 A 
ENDBRANCH   1  17
TORSDOF 3
