REMARK  3 active torsions:
REMARK  status: ('A' for Active; 'I' for Inactive)
REMARK    1  A    between atoms: O_8  and  C_3 
REMARK       I    between atoms: C_4  and  N_5 
REMARK    2  A    between atoms: N_5  and  C_10 
REMARK    3  A    between atoms: C_13  and  O_8 
ROOT
ATOM      1  N   UNL d   1      -1.343  -0.002  -0.038  0.00  0.00    -0.344 N 
ATOM      2  HN  UNL d   1      -2.363  -0.034  -0.043  1.00  0.00     0.167 HD
ATOM      3  C   UNL d   1      -0.604  -1.129   0.009  0.00  0.00     0.148 A 
ATOM      4  C   UNL d   1       0.715   1.282  -0.091  0.00  0.00     0.050 A 
ATOM      5  C   UNL d   1      -0.672   1.175  -0.078  0.00  0.00     0.119 A 
ATOM      6  C   UNL d   1       0.779  -1.137  -0.058  0.00  0.00     0.059 A 
ATOM      7  C   UNL d   1       1.445   0.089  -0.106  0.00  0.00     0.035 A 
ENDROOT
BRANCH   3   8
ATOM      8  O   UNL d   1      -1.240  -2.357   0.123  0.00  0.00    -0.293 OA
BRANCH   8   9
ATOM      9  C   UNL d   1      -2.429  -2.386   0.810  0.00  0.00     0.093 A 
ATOM     10  C   UNL d   1      -3.436  -3.215   0.337  0.00  0.00     0.124 A 
ATOM     11  N   UNL d   1      -4.646  -3.359   0.933  0.00  0.00    -0.373 N 
ATOM     12  C   UNL d   1      -4.853  -2.635   2.054  0.00  0.00     0.088 A 
ATOM     13  HN  UNL d   1      -5.360  -3.981   0.555  1.00  0.00     0.164 HD
ATOM     14  C   UNL d   1      -3.904  -1.799   2.620  0.00  0.00     0.020 A 
ATOM     15  C   UNL d   1      -2.665  -1.689   1.995  0.00  0.00     0.040 A 
ENDBRANCH   8   9
ENDBRANCH   3   8
BRANCH   4  16
ATOM     16  N   UNL d   1       1.432   2.497  -0.071  0.00  0.00    -0.326 N 
ATOM     17  C   UNL d   1       0.888   3.764   0.044  0.00  0.00     0.218 C 
ATOM     18  O   UNL d   1      -0.304   4.036   0.127  0.00  0.00    -0.274 OA
ATOM     19  C   UNL d   1       1.924   4.859   0.078  0.00  0.00     0.117 C 
ATOM     20  H   UNL d   1       2.440   2.423  -0.095  0.00  0.00     0.169 HD
ENDBRANCH   4  16
TORSDOF 3
