REMARK  1 active torsions:
REMARK  status: ('A' for Active; 'I' for Inactive)
REMARK    1  A    between atoms: N_3  and  C_2 
ROOT
ATOM      1  C   UNL d   1      -0.311   0.425   0.486  0.00  0.00     0.109 A 
ATOM      2  C   UNL d   1       0.365   1.576   0.009  0.00  0.00     0.054 A 
ATOM      3  C   UNL d   1      -1.670   0.443   0.938  0.00  0.00     0.105 C 
ATOM      4  N   UNL d   1      -2.768   0.464   1.321  0.00  0.00    -0.191 NA
ATOM      5  C   UNL d   1       0.315  -0.830   0.468  0.00  0.00     0.139 A 
ATOM      6  F   UNL d   1      -0.336  -1.916   0.917  0.00  0.00    -0.204 F 
ATOM      7  C   UNL d   1       1.675   1.366  -0.478  0.00  0.00     0.031 A 
ATOM      8  C   UNL d   1       2.284   0.105  -0.506  0.00  0.00     0.005 A 
ATOM      9  C   UNL d   1       1.599  -1.000  -0.026  0.00  0.00     0.044 A 
ENDROOT
BRANCH   2  10
ATOM     10  N   UNL d   1      -0.195   2.848  -0.041  0.00  0.00    -0.379 N 
ATOM     11  C   UNL d   1       0.175   3.819  -1.076  0.00  0.00     0.124 C 
ATOM     12  C   UNL d   1      -1.113   4.358  -1.705  0.00  0.00     0.039 C 
ATOM     13  C   UNL d   1      -2.092   4.910  -0.659  0.00  0.00     0.096 C 
ATOM     14  C   UNL d   1      -1.621   6.207  -0.144  0.00  0.00     0.064 C 
ATOM     15  C   UNL d   1      -2.309   3.914   0.491  0.00  0.00     0.039 C 
ATOM     16  N   UNL d   1      -1.230   7.221   0.263  0.00  0.00    -0.197 NA
ATOM     17  C   UNL d   1      -0.980   3.414   1.062  0.00  0.00     0.124 C 
ENDBRANCH   2  10
TORSDOF 1
