REMARK  5 active torsions:
REMARK  status: ('A' for Active; 'I' for Inactive)
REMARK    1  A    between atoms: C_5  and  C_1 
REMARK    2  A    between atoms: C_6  and  C_2 
REMARK       I    between atoms: N_10  and  C_5 
REMARK    3  A    between atoms: C_18  and  N_10 
REMARK    4  A    between atoms: C_21  and  N_10 
REMARK    5  A    between atoms: C_15  and  C_18 
ROOT
ATOM      1  N   UNL d   1       2.174  -7.801  -0.878  0.00  0.00    -0.197 NA
ATOM      2  C   UNL d   1       1.615  -6.788  -0.997  0.00  0.00     0.060 C 
ATOM      3  C   UNL d   1       0.939  -5.498  -1.168  0.00  0.00     0.143 C 
ENDROOT
BRANCH   3   4
ATOM      4  C   UNL d   1       1.797  -4.369  -0.596  0.00  0.00     0.140 C 
BRANCH   4   5
ATOM      5  N   UNL d   1       1.264  -3.026  -0.868  0.00  0.00    -0.347 N 
ATOM      6  C   UNL d   1       0.265  -2.541   0.002  0.00  0.00     0.258 C 
ATOM      7  O   UNL d   1      -0.298  -3.289   0.799  0.00  0.00    -0.267 OA
BRANCH   6   8
ATOM      8  C   UNL d   1      -0.098  -1.137  -0.064  0.00  0.00     0.092 C 
ATOM      9  C   UNL d   1      -1.395  -0.519  -0.080  0.00  0.00     0.086 C 
ATOM     10  N   UNL d   1      -1.259   0.809  -0.245  0.00  0.00    -0.259 N 
ATOM     11  O   UNL d   1       0.075   1.091  -0.136  0.00  0.00    -0.241 OA
ATOM     12  HN  UNL d   1      -2.008   1.479  -0.420  1.00  0.00     0.195 HD
ATOM     13  C   UNL d   1       0.768  -0.062   0.023  0.00  0.00     0.090 C 
ATOM     14  C   UNL d   1       2.217   0.112   0.251  0.00  0.00     0.080 C 
BRANCH   9  15
ATOM     15  C   UNL d   1      -2.756  -1.066   0.017  0.00  0.00     0.037 A 
ATOM     16  C   UNL d   1      -3.677  -0.505   0.936  0.00  0.00     0.048 A 
ATOM     17 CL   UNL d   1      -3.224   0.653   2.151  0.00  0.00    -0.083 Cl
ATOM     18  C   UNL d   1      -5.030  -0.873   0.932  0.00  0.00     0.025 A 
ATOM     19  C   UNL d   1      -5.489  -1.841   0.049  0.00  0.00     0.003 A 
ATOM     20  C   UNL d   1      -4.591  -2.448  -0.824  0.00  0.00     0.025 A 
ATOM     21  C   UNL d   1      -3.239  -2.059  -0.853  0.00  0.00     0.048 A 
ATOM     22 CL   UNL d   1      -2.259  -2.819  -2.063  0.00  0.00    -0.083 Cl
ENDBRANCH   9  15
ENDBRANCH   6   8
BRANCH   5  23
ATOM     23  C   UNL d   1       1.861  -2.266  -1.979  0.00  0.00     0.121 C 
ATOM     24  C   UNL d   1       1.962  -3.009  -3.303  0.00  0.00     0.026 C 
ENDBRANCH   5  23
ENDBRANCH   4   5
ENDBRANCH   3   4
TORSDOF 5
