REMARK  2 active torsions:
REMARK  status: ('A' for Active; 'I' for Inactive)
REMARK    1  A    between atoms: C_5  and  S_1 
REMARK    2  A    between atoms: N_7  and  S_1 
ROOT
ATOM      1  C   UNL d   1      -2.488   2.790   3.686  0.00  0.00     0.147 A 
ATOM      2  N   UNL d   1      -3.418   2.660   4.609  0.00  0.00    -0.336 N 
ATOM      3  HN  UNL d   1      -3.393   1.968   5.358  1.00  0.00     0.168 HD
ATOM      4  S   UNL d   1      -2.859   3.995   2.495  0.00  0.00    -0.052 SA
ATOM      5  N   UNL d   1       0.306   0.477   1.641  0.00  0.00    -0.205 NA
ATOM      6  N   UNL d   1      -1.352   2.035   3.631  0.00  0.00    -0.360 N 
ATOM      7  C   UNL d   1      -4.318   4.388   3.303  0.00  0.00     0.036 A 
ATOM      8  C   UNL d   1      -4.435   3.583   4.434  0.00  0.00     0.051 A 
ATOM      9  C   UNL d   1       0.172   1.982   1.661  0.00  0.00     0.127 C 
ATOM     10  C   UNL d   1      -5.284   5.348   2.960  0.00  0.00     0.045 A 
ATOM     11  C   UNL d   1      -0.102   2.542   3.060  0.00  0.00     0.140 C 
ATOM     12  C   UNL d   1      -5.550   3.768   5.280  0.00  0.00     0.032 A 
ATOM     13  C   UNL d   1      -6.380   5.503   3.810  0.00  0.00     0.035 A 
ATOM     14  C   UNL d   1      -1.229  -0.434   3.423  0.00  0.00     0.035 C 
ATOM     15  C   UNL d   1      -1.023  -0.175   1.930  0.00  0.00     0.109 C 
ATOM     16  C   UNL d   1      -1.259   0.779   4.357  0.00  0.00     0.126 C 
ATOM     17  C   UNL d   1      -6.514   4.735   4.962  0.00  0.00     0.026 A 
ATOM     18 CL   UNL d   1      -7.584   6.673   3.423  0.00  0.00    -0.084 Cl
ENDROOT
BRANCH   5  19
ATOM     19  S   UNL d   1       0.999  -0.075   0.150  0.00  0.00     0.244 S 
ATOM     20  O   UNL d   1       1.005  -1.525   0.143  0.00  0.00    -0.206 OA
ATOM     21  O   UNL d   1       0.349   0.663  -0.908  0.00  0.00    -0.206 OA
BRANCH  19  22
ATOM     22  C   UNL d   1       2.719   0.449   0.225  0.00  0.00     0.081 A 
ATOM     23  C   UNL d   1       3.158   1.368  -0.750  0.00  0.00     0.033 A 
ATOM     24  C   UNL d   1       4.513   1.734  -0.859  0.00  0.00    -0.039 A 
ATOM     25  C   UNL d   1       4.954   2.654  -1.964  0.00  0.00     0.050 C 
ATOM     26  C   UNL d   1       5.428   1.176   0.039  0.00  0.00     0.040 A 
ATOM     27  C   UNL d   1       4.996   0.275   1.017  0.00  0.00     0.032 A 
ATOM     28 CL   UNL d   1       7.115   1.538  -0.037  0.00  0.00    -0.084 Cl
ATOM     29  C   UNL d   1       3.645  -0.114   1.122  0.00  0.00    -0.037 A 
ATOM     30  C   UNL d   1       3.337  -1.151   2.166  0.00  0.00     0.050 C 
ENDBRANCH  19  22
ENDBRANCH   5  19
TORSDOF 2
