REMARK  4 active torsions:
REMARK  status: ('A' for Active; 'I' for Inactive)
REMARK    1  A    between atoms: C_10  and  N_1 
REMARK       I    between atoms: C_3  and  N_4 
REMARK    2  A    between atoms: N_4  and  C_11 
REMARK    3  A    between atoms: C_12  and  C_5 
REMARK    4  A    between atoms: C_13  and  C_6 
ROOT
ATOM      1  N   UNL d   1       1.002   0.009  -0.179  0.00  0.00    -0.365 N 
ATOM      2  HN  UNL d   1       0.544   0.912  -0.300  1.00  0.00     0.165 HD
ATOM      3  C   UNL d   1       0.294  -1.061  -0.014  0.00  0.00     0.099 C 
ENDROOT
BRANCH   3   4
ATOM      4  C   UNL d   1      -1.182  -1.032  -0.056  0.00  0.00    -0.021 A 
ATOM      5  C   UNL d   1      -1.878   0.120  -0.424  0.00  0.00     0.015 A 
ATOM      6  C   UNL d   1      -3.275   0.095  -0.501  0.00  0.00     0.030 A 
ATOM      7  C   UNL d   1      -3.989  -1.078  -0.208  0.00  0.00     0.034 A 
ATOM      8  C   UNL d   1      -3.276  -2.218   0.173  0.00  0.00     0.030 A 
ATOM      9  C   UNL d   1      -1.880  -2.201   0.245  0.00  0.00     0.015 A 
BRANCH   7  10
ATOM     10  N   UNL d   1      -5.393  -1.032  -0.323  0.00  0.00    -0.328 N 
ATOM     11  C   UNL d   1      -6.284  -2.065  -0.093  0.00  0.00     0.218 C 
ATOM     12  O   UNL d   1      -6.010  -3.205   0.269  0.00  0.00    -0.274 OA
ATOM     13  C   UNL d   1      -7.723  -1.680  -0.336  0.00  0.00     0.117 C 
ATOM     14  H   UNL d   1      -5.782  -0.144  -0.615  0.00  0.00     0.169 HD
ENDBRANCH   7  10
ENDBRANCH   3   4
BRANCH   1  15
ATOM     15  C   UNL d   1       2.406  -0.076  -0.191  0.00  0.00     0.031 A 
ATOM     16  C   UNL d   1       3.092   0.832  -1.001  0.00  0.00     0.030 A 
ATOM     17  C   UNL d   1       4.489   0.828  -1.075  0.00  0.00     0.010 A 
ATOM     18  C   UNL d   1       5.242  -0.094  -0.336  0.00  0.00    -0.055 A 
ATOM     19  C   UNL d   1       4.558  -0.991   0.495  0.00  0.00     0.010 A 
ATOM     20  C   UNL d   1       3.158  -0.973   0.575  0.00  0.00     0.030 A 
BRANCH  18  21
ATOM     21  C   UNL d   1       6.757  -0.135  -0.421  0.00  0.00     0.010 C 
ATOM     22  C   UNL d   1       7.231  -0.425  -1.849  0.00  0.00     0.015 C 
ATOM     23  C   UNL d   1       7.389   1.155   0.107  0.00  0.00     0.015 C 
ENDBRANCH  18  21
ENDBRANCH   1  15
TORSDOF 4
