REMARK  7 active torsions:
REMARK  status: ('A' for Active; 'I' for Inactive)
REMARK    1  A    between atoms: S_2  and  C_1 
REMARK    2  A    between atoms: N_14  and  S_2 
REMARK    3  A    between atoms: C_10  and  C_19 
REMARK    4  A    between atoms: C_22  and  N_14 
REMARK    5  A    between atoms: C_19  and  S_23 
REMARK    6  A    between atoms: C_27  and  C_22 
REMARK    7  A    between atoms: S_23  and  C_27 
ROOT
ATOM      1  S   UNL d   1      -1.116  -3.262  -0.152  0.00  0.00     0.243 S 
ATOM      2  O   UNL d   1      -0.399  -4.002   0.869  0.00  0.00    -0.206 OA
ATOM      3  O   UNL d   1      -1.100  -1.822  -0.189  0.00  0.00    -0.206 OA
ENDROOT
BRANCH   1   4
ATOM      4  C   UNL d   1      -0.551  -3.837  -1.706  0.00  0.00     0.105 A 
ATOM      5  C   UNL d   1      -1.126  -3.405  -2.911  0.00  0.00     0.108 A 
ATOM      6  C   UNL d   1      -0.635  -3.879  -4.199  0.00  0.00     0.086 A 
ATOM      7  N   UNL d   1      -2.152  -2.575  -3.141  0.00  0.00    -0.238 N 
ATOM      8  N   UNL d   1      -1.359  -3.301  -5.164  0.00  0.00    -0.239 N 
ATOM      9  C   UNL d   1       0.425  -4.798  -4.313  0.00  0.00     0.034 A 
ATOM     10  O   UNL d   1      -2.281  -2.499  -4.517  0.00  0.00    -0.156 OA
ATOM     11  HN  UNL d   1      -1.253  -3.427  -6.171  1.00  0.00     0.197 HD
ATOM     12  C   UNL d   1       0.971  -5.227  -3.088  0.00  0.00     0.004 A 
ATOM     13  C   UNL d   1       0.505  -4.765  -1.830  0.00  0.00     0.027 A 
ATOM     14  HN  UNL d   1      -2.723  -2.096  -2.444  1.00  0.00     0.197 HD
ENDBRANCH   1   4
BRANCH   1  15
ATOM     15  N   UNL d   1      -2.726  -3.785  -0.115  0.00  0.00    -0.215 NA
ATOM     16  H   UNL d   1      -3.268  -3.366  -0.881  0.00  0.00     0.140 HD
BRANCH  15  17
ATOM     17  C   UNL d   1      -2.936  -5.240   0.046  0.00  0.00     0.114 C 
BRANCH  17  18
ATOM     18  C   UNL d   1      -4.427  -5.596   0.081  0.00  0.00     0.089 C 
BRANCH  18  19
ATOM     19  S   UNL d   1      -5.242  -5.081  -1.474  0.00  0.00    -0.163 SA
BRANCH  19  20
ATOM     20  C   UNL d   1      -6.922  -5.743  -1.177  0.00  0.00     0.117 C 
BRANCH  20  21
ATOM     21  C   UNL d   1      -7.821  -5.447  -2.350  0.00  0.00     0.011 A 
ATOM     22  C   UNL d   1      -7.891  -6.367  -3.405  0.00  0.00     0.125 A 
ATOM     23  F   UNL d   1      -7.226  -7.529  -3.318  0.00  0.00    -0.205 F 
ATOM     24  C   UNL d   1      -8.638  -6.120  -4.556  0.00  0.00     0.043 A 
ATOM     25  C   UNL d   1      -9.336  -4.925  -4.682  0.00  0.00     0.005 A 
ATOM     26  C   UNL d   1      -9.301  -3.998  -3.641  0.00  0.00     0.024 A 
ATOM     27  C   UNL d   1      -8.559  -4.260  -2.480  0.00  0.00     0.044 A 
ATOM     28 CL   UNL d   1      -8.612  -3.076  -1.223  0.00  0.00    -0.084 Cl
ENDBRANCH  20  21
ENDBRANCH  19  20
ENDBRANCH  18  19
ENDBRANCH  17  18
ENDBRANCH  15  17
ENDBRANCH   1  15
TORSDOF 7
