REMARK  3 active torsions:
REMARK  status: ('A' for Active; 'I' for Inactive)
REMARK    1  A    between atoms: C_2  and  C_1 
REMARK       I    between atoms: N_3  and  C_2 
REMARK    2  A    between atoms: C_18  and  N_5 
REMARK    3  A    between atoms: C_17  and  C_18 
ROOT
ATOM      1  C   UNL d   1       2.359  -1.945   0.219  0.00  0.00     0.257 C 
ATOM      2  N   UNL d   1       2.398  -3.293  -0.141  0.00  0.00    -0.345 N 
ATOM      3  N   UNL d   1       2.261  -6.232  -0.507  0.00  0.00     0.095 N 
ATOM      4  O   UNL d   1       2.982  -1.498   1.178  0.00  0.00    -0.267 OA
ATOM      5  C   UNL d   1       1.808  -3.901  -1.336  0.00  0.00     0.156 C 
ATOM      6  C   UNL d   1       3.398  -4.154   0.518  0.00  0.00     0.156 C 
ATOM      7  C   UNL d   1       1.237  -5.284  -0.988  0.00  0.00     0.292 C 
ATOM      8  C   UNL d   1       2.938  -5.628   0.670  0.00  0.00     0.292 C 
ENDROOT
BRANCH   1   9
ATOM      9  C   UNL d   1       1.551  -0.985  -0.579  0.00  0.00     0.070 A 
ATOM     10  C   UNL d   1       2.147   0.210  -0.992  0.00  0.00     0.135 A 
ATOM     11  C   UNL d   1       1.455   1.112  -1.795  0.00  0.00     0.085 A 
ATOM     12  F   UNL d   1       3.410   0.510  -0.657  0.00  0.00    -0.205 F 
ATOM     13  C   UNL d   1       0.161   0.804  -2.196  0.00  0.00     0.119 A 
ATOM     14  C   UNL d   1      -0.468  -0.356  -1.757  0.00  0.00     0.043 A 
ATOM     15  F   UNL d   1      -0.491   1.637  -3.017  0.00  0.00    -0.206 F 
ATOM     16  C   UNL d   1       0.213  -1.234  -0.909  0.00  0.00     0.023 A 
ENDBRANCH   1   9
BRANCH   3  17
ATOM     17  C   UNL d   1       3.234  -6.610  -1.549  0.00  0.00     0.311 C 
BRANCH  17  18
ATOM     18  C   UNL d   1       2.589  -7.144  -2.817  0.00  0.00    -0.027 A 
ATOM     19  C   UNL d   1       2.704  -6.433  -4.025  0.00  0.00     0.048 A 
ATOM     20  C   UNL d   1       2.066  -6.933  -5.141  0.00  0.00     0.105 A 
ATOM     21  O   UNL d   1       2.066  -6.365  -6.377  0.00  0.00    -0.323 OA
ATOM     22  C   UNL d   1       1.336  -8.097  -5.098  0.00  0.00     0.105 A 
ATOM     23  C   UNL d   1       1.278  -7.322  -7.115  0.00  0.00     0.352 A 
ATOM     24  O   UNL d   1       0.790  -8.411  -6.304  0.00  0.00    -0.323 OA
ATOM     25  C   UNL d   1       1.198  -8.823  -3.936  0.00  0.00     0.040 A 
ATOM     26  C   UNL d   1       1.832  -8.339  -2.786  0.00  0.00     0.012 A 
ENDBRANCH  17  18
ENDBRANCH   3  17
TORSDOF 3
