REMARK  6 active torsions:
REMARK  status: ('A' for Active; 'I' for Inactive)
REMARK    1  A    between atoms: C_2  and  C_1 
REMARK    2  A    between atoms: C_4  and  C_3 
REMARK    3  A    between atoms: C_5  and  C_12 
REMARK    4  A    between atoms: S_10  and  C_7 
REMARK    5  A    between atoms: C_24  and  S_10 
REMARK    6  A    between atoms: C_25  and  C_24 
ROOT
ATOM      1  C   UNL d   1      -0.612  -0.106   0.302  0.00  0.00     0.082 A 
ATOM      2  C   UNL d   1       1.817  -0.372   0.191  0.00  0.00     0.064 A 
ATOM      3  C   UNL d   1       0.537  -0.927   0.292  0.00  0.00     0.036 A 
ATOM      4  C   UNL d   1      -0.426   1.272   0.210  0.00  0.00     0.085 A 
ATOM      5  N   UNL d   1       0.814   1.815   0.121  0.00  0.00    -0.359 N 
ATOM      6  HN  UNL d   1       0.929   2.827   0.059  1.00  0.00     0.166 HD
ATOM      7  C   UNL d   1       1.895   1.004   0.113  0.00  0.00     0.105 A 
ENDROOT
BRANCH   4   8
ATOM      8  S   UNL d   1      -1.772   2.456   0.187  0.00  0.00    -0.107 SA
BRANCH   8   9
ATOM      9  C   UNL d   1      -0.831   4.017   0.058  0.00  0.00     0.119 C 
BRANCH   9  10
ATOM     10  C   UNL d   1      -1.706   5.246  -0.053  0.00  0.00    -0.049 A 
ATOM     11  C   UNL d   1      -2.058   5.980   1.088  0.00  0.00     0.009 A 
ATOM     12  C   UNL d   1      -2.815   7.152   0.977  0.00  0.00     0.017 A 
ATOM     13  C   UNL d   1      -3.243   7.610  -0.277  0.00  0.00     0.047 A 
ATOM     14  C   UNL d   1      -2.897   6.870  -1.418  0.00  0.00     0.017 A 
ATOM     15  C   UNL d   1      -2.140   5.699  -1.306  0.00  0.00     0.009 A 
BRANCH  13  16
ATOM     16  C   UNL d   1      -4.059   8.872  -0.415  0.00  0.00     0.417 C 
ATOM     17  F   UNL d   1      -4.325   9.485   0.773  0.00  0.00    -0.166 F 
ATOM     18  F   UNL d   1      -3.443   9.812  -1.186  0.00  0.00    -0.166 F 
ATOM     19  F   UNL d   1      -5.270   8.650  -0.997  0.00  0.00    -0.166 F 
ENDBRANCH  13  16
ENDBRANCH   9  10
ENDBRANCH   8   9
ENDBRANCH   4   8
BRANCH   1  20
ATOM     20  C   UNL d   1      -1.971  -0.737   0.406  0.00  0.00     0.420 C 
ATOM     21  F   UNL d   1      -1.905  -2.098   0.511  0.00  0.00    -0.166 F 
ATOM     22  F   UNL d   1      -2.675  -0.334   1.498  0.00  0.00    -0.166 F 
ATOM     23  F   UNL d   1      -2.758  -0.505  -0.679  0.00  0.00    -0.166 F 
ENDBRANCH   1  20
BRANCH   2  24
ATOM     24  C   UNL d   1       3.072  -1.187   0.166  0.00  0.00     0.418 C 
ATOM     25  F   UNL d   1       2.849  -2.526   0.246  0.00  0.00    -0.166 F 
ATOM     26  F   UNL d   1       3.792  -0.993  -0.973  0.00  0.00    -0.166 F 
ATOM     27  F   UNL d   1       3.910  -0.883   1.195  0.00  0.00    -0.166 F 
ENDBRANCH   2  24
TORSDOF 6
