REMARK  2 active torsions:
REMARK  status: ('A' for Active; 'I' for Inactive)
REMARK    1  A    between atoms: C_9  and  C_2 
REMARK    2  A    between atoms: C_12  and  C_6 
ROOT
ATOM      1  N   UNL d   1       0.225   0.723   0.013  0.00  0.00    -0.270 N 
ATOM      2  C   UNL d   1      -0.944   1.444   0.015  0.00  0.00     0.214 A 
ATOM      3  C   UNL d   1      -0.182  -0.583   0.044  0.00  0.00     0.172 A 
ATOM      4  N   UNL d   1      -1.966   0.587   0.040  0.00  0.00    -0.279 N 
ATOM      5  HN  UNL d   1      -2.953   0.844   0.045  1.00  0.00     0.188 HD
ATOM      6  C   UNL d   1       1.607   0.878  -0.008  0.00  0.00     0.060 A 
ATOM      7  N   UNL d   1      -1.476  -0.701   0.059  0.00  0.00    -0.278 N 
ATOM      8  HN  UNL d   1      -2.015  -1.567   0.080  1.00  0.00     0.189 HD
ATOM      9  S   UNL d   1       1.140  -1.696   0.051  0.00  0.00    -0.062 SA
ATOM     10  C   UNL d   1       2.237  -0.319   0.009  0.00  0.00     0.084 A 
ENDROOT
BRANCH   6  11
ATOM     11  C   UNL d   1       2.389   2.108  -0.054  0.00  0.00    -0.008 A 
ATOM     12  C   UNL d   1       2.741   2.672  -1.288  0.00  0.00     0.015 A 
ATOM     13  C   UNL d   1       3.577   3.791  -1.338  0.00  0.00     0.024 A 
ATOM     14  C   UNL d   1       4.067   4.345  -0.157  0.00  0.00     0.034 A 
ATOM     15  C   UNL d   1       3.723   3.792   1.076  0.00  0.00     0.024 A 
ATOM     16 CL   UNL d   1       5.118   5.705  -0.221  0.00  0.00    -0.084 Cl
ATOM     17  C   UNL d   1       2.888   2.673   1.128  0.00  0.00     0.015 A 
ENDBRANCH   6  11
BRANCH   2  18
ATOM     18  C   UNL d   1      -1.068   2.914  -0.005  0.00  0.00     0.451 C 
ATOM     19  F   UNL d   1       0.115   3.571  -0.025  0.00  0.00    -0.163 F 
ATOM     20  F   UNL d   1      -1.757   3.345  -1.094  0.00  0.00    -0.163 F 
ATOM     21  F   UNL d   1      -1.734   3.376   1.086  0.00  0.00    -0.163 F 
ENDBRANCH   2  18
TORSDOF 2
