REMARK  9 active torsions:
REMARK  status: ('A' for Active; 'I' for Inactive)
REMARK    1  A    between atoms: C_5  and  C_1 
REMARK    2  A    between atoms: C_2  and  O_4 
REMARK    3  A    between atoms: N_7  and  C_2 
REMARK    4  A    between atoms: O_4  and  C_3 
REMARK       I    between atoms: N_13  and  C_5 
REMARK    5  A    between atoms: C_19  and  N_7 
REMARK    6  A    between atoms: C_20  and  N_7 
REMARK    7  A    between atoms: C_17  and  N_13 
REMARK    8  A    between atoms: C_23  and  C_17 
REMARK    9  A    between atoms: C_18  and  C_23 
ROOT
ATOM      1  C   UNL d   1       2.262  -1.296  -0.247  0.00  0.00     0.067 A 
ATOM      2  C   UNL d   1       3.051  -0.169   0.040  0.00  0.00     0.094 A 
ATOM      3  C   UNL d   1       0.862  -1.159  -0.245  0.00  0.00     0.039 A 
ATOM      4  C   UNL d   1       2.465   1.079   0.269  0.00  0.00     0.040 A 
ATOM      5  C   UNL d   1       0.284   0.090  -0.017  0.00  0.00     0.012 A 
ATOM      6  C   UNL d   1       1.079   1.212   0.216  0.00  0.00     0.022 A 
ATOM      7 BR   UNL d   1      -1.599   0.269  -0.009  0.00  0.00    -0.051 Br
ENDROOT
BRANCH   1   8
ATOM      8  C   UNL d   1       2.801  -2.633  -0.587  0.00  0.00     0.254 C 
ATOM      9  O   UNL d   1       2.235  -3.652  -0.197  0.00  0.00    -0.268 OA
ATOM     10  N   UNL d   1       3.885  -2.647  -1.446  0.00  0.00    -0.356 N 
ATOM     11  H   UNL d   1       4.198  -1.770  -1.846  0.00  0.00     0.162 HD
BRANCH  10  12
ATOM     12  C   UNL d   1       4.429  -3.883  -1.983  0.00  0.00     0.127 C 
BRANCH  12  13
ATOM     13  C   UNL d   1       3.818  -4.242  -3.341  0.00  0.00     0.058 C 
BRANCH  13  14
ATOM     14  C   UNL d   1       4.329  -5.558  -3.873  0.00  0.00    -0.054 A 
ATOM     15  C   UNL d   1       3.680  -6.752  -3.548  0.00  0.00     0.024 A 
ATOM     16  C   UNL d   1       4.176  -7.942  -4.056  0.00  0.00     0.088 A 
ATOM     17  N   UNL d   1       5.263  -8.025  -4.853  0.00  0.00    -0.375 N 
ATOM     18  C   UNL d   1       5.880  -6.862  -5.151  0.00  0.00     0.088 A 
ATOM     19  HN  UNL d   1       5.600  -8.919  -5.211  1.00  0.00     0.164 HD
ATOM     20  C   UNL d   1       5.460  -5.621  -4.691  0.00  0.00     0.024 A 
ENDBRANCH  13  14
ENDBRANCH  12  13
ENDBRANCH  10  12
ENDBRANCH   1   8
BRANCH   2  21
ATOM     21  O   UNL d   1       4.446  -0.305   0.303  0.00  0.00    -0.283 OA
BRANCH  21  22
ATOM     22  C   UNL d   1       5.521   0.404  -0.261  0.00  0.00     0.217 C 
ATOM     23  S   UNL d   1       5.334   1.291  -1.666  0.00  0.00    -0.033 SA
BRANCH  22  24
ATOM     24  N   UNL d   1       6.716   0.195   0.418  0.00  0.00    -0.353 N 
BRANCH  24  25
ATOM     25  C   UNL d   1       6.768   0.281   1.881  0.00  0.00     0.121 C 
ATOM     26  C   UNL d   1       6.528  -1.019   2.626  0.00  0.00     0.026 C 
ENDBRANCH  24  25
BRANCH  24  27
ATOM     27  C   UNL d   1       7.960  -0.114  -0.299  0.00  0.00     0.121 C 
ATOM     28  C   UNL d   1       8.137  -1.612  -0.503  0.00  0.00     0.026 C 
ENDBRANCH  24  27
ENDBRANCH  22  24
ENDBRANCH  21  22
ENDBRANCH   2  21
TORSDOF 9
