REMARK  12 active torsions:
REMARK  status: ('A' for Active; 'I' for Inactive)
REMARK    1  A    between atoms: S_7  and  C_1 
REMARK    2  A    between atoms: S_9  and  C_2 
REMARK    3  A    between atoms: S_8  and  C_3 
REMARK    4  A    between atoms: S_10  and  C_4 
REMARK    5  A    between atoms: S_11  and  C_5 
REMARK    6  A    between atoms: S_12  and  C_6 
REMARK    7  A    between atoms: C_13  and  S_7 
REMARK    8  A    between atoms: C_14  and  S_8 
REMARK    9  A    between atoms: C_15  and  S_9 
REMARK   10  A    between atoms: C_16  and  S_10 
REMARK   11  A    between atoms: C_17  and  S_11 
REMARK   12  A    between atoms: C_18  and  S_12 
ROOT
ATOM      1  C   UNL d   1       1.597  -0.280  -0.110  0.00  0.00     0.042 C 
ATOM      2  C   UNL d   1       0.716  -1.369   0.179  0.00  0.00     0.042 C 
ATOM      3  C   UNL d   1       1.056   1.031  -0.284  0.00  0.00     0.042 C 
ATOM      4  C   UNL d   1      -0.663  -1.237  -0.116  0.00  0.00     0.042 C 
ATOM      5  C   UNL d   1      -0.359   1.212  -0.256  0.00  0.00     0.042 C 
ATOM      6  C   UNL d   1      -1.205   0.061  -0.321  0.00  0.00     0.042 C 
ENDROOT
BRANCH   1   7
ATOM      7  S   UNL d   1       3.395  -0.600  -0.114  0.00  0.00    -0.088 SA
BRANCH   7   8
ATOM      8  C   UNL d   1       4.024  -0.242  -1.754  0.00  0.00     0.005 A 
ATOM      9  C   UNL d   1       5.279   0.387  -1.823  0.00  0.00     0.019 A 
ATOM     10  C   UNL d   1       5.886   0.686  -3.048  0.00  0.00     0.001 A 
ATOM     11  C   UNL d   1       5.244   0.357  -4.236  0.00  0.00     0.000 A 
ATOM     12  C   UNL d   1       4.011  -0.293  -4.191  0.00  0.00     0.001 A 
ATOM     13  C   UNL d   1       3.407  -0.605  -2.958  0.00  0.00     0.019 A 
ENDBRANCH   7   8
ENDBRANCH   1   7
BRANCH   2  14
ATOM     14  S   UNL d   1       1.364  -2.922   0.869  0.00  0.00    -0.088 SA
BRANCH  14  15
ATOM     15  C   UNL d   1       0.568  -3.178   2.461  0.00  0.00     0.005 A 
ATOM     16  C   UNL d   1       0.351  -4.512   2.844  0.00  0.00     0.019 A 
ATOM     17  C   UNL d   1      -0.189  -4.842   4.090  0.00  0.00     0.001 A 
ATOM     18  C   UNL d   1      -0.526  -3.838   4.990  0.00  0.00     0.000 A 
ATOM     19  C   UNL d   1      -0.309  -2.504   4.639  0.00  0.00     0.001 A 
ATOM     20  C   UNL d   1       0.240  -2.171   3.389  0.00  0.00     0.019 A 
ENDBRANCH  14  15
ENDBRANCH   2  14
BRANCH   3  21
ATOM     21  S   UNL d   1       2.179   2.449  -0.360  0.00  0.00    -0.088 SA
BRANCH  21  22
ATOM     22  C   UNL d   1       2.383   2.826  -2.103  0.00  0.00     0.005 A 
ATOM     23  C   UNL d   1       1.723   2.175  -3.152  0.00  0.00     0.019 A 
ATOM     24  C   UNL d   1       1.970   2.525  -4.486  0.00  0.00     0.001 A 
ATOM     25  C   UNL d   1       2.875   3.538  -4.790  0.00  0.00     0.000 A 
ATOM     26  C   UNL d   1       3.521   4.213  -3.759  0.00  0.00     0.001 A 
ATOM     27  C   UNL d   1       3.275   3.858  -2.428  0.00  0.00     0.019 A 
ENDBRANCH  21  22
ENDBRANCH   3  21
BRANCH   4  28
ATOM     28  S   UNL d   1      -1.532  -2.716  -0.717  0.00  0.00    -0.088 SA
BRANCH  28  29
ATOM     29  C   UNL d   1      -2.656  -3.323   0.518  0.00  0.00     0.005 A 
ATOM     30  C   UNL d   1      -2.930  -2.742   1.755  0.00  0.00     0.019 A 
ATOM     31  C   UNL d   1      -3.834  -3.350   2.641  0.00  0.00     0.001 A 
ATOM     32  C   UNL d   1      -4.482  -4.536   2.291  0.00  0.00     0.000 A 
ATOM     33  C   UNL d   1      -4.231  -5.117   1.054  0.00  0.00     0.001 A 
ATOM     34  C   UNL d   1      -3.325  -4.514   0.180  0.00  0.00     0.019 A 
ENDBRANCH  28  29
ENDBRANCH   4  28
BRANCH   5  35
ATOM     35  S   UNL d   1      -1.145   2.803   0.188  0.00  0.00    -0.088 SA
BRANCH  35  36
ATOM     36  C   UNL d   1      -0.704   3.993  -1.054  0.00  0.00     0.005 A 
ATOM     37  C   UNL d   1      -1.087   3.862  -2.389  0.00  0.00     0.019 A 
ATOM     38  C   UNL d   1      -0.712   4.828  -3.329  0.00  0.00     0.001 A 
ATOM     39  C   UNL d   1       0.031   5.941  -2.936  0.00  0.00     0.000 A 
ATOM     40  C   UNL d   1       0.377   6.105  -1.598  0.00  0.00     0.001 A 
ATOM     41  C   UNL d   1      -0.002   5.143  -0.661  0.00  0.00     0.019 A 
ENDBRANCH  35  36
ENDBRANCH   5  35
BRANCH   6  42
ATOM     42  S   UNL d   1      -2.980   0.242  -0.656  0.00  0.00    -0.088 SA
BRANCH  42  43
ATOM     43  C   UNL d   1      -3.082   0.375  -2.438  0.00  0.00     0.005 A 
ATOM     44  C   UNL d   1      -2.028   0.101  -3.319  0.00  0.00     0.019 A 
ATOM     45  C   UNL d   1      -2.195   0.243  -4.700  0.00  0.00     0.001 A 
ATOM     46  C   UNL d   1      -3.423   0.645  -5.220  0.00  0.00     0.000 A 
ATOM     47  C   UNL d   1      -4.485   0.903  -4.358  0.00  0.00     0.001 A 
ATOM     48  C   UNL d   1      -4.314   0.769  -2.978  0.00  0.00     0.019 A 
ENDBRANCH  42  43
ENDBRANCH   6  42
TORSDOF 12
