REMARK  3 active torsions:
REMARK  status: ('A' for Active; 'I' for Inactive)
REMARK    1  A    between atoms: C_6  and  C_1 
REMARK    2  A    between atoms: C_4  and  C_5 
REMARK       I    between atoms: N_12  and  C_6 
REMARK    3  A    between atoms: N_14  and  N_12 
ROOT
ATOM      1  C   UNL d   1       1.357   0.690   0.484  0.00  0.00     0.109 A 
ATOM      2  N   UNL d   1       0.055   1.115   0.189  0.00  0.00    -0.344 N 
ATOM      3  HN  UNL d   1      -0.187   2.005  -0.245  1.00  0.00     0.167 HD
ATOM      4  C   UNL d   1      -0.814   0.188   0.558  0.00  0.00     0.103 A 
ATOM      5  S   UNL d   1      -0.130  -1.200   1.315  0.00  0.00    -0.079 SA
ATOM      6  C   UNL d   1       1.433  -0.566   1.061  0.00  0.00     0.087 A 
ENDROOT
BRANCH   1   7
ATOM      7  C   UNL d   1       2.543   1.511   0.209  0.00  0.00     0.283 C 
ATOM      8  N   UNL d   1       2.220   2.804  -0.186  0.00  0.00    -0.284 N 
ATOM      9  H   UNL d   1       1.230   3.035  -0.248  0.00  0.00     0.184 HD
ATOM     10  O   UNL d   1       3.683   1.074   0.344  0.00  0.00    -0.265 OA
BRANCH   8  11
ATOM     11  N   UNL d   1       3.167   3.817  -0.470  0.00  0.00    -0.229 NA
ATOM     12  C   UNL d   1       4.023   4.147   0.681  0.00  0.00     0.113 C 
ATOM     13  C   UNL d   1       4.901   5.364   0.377  0.00  0.00     0.016 C 
ATOM     14  C   UNL d   1       5.706   5.179  -0.906  0.00  0.00     0.002 C 
ATOM     15  C   UNL d   1       4.805   4.736  -2.055  0.00  0.00     0.016 C 
ATOM     16  C   UNL d   1       3.966   3.518  -1.667  0.00  0.00     0.113 C 
ENDBRANCH   8  11
ENDBRANCH   1   7
BRANCH   4  17
ATOM     17  C   UNL d   1      -2.292   0.305   0.300  0.00  0.00     0.091 A 
ATOM     18  N   UNL d   1      -3.189  -0.577   0.763  0.00  0.00    -0.258 N 
ATOM     19  O   UNL d   1      -4.410  -0.177   0.254  0.00  0.00    -0.242 OA
ATOM     20  HN  UNL d   1      -3.007  -1.379   1.366  1.00  0.00     0.195 HD
ATOM     21  C   UNL d   1      -4.240   0.927  -0.518  0.00  0.00     0.074 A 
ATOM     22  C   UNL d   1      -2.918   1.302  -0.486  0.00  0.00     0.068 A 
ATOM     23  C   UNL d   1      -5.442   1.431  -1.204  0.00  0.00     0.079 C 
ENDBRANCH   4  17
TORSDOF 3
