REMARK  3 active torsions:
REMARK  status: ('A' for Active; 'I' for Inactive)
REMARK    1  A    between atoms: C_3  and  C_1 
REMARK    2  A    between atoms: C_7  and  C_2 
REMARK    3  A    between atoms: C_4  and  C_3 
ROOT
ATOM      1  C   UNL d   1      -0.533  -3.489  -0.701  0.00  0.00     0.076 A 
ATOM      2  C   UNL d   1      -1.412  -4.532  -0.237  0.00  0.00     0.086 A 
ATOM      3  N   UNL d   1      -2.271  -4.885  -1.206  0.00  0.00    -0.259 N 
ATOM      4  HN  UNL d   1      -3.012  -5.583  -1.138  1.00  0.00     0.195 HD
ATOM      5  O   UNL d   1      -1.960  -4.125  -2.307  0.00  0.00    -0.241 OA
ATOM      6  C   UNL d   1      -0.936  -3.292  -2.011  0.00  0.00     0.089 A 
ATOM      7  C   UNL d   1      -0.452  -2.430  -3.109  0.00  0.00     0.080 C 
ENDROOT
BRANCH   1   8
ATOM      8  C   UNL d   1       0.580  -2.756  -0.101  0.00  0.00     0.198 C 
ATOM      9  O   UNL d   1       0.961  -1.684  -0.561  0.00  0.00    -0.286 OA
BRANCH   8  10
ATOM     10  C   UNL d   1       1.341  -3.313   1.062  0.00  0.00     0.028 C 
ATOM     11  C   UNL d   1       1.556  -2.492   2.201  0.00  0.00    -0.041 C 
ATOM     12  C   UNL d   1       2.396  -2.960   3.242  0.00  0.00    -0.049 C 
ATOM     13  C   UNL d   1       0.928  -1.119   2.311  0.00  0.00     0.050 C 
ATOM     14  C   UNL d   1       2.840  -2.042   4.363  0.00  0.00     0.049 C 
ATOM     15  C   UNL d   1       2.818  -4.314   3.249  0.00  0.00    -0.049 C 
ATOM     16  C   UNL d   1       2.511  -5.157   2.153  0.00  0.00    -0.049 C 
ATOM     17  C   UNL d   1       3.638  -4.818   4.419  0.00  0.00     0.049 C 
ATOM     18  C   UNL d   1       1.896  -4.613   0.999  0.00  0.00    -0.041 C 
ATOM     19  C   UNL d   1       2.862  -6.626   2.213  0.00  0.00     0.049 C 
ATOM     20  C   UNL d   1       1.879  -5.426  -0.276  0.00  0.00     0.050 C 
ENDBRANCH   8  10
ENDBRANCH   1   8
BRANCH   2  21
ATOM     21  C   UNL d   1      -1.450  -5.199   1.062  0.00  0.00     0.054 A 
ATOM     22  C   UNL d   1      -1.399  -6.596   1.218  0.00  0.00     0.049 A 
ATOM     23 CL   UNL d   1      -1.437  -7.708  -0.110  0.00  0.00    -0.083 Cl
ATOM     24  C   UNL d   1      -1.254  -7.165   2.492  0.00  0.00     0.025 A 
ATOM     25  C   UNL d   1      -1.164  -6.354   3.624  0.00  0.00     0.005 A 
ATOM     26  C   UNL d   1      -1.278  -4.976   3.488  0.00  0.00     0.043 A 
ATOM     27  C   UNL d   1      -1.446  -4.416   2.224  0.00  0.00     0.130 A 
ATOM     28  F   UNL d   1      -1.566  -3.084   2.138  0.00  0.00    -0.205 F 
ENDBRANCH   2  21
TORSDOF 3
