REMARK  6 active torsions:
REMARK  status: ('A' for Active; 'I' for Inactive)
REMARK    1  A    between atoms: C_5  and  C_1 
REMARK    2  A    between atoms: C_12  and  C_4 
REMARK    3  A    between atoms: S_17  and  C_10 
REMARK    4  A    between atoms: C_11  and  N_14 
REMARK    5  A    between atoms: C_13  and  C_27 
REMARK       I    between atoms: N_14  and  C_13 
REMARK    6  A    between atoms: C_27  and  S_17 
ROOT
ATOM      1  C   UNL d   1       0.366  -2.737   0.240  0.00  0.00     0.050 A 
ATOM      2  N   UNL d   1      -0.371  -3.632  -0.440  0.00  0.00    -0.336 N 
ATOM      3  HN  UNL d   1      -1.172  -3.345  -1.003  1.00  0.00     0.168 HD
ATOM      4  C   UNL d   1      -0.008  -4.916  -0.348  0.00  0.00     0.145 A 
ATOM      5  N   UNL d   1       0.990  -5.383   0.409  0.00  0.00    -0.347 N 
ATOM      6  HN  UNL d   1       1.207  -6.378   0.464  1.00  0.00     0.167 HD
ATOM      7  C   UNL d   1       1.426  -3.112   1.038  0.00  0.00     0.047 A 
ATOM      8  C   UNL d   1       1.689  -4.462   1.093  0.00  0.00     0.092 A 
ENDROOT
BRANCH   1   9
ATOM      9  C   UNL d   1      -0.021  -1.352   0.040  0.00  0.00     0.051 A 
ATOM     10  C   UNL d   1      -0.565  -0.690  -1.116  0.00  0.00     0.080 A 
ATOM     11  N   UNL d   1      -0.837   0.593  -0.825  0.00  0.00    -0.259 N 
ATOM     12  O   UNL d   1      -0.506   0.778   0.494  0.00  0.00    -0.241 OA
ATOM     13  HN  UNL d   1      -1.217   1.294  -1.461  1.00  0.00     0.195 HD
ATOM     14  C   UNL d   1      -0.038  -0.381   1.020  0.00  0.00     0.087 A 
ATOM     15  C   UNL d   1       0.287  -0.326   2.461  0.00  0.00     0.080 C 
BRANCH  10  16
ATOM     16  C   UNL d   1      -0.851  -1.211  -2.459  0.00  0.00    -0.006 A 
ATOM     17  C   UNL d   1      -0.019  -2.159  -3.075  0.00  0.00     0.015 A 
ATOM     18  C   UNL d   1      -0.346  -2.693  -4.326  0.00  0.00     0.024 A 
ATOM     19  C   UNL d   1      -1.491  -2.257  -4.988  0.00  0.00     0.034 A 
ATOM     20  C   UNL d   1      -2.306  -1.285  -4.416  0.00  0.00     0.024 A 
ATOM     21 CL   UNL d   1      -1.899  -2.925  -6.520  0.00  0.00    -0.084 Cl
ATOM     22  C   UNL d   1      -1.987  -0.765  -3.156  0.00  0.00     0.015 A 
ENDBRANCH  10  16
ENDBRANCH   1   9
BRANCH   4  23
ATOM     23  S   UNL d   1      -1.050  -6.057  -1.208  0.00  0.00    -0.085 SA
BRANCH  23  24
ATOM     24  C   UNL d   1      -1.505  -7.109   0.191  0.00  0.00     0.185 C 
BRANCH  24  25
ATOM     25  C   UNL d   1      -2.191  -6.412   1.361  0.00  0.00     0.231 C 
ATOM     26  N   UNL d   1      -2.631  -5.117   1.158  0.00  0.00    -0.326 N 
ATOM     27  H   UNL d   1      -2.552  -4.757   0.209  0.00  0.00     0.169 HD
ATOM     28  O   UNL d   1      -2.342  -7.042   2.411  0.00  0.00    -0.272 OA
BRANCH  26  29
ATOM     29  C   UNL d   1      -3.108  -4.211   2.132  0.00  0.00     0.037 A 
ATOM     30  C   UNL d   1      -3.178  -4.503   3.496  0.00  0.00     0.053 A 
ATOM     31  C   UNL d   1      -3.639  -3.545   4.402  0.00  0.00     0.037 A 
ATOM     32 CL   UNL d   1      -3.702  -3.922   6.081  0.00  0.00    -0.084 Cl
ATOM     33  C   UNL d   1      -4.035  -2.286   3.966  0.00  0.00     0.048 A 
ATOM     34  C   UNL d   1      -3.958  -1.989   2.610  0.00  0.00     0.037 A 
ATOM     35  C   UNL d   1      -3.495  -2.938   1.694  0.00  0.00     0.053 A 
ATOM     36 CL   UNL d   1      -4.430  -0.429   2.057  0.00  0.00    -0.084 Cl
ENDBRANCH  26  29
ENDBRANCH  24  25
ENDBRANCH  23  24
ENDBRANCH   4  23
TORSDOF 6
