REMARK  7 active torsions:
REMARK  status: ('A' for Active; 'I' for Inactive)
REMARK    1  A    between atoms: C_5  and  C_1 
REMARK    2  A    between atoms: N_6  and  C_2 
REMARK    3  A    between atoms: C_3  and  O_7 
REMARK    4  A    between atoms: C_4  and  C_3 
REMARK    5  A    between atoms: O_16  and  C_5 
REMARK    6  A    between atoms: C_13  and  N_6 
REMARK    7  A    between atoms: O_7  and  C_15 
ROOT
ATOM      1  C   UNL d   1       3.432  -0.859  -0.547  0.00  0.00     0.032 A 
ATOM      2  C   UNL d   1       6.023   0.203  -0.440  0.00  0.00     0.079 A 
ATOM      3  C   UNL d   1       3.779   0.097   0.420  0.00  0.00     0.032 A 
ATOM      4  C   UNL d   1       4.421  -1.319  -1.423  0.00  0.00     0.032 A 
ATOM      5  C   UNL d   1       5.069   0.629   0.476  0.00  0.00     0.039 A 
ATOM      6  C   UNL d   1       5.708  -0.777  -1.383  0.00  0.00     0.039 A 
ENDROOT
BRANCH   1   7
ATOM      7  N   UNL d   1       2.124  -1.401  -0.639  0.00  0.00    -0.358 N 
ATOM      8  H   UNL d   1       2.125  -2.365  -0.311  0.00  0.00     0.166 HD
BRANCH   7   9
ATOM      9  C   UNL d   1       0.998  -0.673  -0.277  0.00  0.00     0.032 C 
ATOM     10  C   UNL d   1       0.600   0.520  -0.765  0.00  0.00     0.050 C 
ATOM     11  C   UNL d   1      -0.585   1.164  -0.134  0.00  0.00     0.121 C 
ATOM     12  S   UNL d   1      -1.293  -0.089   0.973  0.00  0.00    -0.158 SA
ATOM     13  C   UNL d   1       0.099  -1.238   0.796  0.00  0.00     0.132 C 
BRANCH  10  14
ATOM     14  C   UNL d   1       1.229   1.282  -1.864  0.00  0.00     0.291 C 
ATOM     15  O   UNL d   1       1.188   2.502  -1.924  0.00  0.00    -0.260 OA
BRANCH  14  16
ATOM     16  O   UNL d   1       1.735   0.448  -2.801  0.00  0.00    -0.323 OA
ATOM     17  C   UNL d   1       2.429   1.042  -3.900  0.00  0.00     0.213 C 
ENDBRANCH  14  16
ENDBRANCH  10  14
ENDBRANCH   7   9
ENDBRANCH   1   7
BRANCH   2  18
ATOM     18  O   UNL d   1       7.356   0.672  -0.479  0.00  0.00    -0.275 OA
BRANCH  18  19
ATOM     19  C   UNL d   1       7.832   1.799   0.179  0.00  0.00     0.300 C 
ATOM     20  O   UNL d   1       7.233   2.552   0.926  0.00  0.00    -0.259 OA
BRANCH  19  21
ATOM     21  C   UNL d   1       9.289   1.877  -0.040  0.00  0.00     0.061 A 
ATOM     22  C   UNL d   1       9.884   1.827  -1.306  0.00  0.00     0.050 A 
ATOM     23 CL   UNL d   1       8.977   1.764  -2.774  0.00  0.00    -0.083 Cl
ATOM     24  C   UNL d   1      11.279   1.877  -1.414  0.00  0.00     0.025 A 
ATOM     25  C   UNL d   1      12.074   1.994  -0.272  0.00  0.00     0.002 A 
ATOM     26  C   UNL d   1      11.479   2.079   0.986  0.00  0.00     0.001 A 
ATOM     27  C   UNL d   1      10.091   2.026   1.103  0.00  0.00     0.019 A 
ENDBRANCH  19  21
ENDBRANCH  18  19
ENDBRANCH   2  18
TORSDOF 7
