REMARK  7 active torsions:
REMARK  status: ('A' for Active; 'I' for Inactive)
REMARK    1  A    between atoms: S_9  and  C_1 
REMARK    2  A    between atoms: C_21  and  N_4 
REMARK    3  A    between atoms: N_6  and  C_11 
REMARK    4  A    between atoms: C_8  and  C_10 
REMARK    5  A    between atoms: C_19  and  S_9 
REMARK    6  A    between atoms: C_15  and  C_17 
REMARK    7  A    between atoms: C_17  and  C_19 
ROOT
ATOM      1  C   UNL d   1       2.319   0.092   0.229  0.00  0.00     0.148 A 
ATOM      2  N   UNL d   1       1.621  -1.021   0.233  0.00  0.00    -0.335 N 
ATOM      3  HN  UNL d   1       1.977  -1.974   0.306  1.00  0.00     0.168 HD
ATOM      4  N   UNL d   1       1.518   1.206   0.045  0.00  0.00    -0.321 N 
ATOM      5  C   UNL d   1       0.315  -0.629   0.117  0.00  0.00     0.062 A 
ATOM      6  C   UNL d   1       0.203   0.759   0.043  0.00  0.00     0.063 A 
ATOM      7  C   UNL d   1      -2.105  -0.811   0.009  0.00  0.00     0.050 A 
ATOM      8  C   UNL d   1      -0.841  -1.424   0.081  0.00  0.00     0.048 A 
ATOM      9  C   UNL d   1      -1.043   1.397  -0.031  0.00  0.00     0.033 A 
ATOM     10  C   UNL d   1      -2.188   0.589  -0.040  0.00  0.00     0.018 A 
ENDROOT
BRANCH   1  11
ATOM     11  S   UNL d   1       4.042   0.142   0.444  0.00  0.00    -0.086 SA
BRANCH  11  12
ATOM     12  C   UNL d   1       4.463  -1.630   0.681  0.00  0.00     0.166 C 
BRANCH  12  13
ATOM     13  C   UNL d   1       5.961  -1.820   0.940  0.00  0.00     0.169 C 
ATOM     14  O   UNL d   1       6.767  -0.887   0.969  0.00  0.00    -0.291 OA
BRANCH  13  15
ATOM     15  C   UNL d   1       6.507  -3.206   1.179  0.00  0.00     0.013 A 
ATOM     16  C   UNL d   1       5.718  -4.362   1.165  0.00  0.00     0.051 A 
ATOM     17  C   UNL d   1       6.317  -5.615   1.416  0.00  0.00     0.103 A 
ATOM     18  C   UNL d   1       7.689  -5.730   1.675  0.00  0.00     0.036 A 
ATOM     19  C   UNL d   1       8.471  -4.579   1.680  0.00  0.00     0.003 A 
ATOM     20  C   UNL d   1       7.889  -3.336   1.435  0.00  0.00     0.015 A 
BRANCH  17  21
ATOM     21  N   UNL d   1       5.495  -6.833   1.410  0.00  0.00    -0.116 N 
ATOM     22  O   UNL d   1       4.289  -6.705   1.169  0.00  0.00    -0.532 OA
ATOM     23  O   UNL d   1       6.054  -7.919   1.646  0.00  0.00    -0.532 OA
ENDBRANCH  17  21
ENDBRANCH  13  15
ENDBRANCH  12  13
ENDBRANCH  11  12
ENDBRANCH   1  11
BRANCH   4  24
ATOM     24  C   UNL d   1       1.950   2.584  -0.204  0.00  0.00     0.084 C 
ATOM     25  C   UNL d   1       1.465   3.116  -1.559  0.00  0.00     0.032 C 
ATOM     26  C   UNL d   1       1.571   3.557   0.916  0.00  0.00     0.032 C 
ENDBRANCH   4  24
BRANCH   7  27
ATOM     27  C   UNL d   1      -3.364  -1.641  -0.001  0.00  0.00     0.417 C 
ATOM     28  F   UNL d   1      -3.138  -2.984   0.047  0.00  0.00    -0.166 F 
ATOM     29  F   UNL d   1      -4.176  -1.363   1.057  0.00  0.00    -0.166 F 
ATOM     30  F   UNL d   1      -4.120  -1.430  -1.115  0.00  0.00    -0.166 F 
ENDBRANCH   7  27
TORSDOF 7
