REMARK  4 active torsions:
REMARK  status: ('A' for Active; 'I' for Inactive)
REMARK    1  A    between atoms: C_2  and  N_1 
REMARK    2  A    between atoms: C_11  and  C_3 
REMARK    3  A    between atoms: C_10  and  C_4 
REMARK    4  A    between atoms: C_13  and  N_5 
ROOT
ATOM      1  N   UNL d   1      -0.602  -0.872  -0.427  0.00  0.00    -0.259 N 
ATOM      2  C   UNL d   1       0.773  -1.101  -0.087  0.00  0.00     0.261 A 
ATOM      3  N   UNL d   1       1.267   0.241   0.222  0.00  0.00    -0.219 N 
ATOM      4  C   UNL d   1      -0.913   0.467  -0.280  0.00  0.00     0.392 A 
ATOM      5  O   UNL d   1       0.203   1.150   0.120  0.00  0.00    -0.175 OA
ATOM      6  O   UNL d   1      -2.001   1.010  -0.422  0.00  0.00    -0.236 OA
ENDROOT
BRANCH   1   7
ATOM      7  C   UNL d   1      -1.600  -1.808  -0.694  0.00  0.00     0.102 A 
ATOM      8  C   UNL d   1      -1.924  -3.053  -0.058  0.00  0.00     0.098 A 
ATOM      9  N   UNL d   1      -3.004  -3.600  -0.642  0.00  0.00    -0.258 N 
ATOM     10  O   UNL d   1      -3.357  -2.775  -1.679  0.00  0.00    -0.240 OA
ATOM     11  HN  UNL d   1      -3.471  -4.464  -0.366  1.00  0.00     0.195 HD
ATOM     12  C   UNL d   1      -2.527  -1.703  -1.714  0.00  0.00     0.102 A 
ATOM     13  C   UNL d   1      -2.747  -0.776  -2.843  0.00  0.00     0.081 C 
BRANCH   8  14
ATOM     14  C   UNL d   1      -1.342  -3.706   1.119  0.00  0.00     0.038 A 
ATOM     15  C   UNL d   1      -1.214  -3.032   2.351  0.00  0.00     0.048 A 
ATOM     16 CL   UNL d   1      -1.778  -1.416   2.614  0.00  0.00    -0.083 Cl
ATOM     17  C   UNL d   1      -0.635  -3.662   3.462  0.00  0.00     0.025 A 
ATOM     18  C   UNL d   1      -0.226  -4.989   3.386  0.00  0.00     0.003 A 
ATOM     19  C   UNL d   1      -0.391  -5.688   2.197  0.00  0.00     0.025 A 
ATOM     20  C   UNL d   1      -0.931  -5.055   1.068  0.00  0.00     0.048 A 
ATOM     21 CL   UNL d   1      -1.011  -6.018  -0.371  0.00  0.00    -0.083 Cl
ENDBRANCH   8  14
ENDBRANCH   1   7
BRANCH   2  22
ATOM     22  C   UNL d   1       1.526  -1.819  -1.197  0.00  0.00     0.008 A 
ATOM     23  C   UNL d   1       1.737  -1.291  -2.485  0.00  0.00     0.044 A 
ATOM     24 CL   UNL d   1       1.122   0.239  -2.996  0.00  0.00    -0.084 Cl
ATOM     25  C   UNL d   1       2.482  -2.003  -3.433  0.00  0.00     0.024 A 
ATOM     26  C   UNL d   1       3.023  -3.247  -3.121  0.00  0.00     0.002 A 
ATOM     27  C   UNL d   1       2.810  -3.796  -1.862  0.00  0.00     0.001 A 
ATOM     28  C   UNL d   1       2.064  -3.095  -0.913  0.00  0.00     0.013 A 
ENDBRANCH   2  22
BRANCH   3  29
ATOM     29  C   UNL d   1       2.551   0.697   0.485  0.00  0.00     0.062 A 
ATOM     30  C   UNL d   1       3.691  -0.114   0.463  0.00  0.00     0.057 A 
ATOM     31  C   UNL d   1       4.980   0.420   0.632  0.00  0.00     0.058 A 
ATOM     32 CL   UNL d   1       6.318  -0.670   0.504  0.00  0.00    -0.082 Cl
ATOM     33  C   UNL d   1       5.152   1.783   0.874  0.00  0.00     0.055 A 
ATOM     34  C   UNL d   1       4.032   2.602   0.957  0.00  0.00     0.028 A 
ATOM     35 CL   UNL d   1       6.704   2.510   1.075  0.00  0.00    -0.083 Cl
ATOM     36  C   UNL d   1       2.756   2.061   0.761  0.00  0.00     0.033 A 
ENDBRANCH   3  29
TORSDOF 4
