REMARK  4 active torsions:
REMARK  status: ('A' for Active; 'I' for Inactive)
REMARK    1  A    between atoms: C_6  and  C_2 
REMARK    2  A    between atoms: C_7  and  C_3 
REMARK    3  A    between atoms: O_11  and  C_6 
REMARK    4  A    between atoms: O_10  and  C_7 
ROOT
ATOM      1  S   UNL d   1      -1.062  -0.001  -0.017  0.00  0.00    -0.077 SA
ATOM      2  C   UNL d   1       0.109   1.249  -0.008  0.00  0.00     0.079 A 
ATOM      3  C   UNL d   1       0.124  -1.236  -0.009  0.00  0.00     0.079 A 
ATOM      4  C   UNL d   1       1.389   0.727   0.001  0.00  0.00     0.027 A 
ATOM      5  C   UNL d   1       1.397  -0.698   0.000  0.00  0.00     0.027 A 
ENDROOT
BRANCH   2   6
ATOM      6  C   UNL d   1      -0.255   2.656  -0.011  0.00  0.00     0.183 C 
ATOM      7  O   UNL d   1       0.539   3.586  -0.004  0.00  0.00    -0.646 OA
BRANCH   6   8
ATOM      8  O   UNL d   1      -1.596   2.866  -0.020  0.00  0.00    -0.772 OA
ATOM      9  H   UNL d   1      -2.098   2.030  -0.024  0.00  0.00     0.167 HD
ENDBRANCH   6   8
ENDBRANCH   2   6
BRANCH   3  10
ATOM     10  C   UNL d   1      -0.220  -2.648  -0.013  0.00  0.00     0.183 C 
ATOM     11  O   UNL d   1       0.585  -3.568  -0.007  0.00  0.00    -0.646 OA
BRANCH  10  12
ATOM     12  O   UNL d   1      -1.560  -2.874  -0.022  0.00  0.00    -0.772 OA
ATOM     13  H   UNL d   1      -2.074  -2.045  -0.026  0.00  0.00     0.167 HD
ENDBRANCH  10  12
ENDBRANCH   3  10
TORSDOF 4
