REMARK  4 active torsions:
REMARK  status: ('A' for Active; 'I' for Inactive)
REMARK    1  A    between atoms: N_8  and  C_1 
REMARK    2  A    between atoms: C_16  and  C_4 
REMARK    3  A    between atoms: C_17  and  C_6 
REMARK    4  A    between atoms: C_7  and  C_9 
REMARK       I    between atoms: C_9  and  N_8 
ROOT
ATOM      1  C   UNL d   1       1.393  -0.833   0.052  0.00  0.00     0.085 A 
ATOM      2  N   UNL d   1       0.339   1.153  -0.129  0.00  0.00    -0.300 N 
ATOM      3  HN  UNL d   1       0.141   2.146  -0.248  1.00  0.00     0.187 HD
ATOM      4  C   UNL d   1       1.541   0.581  -0.063  0.00  0.00     0.062 A 
ATOM      5  N   UNL d   1      -0.558   0.166  -0.007  0.00  0.00    -0.297 N 
ATOM      6  C   UNL d   1       0.010  -1.094   0.087  0.00  0.00     0.064 A 
ATOM      7  C   UNL d   1      -1.919   0.644  -0.033  0.00  0.00     0.177 C 
ENDROOT
BRANCH   1   8
ATOM      8  N   UNL d   1       2.378  -1.800   0.170  0.00  0.00    -0.318 N 
ATOM      9  C   UNL d   1       3.323  -2.078  -0.809  0.00  0.00     0.275 C 
ATOM     10  O   UNL d   1       3.460  -1.470  -1.861  0.00  0.00    -0.266 OA
ATOM     11  H   UNL d   1       2.216  -2.551   0.822  0.00  0.00     0.169 HD
BRANCH   9  12
ATOM     12  C   UNL d   1       4.138  -3.255  -0.468  0.00  0.00     0.131 A 
ATOM     13  N   UNL d   1       4.045  -3.800   0.820  0.00  0.00    -0.288 N 
ATOM     14  N   UNL d   1       4.849  -4.830   0.991  0.00  0.00    -0.269 N 
ATOM     15  HN  UNL d   1       3.423  -3.439   1.544  1.00  0.00     0.188 HD
ATOM     16  S   UNL d   1       5.733  -5.196  -0.373  0.00  0.00    -0.001 SA
ATOM     17  HN  UNL d   1       4.922  -5.349   1.866  1.00  0.00     0.195 HD
ATOM     18  C   UNL d   1       5.022  -3.934  -1.305  0.00  0.00     0.030 A 
ATOM     19  C   UNL d   1       5.404  -3.762  -2.728  0.00  0.00     0.060 C 
ENDBRANCH   9  12
ENDBRANCH   1   8
BRANCH   4  20
ATOM     20  C   UNL d   1       2.752   1.514  -0.060  0.00  0.00    -0.005 C 
ATOM     21  C   UNL d   1       2.406   2.846   0.666  0.00  0.00     0.021 C 
ATOM     22  C   UNL d   1       3.969   0.935   0.684  0.00  0.00     0.021 C 
ATOM     23  C   UNL d   1       3.148   1.867  -1.506  0.00  0.00     0.021 C 
ENDBRANCH   4  20
BRANCH   6  24
ATOM     24  C   UNL d   1      -0.729  -2.452   0.002  0.00  0.00    -0.005 C 
ATOM     25  C   UNL d   1      -0.567  -2.975  -1.443  0.00  0.00     0.021 C 
ATOM     26  C   UNL d   1      -0.148  -3.487   0.992  0.00  0.00     0.021 C 
ATOM     27  C   UNL d   1      -2.236  -2.431   0.306  0.00  0.00     0.021 C 
ENDBRANCH   6  24
TORSDOF 4
