REMARK  2 active torsions:
REMARK  status: ('A' for Active; 'I' for Inactive)
REMARK    1  A    between atoms: C_2  and  S_1 
REMARK    2  A    between atoms: N_7  and  S_1 
ROOT
ATOM      1  C   UNL d   1       0.583   0.987  -1.294  0.00  0.00     0.087 A 
ATOM      2  C   UNL d   1      -0.206   0.510  -2.380  0.00  0.00    -0.032 A 
ATOM      3  C   UNL d   1       0.924   2.377  -1.201  0.00  0.00    -0.032 A 
ATOM      4  C   UNL d   1      -0.659   1.444  -3.363  0.00  0.00    -0.048 A 
ATOM      5  C   UNL d   1       0.488   3.283  -2.210  0.00  0.00    -0.048 A 
ATOM      6  C   UNL d   1      -0.305   2.818  -3.284  0.00  0.00    -0.049 A 
ATOM      7  C   UNL d   1       1.735   2.966  -0.061  0.00  0.00     0.050 C 
ATOM      8  C   UNL d   1      -0.634  -0.924  -2.587  0.00  0.00     0.050 C 
ATOM      9  C   UNL d   1      -1.525   1.010  -4.537  0.00  0.00     0.049 C 
ATOM     10  C   UNL d   1       0.864   4.752  -2.165  0.00  0.00     0.049 C 
ATOM     11  C   UNL d   1      -0.797   3.765  -4.363  0.00  0.00     0.049 C 
ENDROOT
BRANCH   1  12
ATOM     12  S   UNL d   1       1.205  -0.102   0.023  0.00  0.00     0.244 S 
ATOM     13  O   UNL d   1       0.926  -1.500  -0.227  0.00  0.00    -0.206 OA
ATOM     14  O   UNL d   1       0.814   0.475   1.289  0.00  0.00    -0.206 OA
BRANCH  12  15
ATOM     15  N   UNL d   1       2.909   0.064  -0.172  0.00  0.00    -0.206 NA
ATOM     16  C   UNL d   1       3.466  -0.560  -1.403  0.00  0.00     0.107 C 
ATOM     17  C   UNL d   1       4.020  -1.889  -0.924  0.00  0.00     0.017 C 
ATOM     18  C   UNL d   1       4.634  -1.523   0.412  0.00  0.00     0.017 C 
ATOM     19  C   UNL d   1       3.713  -0.445   0.978  0.00  0.00     0.107 C 
ENDBRANCH  12  15
ENDBRANCH   1  12
TORSDOF 2
