REMARK  1 active torsions:
REMARK  status: ('A' for Active; 'I' for Inactive)
REMARK    1  A    between atoms: N_12  and  C_7 
ROOT
ATOM      1  S   UNL d   1      -1.246   1.512  -0.198  0.00  0.00     0.269 S 
ATOM      2  C   UNL d   1       0.359  -0.657  -0.156  0.00  0.00     0.119 A 
ATOM      3  C   UNL d   1       0.227   0.692  -0.039  0.00  0.00     0.138 A 
ATOM      4  N   UNL d   1      -2.363   0.418   0.179  0.00  0.00    -0.260 N 
ATOM      5  HN  UNL d   1      -3.221   0.773   0.600  1.00  0.00     0.181 HD
ATOM      6  S   UNL d   1      -0.871  -1.787  -0.531  0.00  0.00    -0.033 SA
ATOM      7  C   UNL d   1      -2.293  -0.862   0.007  0.00  0.00     0.158 C 
ATOM      8  N   UNL d   1       1.683  -0.933   0.013  0.00  0.00    -0.288 N 
ATOM      9  C   UNL d   1       1.534   1.193   0.094  0.00  0.00     0.048 A 
ATOM     10  N   UNL d   1       2.427   0.189   0.157  0.00  0.00    -0.301 N 
ATOM     11  HN  UNL d   1       3.437   0.258   0.285  1.00  0.00     0.187 HD
ATOM     12  O   UNL d   1      -1.312   1.840  -1.607  0.00  0.00    -0.200 OA
ATOM     13  O   UNL d   1      -1.195   2.531   0.827  0.00  0.00    -0.200 OA
ATOM     14  C   UNL d   1       2.362  -2.206   0.049  0.00  0.00     0.178 C 
ATOM     15  C   UNL d   1       2.014   2.598   0.112  0.00  0.00     0.071 C 
ENDROOT
BRANCH   7  16
ATOM     16  N   UNL d   1      -3.375  -1.677   0.313  0.00  0.00    -0.357 N 
ATOM     17  C   UNL d   1      -3.932  -2.629  -0.669  0.00  0.00     0.151 C 
ATOM     18  C   UNL d   1      -5.282  -2.129  -1.206  0.00  0.00     0.187 C 
ATOM     19  O   UNL d   1      -6.206  -1.876  -0.138  0.00  0.00    -0.388 OA
ATOM     20  C   UNL d   1      -5.685  -0.860   0.733  0.00  0.00     0.187 C 
ATOM     21  C   UNL d   1      -4.351  -1.291   1.350  0.00  0.00     0.151 C 
ENDBRANCH   7  16
TORSDOF 1
