REMARK  3 active torsions:
REMARK  status: ('A' for Active; 'I' for Inactive)
REMARK    1  A    between atoms: C_6  and  C_1 
REMARK    2  A    between atoms: N_7  and  C_3 
REMARK       I    between atoms: C_10  and  N_7 
REMARK    3  A    between atoms: C_12  and  C_10 
ROOT
ATOM      1  C   UNL d   1      -0.153   1.135   0.078  0.00  0.00     0.177 A 
ATOM      2  S   UNL d   1       1.148   0.033  -0.135  0.00  0.00    -0.029 SA
ATOM      3  C   UNL d   1       0.033  -1.240   0.065  0.00  0.00     0.168 A 
ATOM      4  N   UNL d   1      -1.317   0.536   0.265  0.00  0.00    -0.288 N 
ATOM      5  HN  UNL d   1      -2.195   1.034   0.416  1.00  0.00     0.187 HD
ATOM      6  N   UNL d   1      -1.209  -0.842   0.232  0.00  0.00    -0.279 N 
ATOM      7  HN  UNL d   1      -2.002  -1.477   0.325  1.00  0.00     0.189 HD
ENDROOT
BRANCH   3   8
ATOM      8  N   UNL d   1       0.387  -2.568   0.001  0.00  0.00    -0.302 N 
ATOM      9  C   UNL d   1       1.676  -3.050   0.046  0.00  0.00     0.257 C 
ATOM     10  O   UNL d   1       2.694  -2.385   0.209  0.00  0.00    -0.267 OA
ATOM     11  H   UNL d   1      -0.398  -3.202   0.061  0.00  0.00     0.171 HD
BRANCH   9  12
ATOM     12  C   UNL d   1       1.832  -4.529  -0.066  0.00  0.00     0.032 A 
ATOM     13  C   UNL d   1       0.947  -5.332  -0.796  0.00  0.00     0.017 A 
ATOM     14  C   UNL d   1       1.195  -6.703  -0.920  0.00  0.00     0.001 A 
ATOM     15  C   UNL d   1       2.321  -7.273  -0.322  0.00  0.00     0.000 A 
ATOM     16  C   UNL d   1       3.200  -6.479   0.409  0.00  0.00     0.001 A 
ATOM     17  C   UNL d   1       2.958  -5.112   0.535  0.00  0.00     0.017 A 
ENDBRANCH   9  12
ENDBRANCH   3   8
BRANCH   1  18
ATOM     18  C   UNL d   1       0.077   2.609   0.034  0.00  0.00     0.440 C 
ATOM     19  F   UNL d   1       1.364   2.949  -0.254  0.00  0.00    -0.164 F 
ATOM     20  F   UNL d   1      -0.691   3.216  -0.911  0.00  0.00    -0.164 F 
ATOM     21  F   UNL d   1      -0.217   3.209   1.218  0.00  0.00    -0.164 F 
ENDBRANCH   1  18
TORSDOF 3
