REMARK  4 active torsions:
REMARK  status: ('A' for Active; 'I' for Inactive)
REMARK    1  A    between atoms: C_2  and  C_1 
REMARK       I    between atoms: N_3  and  C_2 
REMARK    2  A    between atoms: C_9  and  N_3 
REMARK    3  A    between atoms: N_10  and  C_4 
REMARK    4  A    between atoms: C_8  and  C_9 
ROOT
ATOM      1  C   UNL d   1       0.935   2.481  -0.197  0.00  0.00     0.253 C 
ATOM      2  N   UNL d   1       0.221   3.625   0.097  0.00  0.00    -0.353 N 
ATOM      3  O   UNL d   1       2.101   2.518  -0.586  0.00  0.00    -0.268 OA
ATOM      4  H   UNL d   1      -0.657   3.566   0.590  0.00  0.00     0.163 HD
ENDROOT
BRANCH   1   5
ATOM      5  C   UNL d   1       0.233   1.163  -0.046  0.00  0.00     0.052 A 
ATOM      6  C   UNL d   1       0.987  -0.032   0.022  0.00  0.00     0.021 A 
ATOM      7  C   UNL d   1       0.309  -1.257   0.121  0.00  0.00     0.024 A 
ATOM      8  C   UNL d   1      -1.084  -1.314   0.076  0.00  0.00     0.002 A 
ATOM      9  C   UNL d   1      -1.824  -0.141  -0.029  0.00  0.00     0.001 A 
ATOM     10  C   UNL d   1      -1.172   1.093  -0.091  0.00  0.00     0.019 A 
BRANCH   6  11
ATOM     11  N   UNL d   1       2.385  -0.037   0.216  0.00  0.00    -0.302 NA
ATOM     12  H   UNL d   1       2.804   0.838  -0.128  0.00  0.00     0.124 HD
ATOM     13  H   UNL d   1       2.848  -0.850  -0.174  0.00  0.00     0.124 HD
ENDBRANCH   6  11
ENDBRANCH   1   5
BRANCH   2  14
ATOM     14  C   UNL d   1       0.785   4.944  -0.113  0.00  0.00     0.162 C 
BRANCH  14  15
ATOM     15  C   UNL d   1       1.188   5.602   1.171  0.00  0.00    -0.025 A 
ATOM     16  C   UNL d   1       0.646   6.824   1.554  0.00  0.00     0.096 A 
ATOM     17  N   UNL d   1       0.989   7.493   2.679  0.00  0.00    -0.375 N 
ATOM     18  C   UNL d   1       1.931   6.921   3.461  0.00  0.00     0.087 A 
ATOM     19  HN  UNL d   1       0.558   8.384   2.925  1.00  0.00     0.164 HD
ATOM     20  C   UNL d   1       2.539   5.712   3.170  0.00  0.00     0.018 A 
ATOM     21  C   UNL d   1       2.163   5.047   2.008  0.00  0.00     0.011 A 
ENDBRANCH  14  15
ENDBRANCH   2  14
TORSDOF 4
