REMARK  5 active torsions:
REMARK  status: ('A' for Active; 'I' for Inactive)
REMARK    1  A    between atoms: C_2  and  C_1 
REMARK       I    between atoms: N_4  and  C_1 
REMARK    2  A    between atoms: O_7  and  C_3 
REMARK       I    between atoms: C_5  and  N_6 
REMARK    3  A    between atoms: C_14  and  C_5 
REMARK    4  A    between atoms: N_6  and  C_15 
REMARK    5  A    between atoms: C_18  and  O_7 
ROOT
ATOM      1  C   UNL d   1       0.837   0.061   0.545  0.00  0.00     0.258 C 
ATOM      2  N   UNL d   1       0.239   1.045  -0.273  0.00  0.00    -0.348 N 
ATOM      3  O   UNL d   1       1.737  -0.660   0.115  0.00  0.00    -0.267 OA
ATOM      4  C   UNL d   1       0.702   1.194  -1.654  0.00  0.00     0.128 C 
ATOM      5  C   UNL d   1      -0.585   2.176   0.151  0.00  0.00     0.128 C 
ATOM      6  C   UNL d   1      -1.655   2.195  -2.173  0.00  0.00     0.087 C 
ATOM      7  C   UNL d   1      -1.881   2.183  -0.653  0.00  0.00     0.045 C 
ATOM      8  C   UNL d   1      -0.460   1.345  -2.645  0.00  0.00     0.045 C 
ENDROOT
BRANCH   1   9
ATOM      9  C   UNL d   1       0.359  -0.194   1.941  0.00  0.00     0.083 C 
ATOM     10  C   UNL d   1       1.191  -0.691   2.953  0.00  0.00     0.163 C 
ATOM     11  N   UNL d   1       0.774  -0.849   4.246  0.00  0.00    -0.346 N 
ATOM     12  C   UNL d   1      -0.516  -0.613   4.532  0.00  0.00     0.090 C 
ATOM     13  HN  UNL d   1       1.427  -1.138   4.974  1.00  0.00     0.167 HD
ATOM     14  C   UNL d   1      -1.440  -0.238   3.581  0.00  0.00     0.018 C 
ATOM     15  C   UNL d   1      -0.996  -0.052   2.272  0.00  0.00     0.023 C 
BRANCH  10  16
ATOM     16  O   UNL d   1       2.504  -1.057   2.680  0.00  0.00    -0.293 OA
BRANCH  16  17
ATOM     17  C   UNL d   1       3.047  -2.062   3.467  0.00  0.00     0.077 A 
ATOM     18  C   UNL d   1       2.400  -3.285   3.686  0.00  0.00     0.037 A 
ATOM     19  C   UNL d   1       2.990  -4.255   4.505  0.00  0.00     0.003 A 
ATOM     20  C   UNL d   1       4.238  -4.019   5.078  0.00  0.00     0.000 A 
ATOM     21  C   UNL d   1       4.904  -2.817   4.824  0.00  0.00     0.003 A 
ATOM     22  C   UNL d   1       4.310  -1.845   4.012  0.00  0.00     0.037 A 
ENDBRANCH  16  17
ENDBRANCH  10  16
ENDBRANCH   1   9
BRANCH   6  23
ATOM     23  N   UNL d   1      -1.735   3.550  -2.727  0.00  0.00    -0.352 N 
ATOM     24  C   UNL d   1      -0.778   4.524  -2.592  0.00  0.00     0.252 C 
ATOM     25  O   UNL d   1       0.355   4.312  -2.181  0.00  0.00    -0.268 OA
ATOM     26  H   UNL d   1      -2.607   3.801  -3.179  0.00  0.00     0.163 HD
BRANCH  24  27
ATOM     27  C   UNL d   1      -1.181   5.911  -2.966  0.00  0.00     0.032 A 
ATOM     28  C   UNL d   1      -2.485   6.385  -2.752  0.00  0.00     0.017 A 
ATOM     29  C   UNL d   1      -2.799   7.720  -3.027  0.00  0.00     0.001 A 
ATOM     30  C   UNL d   1      -1.818   8.584  -3.514  0.00  0.00     0.000 A 
ATOM     31  C   UNL d   1      -0.522   8.117  -3.732  0.00  0.00     0.001 A 
ATOM     32  C   UNL d   1      -0.204   6.785  -3.454  0.00  0.00     0.017 A 
ENDBRANCH  24  27
ENDBRANCH   6  23
TORSDOF 5
