REMARK  3 active torsions:
REMARK  status: ('A' for Active; 'I' for Inactive)
REMARK    1  A    between atoms: C_7  and  C_1 
REMARK    2  A    between atoms: S_14  and  C_8 
REMARK    3  A    between atoms: C_13  and  C_9 
ROOT
ATOM      1  C   UNL d   1      -0.203   1.246  -0.223  0.00  0.00     0.165 A 
ATOM      2  N   UNL d   1      -0.736   0.065  -0.278  0.00  0.00    -0.331 N 
ATOM      3  HN  UNL d   1      -1.723  -0.185  -0.330  1.00  0.00     0.168 HD
ATOM      4  O   UNL d   1       1.146   1.316  -0.176  0.00  0.00    -0.255 OA
ATOM      5  C   UNL d   1       0.351  -0.764  -0.248  0.00  0.00     0.111 A 
ATOM      6  C   UNL d   1       1.605   0.030  -0.211  0.00  0.00     0.316 A 
ATOM      7  C   UNL d   1       0.345  -2.099  -0.166  0.00  0.00     0.047 C 
ATOM      8  O   UNL d   1       2.758  -0.347  -0.174  0.00  0.00    -0.257 OA
ENDROOT
BRANCH   1   9
ATOM      9  C   UNL d   1      -0.959   2.497  -0.075  0.00  0.00     0.049 A 
ATOM     10  C   UNL d   1      -0.531   3.777  -0.433  0.00  0.00     0.083 A 
ATOM     11  N   UNL d   1      -1.293   4.878  -0.180  0.00  0.00    -0.360 N 
ATOM     12  C   UNL d   1      -2.489   4.715   0.426  0.00  0.00     0.089 A 
ATOM     13  HN  UNL d   1      -0.966   5.807  -0.443  1.00  0.00     0.166 HD
ATOM     14  C   UNL d   1      -2.999   3.486   0.786  0.00  0.00     0.018 A 
ATOM     15  C   UNL d   1      -2.224   2.365   0.526  0.00  0.00     0.020 A 
BRANCH  10  16
ATOM     16  S   UNL d   1       1.000   4.102  -1.301  0.00  0.00    -0.116 SA
ATOM     17  C   UNL d   1       0.967   5.914  -1.404  0.00  0.00     0.097 C 
ENDBRANCH  10  16
ENDBRANCH   1   9
BRANCH   7  18
ATOM     18  C   UNL d   1      -0.890  -2.885  -0.098  0.00  0.00    -0.034 A 
ATOM     19  C   UNL d   1      -1.430  -3.455  -1.253  0.00  0.00     0.012 A 
ATOM     20  C   UNL d   1      -2.607  -4.206  -1.185  0.00  0.00     0.007 A 
ATOM     21  C   UNL d   1      -3.260  -4.395   0.040  0.00  0.00    -0.062 A 
ATOM     22  C   UNL d   1      -2.721  -3.817   1.194  0.00  0.00     0.007 A 
ATOM     23  C   UNL d   1      -4.514  -5.217   0.101  0.00  0.00     0.048 C 
ATOM     24  C   UNL d   1      -1.544  -3.065   1.125  0.00  0.00     0.012 A 
ENDBRANCH   7  18
TORSDOF 3
