REMARK  3 active torsions:
REMARK  status: ('A' for Active; 'I' for Inactive)
REMARK    1  A    between atoms: N_6  and  C_1 
REMARK       I    between atoms: C_3  and  N_6 
REMARK    2  A    between atoms: C_8  and  C_3 
REMARK    3  A    between atoms: C_12  and  C_7 
ROOT
ATOM      1  C   UNL d   1       1.057  -0.598  -0.130  0.00  0.00     0.124 A 
ATOM      2  C   UNL d   1       0.913   0.735  -0.425  0.00  0.00     0.081 A 
ATOM      3  N   UNL d   1      -1.127  -0.046   0.188  0.00  0.00    -0.298 N 
ATOM      4  HN  UNL d   1      -2.122  -0.126   0.398  1.00  0.00     0.187 HD
ATOM      5  C   UNL d   1      -0.445   1.058  -0.157  0.00  0.00     0.062 A 
ATOM      6  N   UNL d   1      -0.203  -1.022   0.195  0.00  0.00    -0.285 N 
ATOM      7  H   UNL d   1      -0.506  -1.951   0.459  0.00  0.00     0.188 HD
ENDROOT
BRANCH   1   8
ATOM      8  N   UNL d   1       2.215  -1.368  -0.107  0.00  0.00    -0.308 N 
ATOM      9  C   UNL d   1       3.520  -0.840  -0.408  0.00  0.00     0.260 C 
ATOM     10  O   UNL d   1       3.655   0.285  -0.866  0.00  0.00    -0.267 OA
ATOM     11  H   UNL d   1       2.141  -2.334   0.199  0.00  0.00     0.170 HD
BRANCH   9  12
ATOM     12  C   UNL d   1       4.701  -1.680  -0.118  0.00  0.00     0.070 A 
ATOM     13  C   UNL d   1       4.579  -2.978   0.371  0.00  0.00     0.132 A 
ATOM     14  F   UNL d   1       3.366  -3.523   0.557  0.00  0.00    -0.205 F 
ATOM     15  C   UNL d   1       5.707  -3.731   0.685  0.00  0.00     0.043 A 
ATOM     16  C   UNL d   1       6.977  -3.181   0.510  0.00  0.00     0.003 A 
ATOM     17  C   UNL d   1       7.115  -1.886   0.012  0.00  0.00     0.001 A 
ATOM     18  C   UNL d   1       5.981  -1.135  -0.303  0.00  0.00     0.020 A 
ENDBRANCH   9  12
ENDBRANCH   1   8
BRANCH   5  19
ATOM     19  C   UNL d   1      -1.056   2.389  -0.204  0.00  0.00    -0.008 A 
ATOM     20  C   UNL d   1      -2.435   2.546  -0.390  0.00  0.00     0.014 A 
ATOM     21  C   UNL d   1      -3.004   3.823  -0.433  0.00  0.00     0.001 A 
ATOM     22  C   UNL d   1      -2.202   4.954  -0.284  0.00  0.00     0.000 A 
ATOM     23  C   UNL d   1      -0.831   4.812  -0.088  0.00  0.00     0.001 A 
ATOM     24  C   UNL d   1      -0.262   3.538  -0.048  0.00  0.00     0.014 A 
ENDBRANCH   5  19
TORSDOF 3
