REMARK  3 active torsions:
REMARK  status: ('A' for Active; 'I' for Inactive)
REMARK    1  A    between atoms: N_2  and  S_1 
REMARK    2  A    between atoms: C_8  and  S_1 
REMARK    3  A    between atoms: C_3  and  N_2 
ROOT
ATOM      1  N   UNL d   1       8.813  -4.141   5.939  0.00  0.00    -0.210 NA
ATOM      2  H   UNL d   1       7.914  -3.730   5.682  0.00  0.00     0.140 HD
ENDROOT
BRANCH   1   3
ATOM      3  S   UNL d   1       8.827  -5.684   5.258  0.00  0.00     0.241 S 
ATOM      4  O   UNL d   1       9.922  -5.771   4.320  0.00  0.00    -0.206 OA
ATOM      5  O   UNL d   1       7.462  -5.930   4.853  0.00  0.00    -0.206 OA
BRANCH   3   6
ATOM      6  C   UNL d   1       9.134  -6.757   6.644  0.00  0.00     0.074 A 
ATOM      7  C   UNL d   1       8.262  -6.724   7.740  0.00  0.00     0.026 A 
ATOM      8  C   UNL d   1       8.498  -7.555   8.839  0.00  0.00     0.025 A 
ATOM      9  C   UNL d   1       9.589  -8.425   8.829  0.00  0.00     0.034 A 
ATOM     10  C   UNL d   1      10.445  -8.475   7.727  0.00  0.00     0.025 A 
ATOM     11 CL   UNL d   1       9.881  -9.445  10.183  0.00  0.00    -0.084 Cl
ATOM     12  C   UNL d   1      10.214  -7.645   6.627  0.00  0.00     0.026 A 
ENDBRANCH   3   6
ENDBRANCH   1   3
BRANCH   1  13
ATOM     13  C   UNL d   1       9.966  -3.210   5.850  0.00  0.00     0.088 C 
ATOM     14  C   UNL d   1      11.176  -3.569   6.777  0.00  0.00    -0.026 C 
ATOM     15  C   UNL d   1      11.829  -2.197   7.032  0.00  0.00     0.016 C 
ATOM     16  C   UNL d   1      10.690  -3.896   8.204  0.00  0.00     0.011 C 
ATOM     17  C   UNL d   1      12.195  -4.535   6.203  0.00  0.00     0.017 C 
ATOM     18  C   UNL d   1      10.548  -1.571   7.572  0.00  0.00    -0.004 C 
ATOM     19  C   UNL d   1       9.559  -1.770   6.381  0.00  0.00    -0.026 C 
ATOM     20  C   UNL d   1      10.247  -2.528   8.742  0.00  0.00     0.006 C 
ATOM     21  C   UNL d   1       9.825  -0.702   5.291  0.00  0.00     0.017 C 
ATOM     22  C   UNL d   1       8.092  -1.578   6.809  0.00  0.00     0.017 C 
ENDBRANCH   1  13
TORSDOF 3
