REMARK  0 active torsions:
REMARK  status: ('A' for Active; 'I' for Inactive)
ROOT
ATOM      1  N   UNL d   1       0.002  -1.330   0.580  0.00  0.00    -0.354 N 
ATOM      2  S   UNL d   1      -0.006   1.745   0.116  0.00  0.00    -0.086 SA
ATOM      3  C   UNL d   1       1.246  -0.751   0.282  0.00  0.00     0.050 A 
ATOM      4  C   UNL d   1      -1.248  -0.758   0.284  0.00  0.00     0.050 A 
ATOM      5  C   UNL d   1       1.375   0.619  -0.012  0.00  0.00     0.032 A 
ATOM      6  C   UNL d   1      -1.384   0.613  -0.006  0.00  0.00     0.032 A 
ATOM      7  C   UNL d   1       2.372  -1.580   0.155  0.00  0.00     0.031 A 
ATOM      8  C   UNL d   1      -2.366  -1.592   0.154  0.00  0.00     0.031 A 
ATOM      9  C   UNL d   1       2.608   1.134  -0.428  0.00  0.00     0.021 A 
ATOM     10  C   UNL d   1      -2.624   1.122  -0.417  0.00  0.00     0.021 A 
ATOM     11  C   UNL d   1       3.593  -1.065  -0.280  0.00  0.00     0.002 A 
ATOM     12  C   UNL d   1       3.712   0.292  -0.573  0.00  0.00     0.002 A 
ATOM     13  C   UNL d   1      -3.593  -1.081  -0.278  0.00  0.00     0.002 A 
ATOM     14  C   UNL d   1      -3.719   0.276  -0.568  0.00  0.00     0.002 A 
ATOM     15  H   UNL d   1       0.004  -2.295   0.879  0.00  0.00     0.166 HD
ENDROOT
TORSDOF 0
