REMARK  8 active torsions:
REMARK  status: ('A' for Active; 'I' for Inactive)
REMARK       I    between atoms: N_7  and  C_1 
REMARK       I    between atoms: N_10  and  C_1 
REMARK    1  A    between atoms: C_9  and  C_2 
REMARK    2  A    between atoms: C_4  and  C_20 
REMARK    3  A    between atoms: C_11  and  N_7 
REMARK    4  A    between atoms: N_12  and  C_9 
REMARK    5  A    between atoms: C_21  and  N_10 
REMARK    6  A    between atoms: S_14  and  C_22 
REMARK    7  A    between atoms: C_20  and  S_14 
REMARK    8  A    between atoms: C_22  and  C_21 
ROOT
ATOM      1  C   UNL d   1       2.449   1.626  -0.265  0.00  0.00     0.320 C 
ATOM      2  N   UNL d   1       3.321   2.360  -1.022  0.00  0.00    -0.309 N 
ATOM      3  O   UNL d   1       1.581   2.066   0.483  0.00  0.00    -0.247 OA
ATOM      4  N   UNL d   1       2.586   0.272  -0.320  0.00  0.00    -0.342 N 
ATOM      5  H   UNL d   1       3.817   1.864  -1.744  0.00  0.00     0.170 HD
ATOM      6  H   UNL d   1       1.907  -0.180   0.278  0.00  0.00     0.164 HD
ENDROOT
BRANCH   4   7
ATOM      7  C   UNL d   1       3.398  -0.579  -1.167  0.00  0.00     0.134 C 
BRANCH   7   8
ATOM      8  C   UNL d   1       4.894  -0.589  -0.833  0.00  0.00     0.094 C 
BRANCH   8   9
ATOM      9  S   UNL d   1       5.698  -1.795  -1.951  0.00  0.00    -0.161 SA
BRANCH   9  10
ATOM     10  C   UNL d   1       7.420  -1.669  -1.384  0.00  0.00     0.139 C 
BRANCH  10  11
ATOM     11  C   UNL d   1       7.594  -2.073   0.030  0.00  0.00     0.062 A 
ATOM     12  O   UNL d   1       8.223  -1.171   0.837  0.00  0.00    -0.317 OA
ATOM     13  C   UNL d   1       8.327  -1.739   2.071  0.00  0.00     0.081 A 
ATOM     14  C   UNL d   1       7.738  -2.987   2.068  0.00  0.00     0.037 A 
ATOM     15  C   UNL d   1       7.283  -3.211   0.748  0.00  0.00     0.036 A 
BRANCH  13  16
ATOM     16  C   UNL d   1       9.065  -0.959   3.107  0.00  0.00     0.335 C 
BRANCH  16  17
ATOM     17  N   UNL d   1      10.204  -1.715   3.665  0.00  0.00     0.086 N 
ATOM     18  C   UNL d   1      11.225  -1.978   2.646  0.00  0.00     0.309 C 
ATOM     19  C   UNL d   1      10.800  -0.973   4.777  0.00  0.00     0.309 C 
ENDBRANCH  16  17
ENDBRANCH  13  16
ENDBRANCH  10  11
ENDBRANCH   9  10
ENDBRANCH   8   9
ENDBRANCH   7   8
ENDBRANCH   4   7
BRANCH   2  20
ATOM     20  C   UNL d   1       3.578   3.743  -0.906  0.00  0.00     0.036 A 
ATOM     21  C   UNL d   1       2.980   4.564   0.055  0.00  0.00     0.031 A 
ATOM     22  C   UNL d   1       3.362   5.902   0.195  0.00  0.00     0.026 A 
ATOM     23  C   UNL d   1       4.346   6.431  -0.633  0.00  0.00     0.034 A 
ATOM     24  C   UNL d   1       4.927   5.638  -1.621  0.00  0.00     0.026 A 
ATOM     25 CL   UNL d   1       4.862   8.056  -0.420  0.00  0.00    -0.084 Cl
ATOM     26  C   UNL d   1       4.539   4.300  -1.761  0.00  0.00     0.031 A 
ENDBRANCH   2  20
TORSDOF 8
