REMARK  3 active torsions:
REMARK  status: ('A' for Active; 'I' for Inactive)
REMARK    1  A    between atoms: C_8  and  C_6 
REMARK    2  A    between atoms: O_14  and  C_7 
REMARK    3  A    between atoms: O_15  and  C_11 
ROOT
ATOM      1  C   UNL d   1      -1.129  -0.948   0.621  0.00  0.00     0.045 A 
ATOM      2  C   UNL d   1       0.374  -0.968   0.526  0.00  0.00     0.257 A 
ATOM      3  N   UNL d   1       0.782   0.260   1.013  0.00  0.00    -0.322 N 
ATOM      4  C   UNL d   1      -1.505   0.331   1.234  0.00  0.00     0.006 A 
ATOM      5  C   UNL d   1      -0.305   1.026   1.429  0.00  0.00     0.046 A 
ATOM      6  C   UNL d   1      -1.853  -1.960   0.118  0.00  0.00     0.029 C 
ATOM      7  O   UNL d   1       1.075  -1.862   0.091  0.00  0.00    -0.267 OA
ATOM      8  C   UNL d   1      -2.704   0.898   1.630  0.00  0.00     0.015 A 
ATOM      9  C   UNL d   1      -0.258   2.294   1.976  0.00  0.00     0.030 A 
ATOM     10  C   UNL d   1      -2.679   2.179   2.194  0.00  0.00     0.001 A 
ATOM     11  C   UNL d   1      -1.469   2.874   2.357  0.00  0.00     0.002 A 
ATOM     12  H   UNL d   1       1.750   0.536   1.060  0.00  0.00     0.169 HD
ENDROOT
BRANCH   6  13
ATOM     13  C   UNL d   1      -3.312  -1.960   0.022  0.00  0.00    -0.032 A 
ATOM     14  C   UNL d   1      -3.918  -1.424  -1.124  0.00  0.00     0.051 A 
ATOM     15  C   UNL d   1      -5.311  -1.282  -1.212  0.00  0.00     0.102 A 
ATOM     16  C   UNL d   1      -6.103  -1.741  -0.144  0.00  0.00     0.101 A 
ATOM     17  C   UNL d   1      -5.489  -2.293   0.991  0.00  0.00     0.040 A 
ATOM     18  C   UNL d   1      -4.102  -2.405   1.077  0.00  0.00     0.014 A 
BRANCH  15  19
ATOM     19  O   UNL d   1      -5.934  -0.667  -2.266  0.00  0.00    -0.353 OA
ATOM     20  C   UNL d   1      -5.122  -0.140  -3.308  0.00  0.00     0.210 C 
ENDBRANCH  15  19
BRANCH  16  21
ATOM     21  O   UNL d   1      -7.467  -1.659  -0.023  0.00  0.00    -0.353 OA
ATOM     22  C   UNL d   1      -8.230  -1.734  -1.220  0.00  0.00     0.210 C 
ENDBRANCH  16  21
ENDBRANCH   6  13
TORSDOF 3
