REMARK  4 active torsions:
REMARK  status: ('A' for Active; 'I' for Inactive)
REMARK    1  A    between atoms: C_14  and  N_4 
REMARK    2  A    between atoms: S_16  and  C_10 
REMARK    3  A    between atoms: C_15  and  C_13 
REMARK    4  A    between atoms: C_18  and  C_14 
ROOT
ATOM      1  C   UNL d   1      -0.665  -1.154   0.060  0.00  0.00     0.098 A 
ATOM      2  C   UNL d   1      -1.152  -2.492   0.105  0.00  0.00     0.152 A 
ATOM      3  N   UNL d   1      -2.289  -2.933   0.749  0.00  0.00    -0.314 N 
ATOM      4  N   UNL d   1       0.658  -0.770   0.101  0.00  0.00    -0.284 N 
ATOM      5  N   UNL d   1      -0.560  -3.521  -0.464  0.00  0.00    -0.281 N 
ATOM      6  HN  UNL d   1       0.317  -3.494  -0.984  1.00  0.00     0.188 HD
ATOM      7  N   UNL d   1       0.806   0.581   0.134  0.00  0.00    -0.301 N 
ATOM      8  HN  UNL d   1       1.674   1.109   0.223  1.00  0.00     0.187 HD
ATOM      9  C   UNL d   1      -1.380   0.019  -0.034  0.00  0.00     0.062 A 
ATOM     10  C   UNL d   1      -2.366  -4.272   0.475  0.00  0.00     0.159 A 
ATOM     11  N   UNL d   1      -1.325  -4.639  -0.237  0.00  0.00    -0.278 N 
ATOM     12  HN  UNL d   1      -1.122  -5.584  -0.563  1.00  0.00     0.189 HD
ATOM     13  C   UNL d   1      -0.436   1.068   0.023  0.00  0.00     0.036 A 
ATOM     14  C   UNL d   1      -3.180  -2.172   1.587  0.00  0.00     0.160 C 
ENDROOT
BRANCH   4  15
ATOM     15  C   UNL d   1       1.864  -1.594   0.016  0.00  0.00     0.187 C 
BRANCH  15  16
ATOM     16  C   UNL d   1       2.163  -2.508   1.189  0.00  0.00    -0.038 A 
ATOM     17  C   UNL d   1       1.369  -2.598   2.343  0.00  0.00     0.012 A 
ATOM     18  C   UNL d   1       1.635  -3.565   3.316  0.00  0.00     0.043 A 
ATOM     19  C   UNL d   1       2.725  -4.411   3.168  0.00  0.00     0.116 A 
ATOM     20  C   UNL d   1       3.569  -4.298   2.074  0.00  0.00     0.043 A 
ATOM     21  F   UNL d   1       2.964  -5.348   4.095  0.00  0.00    -0.206 F 
ATOM     22  C   UNL d   1       3.288  -3.352   1.086  0.00  0.00     0.012 A 
ENDBRANCH  15  16
ENDBRANCH   4  15
BRANCH  13  23
ATOM     23  C   UNL d   1      -0.733   2.555  -0.002  0.00  0.00    -0.007 C 
ATOM     24  C   UNL d   1      -1.443   2.956   1.306  0.00  0.00     0.021 C 
ATOM     25  C   UNL d   1       0.542   3.409  -0.146  0.00  0.00     0.021 C 
ATOM     26  C   UNL d   1      -1.661   2.883  -1.193  0.00  0.00     0.021 C 
ENDBRANCH  13  23
BRANCH  10  27
ATOM     27  S   UNL d   1      -3.641  -5.323   0.984  0.00  0.00    -0.105 SA
ATOM     28  H   UNL d   1      -4.520  -4.428   1.451  0.00  0.00     0.110 HD
ENDBRANCH  10  27
TORSDOF 4
