REMARK  9 active torsions:
REMARK  status: ('A' for Active; 'I' for Inactive)
REMARK    1  A    between atoms: C_2  and  C_11 
REMARK    2  A    between atoms: C_12  and  C_2 
REMARK    3  A    between atoms: S_17  and  C_3 
REMARK    4  A    between atoms: N_14  and  N_6 
REMARK    5  A    between atoms: C_11  and  C_20 
REMARK    6  A    between atoms: O_26  and  C_12 
REMARK    7  A    between atoms: C_16  and  N_14 
REMARK    8  A    between atoms: C_20  and  S_17 
REMARK    9  A    between atoms: C_32  and  O_26 
ROOT
ATOM      1  C   UNL d   1      -0.124  -0.346   0.224  0.00  0.00     0.084 A 
ATOM      2  C   UNL d   1      -1.191   0.555   0.131  0.00  0.00     0.091 A 
ATOM      3  N   UNL d   1      -1.029   1.879   0.351  0.00  0.00    -0.353 N 
ATOM      4  HN  UNL d   1      -1.817   2.519   0.249  1.00  0.00     0.166 HD
ATOM      5  C   UNL d   1       1.151   0.134   0.611  0.00  0.00    -0.031 A 
ATOM      6  C   UNL d   1       1.313   1.515   0.879  0.00  0.00    -0.032 A 
ATOM      7  C   UNL d   1       0.197   2.349   0.712  0.00  0.00     0.012 A 
ATOM      8  C   UNL d   1      -0.331  -1.733  -0.067  0.00  0.00     0.103 C 
ATOM      9  N   UNL d   1      -0.467  -2.863  -0.301  0.00  0.00    -0.191 NA
ATOM     10  C   UNL d   1       2.325  -0.807   0.774  0.00  0.00     0.050 C 
ATOM     11  C   UNL d   1       2.627   2.090   1.351  0.00  0.00     0.050 C 
ATOM     12  C   UNL d   1       0.253   3.840   0.911  0.00  0.00     0.068 C 
ENDROOT
BRANCH   2  13
ATOM     13  S   UNL d   1      -2.877   0.001  -0.232  0.00  0.00    -0.103 SA
BRANCH  13  14
ATOM     14  C   UNL d   1      -3.791   1.555  -0.155  0.00  0.00     0.166 C 
BRANCH  14  15
ATOM     15  C   UNL d   1      -5.293   1.504  -0.016  0.00  0.00     0.193 C 
ATOM     16  O   UNL d   1      -5.937   2.555   0.094  0.00  0.00    -0.290 OA
BRANCH  15  17
ATOM     17  C   UNL d   1      -6.099   0.218  -0.052  0.00  0.00     0.170 C 
ATOM     18  N   UNL d   1      -7.227   0.121  -0.710  0.00  0.00    -0.292 N 
ATOM     19  HN  UNL d   1      -7.741  -0.760  -0.694  1.00  0.00     0.187 HD
BRANCH  18  20
ATOM     20  N   UNL d   1      -7.725   1.171  -1.414  0.00  0.00    -0.298 N 
ATOM     21  H   UNL d   1      -7.442   2.131  -1.175  0.00  0.00     0.187 HD
BRANCH  20  22
ATOM     22  C   UNL d   1      -9.083   1.091  -1.830  0.00  0.00     0.070 A 
ATOM     23  C   UNL d   1      -9.681   2.137  -2.560  0.00  0.00     0.063 A 
ATOM     24  C   UNL d   1     -10.990   2.034  -3.048  0.00  0.00     0.050 A 
ATOM     25 CL   UNL d   1      -8.808   3.595  -2.891  0.00  0.00    -0.082 Cl
ATOM     26  C   UNL d   1     -11.720   0.872  -2.816  0.00  0.00     0.035 A 
ATOM     27  C   UNL d   1     -11.153  -0.185  -2.114  0.00  0.00     0.026 A 
ATOM     28 CL   UNL d   1     -13.329   0.736  -3.412  0.00  0.00    -0.084 Cl
ATOM     29  C   UNL d   1      -9.840  -0.080  -1.641  0.00  0.00     0.034 A 
ENDBRANCH  20  22
ENDBRANCH  18  20
BRANCH  17  30
ATOM     30  C   UNL d   1      -5.775  -1.033   0.751  0.00  0.00     0.315 C 
ATOM     31  O   UNL d   1      -6.117  -2.142   0.369  0.00  0.00    -0.257 OA
BRANCH  30  32
ATOM     32  O   UNL d   1      -5.233  -0.725   1.945  0.00  0.00    -0.317 OA
BRANCH  32  33
ATOM     33  C   UNL d   1      -5.301  -1.769   2.936  0.00  0.00     0.175 C 
ATOM     34  C   UNL d   1      -4.442  -2.992   2.646  0.00  0.00     0.034 C 
ENDBRANCH  32  33
ENDBRANCH  30  32
ENDBRANCH  17  30
ENDBRANCH  15  17
ENDBRANCH  14  15
ENDBRANCH  13  14
ENDBRANCH   2  13
TORSDOF 9
