REMARK  4 active torsions:
REMARK  status: ('A' for Active; 'I' for Inactive)
REMARK    1  A    between atoms: N_2  and  C_1 
REMARK    2  A    between atoms: N_10  and  C_3 
REMARK    3  A    between atoms: C_13  and  N_10 
REMARK    4  A    between atoms: C_14  and  N_10 
ROOT
ATOM      1  C   UNL d   1       1.624   1.168  -0.461  0.00  0.00     0.130 A 
ATOM      2  C   UNL d   1       2.357   0.119   0.138  0.00  0.00     0.063 A 
ATOM      3  N   UNL d   1      -3.127   0.373   0.234  0.00  0.00    -0.191 NA
ATOM      4  C   UNL d   1       0.208   1.246  -0.444  0.00  0.00     0.061 A 
ATOM      5  C   UNL d   1      -1.971   0.318   0.208  0.00  0.00     0.099 C 
ATOM      6  C   UNL d   1       1.541  -0.874   0.732  0.00  0.00     0.033 A 
ATOM      7  C   UNL d   1      -0.536   0.250   0.176  0.00  0.00     0.047 A 
ATOM      8  C   UNL d   1       0.136  -0.819   0.757  0.00  0.00     0.025 A 
ENDROOT
BRANCH   1   9
ATOM      9  N   UNL d   1       2.249   2.217  -1.240  0.00  0.00    -0.113 N 
ATOM     10  O   UNL d   1       2.769   1.897  -2.317  0.00  0.00    -0.532 OA
ATOM     11  O   UNL d   1       2.139   3.375  -0.811  0.00  0.00    -0.532 OA
ENDBRANCH   1   9
BRANCH   2  12
ATOM     12  N   UNL d   1       3.742  -0.013   0.241  0.00  0.00    -0.380 N 
BRANCH  12  13
ATOM     13  C   UNL d   1       4.359  -1.352   0.102  0.00  0.00     0.118 C 
ATOM     14  C   UNL d   1       4.784  -1.935   1.446  0.00  0.00     0.026 C 
ENDBRANCH  12  13
BRANCH  12  15
ATOM     15  C   UNL d   1       4.695   1.112   0.210  0.00  0.00     0.118 C 
ATOM     16  C   UNL d   1       4.526   2.041   1.401  0.00  0.00     0.026 C 
ENDBRANCH  12  15
ENDBRANCH   2  12
TORSDOF 4
