REMARK  5 active torsions:
REMARK  status: ('A' for Active; 'I' for Inactive)
REMARK    1  A    between atoms: C_2  and  C_1 
REMARK       I    between atoms: N_5  and  C_2 
REMARK    2  A    between atoms: C_3  and  O_9 
REMARK       I    between atoms: C_4  and  N_6 
REMARK    3  A    between atoms: C_7  and  C_4 
REMARK    4  A    between atoms: N_6  and  N_5 
REMARK    5  A    between atoms: O_9  and  C_17 
ROOT
ATOM      1  C   UNL d   1       2.383   5.107  -0.223  0.00  0.00     0.270 C 
ATOM      2  N   UNL d   1       1.770   3.916   0.110  0.00  0.00    -0.263 N 
ATOM      3  O   UNL d   1       3.507   5.146  -0.716  0.00  0.00    -0.266 OA
ATOM      4  H   UNL d   1       0.928   3.819   0.673  0.00  0.00     0.190 HD
ENDROOT
BRANCH   1   5
ATOM      5  C   UNL d   1       1.622   6.372   0.007  0.00  0.00     0.033 A 
ATOM      6  C   UNL d   1       0.244   6.408   0.253  0.00  0.00     0.020 A 
ATOM      7  C   UNL d   1      -0.428   7.637   0.353  0.00  0.00     0.038 A 
ATOM      8  C   UNL d   1       0.264   8.835   0.174  0.00  0.00     0.078 A 
ATOM      9  C   UNL d   1       1.647   8.800  -0.014  0.00  0.00     0.038 A 
ATOM     10  C   UNL d   1       2.321   7.581  -0.104  0.00  0.00     0.020 A 
BRANCH   8  11
ATOM     11  O   UNL d   1      -0.273  10.085   0.204  0.00  0.00    -0.255 OA
BRANCH  11  12
ATOM     12  C   UNL d   1      -1.599  10.284  -0.269  0.00  0.00     0.530 C 
ATOM     13  F   UNL d   1      -2.111   9.228  -0.934  0.00  0.00    -0.144 F 
ATOM     14  F   UNL d   1      -2.405  10.578   0.773  0.00  0.00    -0.144 F 
ATOM     15  F   UNL d   1      -1.598  11.341  -1.113  0.00  0.00    -0.144 F 
ENDBRANCH  11  12
ENDBRANCH   8  11
ENDBRANCH   1   5
BRANCH   2  16
ATOM     16  N   UNL d   1       2.465   2.736  -0.170  0.00  0.00    -0.263 N 
ATOM     17  C   UNL d   1       2.070   1.558   0.421  0.00  0.00     0.271 C 
ATOM     18  O   UNL d   1       1.091   1.518   1.167  0.00  0.00    -0.266 OA
ATOM     19  H   UNL d   1       3.292   2.832  -0.760  0.00  0.00     0.190 HD
BRANCH  17  20
ATOM     20  C   UNL d   1       2.865   0.318   0.142  0.00  0.00     0.055 A 
ATOM     21  C   UNL d   1       3.943   0.194  -0.755  0.00  0.00     0.049 A 
ATOM     22 CL   UNL d   1       4.545   1.473  -1.752  0.00  0.00    -0.083 Cl
ATOM     23  C   UNL d   1       4.606  -1.035  -0.899  0.00  0.00     0.025 A 
ATOM     24  C   UNL d   1       4.209  -2.153  -0.167  0.00  0.00     0.002 A 
ATOM     25  C   UNL d   1       3.140  -2.051   0.713  0.00  0.00     0.001 A 
ATOM     26  C   UNL d   1       2.477  -0.829   0.865  0.00  0.00     0.019 A 
ENDBRANCH  17  20
ENDBRANCH   2  16
TORSDOF 5
