REMARK  7 active torsions:
REMARK  status: ('A' for Active; 'I' for Inactive)
REMARK       I    between atoms: N_3  and  C_1 
REMARK    1  A    between atoms: C_8  and  C_1 
REMARK    2  A    between atoms: C_2  and  N_7 
REMARK    3  A    between atoms: N_10  and  C_2 
REMARK    4  A    between atoms: N_7  and  N_3 
REMARK    5  A    between atoms: O_4  and  C_8 
REMARK    6  A    between atoms: C_5  and  O_4 
REMARK    7  A    between atoms: C_16  and  N_10 
ROOT
ATOM      1  C   UNL d   1       1.019  -0.072  -0.720  0.00  0.00     0.265 C 
ATOM      2  N   UNL d   1       0.184   1.031  -0.745  0.00  0.00    -0.266 N 
ATOM      3  O   UNL d   1       2.148  -0.041  -1.220  0.00  0.00    -0.269 OA
ATOM      4  H   UNL d   1      -0.695   1.066  -0.236  0.00  0.00     0.190 HD
ENDROOT
BRANCH   2   5
ATOM      5  N   UNL d   1       0.763   2.270  -1.081  0.00  0.00    -0.273 N 
ATOM      6  H   UNL d   1       1.577   2.228  -1.692  0.00  0.00     0.189 HD
BRANCH   5   7
ATOM      7  C   UNL d   1       0.381   3.434  -0.475  0.00  0.00     0.191 C 
ATOM      8  S   UNL d   1      -1.098   3.645   0.289  0.00  0.00    -0.039 SA
BRANCH   7   9
ATOM      9  N   UNL d   1       1.234   4.499  -0.538  0.00  0.00    -0.332 N 
ATOM     10  H   UNL d   1       0.781   5.382  -0.319  0.00  0.00     0.168 HD
BRANCH   9  11
ATOM     11  C   UNL d   1       2.649   4.543  -0.513  0.00  0.00     0.034 A 
ATOM     12  C   UNL d   1       3.473   3.423  -0.375  0.00  0.00     0.029 A 
ATOM     13  C   UNL d   1       4.859   3.567  -0.246  0.00  0.00     0.002 A 
ATOM     14  C   UNL d   1       5.436   4.833  -0.233  0.00  0.00     0.000 A 
ATOM     15  C   UNL d   1       4.628   5.958  -0.368  0.00  0.00     0.002 A 
ATOM     16  C   UNL d   1       3.244   5.813  -0.513  0.00  0.00     0.029 A 
ENDBRANCH   9  11
ENDBRANCH   7   9
ENDBRANCH   5   7
ENDBRANCH   2   5
BRANCH   1  17
ATOM     17  C   UNL d   1       0.493  -1.268   0.103  0.00  0.00     0.218 C 
ATOM     18  C   UNL d   1       1.353  -2.510  -0.124  0.00  0.00     0.050 C 
BRANCH  17  19
ATOM     19  O   UNL d   1      -0.848  -1.638  -0.219  0.00  0.00    -0.335 OA
BRANCH  19  20
ATOM     20  C   UNL d   1      -1.871  -1.132   0.534  0.00  0.00     0.091 A 
ATOM     21  C   UNL d   1      -3.090  -0.886  -0.119  0.00  0.00     0.069 A 
ATOM     22  C   UNL d   1      -4.162  -0.308   0.564  0.00  0.00     0.050 A 
ATOM     23 CL   UNL d   1      -3.300  -1.260  -1.794  0.00  0.00    -0.081 Cl
ATOM     24  C   UNL d   1      -4.024   0.002   1.912  0.00  0.00     0.035 A 
ATOM     25  C   UNL d   1      -2.843  -0.295   2.588  0.00  0.00     0.026 A 
ATOM     26 CL   UNL d   1      -5.321   0.750   2.757  0.00  0.00    -0.084 Cl
ATOM     27  C   UNL d   1      -1.773  -0.878   1.904  0.00  0.00     0.040 A 
ENDBRANCH  19  20
ENDBRANCH  17  19
ENDBRANCH   1  17
TORSDOF 7
