REMARK  5 active torsions:
REMARK  status: ('A' for Active; 'I' for Inactive)
REMARK    1  A    between atoms: C_9  and  C_3 
REMARK    2  A    between atoms: C_6  and  C_11 
REMARK    3  A    between atoms: C_7  and  C_10 
REMARK    4  A    between atoms: C_20  and  C_8 
REMARK    5  A    between atoms: C_12  and  C_14 
ROOT
ATOM      1  N   UNL d   1       1.300   0.125   0.040  0.00  0.00    -0.319 N 
ATOM      2  HN  UNL d   1       2.307   0.270  -0.035  1.00  0.00     0.169 HD
ATOM      3  C   UNL d   1       0.309   1.080   0.085  0.00  0.00     0.138 A 
ATOM      4  N   UNL d   1      -0.923   0.567   0.195  0.00  0.00    -0.242 N 
ATOM      5  HN  UNL d   1      -1.810   1.068   0.251  1.00  0.00     0.196 HD
ATOM      6  C   UNL d   1       0.646  -1.022   0.115  0.00  0.00     0.172 A 
ATOM      7  O   UNL d   1      -0.712  -0.803   0.216  0.00  0.00    -0.218 OA
ENDROOT
BRANCH   3   8
ATOM      8  C   UNL d   1       0.585   2.510  -0.018  0.00  0.00     0.011 A 
ATOM      9  C   UNL d   1       1.903   2.977  -0.122  0.00  0.00     0.031 A 
ATOM     10  C   UNL d   1       2.180   4.349  -0.266  0.00  0.00     0.049 A 
ATOM     11  C   UNL d   1       1.111   5.259  -0.299  0.00  0.00     0.032 A 
ATOM     12  C   UNL d   1      -0.217   4.817  -0.201  0.00  0.00     0.049 A 
ATOM     13  C   UNL d   1      -0.465   3.442  -0.051  0.00  0.00     0.031 A 
BRANCH  10  14
ATOM     14  C   UNL d   1       3.609   4.820  -0.410  0.00  0.00     0.417 C 
ATOM     15  F   UNL d   1       3.720   6.167  -0.579  0.00  0.00    -0.166 F 
ATOM     16  F   UNL d   1       4.372   4.515   0.675  0.00  0.00    -0.166 F 
ATOM     17  F   UNL d   1       4.233   4.258  -1.481  0.00  0.00    -0.166 F 
ENDBRANCH  10  14
BRANCH  12  18
ATOM     18  C   UNL d   1      -1.376   5.782  -0.283  0.00  0.00     0.417 C 
ATOM     19  F   UNL d   1      -0.992   7.074  -0.480  0.00  0.00    -0.166 F 
ATOM     20  F   UNL d   1      -2.223   5.485  -1.307  0.00  0.00    -0.166 F 
ATOM     21  F   UNL d   1      -2.135   5.784   0.846  0.00  0.00    -0.166 F 
ENDBRANCH  12  18
ENDBRANCH   3   8
BRANCH   6  22
ATOM     22  C   UNL d   1       1.187  -2.337   0.087  0.00  0.00     0.060 C 
ATOM     23  C   UNL d   1       2.508  -2.547   0.010  0.00  0.00     0.024 C 
BRANCH  23  24
ATOM     24  C   UNL d   1       3.012  -3.876  -0.032  0.00  0.00     0.010 A 
ATOM     25  C   UNL d   1       3.288  -4.680  -1.132  0.00  0.00    -0.044 A 
ATOM     26  C   UNL d   1       3.787  -5.964  -0.729  0.00  0.00     0.015 A 
ATOM     27  C   UNL d   1       3.100  -4.299  -2.566  0.00  0.00     0.049 C 
ATOM     28  C   UNL d   1       3.889  -6.090   0.636  0.00  0.00     0.051 A 
ATOM     29  S   UNL d   1       3.390  -4.675   1.444  0.00  0.00    -0.102 SA
ENDBRANCH  23  24
ENDBRANCH   6  22
TORSDOF 5
