REMARK  3 active torsions:
REMARK  status: ('A' for Active; 'I' for Inactive)
REMARK    1  A    between atoms: C_2  and  S_1 
REMARK    2  A    between atoms: O_7  and  S_1 
REMARK    3  A    between atoms: C_12  and  O_7 
ROOT
ATOM      1  S   UNL d   1       0.885   0.136  -0.065  0.00  0.00     0.306 S 
ATOM      2  O   UNL d   1       2.232  -0.193   0.347  0.00  0.00    -0.193 OA
ATOM      3  O   UNL d   1       0.498   1.440  -0.557  0.00  0.00    -0.193 OA
ENDROOT
BRANCH   1   4
ATOM      4  C   UNL d   1      -0.046  -0.052   1.377  0.00  0.00     0.135 A 
ATOM      5  C   UNL d   1       0.109   0.802   2.520  0.00  0.00     0.065 A 
ATOM      6  C   UNL d   1      -0.755   0.474   3.534  0.00  0.00     0.095 A 
ATOM      7 BR   UNL d   1       1.368   2.219   2.633  0.00  0.00    -0.047 Br
ATOM      8 CL   UNL d   1      -0.936   1.216   5.075  0.00  0.00    -0.075 Cl
ATOM      9  S   UNL d   1      -1.740  -0.847   3.153  0.00  0.00    -0.063 SA
ATOM     10  C   UNL d   1      -1.007  -1.007   1.623  0.00  0.00     0.101 A 
ATOM     11 CL   UNL d   1      -1.573  -2.313   0.655  0.00  0.00    -0.074 Cl
ENDBRANCH   1   4
BRANCH   1  12
ATOM     12  O   UNL d   1       0.329  -1.011  -1.069  0.00  0.00    -0.229 OA
BRANCH  12  13
ATOM     13  C   UNL d   1       0.756  -1.133  -2.366  0.00  0.00     0.091 A 
ATOM     14  C   UNL d   1       1.783  -0.396  -2.958  0.00  0.00     0.063 A 
ATOM     15  C   UNL d   1       2.110  -0.603  -4.306  0.00  0.00     0.058 A 
ATOM     16 CL   UNL d   1       3.390   0.348  -4.975  0.00  0.00    -0.082 Cl
ATOM     17  C   UNL d   1       1.412  -1.551  -5.062  0.00  0.00     0.056 A 
ATOM     18  C   UNL d   1       0.398  -2.300  -4.463  0.00  0.00     0.028 A 
ATOM     19 CL   UNL d   1       1.745  -1.838  -6.732  0.00  0.00    -0.083 Cl
ATOM     20  C   UNL d   1       0.075  -2.092  -3.120  0.00  0.00     0.040 A 
ENDBRANCH  12  13
ENDBRANCH   1  12
TORSDOF 3
