REMARK  5 active torsions:
REMARK  status: ('A' for Active; 'I' for Inactive)
REMARK    1  A    between atoms: S_5  and  C_2 
REMARK    2  A    between atoms: N_15  and  C_3 
REMARK    3  A    between atoms: C_16  and  S_5 
REMARK    4  A    between atoms: S_17  and  C_10 
REMARK    5  A    between atoms: C_18  and  C_12 
ROOT
ATOM      1  N   UNL d   1      -0.164  -0.645   0.254  0.00  0.00    -0.227 N 
ATOM      2  C   UNL d   1       2.236  -0.639   0.090  0.00  0.00     0.133 A 
ATOM      3  C   UNL d   1       1.085  -1.346   0.280  0.00  0.00     0.127 A 
ATOM      4  C   UNL d   1      -0.208   0.735   0.085  0.00  0.00     0.131 A 
ATOM      5  N   UNL d   1       0.911   1.476  -0.077  0.00  0.00    -0.334 N 
ATOM      6  HN  UNL d   1       0.871   2.491  -0.165  1.00  0.00     0.168 HD
ATOM      7  N   UNL d   1      -1.428  -1.175   0.302  0.00  0.00    -0.290 N 
ATOM      8  HN  UNL d   1      -1.684  -2.154   0.432  1.00  0.00     0.187 HD
ATOM      9  C   UNL d   1       2.042   0.835  -0.116  0.00  0.00     0.096 A 
ATOM     10  C   UNL d   1      -1.529   1.079   0.045  0.00  0.00     0.082 A 
ATOM     11  C   UNL d   1      -2.259  -0.128   0.139  0.00  0.00     0.062 A 
ENDROOT
BRANCH   2  12
ATOM     12  S   UNL d   1       3.743  -1.496  -0.091  0.00  0.00     0.184 S 
ATOM     13  O   UNL d   1       3.444  -2.777  -0.722  0.00  0.00    -0.222 OA
ATOM     14  O   UNL d   1       4.764  -0.678  -0.718  0.00  0.00    -0.222 OA
BRANCH  12  15
ATOM     15  C   UNL d   1       4.326  -1.878   1.571  0.00  0.00     0.105 C 
ATOM     16  C   UNL d   1       5.586  -2.752   1.478  0.00  0.00     0.026 C 
ATOM     17  C   UNL d   1       4.645  -0.643   2.406  0.00  0.00     0.026 C 
ENDBRANCH  12  15
ENDBRANCH   2  12
BRANCH   3  18
ATOM     18  N   UNL d   1       0.985  -2.735   0.441  0.00  0.00    -0.286 NA
ATOM     19  H   UNL d   1       1.677  -3.252  -0.117  0.00  0.00     0.125 HD
ATOM     20  H   UNL d   1       0.033  -3.057   0.223  0.00  0.00     0.125 HD
ENDBRANCH   3  18
BRANCH   9  21
ATOM     21  S   UNL d   1       3.390   1.876  -0.516  0.00  0.00    -0.115 SA
ATOM     22  C   UNL d   1       3.011   2.028  -2.286  0.00  0.00     0.097 C 
ENDBRANCH   9  21
BRANCH  11  23
ATOM     23  C   UNL d   1      -3.726  -0.257   0.063  0.00  0.00    -0.008 A 
ATOM     24  C   UNL d   1      -4.393  -1.344   0.641  0.00  0.00     0.014 A 
ATOM     25  C   UNL d   1      -5.791  -1.421   0.608  0.00  0.00     0.001 A 
ATOM     26  C   UNL d   1      -6.541  -0.421  -0.011  0.00  0.00     0.000 A 
ATOM     27  C   UNL d   1      -5.891   0.656  -0.609  0.00  0.00     0.001 A 
ATOM     28  C   UNL d   1      -4.497   0.733  -0.574  0.00  0.00     0.014 A 
ENDBRANCH  11  23
TORSDOF 5
