REMARK  1 active torsions:
REMARK  status: ('A' for Active; 'I' for Inactive)
REMARK    1  A    between atoms: C_9  and  N_1 
ROOT
ATOM      1  N   UNL d   1       1.018  -0.523  -0.066  0.00  0.00    -0.239 N 
ATOM      2  C   UNL d   1       0.914   0.785   0.437  0.00  0.00     0.143 C 
ATOM      3  N   UNL d   1      -0.133  -0.901  -0.694  0.00  0.00    -0.302 N 
ATOM      4  HN  UNL d   1      -0.296  -1.747  -1.240  1.00  0.00     0.186 HD
ATOM      5  C   UNL d   1      -0.407   1.146   0.255  0.00  0.00     0.106 C 
ATOM      6  C   UNL d   1      -0.996   0.080  -0.434  0.00  0.00     0.134 C 
ATOM      7  C   UNL d   1      -1.022   2.377   0.617  0.00  0.00     0.104 C 
ATOM      8  N   UNL d   1      -1.517   3.388   0.899  0.00  0.00    -0.191 NA
ATOM      9  N   UNL d   1       1.956   1.515   0.929  0.00  0.00    -0.383 N 
ATOM     10  H   UNL d   1       2.906   1.306   0.620  0.00  0.00     0.157 HD
ATOM     11  H   UNL d   1       1.840   2.517   1.081  0.00  0.00     0.157 HD
ENDROOT
BRANCH   1  12
ATOM     12  C   UNL d   1       2.122  -1.424  -0.016  0.00  0.00     0.058 A 
ATOM     13  C   UNL d   1       3.107  -1.319   0.976  0.00  0.00     0.033 A 
ATOM     14  C   UNL d   1       4.194  -2.199   0.982  0.00  0.00     0.026 A 
ATOM     15  C   UNL d   1       4.298  -3.183   0.001  0.00  0.00     0.034 A 
ATOM     16  C   UNL d   1       3.309  -3.317  -0.971  0.00  0.00     0.026 A 
ATOM     17 CL   UNL d   1       5.651  -4.244  -0.004  0.00  0.00    -0.084 Cl
ATOM     18  C   UNL d   1       2.212  -2.449  -0.971  0.00  0.00     0.033 A 
ENDBRANCH   1  12
TORSDOF 1
