REMARK  0 active torsions:
REMARK  status: ('A' for Active; 'I' for Inactive)
ROOT
ATOM      1  N   UNL d   1       0.676   1.177  -0.004  0.00  0.00     0.102 N 
ATOM      2  C   UNL d   1       1.440  -0.051   0.302  0.00  0.00     0.158 C 
ATOM      3  C   UNL d   1      -0.769   1.187   0.307  0.00  0.00     0.158 C 
ATOM      4  C   UNL d   1      -0.720  -1.300   0.148  0.00  0.00     0.131 C 
ATOM      5  C   UNL d   1      -1.480  -0.058  -0.235  0.00  0.00     0.118 C 
ATOM      6  C   UNL d   1       0.742  -1.317  -0.212  0.00  0.00     0.118 C 
ATOM      7  O   UNL d   1      -1.285  -2.288   0.608  0.00  0.00    -0.298 OA
ATOM      8  C   UNL d   1      -1.039   1.362   1.813  0.00  0.00     0.049 C 
ATOM      9  C   UNL d   1       2.799   0.074  -0.425  0.00  0.00     0.049 C 
ATOM     10  C   UNL d   1       1.759  -0.170   1.804  0.00  0.00     0.049 C 
ATOM     11  C   UNL d   1      -1.368   2.428  -0.393  0.00  0.00     0.049 C 
ATOM     12  H   UNL d   1       0.802   1.406  -0.992  0.00  0.00     0.318 HD
ENDROOT
TORSDOF 0
