REMARK  3 active torsions:
REMARK  status: ('A' for Active; 'I' for Inactive)
REMARK    1  A    between atoms: C_2  and  S_1 
REMARK    2  A    between atoms: C_4  and  S_1 
REMARK    3  A    between atoms: C_10  and  C_4 
ROOT
ATOM      1  S   UNL d   1       1.865  -0.362   0.601  0.00  0.00     0.186 S 
ATOM      2  O   UNL d   1       2.470  -1.019  -0.547  0.00  0.00    -0.222 OA
ATOM      3  O   UNL d   1       1.729   1.084   0.632  0.00  0.00    -0.222 OA
ENDROOT
BRANCH   1   4
ATOM      4  C   UNL d   1       2.930  -0.753   1.968  0.00  0.00     0.100 A 
ATOM      5  S   UNL d   1       3.192  -2.414   2.291  0.00  0.00    -0.090 SA
ATOM      6  C   UNL d   1       4.239  -2.062   3.596  0.00  0.00     0.051 A 
ATOM      7  C   UNL d   1       4.402  -0.707   3.777  0.00  0.00     0.009 A 
ATOM      8  C   UNL d   1       3.651   0.050   2.831  0.00  0.00     0.031 A 
ENDBRANCH   1   4
BRANCH   1   9
ATOM      9  C   UNL d   1       0.296  -1.141   0.932  0.00  0.00     0.184 C 
BRANCH   9  10
ATOM     10  C   UNL d   1      -0.346  -0.715   2.229  0.00  0.00    -0.044 A 
ATOM     11  C   UNL d   1      -0.750   0.607   2.464  0.00  0.00     0.008 A 
ATOM     12  C   UNL d   1      -1.444   0.948   3.630  0.00  0.00     0.007 A 
ATOM     13  C   UNL d   1      -1.770  -0.027   4.578  0.00  0.00    -0.062 A 
ATOM     14  C   UNL d   1      -1.373  -1.347   4.349  0.00  0.00     0.007 A 
ATOM     15  C   UNL d   1      -2.542   0.346   5.809  0.00  0.00     0.048 C 
ATOM     16  C   UNL d   1      -0.669  -1.686   3.189  0.00  0.00     0.008 A 
ENDBRANCH   9  10
ENDBRANCH   1   9
TORSDOF 3
