REMARK  3 active torsions:
REMARK  status: ('A' for Active; 'I' for Inactive)
REMARK       I    between atoms: N_4  and  C_1 
REMARK       I    between atoms: N_12  and  C_1 
REMARK    1  A    between atoms: C_13  and  N_4 
REMARK    2  A    between atoms: O_9  and  C_5 
REMARK    3  A    between atoms: C_10  and  O_9 
ROOT
ATOM      1  N   UNL d   1       1.537   3.498  -3.419  0.00  0.00    -0.344 N 
ATOM      2  HN  UNL d   1       1.349   4.477  -3.634  1.00  0.00     0.167 HD
ATOM      3  C   UNL d   1       2.474   2.798  -4.086  0.00  0.00     0.148 A 
ATOM      4  C   UNL d   1       1.073   1.514  -2.092  0.00  0.00     0.051 A 
ATOM      5  C   UNL d   1       0.854   2.842  -2.447  0.00  0.00     0.119 A 
ATOM      6  C   UNL d   1       2.777   1.473  -3.811  0.00  0.00     0.059 A 
ATOM      7  C   UNL d   1       2.060   0.823  -2.802  0.00  0.00     0.035 A 
ENDROOT
BRANCH   3   8
ATOM      8  O   UNL d   1       3.223   3.425  -5.074  0.00  0.00    -0.292 OA
BRANCH   8   9
ATOM      9  C   UNL d   1       2.656   4.514  -5.691  0.00  0.00     0.094 A 
ATOM     10  C   UNL d   1       1.361   4.510  -6.210  0.00  0.00     0.064 A 
ATOM     11  C   UNL d   1       0.890   5.643  -6.860  0.00  0.00     0.052 A 
ATOM     12 CL   UNL d   1      -0.707   5.686  -7.491  0.00  0.00    -0.083 Cl
ATOM     13  C   UNL d   1       1.739   6.732  -6.998  0.00  0.00     0.111 A 
ATOM     14  N   UNL d   1       3.013   6.760  -6.532  0.00  0.00    -0.371 N 
ATOM     15  C   UNL d   1       3.439   5.646  -5.887  0.00  0.00     0.124 A 
ATOM     16  HN  UNL d   1       3.616   7.573  -6.660  1.00  0.00     0.164 HD
ENDBRANCH   8   9
ENDBRANCH   3   8
BRANCH   4  17
ATOM     17  N   UNL d   1       0.403   0.845  -1.042  0.00  0.00    -0.308 N 
ATOM     18  C   UNL d   1      -0.645   1.339  -0.320  0.00  0.00     0.320 C 
ATOM     19  O   UNL d   1      -1.279   2.359  -0.578  0.00  0.00    -0.247 OA
ATOM     20  N   UNL d   1      -1.007   0.645   0.788  0.00  0.00    -0.347 N 
ATOM     21  C   UNL d   1      -0.404  -0.491   1.442  0.00  0.00     0.151 C 
ATOM     22  H   UNL d   1      -1.786   1.090   1.261  0.00  0.00     0.163 HD
ATOM     23  H   UNL d   1       0.657  -0.114  -0.876  0.00  0.00     0.170 HD
ENDBRANCH   4  17
TORSDOF 3
