REMARK  2 active torsions:
REMARK  status: ('A' for Active; 'I' for Inactive)
REMARK    1  A    between atoms: N_11  and  C_1 
REMARK    2  A    between atoms: N_15  and  N_9 
ROOT
ATOM      1  N   UNL d   1      -2.324  -2.827   0.297  0.00  0.00    -0.239 N 
ATOM      2  HN  UNL d   1      -1.403  -3.198   0.532  1.00  0.00     0.208 HD
ATOM      3  N   UNL d   1      -2.612  -1.628   0.132  0.00  0.00    -0.269 N 
ATOM      4  HN  UNL d   1      -3.553  -1.290  -0.068  1.00  0.00     0.190 HD
ENDROOT
BRANCH   1   5
ATOM      5  N   UNL d   1      -3.445  -3.548   0.111  0.00  0.00    -0.269 N 
ATOM      6  C   UNL d   1      -3.471  -4.900   0.109  0.00  0.00     0.143 A 
ATOM      7  N   UNL d   1      -4.546  -5.652  -0.153  0.00  0.00    -0.244 N 
ATOM      8  C   UNL d   1      -2.344  -5.710   0.383  0.00  0.00     0.086 A 
ATOM      9  O   UNL d   1      -4.123  -6.967  -0.059  0.00  0.00    -0.241 OA
ATOM     10  HN  UNL d   1      -5.485  -5.323  -0.377  1.00  0.00     0.196 HD
ATOM     11  C   UNL d   1      -2.802  -6.995   0.260  0.00  0.00     0.076 A 
ATOM     12  C   UNL d   1      -2.178  -8.322   0.390  0.00  0.00     0.079 C 
ATOM     13  H   UNL d   1      -4.278  -3.039  -0.167  0.00  0.00     0.190 HD
ENDBRANCH   1   5
BRANCH   3  14
ATOM     14  C   UNL d   1      -1.488  -0.795   0.254  0.00  0.00     0.143 A 
ATOM     15  N   UNL d   1      -1.477   0.422  -0.295  0.00  0.00    -0.244 N 
ATOM     16  O   UNL d   1      -0.214   0.931  -0.022  0.00  0.00    -0.241 OA
ATOM     17  HN  UNL d   1      -2.233   0.879  -0.806  1.00  0.00     0.196 HD
ATOM     18  C   UNL d   1       0.498   0.016   0.694  0.00  0.00     0.076 A 
ATOM     19  C   UNL d   1      -0.281  -1.091   0.918  0.00  0.00     0.086 A 
ATOM     20  C   UNL d   1       1.879   0.386   1.045  0.00  0.00     0.079 C 
ENDBRANCH   3  14
TORSDOF 2
