REMARK  3 active torsions:
REMARK  status: ('A' for Active; 'I' for Inactive)
REMARK    1  A    between atoms: O_8  and  N_1 
REMARK    2  A    between atoms: C_9  and  O_8 
REMARK    3  A    between atoms: C_10  and  C_9 
ROOT
ATOM      1  N   UNL d   1      -2.259  -0.157  -0.352  0.00  0.00    -0.144 N 
ATOM      2  C   UNL d   1      -0.314   0.640   0.604  0.00  0.00     0.129 C 
ATOM      3  C   UNL d   1      -0.129  -0.847   0.197  0.00  0.00     0.129 C 
ATOM      4  C   UNL d   1      -1.709   0.976   0.158  0.00  0.00     0.259 C 
ATOM      5  C   UNL d   1      -1.393  -1.189  -0.537  0.00  0.00     0.259 C 
ATOM      6  C   UNL d   1       1.037  -0.771  -0.782  0.00  0.00     0.159 C 
ATOM      7  C   UNL d   1       0.750   1.330  -0.252  0.00  0.00     0.159 C 
ATOM      8  O   UNL d   1       0.719   0.490  -1.440  0.00  0.00    -0.371 OA
ATOM      9  C   UNL d   1       2.112   0.948   0.255  0.00  0.00     0.004 C 
ATOM     10  C   UNL d   1       2.282  -0.346  -0.060  0.00  0.00     0.004 C 
ATOM     11  O   UNL d   1      -2.214   2.087   0.231  0.00  0.00    -0.270 OA
ATOM     12  O   UNL d   1      -1.566  -2.200  -1.199  0.00  0.00    -0.270 OA
ENDROOT
BRANCH   1  13
ATOM     13  O   UNL d   1      -3.519  -0.144  -0.949  0.00  0.00    -0.181 OA
BRANCH  13  14
ATOM     14  C   UNL d   1      -4.391  -0.995  -0.314  0.00  0.00     0.322 C 
ATOM     15  O   UNL d   1      -4.080  -1.700   0.641  0.00  0.00    -0.257 OA
BRANCH  14  16
ATOM     16  C   UNL d   1      -5.710  -0.902  -0.914  0.00  0.00     0.083 A 
ATOM     17  S   UNL d   1      -6.912  -2.046  -0.456  0.00  0.00    -0.072 SA
ATOM     18  C   UNL d   1      -8.078  -1.295  -1.418  0.00  0.00     0.075 A 
ATOM     19 CL   UNL d   1      -9.682  -1.907  -1.449  0.00  0.00    -0.076 Cl
ATOM     20  C   UNL d   1      -7.603  -0.209  -2.106  0.00  0.00     0.033 A 
ATOM     21  C   UNL d   1      -6.218   0.011  -1.827  0.00  0.00     0.027 A 
ENDBRANCH  14  16
ENDBRANCH  13  14
ENDBRANCH   1  13
TORSDOF 3
