REMARK  8 active torsions:
REMARK  status: ('A' for Active; 'I' for Inactive)
REMARK    1  A    between atoms: N_7  and  C_1 
REMARK    2  A    between atoms: S_4  and  C_2 
REMARK    3  A    between atoms: C_8  and  C_3 
REMARK    4  A    between atoms: C_16  and  S_4 
REMARK    5  A    between atoms: N_9  and  N_7 
REMARK    6  A    between atoms: O_17  and  C_8 
REMARK       I    between atoms: C_10  and  N_9 
REMARK    7  A    between atoms: C_15  and  C_10 
REMARK    8  A    between atoms: C_21  and  C_16 
ROOT
ATOM      1  C   UNL d   1       1.443   0.861  -0.056  0.00  0.00     0.093 A 
ATOM      2  C   UNL d   1       1.497  -0.580  -0.020  0.00  0.00     0.095 A 
ATOM      3  C   UNL d   1       0.125   1.316   0.010  0.00  0.00     0.109 A 
ATOM      4  S   UNL d   1      -0.990  -0.005   0.038  0.00  0.00    -0.092 SA
ATOM      5  C   UNL d   1       0.247  -1.159   0.048  0.00  0.00     0.076 A 
ENDROOT
BRANCH   1   6
ATOM      6  N   UNL d   1       2.568   1.637  -0.151  0.00  0.00    -0.295 N 
ATOM      7  H   UNL d   1       3.499   1.176  -0.157  0.00  0.00     0.187 HD
BRANCH   6   8
ATOM      8  N   UNL d   1       2.669   2.937   0.391  0.00  0.00    -0.269 N 
ATOM      9  C   UNL d   1       3.932   3.519   0.389  0.00  0.00     0.239 C 
ATOM     10  O   UNL d   1       4.949   2.921   0.045  0.00  0.00    -0.271 OA
ATOM     11  H   UNL d   1       1.872   3.551   0.213  0.00  0.00     0.190 HD
BRANCH   9  12
ATOM     12  C   UNL d   1       3.931   4.962   0.896  0.00  0.00     0.071 C 
ATOM     13  C   UNL d   1       3.591   4.994   2.386  0.00  0.00     0.019 C 
ATOM     14  C   UNL d   1       5.279   5.642   0.658  0.00  0.00     0.019 C 
ENDBRANCH   9  12
ENDBRANCH   6   8
ENDBRANCH   1   6
BRANCH   2  15
ATOM     15  S   UNL d   1       2.924  -1.574   0.008  0.00  0.00     0.178 S 
ATOM     16  O   UNL d   1       4.033  -0.658  -0.165  0.00  0.00    -0.223 OA
ATOM     17  O   UNL d   1       2.753  -2.382   1.196  0.00  0.00    -0.223 OA
BRANCH  15  18
ATOM     18  C   UNL d   1       2.767  -2.603  -1.441  0.00  0.00     0.145 C 
BRANCH  18  19
ATOM     19  C   UNL d   1       3.889  -3.630  -1.524  0.00  0.00     0.011 C 
ATOM     20  C   UNL d   1       3.753  -4.492  -2.769  0.00  0.00     0.006 C 
ENDBRANCH  18  19
ENDBRANCH  15  18
ENDBRANCH   2  15
BRANCH   3  21
ATOM     21  C   UNL d   1      -0.407   2.675   0.020  0.00  0.00     0.302 C 
ATOM     22  O   UNL d   1       0.217   3.695  -0.264  0.00  0.00    -0.259 OA
BRANCH  21  23
ATOM     23  O   UNL d   1      -1.709   2.689   0.437  0.00  0.00    -0.322 OA
ATOM     24  C   UNL d   1      -2.323   3.975   0.495  0.00  0.00     0.213 C 
ENDBRANCH  21  23
ENDBRANCH   3  21
TORSDOF 8
