REMARK  6 active torsions:
REMARK  status: ('A' for Active; 'I' for Inactive)
REMARK    1  A    between atoms: C_4  and  N_1 
REMARK    2  A    between atoms: C_11  and  N_5 
REMARK    3  A    between atoms: N_12  and  C_7 
REMARK    4  A    between atoms: O_18  and  C_8 
REMARK    5  A    between atoms: C_21  and  N_12 
REMARK    6  A    between atoms: C_22  and  N_12 
ROOT
ATOM      1  C   UNL d   1      -0.020   1.765  -3.279  0.00  0.00     0.068 A 
ATOM      2  C   UNL d   1       0.424   0.774  -1.093  0.00  0.00     0.081 A 
ATOM      3  C   UNL d   1      -1.082   2.542  -2.787  0.00  0.00     0.032 A 
ATOM      4  C   UNL d   1       0.723   0.905  -2.454  0.00  0.00     0.095 A 
ATOM      5  C   UNL d   1      -0.612   1.556  -0.585  0.00  0.00     0.036 A 
ATOM      6  C   UNL d   1      -1.334   2.432  -1.410  0.00  0.00     0.032 A 
ENDROOT
BRANCH   2   7
ATOM      7  N   UNL d   1       1.010  -0.168  -0.226  0.00  0.00    -0.296 N 
ATOM      8  N   UNL d   1       2.258  -0.136  -0.225  0.00  0.00    -0.285 N 
ATOM      9  HN  UNL d   1       2.811   0.517  -0.780  1.00  0.00     0.188 HD
ATOM     10  HN  UNL d   1       0.466  -0.815   0.346  1.00  0.00     0.187 HD
BRANCH   8  11
ATOM     11  C   UNL d   1       2.816  -1.110   0.635  0.00  0.00     0.119 A 
ATOM     12  N   UNL d   1       4.131  -0.929   0.912  0.00  0.00    -0.350 N 
ATOM     13  C   UNL d   1       4.723  -1.813   1.754  0.00  0.00     0.108 A 
ATOM     14  HN  UNL d   1       4.655  -0.156   0.504  1.00  0.00     0.166 HD
ATOM     15  C   UNL d   1       4.066  -2.880   2.344  0.00  0.00     0.026 A 
ATOM     16  C   UNL d   1       2.727  -3.073   2.046  0.00  0.00     0.024 A 
ATOM     17 BR   UNL d   1       4.962  -4.040   3.528  0.00  0.00    -0.050 Br
ATOM     18  C   UNL d   1       2.097  -2.183   1.175  0.00  0.00     0.051 A 
ENDBRANCH   8  11
ENDBRANCH   2   7
BRANCH   4  19
ATOM     19  O   UNL d   1       1.733   0.163  -3.010  0.00  0.00    -0.358 OA
ATOM     20  H   UNL d   1       2.007   0.585  -3.840  0.00  0.00     0.217 HD
ENDBRANCH   4  19
BRANCH   3  21
ATOM     21  N   UNL d   1      -1.839   3.361  -3.612  0.00  0.00    -0.382 N 
BRANCH  21  22
ATOM     22  C   UNL d   1      -2.050   3.019  -5.026  0.00  0.00     0.118 C 
ATOM     23  C   UNL d   1      -1.119   3.807  -5.937  0.00  0.00     0.026 C 
ENDBRANCH  21  22
BRANCH  21  24
ATOM     24  C   UNL d   1      -2.603   4.499  -3.080  0.00  0.00     0.118 C 
ATOM     25  C   UNL d   1      -4.037   4.125  -2.729  0.00  0.00     0.026 C 
ENDBRANCH  21  24
ENDBRANCH   3  21
TORSDOF 6
