REMARK  5 active torsions:
REMARK  status: ('A' for Active; 'I' for Inactive)
REMARK    1  A    between atoms: C_3  and  S_1 
REMARK    2  A    between atoms: C_4  and  S_1 
REMARK    3  A    between atoms: S_2  and  C_5 
REMARK    4  A    between atoms: C_7  and  S_2 
REMARK    5  A    between atoms: C_5  and  C_4 
ROOT
ATOM      1  S   UNL d   1       0.442  -3.555  -2.386  0.00  0.00     0.176 S 
ATOM      2  O   UNL d   1       0.807  -4.517  -1.363  0.00  0.00    -0.223 OA
ATOM      3  O   UNL d   1      -0.948  -3.356  -2.746  0.00  0.00    -0.223 OA
ENDROOT
BRANCH   1   4
ATOM      4  C   UNL d   1       1.103  -1.984  -1.906  0.00  0.00     0.161 C 
BRANCH   4   5
ATOM      5  C   UNL d   1       0.384  -1.513  -0.657  0.00  0.00     0.161 C 
BRANCH   5   6
ATOM      6  S   UNL d   1       1.011   0.055  -0.133  0.00  0.00     0.182 S 
ATOM      7  O   UNL d   1       2.364  -0.138   0.348  0.00  0.00    -0.222 OA
ATOM      8  O   UNL d   1       0.692   1.052  -1.134  0.00  0.00    -0.222 OA
BRANCH   6   9
ATOM      9  C   UNL d   1       0.058   0.467   1.311  0.00  0.00     0.099 A 
ATOM     10  S   UNL d   1      -1.633   0.633   1.093  0.00  0.00    -0.090 SA
ATOM     11  C   UNL d   1      -1.883   0.962   2.752  0.00  0.00     0.051 A 
ATOM     12  C   UNL d   1      -0.703   0.969   3.461  0.00  0.00     0.009 A 
ATOM     13  C   UNL d   1       0.420   0.691   2.627  0.00  0.00     0.031 A 
ENDBRANCH   6   9
ENDBRANCH   5   6
ENDBRANCH   4   5
ENDBRANCH   1   4
BRANCH   1  14
ATOM     14  C   UNL d   1       1.314  -3.998  -3.871  0.00  0.00     0.059 A 
ATOM     15  C   UNL d   1       2.456  -4.802  -3.788  0.00  0.00     0.025 A 
ATOM     16  C   UNL d   1       3.066  -5.255  -4.961  0.00  0.00     0.025 A 
ATOM     17  C   UNL d   1       2.529  -4.911  -6.202  0.00  0.00     0.034 A 
ATOM     18  C   UNL d   1       1.392  -4.106  -6.284  0.00  0.00     0.025 A 
ATOM     19 CL   UNL d   1       3.258  -5.505  -7.642  0.00  0.00    -0.084 Cl
ATOM     20  C   UNL d   1       0.776  -3.650  -5.115  0.00  0.00     0.025 A 
ENDBRANCH   1  14
TORSDOF 5
