REMARK  4 active torsions:
REMARK  status: ('A' for Active; 'I' for Inactive)
REMARK    1  A    between atoms: N_11  and  C_22 
REMARK    2  A    between atoms: C_23  and  N_13 
REMARK    3  A    between atoms: C_19  and  C_23 
REMARK    4  A    between atoms: C_22  and  C_19 
ROOT
ATOM      1  C   UNL d   1      -7.604   6.348   0.408  0.00  0.00     0.039 C 
ENDROOT
BRANCH   1   2
ATOM      2  C   UNL d   1      -8.631   6.987   1.343  0.00  0.00     0.121 C 
BRANCH   2   3
ATOM      3  N   UNL d   1      -7.946   7.876   2.279  0.00  0.00    -0.385 N 
ATOM      4  C   UNL d   1      -8.678   8.533   3.109  0.00  0.00     0.109 A 
ATOM      5  C   UNL d   1     -10.210   8.525   3.296  0.00  0.00     0.273 A 
ATOM      6  C   UNL d   1      -8.171   9.511   4.069  0.00  0.00     0.023 A 
ATOM      7  N   UNL d   1     -10.464   9.498   4.240  0.00  0.00    -0.321 N 
ATOM      8  O   UNL d   1     -11.008   7.804   2.742  0.00  0.00    -0.266 OA
ATOM      9  C   UNL d   1      -9.281  10.075   4.692  0.00  0.00     0.047 A 
ATOM     10  H   UNL d   1     -11.394   9.722   4.561  0.00  0.00     0.169 HD
ATOM     11  C   UNL d   1      -9.147  11.076   5.630  0.00  0.00     0.030 A 
ATOM     12  C   UNL d   1      -7.848  11.498   5.938  0.00  0.00     0.002 A 
ATOM     13  C   UNL d   1      -6.725  10.912   5.316  0.00  0.00     0.001 A 
ATOM     14  C   UNL d   1      -6.881   9.903   4.362  0.00  0.00     0.016 A 
ATOM     15  HN  UNL d   1      -6.930   7.971   2.275  1.00  0.00     0.159 HD
ENDBRANCH   2   3
ENDBRANCH   1   2
BRANCH   1  16
ATOM     16  C   UNL d   1      -6.590   5.497   1.164  0.00  0.00     0.121 C 
BRANCH  16  17
ATOM     17  N   UNL d   1      -5.690   4.851   0.223  0.00  0.00    -0.385 N 
ATOM     18  C   UNL d   1      -5.848   3.648  -0.193  0.00  0.00     0.109 A 
ATOM     19  C   UNL d   1      -4.770   2.977  -1.078  0.00  0.00     0.273 A 
ATOM     20  C   UNL d   1      -6.873   2.615   0.026  0.00  0.00     0.023 A 
ATOM     21  N   UNL d   1      -5.170   1.667  -1.212  0.00  0.00    -0.321 N 
ATOM     22  O   UNL d   1      -3.778   3.496  -1.536  0.00  0.00    -0.266 OA
ATOM     23  C   UNL d   1      -6.385   1.451  -0.573  0.00  0.00     0.047 A 
ATOM     24  H   UNL d   1      -4.638   0.988  -1.733  0.00  0.00     0.169 HD
ATOM     25  C   UNL d   1      -7.070   0.252  -0.522  0.00  0.00     0.030 A 
ATOM     26  C   UNL d   1      -8.294   0.237   0.149  0.00  0.00     0.002 A 
ATOM     27  C   UNL d   1      -8.814   1.412   0.719  0.00  0.00     0.001 A 
ATOM     28  C   UNL d   1      -8.107   2.619   0.651  0.00  0.00     0.016 A 
ATOM     29  HN  UNL d   1      -4.891   5.381  -0.124  1.00  0.00     0.159 HD
ENDBRANCH  16  17
ENDBRANCH   1  16
TORSDOF 4
