REMARK  6 active torsions:
REMARK  status: ('A' for Active; 'I' for Inactive)
REMARK    1  A    between atoms: C_2  and  C_1 
REMARK    2  A    between atoms: C_8  and  C_4 
REMARK    3  A    between atoms: S_19  and  C_11 
REMARK    4  A    between atoms: C_24  and  S_19 
REMARK    5  A    between atoms: C_21  and  C_24 
REMARK       I    between atoms: N_22  and  C_21 
REMARK    6  A    between atoms: C_26  and  N_22 
ROOT
ATOM      1  C   UNL d   1       0.157   1.101   0.034  0.00  0.00     0.143 A 
ATOM      2  N   UNL d   1       1.065   0.107   0.344  0.00  0.00    -0.315 N 
ATOM      3  N   UNL d   1      -1.058   0.590   0.118  0.00  0.00    -0.282 N 
ATOM      4  HN  UNL d   1      -1.928   1.098  -0.043  1.00  0.00     0.188 HD
ATOM      5  C   UNL d   1       0.315  -1.015   0.592  0.00  0.00     0.163 A 
ATOM      6  N   UNL d   1      -0.958  -0.736   0.457  0.00  0.00    -0.278 N 
ATOM      7  HN  UNL d   1      -1.734  -1.387   0.581  1.00  0.00     0.189 HD
ATOM      8  C   UNL d   1       2.499   0.205   0.435  0.00  0.00     0.160 C 
ENDROOT
BRANCH   1   9
ATOM      9  C   UNL d   1       0.399   2.486  -0.276  0.00  0.00     0.074 C 
ATOM     10  S   UNL d   1       1.817   3.048  -1.065  0.00  0.00    -0.064 SA
ATOM     11  C   UNL d   1       1.304   4.672  -0.872  0.00  0.00     0.104 C 
ATOM     12  N   UNL d   1       0.093   4.814  -0.380  0.00  0.00    -0.351 N 
ATOM     13  C   UNL d   1      -0.451   3.570  -0.073  0.00  0.00     0.027 C 
ATOM     14  HN  UNL d   1      -0.380   5.707  -0.244  1.00  0.00     0.166 HD
ATOM     15  C   UNL d   1      -1.841   3.539   0.466  0.00  0.00     0.070 C 
BRANCH  11  16
ATOM     16  C   UNL d   1       2.179   5.840  -1.231  0.00  0.00     0.091 A 
ATOM     17  N   UNL d   1       3.417   5.701  -1.729  0.00  0.00    -0.258 N 
ATOM     18  O   UNL d   1       3.893   6.984  -1.920  0.00  0.00    -0.242 OA
ATOM     19  HN  UNL d   1       3.906   4.828  -1.925  1.00  0.00     0.195 HD
ATOM     20  C   UNL d   1       2.948   7.882  -1.532  0.00  0.00     0.074 A 
ATOM     21  C   UNL d   1       1.842   7.206  -1.079  0.00  0.00     0.068 A 
ATOM     22  C   UNL d   1       3.304   9.303  -1.686  0.00  0.00     0.079 C 
ENDBRANCH  11  16
ENDBRANCH   1   9
BRANCH   5  23
ATOM     23  S   UNL d   1       0.980  -2.553   1.044  0.00  0.00    -0.083 SA
BRANCH  23  24
ATOM     24  C   UNL d   1      -0.533  -3.556   1.082  0.00  0.00     0.185 C 
BRANCH  24  25
ATOM     25  C   UNL d   1      -0.345  -4.990   1.562  0.00  0.00     0.231 C 
ATOM     26  N   UNL d   1       0.834  -5.273   2.228  0.00  0.00    -0.327 N 
ATOM     27  H   UNL d   1       1.471  -4.495   2.354  0.00  0.00     0.169 HD
ATOM     28  O   UNL d   1      -1.267  -5.790   1.389  0.00  0.00    -0.272 OA
BRANCH  26  29
ATOM     29  C   UNL d   1       1.212  -6.503   2.814  0.00  0.00     0.034 A 
ATOM     30  C   UNL d   1       0.493  -7.690   2.659  0.00  0.00     0.029 A 
ATOM     31  C   UNL d   1       0.898  -8.863   3.304  0.00  0.00     0.002 A 
ATOM     32  C   UNL d   1       2.031  -8.862   4.111  0.00  0.00     0.000 A 
ATOM     33  C   UNL d   1       2.772  -7.691   4.256  0.00  0.00     0.002 A 
ATOM     34  C   UNL d   1       2.369  -6.519   3.604  0.00  0.00     0.029 A 
ENDBRANCH  26  29
ENDBRANCH  24  25
ENDBRANCH  23  24
ENDBRANCH   5  23
TORSDOF 6
