REMARK  2 active torsions:
REMARK  status: ('A' for Active; 'I' for Inactive)
REMARK    1  A    between atoms: C_2  and  C_1 
REMARK    2  A    between atoms: O_16  and  C_7 
ROOT
ATOM      1  C   UNL d   1       2.090  -2.531  -0.063  0.00  0.00     0.135 A 
ATOM      2  N   UNL d   1       1.993  -3.394  -1.087  0.00  0.00    -0.320 N 
ATOM      3  HN  UNL d   1       1.321  -3.270  -1.845  1.00  0.00     0.169 HD
ATOM      4  C   UNL d   1       2.842  -4.429  -1.042  0.00  0.00     0.165 A 
ATOM      5  N   UNL d   1       2.964  -2.650   0.961  0.00  0.00    -0.343 N 
ATOM      6  HN  UNL d   1       2.994  -1.960   1.711  1.00  0.00     0.167 HD
ATOM      7  C   UNL d   1       3.777  -4.667  -0.053  0.00  0.00     0.106 A 
ATOM      8  C   UNL d   1       3.802  -3.721   0.957  0.00  0.00     0.033 A 
ATOM      9 CL   UNL d   1       4.809  -6.041  -0.103  0.00  0.00    -0.078 Cl
ATOM     10  C   UNL d   1       4.734  -3.784   2.131  0.00  0.00     0.070 C 
ENDROOT
BRANCH   1  11
ATOM     11  C   UNL d   1       1.177  -1.384  -0.047  0.00  0.00     0.084 A 
ATOM     12  N   UNL d   1       0.209  -1.169  -1.029  0.00  0.00    -0.351 N 
ATOM     13  C   UNL d   1      -0.473  -0.076  -0.761  0.00  0.00     0.047 A 
ATOM     14  HN  UNL d   1       0.053  -1.771  -1.837  1.00  0.00     0.166 HD
ATOM     15  C   UNL d   1      -1.590   0.449  -1.592  0.00  0.00     0.076 C 
ATOM     16  S   UNL d   1      -0.001   0.762   0.663  0.00  0.00    -0.087 SA
ATOM     17  C   UNL d   1       1.200  -0.424   0.949  0.00  0.00     0.084 A 
ENDBRANCH   1  11
BRANCH   4  18
ATOM     18  O   UNL d   1       2.694  -5.267  -2.103  0.00  0.00    -0.345 OA
ATOM     19  H   UNL d   1       1.974  -4.821  -2.587  0.00  0.00     0.219 HD
ENDBRANCH   4  18
TORSDOF 2
