REMARK  7 active torsions:
REMARK  status: ('A' for Active; 'I' for Inactive)
REMARK    1  A    between atoms: C_2  and  S_1 
REMARK    2  A    between atoms: N_8  and  S_1 
REMARK    3  A    between atoms: O_18  and  C_7 
REMARK    4  A    between atoms: C_20  and  N_8 
REMARK    5  A    between atoms: O_21  and  C_9 
REMARK    6  A    between atoms: C_14  and  C_22 
REMARK    7  A    between atoms: C_22  and  C_20 
ROOT
ATOM      1  N   UNL d   1       2.703   0.562  -1.894  0.00  0.00    -0.315 N 
ATOM      2  H   UNL d   1       3.143   0.811  -2.784  0.00  0.00     0.172 HD
ENDROOT
BRANCH   1   3
ATOM      3  S   UNL d   1       1.034   0.739  -1.977  0.00  0.00     0.260 S 
ATOM      4  O   UNL d   1       0.625   1.611  -0.896  0.00  0.00    -0.200 OA
ATOM      5  O   UNL d   1       0.700   1.048  -3.345  0.00  0.00    -0.200 OA
BRANCH   3   6
ATOM      6  C   UNL d   1       0.463  -0.892  -1.621  0.00  0.00     0.102 A 
ATOM      7  C   UNL d   1      -0.292  -1.088  -0.454  0.00  0.00     0.050 A 
ATOM      8  C   UNL d   1      -0.803  -2.349  -0.165  0.00  0.00     0.035 A 
ATOM      9 CL   UNL d   1      -1.719  -2.595   1.266  0.00  0.00    -0.084 Cl
ATOM     10  C   UNL d   1      -0.575  -3.416  -1.032  0.00  0.00     0.025 A 
ATOM     11  C   UNL d   1       0.184  -3.220  -2.190  0.00  0.00     0.027 A 
ATOM     12  C   UNL d   1       0.713  -1.959  -2.488  0.00  0.00     0.057 A 
ATOM     13 CL   UNL d   1       1.674  -1.848  -3.918  0.00  0.00    -0.083 Cl
ENDBRANCH   3   6
ENDBRANCH   1   3
BRANCH   1  14
ATOM     14  C   UNL d   1       3.390   0.963  -0.653  0.00  0.00     0.137 C 
BRANCH  14  15
ATOM     15  C   UNL d   1       4.906   1.065  -0.877  0.00  0.00     0.059 C 
BRANCH  15  16
ATOM     16  C   UNL d   1       5.404   2.140  -1.828  0.00  0.00    -0.054 A 
ATOM     17  C   UNL d   1       6.791   2.236  -2.057  0.00  0.00     0.046 A 
ATOM     18  C   UNL d   1       7.329   3.170  -2.959  0.00  0.00     0.102 A 
ATOM     19  C   UNL d   1       6.452   3.990  -3.685  0.00  0.00     0.101 A 
ATOM     20  C   UNL d   1       5.080   3.935  -3.426  0.00  0.00     0.040 A 
ATOM     21  C   UNL d   1       4.563   3.035  -2.495  0.00  0.00     0.010 A 
BRANCH  18  22
ATOM     22  O   UNL d   1       8.672   3.335  -3.169  0.00  0.00    -0.353 OA
ATOM     23  C   UNL d   1       9.570   2.711  -2.264  0.00  0.00     0.210 C 
ENDBRANCH  18  22
BRANCH  19  24
ATOM     24  O   UNL d   1       6.790   4.929  -4.626  0.00  0.00    -0.353 OA
ATOM     25  C   UNL d   1       7.895   4.607  -5.461  0.00  0.00     0.210 C 
ENDBRANCH  19  24
ENDBRANCH  15  16
ENDBRANCH  14  15
ENDBRANCH   1  14
TORSDOF 7
