REMARK  3 active torsions:
REMARK  status: ('A' for Active; 'I' for Inactive)
REMARK    1  A    between atoms: N_5  and  C_1 
REMARK    2  A    between atoms: C_18  and  N_8 
REMARK    3  A    between atoms: C_19  and  C_18 
ROOT
ATOM      1  C   UNL d   1      -1.293  -0.715  -0.115  0.00  0.00     0.219 A 
ATOM      2  C   UNL d   1       0.034  -1.155  -0.070  0.00  0.00     0.155 A 
ATOM      3  N   UNL d   1      -1.387   0.661  -0.103  0.00  0.00    -0.330 N 
ATOM      4  HN  UNL d   1      -2.233   1.230  -0.127  1.00  0.00     0.168 HD
ATOM      5  N   UNL d   1       0.753   0.026  -0.028  0.00  0.00    -0.331 N 
ATOM      6  C   UNL d   1      -0.146   1.071  -0.054  0.00  0.00     0.186 A 
ATOM      7  N   UNL d   1       0.516  -2.431  -0.074  0.00  0.00    -0.369 N 
ATOM      8  C   UNL d   1       2.167   0.297   0.014  0.00  0.00     0.158 C 
ATOM      9  H   UNL d   1      -0.164  -3.197  -0.150  0.00  0.00     0.161 HD
ENDROOT
BRANCH   7  10
ATOM     10  C   UNL d   1       1.889  -2.875   0.002  0.00  0.00     0.160 C 
BRANCH  10  11
ATOM     11  C   UNL d   1       1.974  -4.385   0.045  0.00  0.00    -0.038 A 
ATOM     12  C   UNL d   1       1.388  -5.098   1.106  0.00  0.00     0.048 A 
ATOM     13  C   UNL d   1       1.527  -6.469   1.127  0.00  0.00     0.105 A 
ATOM     14  O   UNL d   1       1.022  -7.304   2.074  0.00  0.00    -0.323 OA
ATOM     15  C   UNL d   1       2.226  -7.142   0.153  0.00  0.00     0.105 A 
ATOM     16  C   UNL d   1       1.435  -8.584   1.553  0.00  0.00     0.352 A 
ATOM     17  O   UNL d   1       2.250  -8.485   0.366  0.00  0.00    -0.323 OA
ATOM     18  C   UNL d   1       2.821  -6.482  -0.899  0.00  0.00     0.040 A 
ATOM     19  C   UNL d   1       2.688  -5.090  -0.954  0.00  0.00     0.012 A 
ENDBRANCH  10  11
ENDBRANCH   7  10
BRANCH   1  20
ATOM     20  N   UNL d   1      -2.498  -1.519  -0.168  0.00  0.00    -0.094 N 
ATOM     21  O   UNL d   1      -2.357  -2.754  -0.175  0.00  0.00    -0.530 OA
ATOM     22  O   UNL d   1      -3.586  -0.928  -0.203  0.00  0.00    -0.530 OA
ENDBRANCH   1  20
TORSDOF 3
