REMARK  5 active torsions:
REMARK  status: ('A' for Active; 'I' for Inactive)
REMARK    1  A    between atoms: C_4  and  S_1 
REMARK    2  A    between atoms: O_8  and  S_1 
REMARK    3  A    between atoms: S_3  and  C_2 
REMARK    4  A    between atoms: C_14  and  S_3 
REMARK    5  A    between atoms: C_9  and  O_8 
ROOT
ATOM      1  C   UNL d   1       0.475  -3.614  -1.518  0.00  0.00     0.072 A 
ATOM      2  C   UNL d   1       0.634  -1.387  -0.809  0.00  0.00     0.128 A 
ATOM      3  C   UNL d   1       1.020  -2.696  -0.564  0.00  0.00     0.057 A 
ATOM      4  S   UNL d   1      -0.373  -1.285  -2.191  0.00  0.00    -0.086 SA
ATOM      5  C   UNL d   1      -0.285  -2.971  -2.473  0.00  0.00     0.075 A 
ENDROOT
BRANCH   2   6
ATOM      6  S   UNL d   1       0.985   0.145   0.054  0.00  0.00     0.309 S 
ATOM      7  O   UNL d   1       0.829   1.221  -0.901  0.00  0.00    -0.192 OA
ATOM      8  O   UNL d   1       2.235  -0.109   0.741  0.00  0.00    -0.192 OA
BRANCH   6   9
ATOM      9  O   UNL d   1      -0.239   0.166   1.129  0.00  0.00    -0.229 OA
BRANCH   9  10
ATOM     10  C   UNL d   1      -0.403   1.169   2.055  0.00  0.00     0.092 A 
ATOM     11  C   UNL d   1       0.431   2.275   2.226  0.00  0.00     0.062 A 
ATOM     12  C   UNL d   1       0.137   3.220   3.216  0.00  0.00     0.038 A 
ATOM     13 CL   UNL d   1       1.171   4.580   3.433  0.00  0.00    -0.084 Cl
ATOM     14  C   UNL d   1      -0.980   3.078   4.037  0.00  0.00     0.048 A 
ATOM     15  C   UNL d   1      -1.806   1.974   3.863  0.00  0.00     0.038 A 
ATOM     16  C   UNL d   1      -1.523   1.023   2.881  0.00  0.00     0.062 A 
ATOM     17 CL   UNL d   1      -3.189   1.777   4.867  0.00  0.00    -0.084 Cl
ENDBRANCH   9  10
ENDBRANCH   6   9
ENDBRANCH   2   6
BRANCH   1  18
ATOM     18  S   UNL d   1       0.691  -5.337  -1.456  0.00  0.00     0.207 S 
ATOM     19  O   UNL d   1       0.856  -5.622  -0.043  0.00  0.00    -0.217 OA
ATOM     20  O   UNL d   1      -0.412  -5.873  -2.228  0.00  0.00    -0.217 OA
BRANCH  18  21
ATOM     21  C   UNL d   1       2.209  -5.687  -2.297  0.00  0.00     0.064 A 
ATOM     22  C   UNL d   1       3.403  -5.742  -1.570  0.00  0.00     0.024 A 
ATOM     23  C   UNL d   1       4.588  -6.095  -2.217  0.00  0.00     0.002 A 
ATOM     24  C   UNL d   1       4.577  -6.403  -3.578  0.00  0.00     0.000 A 
ATOM     25  C   UNL d   1       3.381  -6.365  -4.297  0.00  0.00     0.002 A 
ATOM     26  C   UNL d   1       2.191  -6.014  -3.657  0.00  0.00     0.024 A 
ENDBRANCH  18  21
ENDBRANCH   1  18
TORSDOF 5
