REMARK  6 active torsions:
REMARK  status: ('A' for Active; 'I' for Inactive)
REMARK    1  A    between atoms: S_9  and  C_2 
REMARK    2  A    between atoms: C_8  and  C_4 
REMARK    3  A    between atoms: C_7  and  C_10 
REMARK    4  A    between atoms: O_18  and  C_8 
REMARK    5  A    between atoms: C_10  and  S_9 
REMARK    6  A    between atoms: C_26  and  O_18 
ROOT
ATOM      1  C   UNL d   1       0.092  -0.736   0.117  0.00  0.00     0.041 A 
ATOM      2  C   UNL d   1       1.192  -1.568   0.141  0.00  0.00     0.057 A 
ATOM      3  C   UNL d   1       0.452   0.669   0.010  0.00  0.00    -0.018 A 
ATOM      4  C   UNL d   1       1.827   0.848  -0.065  0.00  0.00     0.088 A 
ATOM      5  S   UNL d   1       2.640  -0.657   0.040  0.00  0.00    -0.076 SA
ATOM      6  C   UNL d   1      -1.318  -1.105   0.225  0.00  0.00     0.162 C 
ATOM      7  C   UNL d   1      -0.601   1.768  -0.023  0.00  0.00     0.050 C 
ATOM      8  C   UNL d   1      -2.027   1.262   0.353  0.00  0.00    -0.037 C 
ATOM      9  C   UNL d   1      -2.283  -0.090  -0.336  0.00  0.00     0.093 C 
ATOM     10  O   UNL d   1      -1.726  -2.110   0.805  0.00  0.00    -0.292 OA
ATOM     11  C   UNL d   1      -3.095   2.260  -0.120  0.00  0.00     0.015 C 
ATOM     12  C   UNL d   1      -2.164   1.111   1.886  0.00  0.00     0.015 C 
ENDROOT
BRANCH   2  13
ATOM     13  S   UNL d   1       1.327  -3.322   0.304  0.00  0.00    -0.117 SA
BRANCH  13  14
ATOM     14  C   UNL d   1       0.040  -3.974  -0.793  0.00  0.00     0.123 C 
BRANCH  14  15
ATOM     15  C   UNL d   1       0.044  -5.477  -0.875  0.00  0.00     0.012 A 
ATOM     16  C   UNL d   1       0.587  -6.093  -2.006  0.00  0.00     0.125 A 
ATOM     17  F   UNL d   1       1.131  -5.343  -2.977  0.00  0.00    -0.205 F 
ATOM     18  C   UNL d   1       0.556  -7.474  -2.176  0.00  0.00     0.043 A 
ATOM     19  C   UNL d   1      -0.023  -8.279  -1.200  0.00  0.00     0.005 A 
ATOM     20  C   UNL d   1      -0.557  -7.693  -0.053  0.00  0.00     0.024 A 
ATOM     21  C   UNL d   1      -0.520  -6.302   0.112  0.00  0.00     0.044 A 
ATOM     22 CL   UNL d   1      -1.224  -5.665   1.557  0.00  0.00    -0.084 Cl
ENDBRANCH  14  15
ENDBRANCH  13  14
ENDBRANCH   2  13
BRANCH   4  23
ATOM     23  C   UNL d   1       2.557   2.095  -0.243  0.00  0.00     0.300 C 
ATOM     24  O   UNL d   1       2.039   3.196  -0.404  0.00  0.00    -0.259 OA
BRANCH  23  25
ATOM     25  O   UNL d   1       3.906   1.878  -0.295  0.00  0.00    -0.317 OA
BRANCH  25  26
ATOM     26  C   UNL d   1       4.702   2.935  -0.845  0.00  0.00     0.174 C 
ATOM     27  C   UNL d   1       4.762   2.747  -2.350  0.00  0.00     0.034 C 
ENDBRANCH  25  26
ENDBRANCH  23  25
ENDBRANCH   4  23
TORSDOF 6
