REMARK  5 active torsions:
REMARK  status: ('A' for Active; 'I' for Inactive)
REMARK    1  A    between atoms: O_7  and  C_1 
REMARK       I    between atoms: C_2  and  N_4 
REMARK       I    between atoms: N_6  and  C_2 
REMARK    2  A    between atoms: C_3  and  C_15 
REMARK    3  A    between atoms: N_4  and  C_16 
REMARK    4  A    between atoms: C_15  and  N_6 
REMARK    5  A    between atoms: C_17  and  O_7 
ROOT
ATOM      1  C   UNL d   1       3.427  -5.838  -3.171  0.00  0.00     0.321 C 
ATOM      2  N   UNL d   1       2.235  -5.523  -2.617  0.00  0.00    -0.309 N 
ATOM      3  N   UNL d   1       4.384  -4.887  -3.314  0.00  0.00    -0.337 N 
ATOM      4  O   UNL d   1       3.592  -6.996  -3.553  0.00  0.00    -0.247 OA
ATOM      5  H   UNL d   1       1.624  -6.333  -2.685  0.00  0.00     0.170 HD
ATOM      6  H   UNL d   1       4.048  -3.958  -3.514  0.00  0.00     0.164 HD
ENDROOT
BRANCH   2   7
ATOM      7  C   UNL d   1       1.696  -4.425  -1.931  0.00  0.00     0.036 A 
ATOM      8  C   UNL d   1       2.390  -3.279  -1.547  0.00  0.00     0.032 A 
ATOM      9  C   UNL d   1       1.742  -2.257  -0.826  0.00  0.00     0.039 A 
ATOM     10  C   UNL d   1       0.405  -2.388  -0.451  0.00  0.00     0.078 A 
ATOM     11  C   UNL d   1      -0.289  -3.532  -0.840  0.00  0.00     0.039 A 
ATOM     12  C   UNL d   1       0.347  -4.535  -1.572  0.00  0.00     0.032 A 
BRANCH  10  13
ATOM     13  O   UNL d   1      -0.332  -1.521   0.298  0.00  0.00    -0.255 OA
BRANCH  13  14
ATOM     14  C   UNL d   1       0.285  -0.340   0.777  0.00  0.00     0.530 C 
ATOM     15  F   UNL d   1       1.440  -0.601   1.424  0.00  0.00    -0.144 F 
ATOM     16  F   UNL d   1      -0.554   0.258   1.652  0.00  0.00    -0.144 F 
ATOM     17  F   UNL d   1       0.518   0.518  -0.238  0.00  0.00    -0.144 F 
ENDBRANCH  13  14
ENDBRANCH  10  13
ENDBRANCH   2   7
BRANCH   3  18
ATOM     18  C   UNL d   1       5.587  -5.265  -4.024  0.00  0.00     0.189 C 
BRANCH  18  19
ATOM     19  C   UNL d   1       6.625  -4.206  -3.990  0.00  0.00     0.070 A 
ATOM     20  O   UNL d   1       6.247  -2.923  -3.707  0.00  0.00    -0.325 OA
ATOM     21  C   UNL d   1       7.372  -2.161  -3.767  0.00  0.00     0.142 A 
ATOM     22  C   UNL d   1       8.462  -2.928  -4.101  0.00  0.00     0.027 A 
ATOM     23  C   UNL d   1       7.982  -4.250  -4.245  0.00  0.00     0.036 A 
ENDBRANCH  18  19
ENDBRANCH   3  18
TORSDOF 5
