REMARK  4 active torsions:
REMARK  status: ('A' for Active; 'I' for Inactive)
REMARK    1  A    between atoms: C_5  and  C_1 
REMARK    2  A    between atoms: S_4  and  C_5 
REMARK    3  A    between atoms: C_12  and  S_4 
REMARK    4  A    between atoms: C_11  and  C_12 
ROOT
ATOM      1  S   UNL d   1      -1.822   3.126  -0.065  0.00  0.00    -0.160 SA
ENDROOT
BRANCH   1   2
ATOM      2  C   UNL d   1      -0.177   2.347   0.003  0.00  0.00     0.117 C 
BRANCH   2   3
ATOM      3  C   UNL d   1      -0.305   0.848  -0.030  0.00  0.00     0.011 A 
ATOM      4  C   UNL d   1      -0.291   0.191  -1.268  0.00  0.00     0.125 A 
ATOM      5  F   UNL d   1      -0.097   0.895  -2.393  0.00  0.00    -0.205 F 
ATOM      6  C   UNL d   1      -0.477  -1.185  -1.375  0.00  0.00     0.043 A 
ATOM      7  C   UNL d   1      -0.685  -1.945  -0.228  0.00  0.00     0.005 A 
ATOM      8  C   UNL d   1      -0.696  -1.317   1.018  0.00  0.00     0.024 A 
ATOM      9  C   UNL d   1      -0.510   0.068   1.117  0.00  0.00     0.044 A 
ATOM     10 CL   UNL d   1      -0.544   0.762   2.701  0.00  0.00    -0.084 Cl
ENDBRANCH   2   3
ENDBRANCH   1   2
BRANCH   1  11
ATOM     11  C   UNL d   1      -1.326   4.868   0.089  0.00  0.00     0.112 C 
BRANCH  11  12
ATOM     12  C   UNL d   1      -2.542   5.759   0.071  0.00  0.00    -0.046 A 
ATOM     13  C   UNL d   1      -3.227   6.051   1.260  0.00  0.00     0.050 A 
ATOM     14  C   UNL d   1      -4.388   6.816   1.224  0.00  0.00     0.117 A 
ATOM     15  F   UNL d   1      -5.039   7.079   2.365  0.00  0.00    -0.206 F 
ATOM     16  C   UNL d   1      -4.891   7.301   0.023  0.00  0.00     0.042 A 
ATOM     17  C   UNL d   1      -4.220   7.020  -1.165  0.00  0.00     0.004 A 
ATOM     18  C   UNL d   1      -3.052   6.252  -1.142  0.00  0.00     0.008 A 
ENDBRANCH  11  12
ENDBRANCH   1  11
TORSDOF 4
