REMARK  6 active torsions:
REMARK  status: ('A' for Active; 'I' for Inactive)
REMARK    1  A    between atoms: O_8  and  C_1 
REMARK    2  A    between atoms: O_9  and  C_2 
REMARK    3  A    between atoms: O_19  and  C_3 
REMARK    4  A    between atoms: C_12  and  C_7 
REMARK    5  A    between atoms: C_14  and  O_8 
REMARK    6  A    between atoms: C_15  and  O_9 
ROOT
ATOM      1  C   UNL d   1      -3.569   0.587   0.851  0.00  0.00     0.125 C 
ATOM      2  N   UNL d   1      -2.768   0.370   3.298  0.00  0.00    -0.191 NA
ATOM      3  N   UNL d   1      -6.082   0.979   0.393  0.00  0.00    -0.191 NA
ATOM      4  C   UNL d   1      -3.122   0.470   2.200  0.00  0.00     0.110 C 
ATOM      5  C   UNL d   1      -4.955   0.807   0.613  0.00  0.00     0.110 C 
ATOM      6  C   UNL d   1      -2.738   0.475  -0.204  0.00  0.00     0.045 C 
ENDROOT
BRANCH   6   7
ATOM      7  C   UNL d   1      -1.302   0.196  -0.130  0.00  0.00    -0.029 A 
ATOM      8  C   UNL d   1      -0.361   1.224  -0.038  0.00  0.00     0.051 A 
ATOM      9  C   UNL d   1       1.013   0.943   0.033  0.00  0.00     0.105 A 
ATOM     10  C   UNL d   1       1.445  -0.393   0.036  0.00  0.00     0.146 A 
ATOM     11  C   UNL d   1       0.497  -1.422  -0.078  0.00  0.00     0.116 A 
ATOM     12  C   UNL d   1      -0.869  -1.127  -0.145  0.00  0.00     0.052 A 
BRANCH   9  13
ATOM     13  O   UNL d   1       1.792   2.059   0.183  0.00  0.00    -0.353 OA
ATOM     14  C   UNL d   1       3.059   2.037  -0.463  0.00  0.00     0.210 C 
ENDBRANCH   9  13
BRANCH  10  15
ATOM     15  O   UNL d   1       2.780  -0.676   0.393  0.00  0.00    -0.273 OA
BRANCH  15  16
ATOM     16  C   UNL d   1       3.514  -1.600  -0.345  0.00  0.00     0.260 C 
ATOM     17  O   UNL d   1       3.218  -2.066  -1.436  0.00  0.00    -0.265 OA
ATOM     18  C   UNL d   1       4.777  -1.918   0.402  0.00  0.00     0.126 C 
ENDBRANCH  15  16
ENDBRANCH  10  15
BRANCH  11  19
ATOM     19  O   UNL d   1       0.890  -2.767   0.042  0.00  0.00    -0.276 OA
BRANCH  19  20
ATOM     20  C   UNL d   1       0.354  -3.644  -0.902  0.00  0.00     0.260 C 
ATOM     21  O   UNL d   1      -0.265  -3.347  -1.918  0.00  0.00    -0.265 OA
ATOM     22  C   UNL d   1       0.603  -5.053  -0.452  0.00  0.00     0.126 C 
ENDBRANCH  19  20
ENDBRANCH  11  19
ENDBRANCH   6   7
TORSDOF 6
