REMARK  7 active torsions:
REMARK  status: ('A' for Active; 'I' for Inactive)
REMARK    1  A    between atoms: N_11  and  C_1 
REMARK    2  A    between atoms: N_5  and  C_2 
REMARK    3  A    between atoms: N_4  and  C_3 
REMARK    4  A    between atoms: C_6  and  C_8 
REMARK    5  A    between atoms: C_7  and  C_12 
REMARK    6  A    between atoms: N_16  and  N_11 
REMARK    7  A    between atoms: C_15  and  N_16 
ROOT
ATOM      1  C   UNL d   1       1.397  -0.361  -0.035  0.00  0.00     0.114 A 
ATOM      2  C   UNL d   1       0.781   0.901   0.188  0.00  0.00     0.134 A 
ATOM      3  C   UNL d   1       0.518  -1.389  -0.443  0.00  0.00     0.134 A 
ATOM      4  C   UNL d   1      -1.420   0.082  -0.522  0.00  0.00     0.052 A 
ATOM      5  C   UNL d   1      -0.852  -1.180  -0.702  0.00  0.00     0.054 A 
ATOM      6  C   UNL d   1      -0.597   1.116  -0.060  0.00  0.00     0.054 A 
ENDROOT
BRANCH   1   7
ATOM      7  N   UNL d   1       2.772  -0.549   0.215  0.00  0.00    -0.294 N 
ATOM      8  H   UNL d   1       3.339   0.307   0.281  0.00  0.00     0.187 HD
BRANCH   7   9
ATOM      9  N   UNL d   1       3.410  -1.725   0.450  0.00  0.00    -0.285 N 
ATOM     10  H   UNL d   1       3.500  -2.398  -0.323  0.00  0.00     0.188 HD
BRANCH   9  11
ATOM     11  C   UNL d   1       4.582  -1.838   1.222  0.00  0.00     0.120 A 
ATOM     12  N   UNL d   1       5.367  -2.901   0.965  0.00  0.00    -0.345 N 
ATOM     13  C   UNL d   1       6.501  -3.064   1.686  0.00  0.00     0.007 A 
ATOM     14  HN  UNL d   1       5.113  -3.572   0.240  1.00  0.00     0.167 HD
ATOM     15  C   UNL d   1       7.330  -4.277   1.388  0.00  0.00     0.068 C 
ATOM     16  C   UNL d   1       6.896  -2.165   2.669  0.00  0.00     0.041 A 
ATOM     17  C   UNL d   1       6.081  -1.063   2.940  0.00  0.00     0.053 A 
ATOM     18  C   UNL d   1       4.900  -0.912   2.207  0.00  0.00     0.066 A 
BRANCH  17  19
ATOM     19  C   UNL d   1       6.464  -0.067   3.999  0.00  0.00     0.417 C 
ATOM     20  F   UNL d   1       5.571   0.951   4.142  0.00  0.00    -0.166 F 
ATOM     21  F   UNL d   1       6.578  -0.639   5.231  0.00  0.00    -0.166 F 
ATOM     22  F   UNL d   1       7.665   0.523   3.749  0.00  0.00    -0.166 F 
ENDBRANCH  17  19
ENDBRANCH   9  11
ENDBRANCH   7   9
ENDBRANCH   1   7
BRANCH   2  23
ATOM     23  N   UNL d   1       1.543   2.052   0.723  0.00  0.00    -0.113 N 
ATOM     24  O   UNL d   1       2.739   1.890   1.006  0.00  0.00    -0.532 OA
ATOM     25  O   UNL d   1       0.942   3.127   0.852  0.00  0.00    -0.532 OA
ENDBRANCH   2  23
BRANCH   3  26
ATOM     26  N   UNL d   1       0.983  -2.753  -0.657  0.00  0.00    -0.113 N 
ATOM     27  O   UNL d   1       1.847  -2.932  -1.530  0.00  0.00    -0.532 OA
ATOM     28  O   UNL d   1       0.420  -3.642  -0.008  0.00  0.00    -0.532 OA
ENDBRANCH   3  26
BRANCH   4  29
ATOM     29  C   UNL d   1      -2.884   0.340  -0.800  0.00  0.00     0.417 C 
ATOM     30  F   UNL d   1      -3.548  -0.756  -1.252  0.00  0.00    -0.166 F 
ATOM     31  F   UNL d   1      -3.549   0.759   0.308  0.00  0.00    -0.166 F 
ATOM     32  F   UNL d   1      -3.062   1.306  -1.740  0.00  0.00    -0.166 F 
ENDBRANCH   4  29
TORSDOF 7
