REMARK  2 active torsions:
REMARK  status: ('A' for Active; 'I' for Inactive)
REMARK    1  A    between atoms: C_6  and  C_1 
REMARK    2  A    between atoms: C_7  and  C_1 
ROOT
ATOM      1  C   UNL d   1      -0.060   1.931  -0.049  0.00  0.00     0.070 A 
ATOM      2  C   UNL d   1       1.149   0.952  -0.104  0.00  0.00    -0.025 A 
ATOM      3  C   UNL d   1      -1.226   0.906   0.078  0.00  0.00    -0.025 A 
ATOM      4  C   UNL d   1       0.708  -0.389  -0.051  0.00  0.00    -0.017 A 
ATOM      5  C   UNL d   1      -0.735  -0.417   0.030  0.00  0.00    -0.017 A 
ATOM      6  C   UNL d   1       2.508   1.255  -0.138  0.00  0.00     0.010 A 
ATOM      7  C   UNL d   1      -2.589   1.163   0.175  0.00  0.00     0.010 A 
ATOM      8  C   UNL d   1       1.620  -1.435  -0.044  0.00  0.00     0.013 A 
ATOM      9  C   UNL d   1      -1.610  -1.491   0.064  0.00  0.00     0.013 A 
ATOM     10  C   UNL d   1       3.424   0.198  -0.114  0.00  0.00     0.001 A 
ATOM     11  C   UNL d   1      -3.468   0.078   0.203  0.00  0.00     0.001 A 
ATOM     12  C   UNL d   1       2.986  -1.133  -0.073  0.00  0.00     0.001 A 
ATOM     13  C   UNL d   1      -2.982  -1.237   0.142  0.00  0.00     0.001 A 
ENDROOT
BRANCH   1  14
ATOM     14  C   UNL d   1      -0.122   2.726  -1.391  0.00  0.00    -0.036 A 
ATOM     15  C   UNL d   1      -0.876   2.270  -2.493  0.00  0.00     0.009 A 
ATOM     16  C   UNL d   1      -0.997   3.029  -3.660  0.00  0.00     0.001 A 
ATOM     17  C   UNL d   1      -0.345   4.252  -3.767  0.00  0.00     0.000 A 
ATOM     18  C   UNL d   1       0.464   4.694  -2.726  0.00  0.00     0.001 A 
ATOM     19  C   UNL d   1       0.595   3.928  -1.563  0.00  0.00     0.009 A 
ENDBRANCH   1  14
BRANCH   1  20
ATOM     20  C   UNL d   1      -0.053   2.816   1.236  0.00  0.00    -0.036 A 
ATOM     21  C   UNL d   1      -0.705   4.066   1.275  0.00  0.00     0.009 A 
ATOM     22  C   UNL d   1      -0.668   4.872   2.417  0.00  0.00     0.001 A 
ATOM     23  C   UNL d   1      -0.023   4.427   3.565  0.00  0.00     0.000 A 
ATOM     24  C   UNL d   1       0.570   3.169   3.579  0.00  0.00     0.001 A 
ATOM     25  C   UNL d   1       0.548   2.370   2.432  0.00  0.00     0.009 A 
ENDBRANCH   1  20
TORSDOF 2
