REMARK  6 active torsions:
REMARK  status: ('A' for Active; 'I' for Inactive)
REMARK    1  A    between atoms: C_3  and  S_1 
REMARK    2  A    between atoms: C_4  and  S_1 
REMARK    3  A    between atoms: C_2  and  C_5 
REMARK    4  A    between atoms: C_6  and  C_3 
REMARK       I    between atoms: N_11  and  C_6 
REMARK       I    between atoms: C_9  and  N_10 
REMARK    5  A    between atoms: C_19  and  C_9 
REMARK    6  A    between atoms: N_10  and  N_11 
ROOT
ATOM      1  C   UNL d   1       0.460  -0.906   1.280  0.00  0.00     0.251 C 
ENDROOT
BRANCH   1   2
ATOM      2  S   UNL d   1      -1.297  -0.786   1.295  0.00  0.00     0.199 S 
ATOM      3  O   UNL d   1      -1.778  -1.431   0.080  0.00  0.00    -0.221 OA
ATOM      4  O   UNL d   1      -1.651   0.601   1.543  0.00  0.00    -0.221 OA
BRANCH   2   5
ATOM      5  C   UNL d   1      -1.868  -1.749   2.684  0.00  0.00     0.128 A 
ATOM      6  N   UNL d   1      -1.418  -1.317   3.892  0.00  0.00    -0.356 N 
ATOM      7  C   UNL d   1      -1.822  -2.041   4.964  0.00  0.00     0.105 A 
ATOM      8  HN  UNL d   1      -0.815  -0.499   3.985  1.00  0.00     0.166 HD
ATOM      9  C   UNL d   1      -2.631  -3.171   4.885  0.00  0.00     0.063 A 
ATOM     10  C   UNL d   1      -3.065  -3.576   3.615  0.00  0.00     0.020 A 
ATOM     11  C   UNL d   1      -2.686  -2.851   2.490  0.00  0.00     0.042 A 
BRANCH   9  12
ATOM     12  C   UNL d   1      -3.015  -3.938   6.115  0.00  0.00     0.418 C 
ATOM     13  F   UNL d   1      -2.558  -3.384   7.271  0.00  0.00    -0.166 F 
ATOM     14  F   UNL d   1      -4.365  -4.045   6.260  0.00  0.00    -0.166 F 
ATOM     15  F   UNL d   1      -2.541  -5.214   6.099  0.00  0.00    -0.166 F 
ENDBRANCH   9  12
ENDBRANCH   2   5
ENDBRANCH   1   2
BRANCH   1  16
ATOM     16  C   UNL d   1       0.868  -2.340   1.200  0.00  0.00     0.250 C 
ATOM     17  N   UNL d   1       1.688  -2.680   0.143  0.00  0.00    -0.266 N 
ATOM     18  H   UNL d   1       1.969  -2.068  -0.622  0.00  0.00     0.190 HD
ATOM     19  O   UNL d   1       0.529  -3.186   2.030  0.00  0.00    -0.271 OA
BRANCH  17  20
ATOM     20  N   UNL d   1       2.018  -4.035   0.026  0.00  0.00    -0.263 N 
ATOM     21  C   UNL d   1       3.153  -4.409  -0.667  0.00  0.00     0.270 C 
ATOM     22  O   UNL d   1       3.852  -3.628  -1.303  0.00  0.00    -0.266 OA
ATOM     23  H   UNL d   1       1.647  -4.631   0.768  0.00  0.00     0.190 HD
BRANCH  21  24
ATOM     24  C   UNL d   1       3.491  -5.857  -0.549  0.00  0.00     0.033 A 
ATOM     25  C   UNL d   1       2.480  -6.823  -0.423  0.00  0.00     0.017 A 
ATOM     26  C   UNL d   1       2.812  -8.167  -0.259  0.00  0.00     0.001 A 
ATOM     27  C   UNL d   1       4.150  -8.555  -0.231  0.00  0.00     0.000 A 
ATOM     28  C   UNL d   1       5.159  -7.602  -0.383  0.00  0.00     0.001 A 
ATOM     29  C   UNL d   1       4.833  -6.252  -0.550  0.00  0.00     0.017 A 
ENDBRANCH  21  24
ENDBRANCH  17  20
ENDBRANCH   1  16
TORSDOF 6
