REMARK  6 active torsions:
REMARK  status: ('A' for Active; 'I' for Inactive)
REMARK    1  A    between atoms: C_9  and  C_1 
REMARK    2  A    between atoms: C_11  and  C_2 
REMARK    3  A    between atoms: C_3  and  C_8 
REMARK    4  A    between atoms: N_21  and  C_8 
REMARK    5  A    between atoms: O_18  and  C_11 
REMARK    6  A    between atoms: N_14  and  O_18 
ROOT
ATOM      1  C   UNL d   1      -1.470  -0.954   0.086  0.00  0.00     0.320 C 
ATOM      2  O   UNL d   1      -2.255  -1.483  -0.697  0.00  0.00    -0.257 OA
ENDROOT
BRANCH   1   3
ATOM      3  C   UNL d   1      -0.047  -1.204   0.081  0.00  0.00     0.102 C 
ATOM      4  C   UNL d   1       0.702  -2.408  -0.158  0.00  0.00     0.085 C 
ATOM      5  N   UNL d   1       2.010  -2.163   0.037  0.00  0.00    -0.259 N 
ATOM      6  O   UNL d   1       2.145  -0.812   0.209  0.00  0.00    -0.241 OA
ATOM      7  HN  UNL d   1       2.759  -2.854   0.053  1.00  0.00     0.195 HD
ATOM      8  C   UNL d   1       0.925  -0.229   0.203  0.00  0.00     0.091 C 
ATOM      9  C   UNL d   1       0.937   1.245   0.252  0.00  0.00     0.080 C 
BRANCH   4  10
ATOM     10  C   UNL d   1       0.258  -3.767  -0.497  0.00  0.00     0.015 A 
ATOM     11  C   UNL d   1       0.970  -4.602  -1.389  0.00  0.00     0.046 A 
ATOM     12 CL   UNL d   1       2.386  -4.104  -2.258  0.00  0.00    -0.083 Cl
ATOM     13  C   UNL d   1       0.530  -5.908  -1.655  0.00  0.00     0.025 A 
ATOM     14  C   UNL d   1      -0.629  -6.397  -1.061  0.00  0.00     0.002 A 
ATOM     15  C   UNL d   1      -1.350  -5.583  -0.193  0.00  0.00     0.001 A 
ATOM     16  C   UNL d   1      -0.907  -4.288   0.095  0.00  0.00     0.015 A 
ENDBRANCH   4  10
ENDBRANCH   1   3
BRANCH   1  17
ATOM     17  O   UNL d   1      -1.842  -0.120   1.124  0.00  0.00    -0.193 OA
BRANCH  17  18
ATOM     18  N   UNL d   1      -2.969   0.655   0.764  0.00  0.00    -0.244 N 
ATOM     19  C   UNL d   1      -3.788   0.791   1.755  0.00  0.00     0.126 C 
ATOM     20  HN  UNL d   1      -3.116   1.057  -0.161  1.00  0.00     0.196 HD
BRANCH  19  21
ATOM     21  C   UNL d   1      -4.934   1.698   1.613  0.00  0.00     0.079 A 
ATOM     22  N   UNL d   1      -5.965   1.717   2.566  0.00  0.00    -0.351 N 
ATOM     23  C   UNL d   1      -6.871   2.613   2.228  0.00  0.00     0.047 A 
ATOM     24  HN  UNL d   1      -6.007   1.125   3.396  1.00  0.00     0.166 HD
ATOM     25  C   UNL d   1      -8.135   2.874   2.975  0.00  0.00     0.076 C 
ATOM     26  S   UNL d   1      -6.540   3.499   0.793  0.00  0.00    -0.087 SA
ATOM     27  C   UNL d   1      -5.101   2.600   0.581  0.00  0.00     0.084 A 
ENDBRANCH  19  21
BRANCH  19  28
ATOM     28  N   UNL d   1      -3.773   0.173   2.977  0.00  0.00    -0.285 NA
ATOM     29  H   UNL d   1      -4.677   0.220   3.449  0.00  0.00     0.125 HD
ATOM     30  H   UNL d   1      -3.384  -0.760   2.961  0.00  0.00     0.125 HD
ENDBRANCH  19  28
ENDBRANCH  17  18
ENDBRANCH   1  17
TORSDOF 6
