REMARK  9 active torsions:
REMARK  status: ('A' for Active; 'I' for Inactive)
REMARK    1  A    between atoms: N_2  and  C_1 
REMARK    2  A    between atoms: C_3  and  C_1 
REMARK    3  A    between atoms: C_6  and  C_1 
REMARK    4  A    between atoms: N_7  and  C_1 
REMARK       I    between atoms: C_4  and  N_2 
REMARK    5  A    between atoms: C_5  and  C_4 
REMARK    6  A    between atoms: O_19  and  C_6 
REMARK    7  A    between atoms: C_12  and  N_7 
REMARK    8  A    between atoms: C_10  and  C_8 
REMARK    9  A    between atoms: C_27  and  O_19 
ROOT
ATOM      1  C   UNL d   1       0.853  -0.018   0.068  0.00  0.00     0.297 C 
ENDROOT
BRANCH   1   2
ATOM      2  N   UNL d   1       0.435  -0.921   1.156  0.00  0.00    -0.314 N 
ATOM      3  C   UNL d   1       0.354  -0.560   2.474  0.00  0.00     0.255 C 
ATOM      4  O   UNL d   1       0.652   0.551   2.889  0.00  0.00    -0.268 OA
ATOM      5  H   UNL d   1       0.067  -1.820   0.872  0.00  0.00     0.166 HD
BRANCH   3   6
ATOM      6  C   UNL d   1      -0.238  -1.585   3.385  0.00  0.00     0.053 A 
ATOM      7  C   UNL d   1       0.166  -2.925   3.414  0.00  0.00     0.049 A 
ATOM      8 CL   UNL d   1       1.516  -3.529   2.533  0.00  0.00    -0.083 Cl
ATOM      9  C   UNL d   1      -0.508  -3.848   4.225  0.00  0.00     0.025 A 
ATOM     10  C   UNL d   1      -1.566  -3.436   5.034  0.00  0.00     0.002 A 
ATOM     11  C   UNL d   1      -1.942  -2.094   5.048  0.00  0.00     0.001 A 
ATOM     12  C   UNL d   1      -1.283  -1.171   4.227  0.00  0.00     0.019 A 
ENDBRANCH   3   6
ENDBRANCH   1   2
BRANCH   1  13
ATOM     13  C   UNL d   1       0.172   1.400   0.055  0.00  0.00     0.442 C 
ATOM     14  F   UNL d   1      -0.981   1.435   0.767  0.00  0.00    -0.166 F 
ATOM     15  F   UNL d   1       0.997   2.350   0.574  0.00  0.00    -0.166 F 
ATOM     16  F   UNL d   1      -0.145   1.831  -1.194  0.00  0.00    -0.166 F 
ENDBRANCH   1  13
BRANCH   1  17
ATOM     17  C   UNL d   1       0.339  -0.636  -1.255  0.00  0.00     0.318 C 
ATOM     18  O   UNL d   1      -0.652  -1.361  -1.318  0.00  0.00    -0.260 OA
BRANCH  17  19
ATOM     19  O   UNL d   1       1.125  -0.310  -2.323  0.00  0.00    -0.318 OA
BRANCH  19  20
ATOM     20  C   UNL d   1       0.779  -0.905  -3.580  0.00  0.00     0.174 C 
ATOM     21  C   UNL d   1       1.356  -2.304  -3.692  0.00  0.00     0.034 C 
ENDBRANCH  19  20
ENDBRANCH  17  19
ENDBRANCH   1  17
BRANCH   1  22
ATOM     22  N   UNL d   1       2.344   0.058   0.115  0.00  0.00    -0.348 N 
ATOM     23  H   UNL d   1       2.651   0.792   0.754  0.00  0.00     0.163 HD
BRANCH  22  24
ATOM     24  C   UNL d   1       3.233  -1.003   0.018  0.00  0.00     0.031 A 
ATOM     25  C   UNL d   1       2.862  -2.315  -0.285  0.00  0.00     0.044 A 
ATOM     26  C   UNL d   1       3.803  -3.353  -0.372  0.00  0.00     0.011 A 
ATOM     27  C   UNL d   1       5.160  -3.071  -0.253  0.00  0.00     0.015 A 
ATOM     28  C   UNL d   1       5.562  -1.756  -0.025  0.00  0.00     0.003 A 
ATOM     29  C   UNL d   1       4.603  -0.740   0.110  0.00  0.00     0.029 A 
BRANCH  26  30
ATOM     30  C   UNL d   1       3.276  -4.731  -0.573  0.00  0.00     0.155 C 
ATOM     31  O   UNL d   1       2.195  -4.890  -1.137  0.00  0.00    -0.293 OA
ATOM     32  C   UNL d   1       4.055  -5.907  -0.046  0.00  0.00     0.096 C 
ENDBRANCH  26  30
ENDBRANCH  22  24
ENDBRANCH   1  22
TORSDOF 9
