REMARK  5 active torsions:
REMARK  status: ('A' for Active; 'I' for Inactive)
REMARK    1  A    between atoms: C_7  and  C_1 
REMARK    2  A    between atoms: O_15  and  C_7 
REMARK    3  A    between atoms: N_8  and  N_11 
REMARK    4  A    between atoms: C_10  and  C_14 
REMARK    5  A    between atoms: C_19  and  O_15 
ROOT
ATOM      1  C   UNL d   1       1.253   0.775  -0.303  0.00  0.00     0.117 A 
ATOM      2  N   UNL d   1       1.413  -0.599  -0.444  0.00  0.00    -0.330 N 
ATOM      3  HN  UNL d   1       2.260  -1.045  -0.797  1.00  0.00     0.168 HD
ATOM      4  C   UNL d   1       0.335  -1.249  -0.066  0.00  0.00     0.164 A 
ATOM      5  C   UNL d   1       0.040   1.145   0.250  0.00  0.00     0.089 A 
ATOM      6  S   UNL d   1      -0.938  -0.237   0.509  0.00  0.00    -0.062 SA
ATOM      7  N   UNL d   1       0.183  -2.598  -0.093  0.00  0.00    -0.280 N 
ATOM      8  H   UNL d   1      -0.707  -2.962   0.241  0.00  0.00     0.189 HD
ENDROOT
BRANCH   7   9
ATOM      9  N   UNL d   1       1.272  -3.413  -0.085  0.00  0.00    -0.309 N 
ATOM     10  C   UNL d   1       1.052  -4.688  -0.102  0.00  0.00     0.120 C 
ATOM     11  HN  UNL d   1       2.219  -3.035  -0.066  1.00  0.00     0.186 HD
BRANCH  10  12
ATOM     12  C   UNL d   1       2.187  -5.633  -0.005  0.00  0.00     0.002 A 
ATOM     13  C   UNL d   1       2.011  -7.019  -0.059  0.00  0.00     0.045 A 
ATOM     14 CL   UNL d   1       0.468  -7.761  -0.297  0.00  0.00    -0.083 Cl
ATOM     15  C   UNL d   1       3.117  -7.864   0.083  0.00  0.00     0.024 A 
ATOM     16  C   UNL d   1       4.394  -7.335   0.281  0.00  0.00     0.002 A 
ATOM     17  C   UNL d   1       4.574  -5.956   0.330  0.00  0.00     0.001 A 
ATOM     18  C   UNL d   1       3.477  -5.108   0.184  0.00  0.00     0.014 A 
ENDBRANCH  10  12
ENDBRANCH   7   9
BRANCH   1  19
ATOM     19  C   UNL d   1       2.258   1.726  -0.772  0.00  0.00     0.310 C 
ATOM     20  O   UNL d   1       2.118   2.943  -0.696  0.00  0.00    -0.258 OA
BRANCH  19  21
ATOM     21  O   UNL d   1       3.304   1.106  -1.390  0.00  0.00    -0.317 OA
BRANCH  21  22
ATOM     22  C   UNL d   1       4.084   1.921  -2.270  0.00  0.00     0.175 C 
ATOM     23  C   UNL d   1       3.426   1.908  -3.640  0.00  0.00     0.034 C 
ENDBRANCH  21  22
ENDBRANCH  19  21
ENDBRANCH   1  19
TORSDOF 5
