REMARK  6 active torsions:
REMARK  status: ('A' for Active; 'I' for Inactive)
REMARK    1  A    between atoms: C_2  and  S_1 
REMARK    2  A    between atoms: N_11  and  S_1 
REMARK    3  A    between atoms: C_7  and  C_3 
REMARK    4  A    between atoms: S_5  and  C_4 
REMARK    5  A    between atoms: C_6  and  S_5 
REMARK    6  A    between atoms: O_14  and  C_7 
ROOT
ATOM      1  C   UNL d   1       0.668  -1.711   0.312  0.00  0.00     0.091 A 
ATOM      2  C   UNL d   1      -0.725  -1.860   0.398  0.00  0.00     0.028 A 
ATOM      3  C   UNL d   1       1.494  -2.843   0.162  0.00  0.00     0.033 A 
ATOM      4  C   UNL d   1      -1.253  -3.164   0.330  0.00  0.00     0.021 A 
ATOM      5  C   UNL d   1       0.953  -4.132   0.115  0.00  0.00    -0.060 A 
ATOM      6  C   UNL d   1      -0.428  -4.285   0.215  0.00  0.00     0.008 A 
ATOM      7  C   UNL d   1       1.832  -5.340  -0.030  0.00  0.00     0.048 C 
ENDROOT
BRANCH   2   8
ATOM      8  S   UNL d   1      -1.943  -0.547   0.472  0.00  0.00    -0.088 SA
BRANCH   8   9
ATOM      9  C   UNL d   1      -2.203  -0.305   2.234  0.00  0.00     0.022 A 
ATOM     10  C   UNL d   1      -2.134   0.952   2.873  0.00  0.00     0.054 A 
ATOM     11  C   UNL d   1      -2.245   1.002   4.279  0.00  0.00     0.020 A 
ATOM     12  C   UNL d   1      -2.468  -0.146   5.038  0.00  0.00     0.001 A 
ATOM     13  C   UNL d   1      -2.635  -1.364   4.400  0.00  0.00     0.001 A 
ATOM     14  C   UNL d   1      -2.516  -1.438   3.012  0.00  0.00     0.020 A 
BRANCH  10  15
ATOM     15  C   UNL d   1      -1.975   2.292   2.210  0.00  0.00     0.177 C 
ATOM     16  O   UNL d   1      -1.934   3.332   2.855  0.00  0.00    -0.646 OA
BRANCH  15  17
ATOM     17  O   UNL d   1      -1.938   2.320   0.864  0.00  0.00    -0.773 OA
ATOM     18  H   UNL d   1      -2.039   1.441   0.451  0.00  0.00     0.167 HD
ENDBRANCH  15  17
ENDBRANCH  10  15
ENDBRANCH   8   9
ENDBRANCH   2   8
BRANCH   1  19
ATOM     19  S   UNL d   1       1.491  -0.149   0.481  0.00  0.00     0.240 S 
ATOM     20  O   UNL d   1       2.902  -0.329   0.227  0.00  0.00    -0.206 OA
ATOM     21  O   UNL d   1       1.011   0.496   1.680  0.00  0.00    -0.206 OA
BRANCH  19  22
ATOM     22  N   UNL d   1       0.948   0.770  -0.813  0.00  0.00    -0.225 NA
ATOM     23  H   UNL d   1       1.735   0.948  -1.446  0.00  0.00     0.136 HD
ATOM     24  H   UNL d   1       0.542   1.639  -0.457  0.00  0.00     0.136 HD
ENDBRANCH  19  22
ENDBRANCH   1  19
TORSDOF 6
