REMARK  4 active torsions:
REMARK  status: ('A' for Active; 'I' for Inactive)
REMARK    1  A    between atoms: S_2  and  C_1 
REMARK    2  A    between atoms: C_12  and  S_2 
REMARK    3  A    between atoms: N_5  and  C_4 
REMARK       I    between atoms: C_6  and  N_5 
REMARK       I    between atoms: N_11  and  C_6 
REMARK    4  A    between atoms: C_14  and  N_11 
ROOT
ATOM      1  N   UNL d   1      -0.075   2.087   0.109  0.00  0.00    -0.303 N 
ATOM      2  C   UNL d   1      -1.290   2.596  -0.281  0.00  0.00     0.325 C 
ATOM      3  N   UNL d   1      -2.395   1.916   0.159  0.00  0.00    -0.309 N 
ATOM      4  O   UNL d   1      -1.314   3.660  -0.896  0.00  0.00    -0.247 OA
ATOM      5  H   UNL d   1       0.673   2.767   0.047  0.00  0.00     0.171 HD
ATOM      6  H   UNL d   1      -2.241   1.344   0.978  0.00  0.00     0.170 HD
ENDROOT
BRANCH   1   7
ATOM      7  C   UNL d   1       0.303   0.763   0.248  0.00  0.00     0.079 A 
ATOM      8  C   UNL d   1       1.528   0.305   0.686  0.00  0.00     0.061 A 
ATOM      9  C   UNL d   1       1.611  -1.122   0.638  0.00  0.00     0.068 A 
ATOM     10  C   UNL d   1       0.462  -1.691   0.134  0.00  0.00     0.075 A 
ATOM     11  S   UNL d   1      -0.708  -0.513  -0.251  0.00  0.00    -0.083 SA
BRANCH   9  12
ATOM     12  S   UNL d   1       2.978  -2.045   1.175  0.00  0.00     0.179 S 
ATOM     13  O   UNL d   1       3.441  -1.319   2.337  0.00  0.00    -0.222 OA
ATOM     14  O   UNL d   1       2.483  -3.405   1.261  0.00  0.00    -0.222 OA
BRANCH  12  15
ATOM     15  C   UNL d   1       4.211  -1.930  -0.123  0.00  0.00     0.105 C 
ATOM     16  C   UNL d   1       5.356  -2.894   0.186  0.00  0.00     0.026 C 
ATOM     17  C   UNL d   1       3.643  -2.214  -1.509  0.00  0.00     0.026 C 
ENDBRANCH  12  15
ENDBRANCH   9  12
ENDBRANCH   1   7
BRANCH   3  18
ATOM     18  C   UNL d   1      -3.715   2.055  -0.299  0.00  0.00     0.036 A 
ATOM     19  C   UNL d   1      -4.025   2.607  -1.544  0.00  0.00     0.031 A 
ATOM     20  C   UNL d   1      -5.350   2.638  -1.992  0.00  0.00     0.026 A 
ATOM     21  C   UNL d   1      -6.367   2.134  -1.186  0.00  0.00     0.034 A 
ATOM     22  C   UNL d   1      -6.071   1.595   0.064  0.00  0.00     0.026 A 
ATOM     23 CL   UNL d   1      -7.995   2.165  -1.741  0.00  0.00    -0.084 Cl
ATOM     24  C   UNL d   1      -4.744   1.543   0.500  0.00  0.00     0.031 A 
ENDBRANCH   3  18
TORSDOF 4
