REMARK  5 active torsions:
REMARK  status: ('A' for Active; 'I' for Inactive)
REMARK    1  A    between atoms: C_4  and  C_1 
REMARK    2  A    between atoms: C_3  and  C_2 
REMARK    3  A    between atoms: C_22  and  C_7 
REMARK    4  A    between atoms: C_17  and  C_25 
REMARK    5  A    between atoms: C_18  and  C_24 
ROOT
ATOM      1  C   UNL d   1       0.380  -2.722   0.025  0.00  0.00     0.187 A 
ATOM      2  N   UNL d   1       1.322  -3.250   0.778  0.00  0.00    -0.318 N 
ATOM      3  HN  UNL d   1       1.984  -2.775   1.392  1.00  0.00     0.169 HD
ATOM      4  C   UNL d   1       1.195  -4.598   0.536  0.00  0.00     0.138 A 
ATOM      5  N   UNL d   1       0.257  -4.901  -0.374  0.00  0.00    -0.242 N 
ATOM      6  HN  UNL d   1       0.014  -5.818  -0.749  1.00  0.00     0.196 HD
ATOM      7  O   UNL d   1      -0.304  -3.671  -0.684  0.00  0.00    -0.217 OA
ENDROOT
BRANCH   1   8
ATOM      8  C   UNL d   1       0.048  -1.277  -0.027  0.00  0.00     0.079 A 
ATOM      9  C   UNL d   1       0.874  -0.208   0.276  0.00  0.00     0.135 A 
ATOM     10  O   UNL d   1       0.115   0.929   0.149  0.00  0.00    -0.235 OA
ATOM     11  N   UNL d   1      -1.162   0.624  -0.262  0.00  0.00    -0.264 N 
ATOM     12  C   UNL d   1      -1.203  -0.707  -0.377  0.00  0.00     0.046 A 
ATOM     13  HN  UNL d   1      -1.922   1.279  -0.441  1.00  0.00     0.194 HD
ATOM     14  C   UNL d   1      -2.486  -1.351  -0.754  0.00  0.00     0.071 C 
BRANCH   9  15
ATOM     15  C   UNL d   1       2.267  -0.115   0.599  0.00  0.00     0.083 A 
ATOM     16  C   UNL d   1       2.926   0.778   1.438  0.00  0.00     0.043 A 
ATOM     17  N   UNL d   1       4.312   0.636   1.464  0.00  0.00    -0.298 N 
ATOM     18  C   UNL d   1       2.348   1.849   2.289  0.00  0.00     0.071 C 
ATOM     19  N   UNL d   1       4.730  -0.318   0.653  0.00  0.00    -0.269 N 
ATOM     20  HN  UNL d   1       4.932   1.203   2.042  1.00  0.00     0.187 HD
ATOM     21  S   UNL d   1       3.483  -1.061  -0.166  0.00  0.00     0.006 SA
ATOM     22  HN  UNL d   1       5.711  -0.574   0.540  1.00  0.00     0.195 HD
ENDBRANCH   9  15
ENDBRANCH   1   8
BRANCH   4  23
ATOM     23  C   UNL d   1       1.927  -5.613   1.279  0.00  0.00     0.011 A 
ATOM     24  C   UNL d   1       2.265  -5.395   2.621  0.00  0.00     0.031 A 
ATOM     25  C   UNL d   1       2.851  -6.414   3.393  0.00  0.00     0.049 A 
ATOM     26  C   UNL d   1       3.135  -7.649   2.787  0.00  0.00     0.032 A 
ATOM     27  C   UNL d   1       2.827  -7.880   1.436  0.00  0.00     0.049 A 
ATOM     28  C   UNL d   1       2.221  -6.852   0.694  0.00  0.00     0.031 A 
BRANCH  25  29
ATOM     29  C   UNL d   1       3.129  -6.178   4.860  0.00  0.00     0.417 C 
ATOM     30  F   UNL d   1       3.595  -7.282   5.507  0.00  0.00    -0.166 F 
ATOM     31  F   UNL d   1       4.051  -5.201   5.067  0.00  0.00    -0.166 F 
ATOM     32  F   UNL d   1       2.012  -5.794   5.539  0.00  0.00    -0.166 F 
ENDBRANCH  25  29
BRANCH  27  33
ATOM     33  C   UNL d   1       3.114  -9.209   0.777  0.00  0.00     0.417 C 
ATOM     34  F   UNL d   1       3.585 -10.151   1.640  0.00  0.00    -0.166 F 
ATOM     35  F   UNL d   1       2.006  -9.750   0.200  0.00  0.00    -0.166 F 
ATOM     36  F   UNL d   1       4.042  -9.107  -0.212  0.00  0.00    -0.166 F 
ENDBRANCH  27  33
ENDBRANCH   4  23
TORSDOF 5
