REMARK  7 active torsions:
REMARK  status: ('A' for Active; 'I' for Inactive)
REMARK    1  A    between atoms: C_3  and  S_1 
REMARK    2  A    between atoms: N_9  and  S_1 
REMARK    3  A    between atoms: S_2  and  C_4 
REMARK    4  A    between atoms: N_14  and  S_2 
REMARK    5  A    between atoms: N_15  and  C_6 
REMARK    6  A    between atoms: C_17  and  N_9 
REMARK    7  A    between atoms: C_18  and  C_17 
ROOT
ATOM      1  C   UNL d   1       0.451  -0.054  -1.611  0.00  0.00     0.097 A 
ATOM      2  C   UNL d   1      -1.133   0.775  -3.265  0.00  0.00     0.097 A 
ATOM      3  C   UNL d   1      -0.680   0.715  -1.940  0.00  0.00     0.053 A 
ATOM      4  C   UNL d   1       1.168  -0.731  -2.609  0.00  0.00     0.030 A 
ATOM      5  C   UNL d   1      -0.486   0.034  -4.251  0.00  0.00     0.058 A 
ATOM      6  C   UNL d   1       0.636  -0.734  -3.909  0.00  0.00     0.050 A 
ATOM      7 CL   UNL d   1      -0.979   0.009  -5.905  0.00  0.00    -0.083 Cl
ENDROOT
BRANCH   1   8
ATOM      8  S   UNL d   1       1.040   0.038   0.076  0.00  0.00     0.243 S 
ATOM      9  O   UNL d   1       0.425   1.208   0.667  0.00  0.00    -0.206 OA
ATOM     10  O   UNL d   1       2.478  -0.124   0.051  0.00  0.00    -0.206 OA
BRANCH   8  11
ATOM     11  N   UNL d   1       0.341  -1.305   0.824  0.00  0.00    -0.211 NA
ATOM     12  H   UNL d   1      -0.650  -1.399   0.606  0.00  0.00     0.140 HD
BRANCH  11  13
ATOM     13  C   UNL d   1       1.079  -2.572   0.685  0.00  0.00     0.143 C 
BRANCH  13  14
ATOM     14  C   UNL d   1       0.471  -3.729   1.447  0.00  0.00    -0.044 A 
ATOM     15  C   UNL d   1       0.740  -5.037   1.012  0.00  0.00     0.008 A 
ATOM     16  C   UNL d   1       0.249  -6.140   1.712  0.00  0.00     0.001 A 
ATOM     17  C   UNL d   1      -0.512  -5.950   2.862  0.00  0.00     0.000 A 
ATOM     18  C   UNL d   1      -0.774  -4.659   3.316  0.00  0.00     0.001 A 
ATOM     19  C   UNL d   1      -0.277  -3.553   2.619  0.00  0.00     0.008 A 
ENDBRANCH  13  14
ENDBRANCH  11  13
ENDBRANCH   8  11
ENDBRANCH   1   8
BRANCH   4  20
ATOM     20  N   UNL d   1       2.257  -1.578  -2.344  0.00  0.00    -0.301 NA
ATOM     21  H   UNL d   1       2.833  -1.254  -1.557  0.00  0.00     0.124 HD
ATOM     22  H   UNL d   1       2.847  -1.764  -3.153  0.00  0.00     0.124 HD
ENDBRANCH   4  20
BRANCH   2  23
ATOM     23  S   UNL d   1      -2.491   1.814  -3.699  0.00  0.00     0.241 S 
ATOM     24  O   UNL d   1      -1.996   2.910  -4.495  0.00  0.00    -0.206 OA
ATOM     25  O   UNL d   1      -3.604   0.981  -4.080  0.00  0.00    -0.206 OA
BRANCH  23  26
ATOM     26  N   UNL d   1      -2.970   2.521  -2.247  0.00  0.00    -0.225 NA
ATOM     27  H   UNL d   1      -2.829   3.533  -2.303  0.00  0.00     0.136 HD
ATOM     28  H   UNL d   1      -3.941   2.266  -2.055  0.00  0.00     0.136 HD
ENDBRANCH  23  26
ENDBRANCH   2  23
TORSDOF 7
