REMARK  1 active torsions:
REMARK  status: ('A' for Active; 'I' for Inactive)
REMARK    1  A    between atoms: C_8  and  N_1 
ROOT
ATOM      1  N   UNL d   1      -0.288  -1.107  -0.015  0.00  0.00    -0.286 N 
ATOM      2  N   UNL d   1       0.991  -0.654  -0.015  0.00  0.00    -0.301 N 
ATOM      3  HN  UNL d   1       1.843  -1.214  -0.019  1.00  0.00     0.187 HD
ATOM      4  C   UNL d   1      -0.440   1.099  -0.005  0.00  0.00     0.092 A 
ATOM      5  C   UNL d   1      -1.200  -0.061  -0.008  0.00  0.00     0.048 A 
ATOM      6  C   UNL d   1       0.901   0.677  -0.010  0.00  0.00     0.044 A 
ATOM      7  C   UNL d   1      -0.919   2.447   0.001  0.00  0.00     0.103 C 
ATOM      8  N   UNL d   1      -1.308   3.542   0.005  0.00  0.00    -0.191 NA
ATOM      9  C   UNL d   1      -2.681  -0.190  -0.004  0.00  0.00     0.071 C 
ATOM     10  C   UNL d   1       2.128   1.510  -0.012  0.00  0.00     0.071 C 
ENDROOT
BRANCH   1  11
ATOM     11  C   UNL d   1      -0.505  -2.575  -0.029  0.00  0.00     0.043 C 
ATOM     12  C   UNL d   1       0.845  -3.348  -0.005  0.00  0.00     0.039 C 
ATOM     13  C   UNL d   1      -1.300  -3.037   1.206  0.00  0.00     0.039 C 
ATOM     14  C   UNL d   1      -1.236  -3.019  -1.310  0.00  0.00     0.039 C 
ENDBRANCH   1  11
TORSDOF 1
