REMARK  4 active torsions:
REMARK  status: ('A' for Active; 'I' for Inactive)
REMARK       I    between atoms: N_8  and  C_1 
REMARK       I    between atoms: N_11  and  C_1 
REMARK    1  A    between atoms: C_2  and  N_9 
REMARK    2  A    between atoms: C_3  and  C_4 
REMARK    3  A    between atoms: C_7  and  C_14 
REMARK    4  A    between atoms: C_24  and  N_11 
ROOT
ATOM      1  C   UNL d   1       0.713   0.070  -0.234  0.00  0.00     0.322 C 
ATOM      2  N   UNL d   1       0.151   1.033   0.602  0.00  0.00    -0.332 N 
ATOM      3  N   UNL d   1      -1.937   2.827   1.605  0.00  0.00    -0.364 N 
ATOM      4  N   UNL d   1       1.602   0.563  -1.172  0.00  0.00    -0.309 N 
ATOM      5  O   UNL d   1       0.405  -1.110  -0.125  0.00  0.00    -0.247 OA
ATOM      6  C   UNL d   1      -0.836   0.592   1.610  0.00  0.00     0.147 C 
ATOM      7  C   UNL d   1      -2.173   1.371   1.638  0.00  0.00     0.144 C 
ATOM      8  C   UNL d   1      -0.259   3.368  -0.127  0.00  0.00     0.040 C 
ATOM      9  C   UNL d   1       0.599   2.421   0.707  0.00  0.00     0.129 C 
ATOM     10  C   UNL d   1      -1.741   3.372   0.258  0.00  0.00     0.126 C 
ATOM     11  H   UNL d   1       1.611   1.556  -1.305  0.00  0.00     0.170 HD
ENDROOT
BRANCH   4  12
ATOM     12  C   UNL d   1       2.308  -0.182  -2.143  0.00  0.00     0.036 A 
ATOM     13  C   UNL d   1       2.316  -1.574  -2.188  0.00  0.00     0.030 A 
ATOM     14  C   UNL d   1       2.909  -2.249  -3.256  0.00  0.00     0.018 A 
ATOM     15  C   UNL d   1       3.526  -1.544  -4.294  0.00  0.00     0.048 A 
ATOM     16  C   UNL d   1       3.607  -0.147  -4.198  0.00  0.00     0.018 A 
ATOM     17  C   UNL d   1       3.004   0.528  -3.130  0.00  0.00     0.030 A 
BRANCH  15  18
ATOM     18  C   UNL d   1       4.050  -2.266  -5.509  0.00  0.00     0.417 C 
ATOM     19  F   UNL d   1       3.827  -3.610  -5.482  0.00  0.00    -0.166 F 
ATOM     20  F   UNL d   1       3.472  -1.821  -6.661  0.00  0.00    -0.166 F 
ATOM     21  F   UNL d   1       5.391  -2.112  -5.679  0.00  0.00    -0.166 F 
ENDBRANCH  15  18
ENDBRANCH   4  12
BRANCH   3  22
ATOM     22  C   UNL d   1      -2.623   3.631   2.513  0.00  0.00     0.125 A 
ATOM     23  N   UNL d   1      -3.785   3.164   3.034  0.00  0.00    -0.350 N 
ATOM     24  C   UNL d   1      -4.465   3.933   3.922  0.00  0.00     0.106 A 
ATOM     25  HN  UNL d   1      -4.143   2.248   2.762  1.00  0.00     0.166 HD
ATOM     26  C   UNL d   1      -4.051   5.184   4.345  0.00  0.00     0.065 A 
ATOM     27  C   UNL d   1      -2.847   5.657   3.834  0.00  0.00     0.045 A 
ATOM     28  C   UNL d   1      -2.124   4.883   2.926  0.00  0.00     0.078 A 
ATOM     29 CL   UNL d   1      -0.589   5.521   2.448  0.00  0.00    -0.080 Cl
BRANCH  26  30
ATOM     30  C   UNL d   1      -4.870   5.977   5.312  0.00  0.00     0.418 C 
ATOM     31  F   UNL d   1      -4.324   7.190   5.608  0.00  0.00    -0.166 F 
ATOM     32  F   UNL d   1      -6.120   6.238   4.843  0.00  0.00    -0.166 F 
ATOM     33  F   UNL d   1      -5.036   5.343   6.503  0.00  0.00    -0.166 F 
ENDBRANCH  26  30
ENDBRANCH   3  22
TORSDOF 4
