REMARK  4 active torsions:
REMARK  status: ('A' for Active; 'I' for Inactive)
REMARK    1  A    between atoms: C_9  and  C_1 
REMARK    2  A    between atoms: C_5  and  C_4 
REMARK    3  A    between atoms: O_15  and  C_9 
REMARK    4  A    between atoms: C_18  and  O_15 
ROOT
ATOM      1  C   UNL d   1       1.892   0.958   0.353  0.00  0.00     0.111 A 
ATOM      2  N   UNL d   1       2.260  -0.838   0.625  0.00  0.00    -0.368 N 
ATOM      3  HN  UNL d   1       3.141  -1.171   1.017  1.00  0.00     0.161 HD
ATOM      4  C   UNL d   1       1.049  -1.840   0.182  0.00  0.00     0.180 A 
ATOM      5  S   UNL d   1      -0.814  -0.651  -0.821  0.00  0.00    -0.111 SA
ATOM      6  C   UNL d   1       0.343   1.293  -0.376  0.00  0.00     0.082 A 
ENDROOT
BRANCH   4   7
ATOM      7  C   UNL d   1       0.548  -3.087   0.327  0.00  0.00     0.186 C 
ATOM      8  O   UNL d   1       0.660  -3.168  -1.190  0.00  0.00    -0.338 OA
ATOM      9  C   UNL d   1       1.335  -2.071  -1.888  0.00  0.00     0.102 C 
ATOM     10  C   UNL d   1       1.972  -2.391  -3.071  0.00  0.00     0.039 C 
ATOM     11  C   UNL d   1       1.385  -0.582  -1.276  0.00  0.00     0.102 C 
ATOM     12  C   UNL d   1       2.631  -1.361  -3.749  0.00  0.00     0.003 C 
ATOM     13  C   UNL d   1       2.606  -0.014  -3.314  0.00  0.00     0.003 C 
ATOM     14  C   UNL d   1       1.984   0.411  -2.123  0.00  0.00     0.039 C 
ATOM     15  O   UNL d   1       0.539  -0.282   0.520  0.00  0.00    -0.346 OA
ATOM     16  C   UNL d   1       0.007  -1.822   1.316  0.00  0.00     0.211 C 
ENDBRANCH   4   7
BRANCH   1  17
ATOM     17  C   UNL d   1       2.946   1.941   0.523  0.00  0.00     0.310 C 
ATOM     18  O   UNL d   1       2.762   3.151   0.460  0.00  0.00    -0.258 OA
BRANCH  17  19
ATOM     19  O   UNL d   1       4.167   1.336   0.573  0.00  0.00    -0.317 OA
BRANCH  19  20
ATOM     20  C   UNL d   1       5.302   2.164   0.304  0.00  0.00     0.175 C 
ATOM     21  C   UNL d   1       5.415   2.445  -1.187  0.00  0.00     0.034 C 
ENDBRANCH  19  20
ENDBRANCH  17  19
ENDBRANCH   1  17
TORSDOF 4
