REMARK  4 active torsions:
REMARK  status: ('A' for Active; 'I' for Inactive)
REMARK    1  A    between atoms: C_2  and  S_1 
REMARK    2  A    between atoms: C_4  and  S_1 
REMARK       I    between atoms: C_3  and  N_7 
REMARK    3  A    between atoms: O_15  and  C_3 
REMARK    4  A    between atoms: N_7  and  C_14 
ROOT
ATOM      1  C   UNL d   1       0.536   1.490  -0.863  0.00  0.00     0.068 A 
ATOM      2  C   UNL d   1      -0.586   1.494  -1.694  0.00  0.00     0.026 A 
ATOM      3  C   UNL d   1       1.195   2.678  -0.552  0.00  0.00     0.026 A 
ATOM      4  C   UNL d   1      -0.342   3.898  -1.984  0.00  0.00     0.036 A 
ATOM      5  C   UNL d   1       0.756   3.876  -1.119  0.00  0.00     0.031 A 
ATOM      6  C   UNL d   1      -1.019   2.701  -2.255  0.00  0.00     0.031 A 
ENDROOT
BRANCH   1   7
ATOM      7  S   UNL d   1       1.125  -0.045  -0.165  0.00  0.00     0.276 S 
ATOM      8  O   UNL d   1       1.732   0.303   1.112  0.00  0.00    -0.213 OA
ATOM      9  O   UNL d   1      -0.012  -0.956  -0.189  0.00  0.00    -0.213 OA
BRANCH   7  10
ATOM     10  C   UNL d   1       2.396  -0.560  -1.376  0.00  0.00     0.503 C 
ATOM     11  F   UNL d   1       2.481   0.283  -2.447  0.00  0.00    -0.157 F 
ATOM     12  F   UNL d   1       3.647  -0.609  -0.833  0.00  0.00    -0.157 F 
ATOM     13  F   UNL d   1       2.153  -1.799  -1.892  0.00  0.00    -0.157 F 
ENDBRANCH   7  10
ENDBRANCH   1   7
BRANCH   4  14
ATOM     14  N   UNL d   1      -0.810   5.067  -2.608  0.00  0.00    -0.303 N 
ATOM     15  C   UNL d   1      -0.282   6.326  -2.535  0.00  0.00     0.364 C 
ATOM     16  O   UNL d   1       0.696   6.694  -1.900  0.00  0.00    -0.238 OA
ATOM     17  H   UNL d   1      -1.617   5.002  -3.214  0.00  0.00     0.171 HD
BRANCH  15  18
ATOM     18  O   UNL d   1      -1.027   7.154  -3.317  0.00  0.00    -0.309 OA
ATOM     19  C   UNL d   1      -0.553   8.501  -3.333  0.00  0.00     0.215 C 
ENDBRANCH  15  18
ENDBRANCH   4  14
TORSDOF 4
