REMARK  4 active torsions:
REMARK  status: ('A' for Active; 'I' for Inactive)
REMARK    1  A    between atoms: N_2  and  S_1 
REMARK    2  A    between atoms: C_4  and  S_1 
REMARK    3  A    between atoms: C_3  and  N_2 
REMARK    4  A    between atoms: C_5  and  C_3 
ROOT
ATOM      1  N   UNL d   1       0.581  -0.318   1.586  0.00  0.00    -0.265 N 
ATOM      2  H   UNL d   1       1.412  -0.238   2.161  0.00  0.00     0.180 HD
ENDROOT
BRANCH   1   3
ATOM      3  S   UNL d   1       0.971  -0.125  -0.022  0.00  0.00     0.264 S 
ATOM      4  O   UNL d   1       0.205  -1.086  -0.785  0.00  0.00    -0.200 OA
ATOM      5  O   UNL d   1       2.412  -0.071  -0.081  0.00  0.00    -0.200 OA
BRANCH   3   6
ATOM      6  C   UNL d   1       0.348   1.503  -0.403  0.00  0.00     0.081 A 
ATOM      7  C   UNL d   1       1.137   2.625  -0.124  0.00  0.00     0.035 A 
ATOM      8  C   UNL d   1       0.709   3.894  -0.539  0.00  0.00    -0.021 A 
ATOM      9  C   UNL d   1       1.549   5.115  -0.305  0.00  0.00     0.051 C 
ATOM     10  C   UNL d   1      -0.507   4.014  -1.224  0.00  0.00     0.128 A 
ATOM     11  C   UNL d   1      -1.302   2.900  -1.506  0.00  0.00    -0.021 A 
ATOM     12  F   UNL d   1      -0.898   5.226  -1.640  0.00  0.00    -0.205 F 
ATOM     13  C   UNL d   1      -0.867   1.636  -1.090  0.00  0.00     0.035 A 
ATOM     14  C   UNL d   1      -2.581   3.034  -2.280  0.00  0.00     0.051 C 
ENDBRANCH   3   6
ENDBRANCH   1   3
BRANCH   1  15
ATOM     15  C   UNL d   1      -0.698  -0.333   2.154  0.00  0.00     0.120 C 
ATOM     16  N   UNL d   1      -1.760  -0.543   1.468  0.00  0.00    -0.384 N 
ATOM     17  H   UNL d   1      -1.512  -0.798   0.501  0.00  0.00     0.157 HD
ATOM     18  HN  UNL d   1      -2.712  -0.468   1.826  1.00  0.00     0.157 HD
BRANCH  15  19
ATOM     19  C   UNL d   1      -0.755  -0.060   3.605  0.00  0.00     0.023 A 
ATOM     20  C   UNL d   1      -1.842   0.647   4.102  0.00  0.00     0.102 A 
ATOM     21  N   UNL d   1      -1.941   1.072   5.386  0.00  0.00    -0.374 N 
ATOM     22  C   UNL d   1      -0.921   0.757   6.213  0.00  0.00     0.087 A 
ATOM     23  HN  UNL d   1      -2.748   1.605   5.712  1.00  0.00     0.164 HD
ATOM     24  C   UNL d   1       0.185   0.017   5.820  0.00  0.00     0.018 A 
ATOM     25  C   UNL d   1       0.270  -0.398   4.492  0.00  0.00     0.018 A 
ENDBRANCH  15  19
ENDBRANCH   1  15
TORSDOF 4
