REMARK  3 active torsions:
REMARK  status: ('A' for Active; 'I' for Inactive)
REMARK    1  A    between atoms: C_2  and  C_1 
REMARK    2  A    between atoms: N_3  and  C_5 
REMARK    3  A    between atoms: N_11  and  C_8 
ROOT
ATOM      1  C   UNL d   1      -0.201   0.708   1.448  0.00  0.00     0.065 A 
ATOM      2  C   UNL d   1      -1.391   0.445   3.930  0.00  0.00     0.128 A 
ATOM      3  N   UNL d   1      -0.043   0.311   3.829  0.00  0.00    -0.350 N 
ATOM      4  HN  UNL d   1       0.530   0.118   4.651  1.00  0.00     0.166 HD
ATOM      5  C   UNL d   1      -1.589   0.834   1.564  0.00  0.00     0.045 A 
ATOM      6  C   UNL d   1      -2.194   0.706   2.816  0.00  0.00     0.079 A 
ATOM      7  C   UNL d   1       0.515   0.441   2.605  0.00  0.00     0.106 A 
ATOM      8 CL   UNL d   1      -3.906   0.883   2.928  0.00  0.00    -0.080 Cl
ENDROOT
BRANCH   2   9
ATOM      9  N   UNL d   1      -1.935   0.390   5.224  0.00  0.00    -0.337 N 
ATOM     10  C   UNL d   1      -1.336  -0.336   6.106  0.00  0.00     0.179 C 
ATOM     11  HN  UNL d   1      -2.781   0.909   5.460  1.00  0.00     0.168 HD
BRANCH  10  12
ATOM     12  N   UNL d   1      -1.699  -0.481   7.426  0.00  0.00    -0.377 N 
ATOM     13  C   UNL d   1      -2.850   0.215   7.994  0.00  0.00     0.123 C 
ATOM     14  C   UNL d   1      -2.407   1.033   9.207  0.00  0.00     0.020 C 
ATOM     15  C   UNL d   1      -1.659   0.168  10.221  0.00  0.00     0.003 C 
ATOM     16  C   UNL d   1      -0.501  -0.572   9.553  0.00  0.00     0.020 C 
ATOM     17  C   UNL d   1      -0.978  -1.363   8.336  0.00  0.00     0.123 C 
ENDBRANCH  10  12
ENDBRANCH   2   9
BRANCH   1  18
ATOM     18  C   UNL d   1       0.526   0.861   0.149  0.00  0.00     0.418 C 
ATOM     19  F   UNL d   1      -0.290   1.149  -0.900  0.00  0.00    -0.166 F 
ATOM     20  F   UNL d   1       1.204  -0.266  -0.202  0.00  0.00    -0.166 F 
ATOM     21  F   UNL d   1       1.452   1.857   0.188  0.00  0.00    -0.166 F 
ENDBRANCH   1  18
TORSDOF 3
