REMARK  2 active torsions:
REMARK  status: ('A' for Active; 'I' for Inactive)
REMARK       I    between atoms: N_4  and  C_1 
REMARK       I    between atoms: N_6  and  C_1 
REMARK       I    between atoms: C_2  and  N_3 
REMARK       I    between atoms: N_7  and  C_2 
REMARK    1  A    between atoms: N_3  and  C_8 
REMARK    2  A    between atoms: C_9  and  N_4 
ROOT
ATOM      1  C   UNL d   1       2.345  -0.932   2.239  0.00  0.00     0.169 C 
ATOM      2  C   UNL d   1       2.941  -1.192   3.477  0.00  0.00     0.077 C 
ATOM      3  C   UNL d   1       1.159  -1.574   1.875  0.00  0.00     0.077 C 
ATOM      4  F   UNL d   1       2.825   0.061   1.468  0.00  0.00    -0.201 F 
ATOM      5  C   UNL d   1       2.439  -2.218   4.281  0.00  0.00     0.033 C 
ATOM      6  C   UNL d   1       0.672  -2.612   2.675  0.00  0.00     0.033 C 
ATOM      7  C   UNL d   1       1.324  -2.947   3.864  0.00  0.00     0.005 C 
ENDROOT
BRANCH   2   8
ATOM      8  N   UNL d   1       3.974  -0.328   3.925  0.00  0.00    -0.306 N 
ATOM      9  C   UNL d   1       3.879   0.288   5.160  0.00  0.00     0.323 C 
ATOM     10  N   UNL d   1       4.866   1.222   5.413  0.00  0.00    -0.330 N 
ATOM     11  O   UNL d   1       2.965   0.088   5.957  0.00  0.00    -0.247 OA
ATOM     12  C   UNL d   1       6.151   1.344   4.722  0.00  0.00     0.153 C 
ATOM     13  C   UNL d   1       4.653   2.214   6.470  0.00  0.00     0.153 C 
ATOM     14  C   UNL d   1       7.300   1.464   5.735  0.00  0.00     0.187 C 
ATOM     15  O   UNL d   1       7.062   2.517   6.683  0.00  0.00    -0.388 OA
ATOM     16  C   UNL d   1       5.851   2.270   7.417  0.00  0.00     0.187 C 
ATOM     17  H   UNL d   1       4.313   0.306   3.212  0.00  0.00     0.171 HD
ENDBRANCH   2   8
BRANCH   3  18
ATOM     18  N   UNL d   1       0.414  -1.065   0.776  0.00  0.00    -0.306 N 
ATOM     19  C   UNL d   1      -0.931  -0.782   0.930  0.00  0.00     0.323 C 
ATOM     20  N   UNL d   1      -1.529  -0.156  -0.141  0.00  0.00    -0.330 N 
ATOM     21  O   UNL d   1      -1.560  -1.006   1.966  0.00  0.00    -0.247 OA
ATOM     22  C   UNL d   1      -2.829   0.493   0.060  0.00  0.00     0.153 C 
ATOM     23  C   UNL d   1      -1.030  -0.083  -1.517  0.00  0.00     0.153 C 
ATOM     24  C   UNL d   1      -3.844   0.013  -0.975  0.00  0.00     0.187 C 
ATOM     25  O   UNL d   1      -3.345   0.235  -2.304  0.00  0.00    -0.388 OA
ATOM     26  C   UNL d   1      -2.126  -0.497  -2.513  0.00  0.00     0.187 C 
ATOM     27  H   UNL d   1       0.901  -0.358   0.238  0.00  0.00     0.171 HD
ENDBRANCH   3  18
TORSDOF 2
