REMARK  4 active torsions:
REMARK  status: ('A' for Active; 'I' for Inactive)
REMARK    1  A    between atoms: C_2  and  C_1 
REMARK    2  A    between atoms: S_8  and  C_2 
REMARK    3  A    between atoms: C_5  and  C_7 
REMARK    4  A    between atoms: C_15  and  S_8 
ROOT
ATOM      1  C   UNL d   1      -1.827   0.189  -0.089  0.00  0.00     0.043 A 
ATOM      2  N   UNL d   1       0.356   0.927  -0.792  0.00  0.00    -0.355 N 
ATOM      3  HN  UNL d   1       0.945   1.617  -1.258  1.00  0.00     0.166 HD
ATOM      4  C   UNL d   1      -0.998   1.087  -0.761  0.00  0.00     0.020 A 
ATOM      5  C   UNL d   1       0.915  -0.165  -0.196  0.00  0.00     0.117 A 
ATOM      6  C   UNL d   1      -1.247  -0.963   0.459  0.00  0.00     0.020 A 
ATOM      7  C   UNL d   1       0.131  -1.147   0.404  0.00  0.00     0.035 A 
ATOM      8  C   UNL d   1      -1.513   2.220  -1.600  0.00  0.00     0.069 C 
ENDROOT
BRANCH   1   9
ATOM      9  C   UNL d   1      -3.291   0.326   0.063  0.00  0.00     0.225 C 
ATOM     10  O   UNL d   1      -3.998  -0.653  -0.147  0.00  0.00    -0.279 OA
BRANCH   9  11
ATOM     11  S   UNL d   1      -3.873   1.800   0.816  0.00  0.00    -0.048 SA
BRANCH  11  12
ATOM     12  C   UNL d   1      -5.488   2.145   0.136  0.00  0.00     0.008 A 
ATOM     13  C   UNL d   1      -6.261   1.249  -0.609  0.00  0.00     0.019 A 
ATOM     14  C   UNL d   1      -7.531   1.605  -1.075  0.00  0.00     0.001 A 
ATOM     15  C   UNL d   1      -8.051   2.865  -0.803  0.00  0.00     0.000 A 
ATOM     16  C   UNL d   1      -7.301   3.773  -0.064  0.00  0.00     0.001 A 
ATOM     17  C   UNL d   1      -6.029   3.413   0.402  0.00  0.00     0.019 A 
ENDBRANCH  11  12
ENDBRANCH   9  11
ENDBRANCH   1   9
BRANCH   5  18
ATOM     18  C   UNL d   1       2.432  -0.323  -0.166  0.00  0.00     0.432 C 
ATOM     19  F   UNL d   1       3.121   0.761  -0.620  0.00  0.00    -0.165 F 
ATOM     20  F   UNL d   1       2.901  -0.555   1.096  0.00  0.00    -0.165 F 
ATOM     21  F   UNL d   1       2.863  -1.383  -0.913  0.00  0.00    -0.165 F 
ENDBRANCH   5  18
TORSDOF 4
