REMARK  3 active torsions:
REMARK  status: ('A' for Active; 'I' for Inactive)
REMARK    1  A    between atoms: C_3  and  C_1 
REMARK    2  A    between atoms: O_10  and  C_2 
REMARK       I    between atoms: N_9  and  C_3 
REMARK    3  A    between atoms: O_12  and  C_4 
ROOT
ATOM      1  C   UNL d   1       1.595   1.251  -0.027  0.00  0.00     0.100 A 
ATOM      2  C   UNL d   1       0.173   1.203   0.049  0.00  0.00     0.108 A 
ATOM      3  C   UNL d   1       2.368   0.066  -0.066  0.00  0.00     0.086 A 
ATOM      4  C   UNL d   1      -0.447  -0.059   0.049  0.00  0.00     0.068 A 
ATOM      5  C   UNL d   1       1.720  -1.167  -0.042  0.00  0.00     0.039 A 
ATOM      6  C   UNL d   1       0.330  -1.225  -0.000  0.00  0.00     0.029 A 
ATOM      7 CL   UNL d   1      -2.148  -0.353   0.152  0.00  0.00    -0.081 Cl
ENDROOT
BRANCH   1   8
ATOM      8  C   UNL d   1       2.270   2.590  -0.123  0.00  0.00     0.255 C 
ATOM      9  O   UNL d   1       1.847   3.493  -0.832  0.00  0.00    -0.268 OA
ATOM     10  N   UNL d   1       3.421   2.759   0.597  0.00  0.00    -0.366 N 
ATOM     11  H   UNL d   1       3.935   1.947   0.917  0.00  0.00     0.159 HD
ATOM     12  H   UNL d   1       3.943   3.603   0.402  0.00  0.00     0.159 HD
ENDBRANCH   1   8
BRANCH   2  13
ATOM     13  O   UNL d   1      -0.421   2.427   0.198  0.00  0.00    -0.353 OA
ATOM     14  C   UNL d   1      -1.812   2.620   0.026  0.00  0.00     0.210 C 
ENDBRANCH   2  13
BRANCH   3  15
ATOM     15  O   UNL d   1       3.736   0.187  -0.092  0.00  0.00    -0.355 OA
ATOM     16  C   UNL d   1       4.484  -0.941  -0.537  0.00  0.00     0.210 C 
ENDBRANCH   3  15
TORSDOF 3
