REMARK  3 active torsions:
REMARK  status: ('A' for Active; 'I' for Inactive)
REMARK    1  A    between atoms: N_8  and  C_1 
REMARK    2  A    between atoms: C_10  and  N_4 
REMARK    3  A    between atoms: N_9  and  N_8 
ROOT
ATOM      1  C   UNL d   1      -0.910   1.204   0.028  0.00  0.00     0.095 A 
ATOM      2  C   UNL d   1      -1.545   0.035  -0.143  0.00  0.00     0.133 A 
ATOM      3  C   UNL d   1      -0.833  -1.281  -0.145  0.00  0.00     0.291 A 
ATOM      4  N   UNL d   1       0.565  -1.225  -0.024  0.00  0.00    -0.220 N 
ATOM      5  N   UNL d   1       1.243  -0.050   0.216  0.00  0.00    -0.300 N 
ATOM      6  HN  UNL d   1       2.250  -0.045   0.379  1.00  0.00     0.186 HD
ATOM      7  C   UNL d   1       0.557   1.049   0.227  0.00  0.00     0.141 A 
ATOM      8  O   UNL d   1      -1.506  -2.306  -0.224  0.00  0.00    -0.264 OA
ATOM      9 CL   UNL d   1      -3.276  -0.032  -0.282  0.00  0.00    -0.076 Cl
ENDROOT
BRANCH   1  10
ATOM     10  N   UNL d   1      -1.436   2.492   0.035  0.00  0.00    -0.288 N 
ATOM     11  C   UNL d   1      -1.226   3.454   1.106  0.00  0.00     0.178 C 
BRANCH  10  12
ATOM     12  N   UNL d   1      -2.179   2.963  -1.057  0.00  0.00    -0.277 N 
ATOM     13  C   UNL d   1      -3.291   3.772  -1.005  0.00  0.00     0.116 A 
ATOM     14  C   UNL d   1      -3.681   4.079  -2.292  0.00  0.00     0.021 A 
ATOM     15  C   UNL d   1      -2.805   3.399  -3.166  0.00  0.00     0.021 A 
ATOM     16  C   UNL d   1      -1.889   2.730  -2.383  0.00  0.00     0.116 A 
ENDBRANCH  10  12
ENDBRANCH   1  10
BRANCH   4  17
ATOM     17  C   UNL d   1       1.379  -2.410  -0.016  0.00  0.00     0.060 A 
ATOM     18  C   UNL d   1       0.934  -3.610  -0.590  0.00  0.00     0.032 A 
ATOM     19  C   UNL d   1       1.651  -4.803  -0.453  0.00  0.00     0.009 A 
ATOM     20  C   UNL d   1       2.850  -4.829   0.256  0.00  0.00    -0.062 A 
ATOM     21  C   UNL d   1       3.361  -3.626   0.751  0.00  0.00     0.009 A 
ATOM     22  C   UNL d   1       3.527  -6.144   0.505  0.00  0.00     0.048 C 
ATOM     23  C   UNL d   1       2.640  -2.426   0.602  0.00  0.00     0.032 A 
ENDBRANCH   4  17
TORSDOF 3
