REMARK  6 active torsions:
REMARK  status: ('A' for Active; 'I' for Inactive)
REMARK    1  A    between atoms: C_3  and  C_1 
REMARK    2  A    between atoms: C_2  and  N_12 
REMARK    3  A    between atoms: N_7  and  C_2 
REMARK    4  A    between atoms: C_5  and  C_4 
REMARK       I    between atoms: N_10  and  C_5 
REMARK    5  A    between atoms: C_6  and  N_7 
REMARK    6  A    between atoms: N_12  and  N_10 
ROOT
ATOM      1  C   UNL d   1      -2.896   1.956   1.595  0.00  0.00     0.271 C 
ATOM      2  N   UNL d   1      -4.177   2.194   2.058  0.00  0.00    -0.264 N 
ATOM      3  O   UNL d   1      -2.161   1.122   2.129  0.00  0.00    -0.266 OA
ATOM      4  H   UNL d   1      -4.893   2.582   1.448  0.00  0.00     0.190 HD
ENDROOT
BRANCH   1   5
ATOM      5  C   UNL d   1      -2.350   2.835   0.518  0.00  0.00     0.047 A 
ATOM      6  C   UNL d   1      -3.080   3.473  -0.499  0.00  0.00     0.023 A 
ATOM      7  C   UNL d   1      -2.420   4.346  -1.387  0.00  0.00     0.016 A 
ATOM      8  C   UNL d   1      -1.049   4.579  -1.275  0.00  0.00     0.001 A 
ATOM      9  C   UNL d   1      -0.316   3.932  -0.288  0.00  0.00     0.001 A 
ATOM     10  C   UNL d   1      -0.960   3.069   0.599  0.00  0.00     0.018 A 
BRANCH   6  11
ATOM     11  C   UNL d   1      -4.522   3.193  -0.770  0.00  0.00     0.108 C 
ATOM     12  N   UNL d   1      -4.920   1.981  -0.607  0.00  0.00    -0.376 N 
ATOM     13  C   UNL d   1      -6.318   1.644  -0.886  0.00  0.00     0.123 C 
ATOM     14  HN  UNL d   1      -4.270   1.263  -0.287  1.00  0.00     0.161 HD
ATOM     15  C   UNL d   1      -7.251   2.830  -0.714  0.00  0.00     0.039 C 
ATOM     16  C   UNL d   1      -6.720   3.993  -1.527  0.00  0.00     0.123 C 
ATOM     17  N   UNL d   1      -5.343   4.222  -1.158  0.00  0.00    -0.376 N 
ATOM     18  H   UNL d   1      -4.987   5.163  -1.262  0.00  0.00     0.161 HD
ENDBRANCH   6  11
ENDBRANCH   1   5
BRANCH   2  19
ATOM     19  N   UNL d   1      -4.627   1.398   3.125  0.00  0.00    -0.273 N 
ATOM     20  H   UNL d   1      -3.942   0.714   3.447  0.00  0.00     0.189 HD
BRANCH  19  21
ATOM     21  C   UNL d   1      -5.603   1.845   3.981  0.00  0.00     0.191 C 
ATOM     22  S   UNL d   1      -6.799   2.946   3.574  0.00  0.00    -0.039 SA
BRANCH  21  23
ATOM     23  N   UNL d   1      -5.652   1.256   5.217  0.00  0.00    -0.331 N 
ATOM     24  H   UNL d   1      -6.558   1.317   5.665  0.00  0.00     0.168 HD
BRANCH  23  25
ATOM     25  C   UNL d   1      -4.639   0.561   5.914  0.00  0.00     0.046 A 
ATOM     26  C   UNL d   1      -3.297   1.010   5.942  0.00  0.00    -0.035 A 
ATOM     27  C   UNL d   1      -2.325   0.236   6.600  0.00  0.00     0.009 A 
ATOM     28  C   UNL d   1      -2.818   2.330   5.390  0.00  0.00     0.050 C 
ATOM     29  C   UNL d   1      -2.676  -0.914   7.294  0.00  0.00     0.001 A 
ATOM     30  C   UNL d   1      -4.008  -1.307   7.342  0.00  0.00     0.009 A 
ATOM     31  C   UNL d   1      -5.003  -0.584   6.659  0.00  0.00    -0.035 A 
ATOM     32  C   UNL d   1      -6.403  -1.135   6.738  0.00  0.00     0.050 C 
ENDBRANCH  23  25
ENDBRANCH  21  23
ENDBRANCH  19  21
ENDBRANCH   2  19
TORSDOF 6
