REMARK  6 active torsions:
REMARK  status: ('A' for Active; 'I' for Inactive)
REMARK    1  A    between atoms: C_11  and  C_3 
REMARK    2  A    between atoms: C_14  and  C_4 
REMARK    3  A    between atoms: C_13  and  C_10 
REMARK    4  A    between atoms: N_26  and  C_14 
REMARK    5  A    between atoms: O_18  and  N_15 
REMARK    6  A    between atoms: C_17  and  O_18 
ROOT
ATOM      1  C   UNL d   1       0.263  -0.745   0.049  0.00  0.00     0.143 A 
ATOM      2  N   UNL d   1       0.355   0.660   0.030  0.00  0.00    -0.234 N 
ATOM      3  C   UNL d   1      -0.793   1.441   0.025  0.00  0.00     0.144 A 
ATOM      4  C   UNL d   1       1.565  -1.230   0.018  0.00  0.00     0.067 A 
ATOM      5  N   UNL d   1      -0.947  -1.397   0.082  0.00  0.00    -0.336 N 
ATOM      6  HN  UNL d   1      -1.000  -2.415   0.108  1.00  0.00     0.167 HD
ATOM      7  C   UNL d   1      -2.001   0.843   0.041  0.00  0.00     0.071 A 
ATOM      8  N   UNL d   1       1.644   1.059   0.020  0.00  0.00    -0.302 N 
ATOM      9  HN  UNL d   1       1.996   2.016   0.009  1.00  0.00     0.186 HD
ATOM     10  C   UNL d   1      -2.029  -0.658   0.079  0.00  0.00     0.120 A 
ATOM     11  C   UNL d   1       2.355  -0.064   0.028  0.00  0.00     0.126 A 
ENDROOT
BRANCH   4  12
ATOM     12  C   UNL d   1       2.001  -2.617   0.020  0.00  0.00     0.114 C 
ATOM     13  N   UNL d   1       3.081  -3.075  -0.537  0.00  0.00    -0.246 N 
ATOM     14  HN  UNL d   1       3.372  -4.050  -0.472  1.00  0.00     0.196 HD
BRANCH  13  15
ATOM     15  O   UNL d   1       3.810  -2.100  -1.238  0.00  0.00    -0.199 OA
BRANCH  15  16
ATOM     16  C   UNL d   1       4.974  -2.630  -1.733  0.00  0.00     0.277 C 
ATOM     17  O   UNL d   1       5.345  -3.796  -1.674  0.00  0.00    -0.264 OA
ATOM     18  C   UNL d   1       5.783  -1.543  -2.382  0.00  0.00     0.128 C 
ENDBRANCH  15  16
ENDBRANCH  13  15
BRANCH  12  19
ATOM     19  N   UNL d   1       1.161  -3.449   0.700  0.00  0.00    -0.286 NA
ATOM     20  H   UNL d   1       0.177  -3.185   0.692  0.00  0.00     0.125 HD
ATOM     21  H   UNL d   1       1.319  -4.427   0.484  0.00  0.00     0.125 HD
ENDBRANCH  12  19
ENDBRANCH   4  12
BRANCH   3  22
ATOM     22  C   UNL d   1      -0.666   2.922   0.004  0.00  0.00     0.434 C 
ATOM     23  F   UNL d   1       0.584   3.430  -0.061  0.00  0.00    -0.165 F 
ATOM     24  F   UNL d   1      -1.346   3.438  -1.056  0.00  0.00    -0.165 F 
ATOM     25  F   UNL d   1      -1.246   3.459   1.112  0.00  0.00    -0.165 F 
ENDBRANCH   3  22
BRANCH  10  26
ATOM     26  C   UNL d   1      -3.417  -1.315   0.122  0.00  0.00     0.432 C 
ATOM     27  F   UNL d   1      -4.428  -0.401   0.126  0.00  0.00    -0.165 F 
ATOM     28  F   UNL d   1      -3.637  -2.122  -0.949  0.00  0.00    -0.165 F 
ATOM     29  F   UNL d   1      -3.588  -2.077   1.234  0.00  0.00    -0.165 F 
ENDBRANCH  10  26
TORSDOF 6
