REMARK  9 active torsions:
REMARK  status: ('A' for Active; 'I' for Inactive)
REMARK    1  A    between atoms: C_2  and  C_1 
REMARK    2  A    between atoms: C_10  and  C_7 
REMARK    3  A    between atoms: C_11  and  C_10 
REMARK    4  A    between atoms: C_16  and  C_11 
REMARK    5  A    between atoms: C_12  and  C_13 
REMARK    6  A    between atoms: C_13  and  C_15 
REMARK    7  A    between atoms: C_14  and  C_17 
REMARK    8  A    between atoms: C_15  and  C_14 
REMARK    9  A    between atoms: C_17  and  C_16 
ROOT
ATOM      1  C   UNL d   1       1.397  -0.384   0.273  0.00  0.00    -0.026 A 
ATOM      2  C   UNL d   1       0.686   0.345   1.242  0.00  0.00     0.013 A 
ATOM      3  C   UNL d   1       0.680  -0.806  -0.860  0.00  0.00     0.013 A 
ATOM      4  C   UNL d   1      -0.678   0.626   1.098  0.00  0.00     0.008 A 
ATOM      5  C   UNL d   1      -0.674  -0.505  -1.022  0.00  0.00     0.008 A 
ATOM      6  C   UNL d   1      -1.372   0.198  -0.035  0.00  0.00    -0.058 A 
ENDROOT
BRANCH   6   7
ATOM      7  C   UNL d   1      -2.846   0.470  -0.192  0.00  0.00     0.038 C 
BRANCH   7   8
ATOM      8  C   UNL d   1      -3.641  -0.833  -0.286  0.00  0.00     0.005 C 
BRANCH   8   9
ATOM      9  C   UNL d   1      -5.133  -0.577  -0.468  0.00  0.00     0.000 C 
BRANCH   9  10
ATOM     10  C   UNL d   1      -5.877  -1.905  -0.595  0.00  0.00     0.000 C 
BRANCH  10  11
ATOM     11  C   UNL d   1      -7.372  -1.686  -0.786  0.00  0.00     0.000 C 
BRANCH  11  12
ATOM     12  C   UNL d   1      -8.103  -3.022  -0.905  0.00  0.00     0.000 C 
BRANCH  12  13
ATOM     13  C   UNL d   1      -9.602  -2.803  -1.093  0.00  0.00    -0.000 C 
BRANCH  13  14
ATOM     14  C   UNL d   1     -10.347  -4.130  -1.209  0.00  0.00    -0.005 C 
ATOM     15  C   UNL d   1     -11.838  -3.902  -1.393  0.00  0.00     0.005 C 
ENDBRANCH  13  14
ENDBRANCH  12  13
ENDBRANCH  11  12
ENDBRANCH  10  11
ENDBRANCH   9  10
ENDBRANCH   8   9
ENDBRANCH   7   8
ENDBRANCH   6   7
BRANCH   1  16
ATOM     16  C   UNL d   1       2.836  -0.702   0.430  0.00  0.00    -0.026 A 
ATOM     17  C   UNL d   1       3.408  -0.927   1.696  0.00  0.00     0.012 A 
ATOM     18  C   UNL d   1       4.766  -1.230   1.839  0.00  0.00     0.001 A 
ATOM     19  C   UNL d   1       5.584  -1.327   0.716  0.00  0.00     0.000 A 
ATOM     20  C   UNL d   1       5.044  -1.115  -0.548  0.00  0.00     0.001 A 
ATOM     21  C   UNL d   1       3.689  -0.799  -0.686  0.00  0.00     0.012 A 
ENDBRANCH   1  16
TORSDOF 9
