REMARK  5 active torsions:
REMARK  status: ('A' for Active; 'I' for Inactive)
REMARK       I    between atoms: N_2  and  C_1 
REMARK    1  A    between atoms: C_5  and  C_1 
REMARK       I    between atoms: C_4  and  N_2 
REMARK    2  A    between atoms: C_3  and  C_7 
REMARK       I    between atoms: N_8  and  C_4 
REMARK    3  A    between atoms: N_6  and  N_8 
REMARK    4  A    between atoms: C_7  and  N_6 
REMARK    5  A    between atoms: C_14  and  N_6 
ROOT
ATOM      1  N   UNL d   1       3.406   1.729   1.179  0.00  0.00    -0.189 NA
ENDROOT
BRANCH   1   2
ATOM      2  N   UNL d   1       2.786   1.929   2.442  0.00  0.00    -0.266 N 
ATOM      3  C   UNL d   1       2.118   3.127   2.760  0.00  0.00     0.337 C 
ATOM      4  N   UNL d   1       1.600   3.019   4.062  0.00  0.00    -0.274 N 
ATOM      5  O   UNL d   1       2.082   4.135   2.074  0.00  0.00    -0.246 OA
ATOM      6  C   UNL d   1       0.578   3.710   4.695  0.00  0.00     0.262 C 
ATOM      7  H   UNL d   1       1.409   2.050   4.265  0.00  0.00     0.173 HD
ATOM      8  O   UNL d   1      -0.266   3.003   5.250  0.00  0.00    -0.267 OA
ATOM      9  H   UNL d   1       2.740   1.117   3.041  0.00  0.00     0.186 HD
BRANCH   6  10
ATOM     10  C   UNL d   1       0.521   5.196   4.819  0.00  0.00     0.070 A 
ATOM     11  C   UNL d   1      -0.592   5.762   5.463  0.00  0.00     0.132 A 
ATOM     12  F   UNL d   1      -1.625   5.014   5.882  0.00  0.00    -0.205 F 
ATOM     13  C   UNL d   1      -0.676   7.135   5.720  0.00  0.00     0.043 A 
ATOM     14  C   UNL d   1       0.358   7.974   5.326  0.00  0.00     0.003 A 
ATOM     15  C   UNL d   1       1.469   7.432   4.679  0.00  0.00     0.001 A 
ATOM     16  C   UNL d   1       1.558   6.048   4.438  0.00  0.00     0.020 A 
ENDBRANCH   6  10
ENDBRANCH   1   2
BRANCH   1  17
ATOM     17  C   UNL d   1       2.820   0.572   0.426  0.00  0.00     0.163 C 
BRANCH  17  18
ATOM     18  C   UNL d   1       2.533   0.903  -1.017  0.00  0.00     0.017 A 
ATOM     19  C   UNL d   1       3.277   0.418  -2.106  0.00  0.00     0.044 A 
ATOM     20 CL   UNL d   1       4.565  -0.721  -1.921  0.00  0.00    -0.084 Cl
ATOM     21  C   UNL d   1       2.973   0.817  -3.415  0.00  0.00     0.024 A 
ATOM     22  C   UNL d   1       1.899   1.671  -3.662  0.00  0.00     0.005 A 
ATOM     23  C   UNL d   1       1.120   2.113  -2.599  0.00  0.00     0.043 A 
ATOM     24  C   UNL d   1       1.442   1.730  -1.299  0.00  0.00     0.125 A 
ATOM     25  F   UNL d   1       0.642   2.136  -0.302  0.00  0.00    -0.205 F 
ENDBRANCH  17  18
ENDBRANCH   1  17
BRANCH   1  26
ATOM     26  C   UNL d   1       4.827   1.559   1.282  0.00  0.00     0.030 A 
ATOM     27  C   UNL d   1       5.469   1.091   2.442  0.00  0.00     0.025 A 
ATOM     28  C   UNL d   1       6.835   0.785   2.435  0.00  0.00     0.002 A 
ATOM     29  C   UNL d   1       7.586   0.950   1.275  0.00  0.00     0.000 A 
ATOM     30  C   UNL d   1       6.982   1.465   0.133  0.00  0.00     0.002 A 
ATOM     31  C   UNL d   1       5.622   1.787   0.147  0.00  0.00     0.025 A 
ENDBRANCH   1  26
TORSDOF 5
