REMARK  6 active torsions:
REMARK  status: ('A' for Active; 'I' for Inactive)
REMARK    1  A    between atoms: C_4  and  C_1 
REMARK    2  A    between atoms: N_5  and  C_2 
REMARK       I    between atoms: C_3  and  N_7 
REMARK       I    between atoms: N_6  and  C_3 
REMARK    3  A    between atoms: O_20  and  C_4 
REMARK    4  A    between atoms: C_12  and  N_6 
REMARK    5  A    between atoms: N_7  and  C_13 
REMARK    6  A    between atoms: C_25  and  O_20 
ROOT
ATOM      1  C   UNL d   1       1.731  -0.165   0.067  0.00  0.00     0.068 C 
ATOM      2  C   UNL d   1       0.972  -1.280  -0.368  0.00  0.00     0.046 C 
ATOM      3  C   UNL d   1       1.154   1.123   0.169  0.00  0.00     0.049 C 
ATOM      4  C   UNL d   1      -0.291  -0.960  -0.913  0.00  0.00     0.032 C 
ATOM      5  C   UNL d   1      -0.161   1.357  -0.210  0.00  0.00     0.037 C 
ATOM      6  C   UNL d   1      -0.843   0.330  -0.855  0.00  0.00     0.032 C 
ENDROOT
BRANCH   5   7
ATOM      7  N   UNL d   1      -0.872   2.550   0.069  0.00  0.00    -0.309 N 
ATOM      8  C   UNL d   1      -0.497   3.515   0.999  0.00  0.00     0.325 C 
ATOM      9  N   UNL d   1      -1.535   4.401   1.256  0.00  0.00    -0.309 N 
ATOM     10  O   UNL d   1       0.593   3.553   1.560  0.00  0.00    -0.247 OA
ATOM     11  H   UNL d   1      -2.307   4.398   0.606  0.00  0.00     0.170 HD
ATOM     12  H   UNL d   1      -1.838   2.563  -0.221  0.00  0.00     0.170 HD
BRANCH   9  13
ATOM     13  C   UNL d   1      -1.621   5.323   2.328  0.00  0.00     0.038 A 
ATOM     14  C   UNL d   1      -0.677   5.415   3.354  0.00  0.00     0.054 A 
ATOM     15  C   UNL d   1      -0.878   6.282   4.439  0.00  0.00     0.042 A 
ATOM     16 CL   UNL d   1       0.322   6.300   5.684  0.00  0.00    -0.084 Cl
ATOM     17  C   UNL d   1      -2.025   7.085   4.515  0.00  0.00    -0.040 A 
ATOM     18  C   UNL d   1      -2.952   7.012   3.467  0.00  0.00     0.011 A 
ATOM     19  C   UNL d   1      -2.338   7.930   5.718  0.00  0.00     0.050 C 
ATOM     20  C   UNL d   1      -2.750   6.145   2.386  0.00  0.00     0.030 A 
ENDBRANCH   9  13
ENDBRANCH   5   7
BRANCH   1  21
ATOM     21  C   UNL d   1       3.195  -0.237   0.329  0.00  0.00     0.295 C 
ATOM     22  O   UNL d   1       3.988  -0.854  -0.359  0.00  0.00    -0.259 OA
BRANCH  21  23
ATOM     23  O   UNL d   1       3.498   0.485   1.436  0.00  0.00    -0.318 OA
BRANCH  23  24
ATOM     24  C   UNL d   1       4.876   0.490   1.841  0.00  0.00     0.174 C 
ATOM     25  C   UNL d   1       5.731   1.365   0.940  0.00  0.00     0.034 C 
ENDBRANCH  23  24
ENDBRANCH  21  23
ENDBRANCH   1  21
BRANCH   2  26
ATOM     26  N   UNL d   1       1.293  -2.627  -0.161  0.00  0.00    -0.380 N 
ATOM     27  C   UNL d   1       1.003  -3.642  -1.187  0.00  0.00     0.123 C 
ATOM     28  C   UNL d   1       0.649  -4.979  -0.525  0.00  0.00     0.020 C 
ATOM     29  C   UNL d   1       1.730  -5.427   0.452  0.00  0.00     0.003 C 
ATOM     30  C   UNL d   1       1.982  -4.336   1.482  0.00  0.00     0.020 C 
ATOM     31  C   UNL d   1       2.333  -3.012   0.808  0.00  0.00     0.123 C 
ENDBRANCH   2  26
TORSDOF 6
