REMARK  5 active torsions:
REMARK  status: ('A' for Active; 'I' for Inactive)
REMARK    1  A    between atoms: C_2  and  C_1 
REMARK    2  A    between atoms: C_14  and  C_3 
REMARK    3  A    between atoms: O_18  and  C_14 
REMARK    4  A    between atoms: N_15  and  O_18 
REMARK    5  A    between atoms: C_21  and  C_19 
ROOT
ATOM      1  C   UNL d   1      -1.238  -0.971  -0.018  0.00  0.00     0.137 A 
ATOM      2  C   UNL d   1       0.087  -1.397  -0.053  0.00  0.00     0.102 A 
ATOM      3  O   UNL d   1      -1.228   0.399   0.012  0.00  0.00    -0.235 OA
ATOM      4  N   UNL d   1       0.059   0.876   0.035  0.00  0.00    -0.264 N 
ATOM      5  HN  UNL d   1       0.350   1.853   0.069  1.00  0.00     0.194 HD
ATOM      6  C   UNL d   1       0.852  -0.198   0.004  0.00  0.00     0.048 A 
ATOM      7  C   UNL d   1       2.320   0.015  -0.016  0.00  0.00     0.071 C 
ENDROOT
BRANCH   2   8
ATOM      8  C   UNL d   1       0.529  -2.769  -0.179  0.00  0.00     0.320 C 
ATOM      9  O   UNL d   1      -0.106  -3.597  -0.825  0.00  0.00    -0.257 OA
BRANCH   8  10
ATOM     10  O   UNL d   1       1.700  -3.028   0.509  0.00  0.00    -0.195 OA
BRANCH  10  11
ATOM     11  N   UNL d   1       1.984  -4.404   0.420  0.00  0.00    -0.268 N 
ATOM     12  C   UNL d   1       3.082  -4.701   1.033  0.00  0.00     0.126 C 
ATOM     13  HN  UNL d   1       1.396  -5.082  -0.066  1.00  0.00     0.194 HD
BRANCH  12  14
ATOM     14  C   UNL d   1       3.556  -6.101   1.077  0.00  0.00    -0.017 A 
ATOM     15  C   UNL d   1       4.758  -6.400   1.720  0.00  0.00     0.036 A 
ATOM     16  C   UNL d   1       5.199  -7.724   1.754  0.00  0.00     0.034 A 
ATOM     17 CL   UNL d   1       6.682  -8.106   2.540  0.00  0.00    -0.084 Cl
ATOM     18  C   UNL d   1       4.454  -8.743   1.159  0.00  0.00     0.024 A 
ATOM     19  C   UNL d   1       3.253  -8.440   0.520  0.00  0.00     0.003 A 
ATOM     20  C   UNL d   1       2.803  -7.120   0.478  0.00  0.00     0.013 A 
ENDBRANCH  12  14
ENDBRANCH  10  11
ENDBRANCH   8  10
ENDBRANCH   2   8
BRANCH   1  21
ATOM     21  C   UNL d   1      -2.482  -1.689   0.015  0.00  0.00     0.083 A 
ATOM     22  C   UNL d   1      -3.721  -1.351  -0.521  0.00  0.00     0.043 A 
ATOM     23  N   UNL d   1      -4.740  -2.263  -0.256  0.00  0.00    -0.298 N 
ATOM     24  C   UNL d   1      -4.092  -0.159  -1.326  0.00  0.00     0.071 C 
ATOM     25  N   UNL d   1      -4.324  -3.272   0.485  0.00  0.00    -0.269 N 
ATOM     26  HN  UNL d   1      -5.697  -2.162  -0.594  1.00  0.00     0.187 HD
ATOM     27  S   UNL d   1      -2.713  -3.153   0.891  0.00  0.00     0.006 SA
ATOM     28  HN  UNL d   1      -4.924  -4.043   0.778  1.00  0.00     0.195 HD
ENDBRANCH   1  21
TORSDOF 5
