REMARK  4 active torsions:
REMARK  status: ('A' for Active; 'I' for Inactive)
REMARK    1  A    between atoms: S_5  and  C_1 
REMARK    2  A    between atoms: C_8  and  C_2 
REMARK    3  A    between atoms: O_17  and  C_8 
REMARK    4  A    between atoms: C_18  and  O_17 
ROOT
ATOM      1  C   UNL d   1       0.023   1.399   0.044  0.00  0.00     0.142 A 
ATOM      2  C   UNL d   1      -0.005  -1.404   0.036  0.00  0.00     0.122 A 
ATOM      3  C   UNL d   1      -1.182   0.710   0.045  0.00  0.00     0.180 A 
ATOM      4  C   UNL d   1       1.216   0.690   0.047  0.00  0.00     0.180 A 
ATOM      5  C   UNL d   1      -1.199  -0.682   0.034  0.00  0.00     0.175 A 
ATOM      6  C   UNL d   1       1.200  -0.706   0.048  0.00  0.00     0.175 A 
ATOM      7  F   UNL d   1       2.402   1.307   0.041  0.00  0.00    -0.201 F 
ATOM      8  F   UNL d   1      -2.349   1.368   0.046  0.00  0.00    -0.201 F 
ATOM      9  F   UNL d   1       2.371  -1.358   0.065  0.00  0.00    -0.202 F 
ATOM     10  F   UNL d   1      -2.389  -1.298  -0.022  0.00  0.00    -0.202 F 
ENDROOT
BRANCH   2  11
ATOM     11  C   UNL d   1       0.011  -2.867  -0.094  0.00  0.00     0.299 C 
ATOM     12  O   UNL d   1       0.871  -3.475  -0.710  0.00  0.00    -0.259 OA
BRANCH  11  13
ATOM     13  O   UNL d   1      -1.086  -3.399   0.491  0.00  0.00    -0.318 OA
BRANCH  13  14
ATOM     14  C   UNL d   1      -1.408  -4.737   0.082  0.00  0.00     0.174 C 
ATOM     15  C   UNL d   1      -2.233  -4.666  -1.191  0.00  0.00     0.034 C 
ENDBRANCH  13  14
ENDBRANCH  11  13
ENDBRANCH   2  11
BRANCH   1  16
ATOM     16  S   UNL d   1      -0.008   3.151  -0.055  0.00  0.00     0.178 S 
ATOM     17  O   UNL d   1       1.344   3.646   0.084  0.00  0.00    -0.223 OA
ATOM     18  O   UNL d   1      -0.795   3.481  -1.228  0.00  0.00    -0.223 OA
ATOM     19  C   UNL d   1      -0.889   3.682   1.390  0.00  0.00     0.167 C 
ENDBRANCH   1  16
TORSDOF 4
