REMARK  8 active torsions:
REMARK  status: ('A' for Active; 'I' for Inactive)
REMARK    1  A    between atoms: N_8  and  N_1 
REMARK    2  A    between atoms: C_10  and  C_2 
REMARK       I    between atoms: C_9  and  N_8 
REMARK       I    between atoms: N_12  and  C_9 
REMARK       I    between atoms: N_21  and  C_10 
REMARK    3  A    between atoms: C_11  and  N_12 
REMARK    4  A    between atoms: O_28  and  C_14 
REMARK    5  A    between atoms: O_29  and  C_18 
REMARK    6  A    between atoms: C_30  and  N_21 
REMARK    7  A    between atoms: C_23  and  C_35 
REMARK    8  A    between atoms: C_35  and  C_30 
ROOT
ATOM      1  N   UNL d   1       2.737  -1.459   0.009  0.00  0.00    -0.193 N 
ATOM      2  C   UNL d   1       2.783  -0.174   0.564  0.00  0.00     0.199 C 
ATOM      3  N   UNL d   1       1.736   0.588   0.676  0.00  0.00    -0.336 N 
ATOM      4  HN  UNL d   1       1.823   1.534   1.047  1.00  0.00     0.168 HD
ATOM      5  C   UNL d   1       1.492  -2.084  -0.181  0.00  0.00     0.281 C 
ATOM      6  C   UNL d   1       0.283  -1.260   0.048  0.00  0.00     0.060 C 
ATOM      7  C   UNL d   1       0.488   0.094   0.281  0.00  0.00     0.049 C 
ATOM      8  O   UNL d   1       1.357  -3.244  -0.558  0.00  0.00    -0.265 OA
ATOM      9  C   UNL d   1      -1.014  -1.771  -0.115  0.00  0.00     0.019 C 
ATOM     10  C   UNL d   1      -0.598   0.968   0.165  0.00  0.00     0.030 C 
ATOM     11  C   UNL d   1      -2.103  -0.896  -0.152  0.00  0.00     0.001 C 
ATOM     12  C   UNL d   1      -1.887   0.479  -0.067  0.00  0.00     0.002 C 
ENDROOT
BRANCH   2  13
ATOM     13  C   UNL d   1       4.141   0.396   1.057  0.00  0.00     0.287 C 
ATOM     14  O   UNL d   1       4.244   1.604   1.240  0.00  0.00    -0.264 OA
ATOM     15  N   UNL d   1       5.187  -0.483   1.302  0.00  0.00    -0.354 N 
ATOM     16  H   UNL d   1       5.068  -1.468   1.094  0.00  0.00     0.162 HD
BRANCH  15  17
ATOM     17  C   UNL d   1       6.525   0.006   1.679  0.00  0.00     0.127 C 
BRANCH  17  18
ATOM     18  C   UNL d   1       6.697   0.204   3.197  0.00  0.00     0.058 C 
BRANCH  18  19
ATOM     19  C   UNL d   1       8.009   0.745   3.753  0.00  0.00    -0.054 A 
ATOM     20  C   UNL d   1       8.100   0.888   5.154  0.00  0.00     0.046 A 
ATOM     21  C   UNL d   1       9.260   1.359   5.808  0.00  0.00     0.102 A 
ATOM     22  C   UNL d   1      10.372   1.712   5.030  0.00  0.00     0.101 A 
ATOM     23  C   UNL d   1      10.281   1.588   3.634  0.00  0.00     0.040 A 
ATOM     24  C   UNL d   1       9.121   1.109   2.995  0.00  0.00     0.010 A 
BRANCH  21  25
ATOM     25  O   UNL d   1       9.348   1.479   7.165  0.00  0.00    -0.353 OA
ATOM     26  C   UNL d   1       8.230   1.086   7.954  0.00  0.00     0.210 C 
ENDBRANCH  21  25
BRANCH  22  27
ATOM     27  O   UNL d   1      11.591   2.184   5.444  0.00  0.00    -0.353 OA
ATOM     28  C   UNL d   1      11.834   2.359   6.832  0.00  0.00     0.210 C 
ENDBRANCH  22  27
ENDBRANCH  18  19
ENDBRANCH  17  18
ENDBRANCH  15  17
ENDBRANCH   2  13
BRANCH   1  29
ATOM     29  N   UNL d   1       3.739  -1.685  -0.999  0.00  0.00    -0.240 N 
ATOM     30  C   UNL d   1       4.198  -2.864  -1.535  0.00  0.00     0.340 C 
ATOM     31  N   UNL d   1       3.952  -3.998  -0.835  0.00  0.00    -0.304 N 
ATOM     32  O   UNL d   1       4.810  -2.754  -2.603  0.00  0.00    -0.245 OA
ATOM     33  H   UNL d   1       3.238  -3.864  -0.119  0.00  0.00     0.171 HD
ATOM     34  H   UNL d   1       3.829  -0.923  -1.669  0.00  0.00     0.192 HD
BRANCH  31  35
ATOM     35  C   UNL d   1       4.055  -5.377  -1.222  0.00  0.00     0.080 C 
ATOM     36  C   UNL d   1       4.772  -5.949  -2.288  0.00  0.00     0.062 C 
ATOM     37 CL   UNL d   1       6.032  -5.179  -3.182  0.00  0.00    -0.082 Cl
ATOM     38  C   UNL d   1       4.574  -7.307  -2.633  0.00  0.00     0.026 C 
ATOM     39  C   UNL d   1       3.702  -8.120  -1.915  0.00  0.00     0.003 C 
ATOM     40  C   UNL d   1       3.075  -7.604  -0.793  0.00  0.00     0.026 C 
ATOM     41  C   UNL d   1       3.272  -6.264  -0.440  0.00  0.00     0.062 C 
ATOM     42 CL   UNL d   1       2.534  -5.737   1.044  0.00  0.00    -0.082 Cl
ENDBRANCH  31  35
ENDBRANCH   1  29
TORSDOF 8
