REMARK  4 active torsions:
REMARK  status: ('A' for Active; 'I' for Inactive)
REMARK    1  A    between atoms: C_4  and  C_1 
REMARK    2  A    between atoms: N_7  and  N_2 
REMARK    3  A    between atoms: C_5  and  C_4 
REMARK    4  A    between atoms: C_11  and  N_7 
ROOT
ATOM      1  C   UNL d   1      -0.344  -0.738   0.117  0.00  0.00     0.171 C 
ATOM      2  N   UNL d   1       0.520  -0.466   1.060  0.00  0.00    -0.303 N 
ATOM      3  HN  UNL d   1       0.748   0.500   1.295  1.00  0.00     0.182 HD
ATOM      4  C   UNL d   1      -0.607  -2.114  -0.249  0.00  0.00     0.122 C 
ATOM      5  N   UNL d   1      -0.837  -3.217  -0.534  0.00  0.00    -0.190 NA
ENDROOT
BRANCH   1   6
ATOM      6  C   UNL d   1      -1.083   0.377  -0.561  0.00  0.00     0.191 C 
ATOM      7  O   UNL d   1      -2.268   0.255  -0.835  0.00  0.00    -0.290 OA
BRANCH   6   8
ATOM      8  C   UNL d   1      -0.301   1.605  -0.866  0.00  0.00     0.063 A 
ATOM      9  C   UNL d   1      -0.969   2.960  -0.783  0.00  0.00     0.013 A 
ATOM     10  C   UNL d   1      -0.599   2.392  -2.123  0.00  0.00     0.013 A 
ENDBRANCH   6   8
ENDBRANCH   1   6
BRANCH   2  11
ATOM     11  N   UNL d   1       1.116  -1.515   1.731  0.00  0.00    -0.200 NA
ATOM     12  C   UNL d   1       0.288  -2.108   2.804  0.00  0.00     0.143 C 
BRANCH  11  13
ATOM     13  C   UNL d   1       2.479  -1.323   2.122  0.00  0.00     0.030 A 
ATOM     14  C   UNL d   1       3.238  -0.243   1.634  0.00  0.00     0.027 A 
ATOM     15  C   UNL d   1       4.558  -0.025   2.054  0.00  0.00     0.026 A 
ATOM     16  C   UNL d   1       5.153  -0.900   2.956  0.00  0.00     0.034 A 
ATOM     17  C   UNL d   1       4.452  -2.008   3.413  0.00  0.00     0.026 A 
ATOM     18 CL   UNL d   1       6.756  -0.612   3.507  0.00  0.00    -0.084 Cl
ATOM     19  C   UNL d   1       3.135  -2.223   2.986  0.00  0.00     0.027 A 
ENDBRANCH  11  13
ENDBRANCH   2  11
TORSDOF 4
