REMARK  4 active torsions:
REMARK  status: ('A' for Active; 'I' for Inactive)
REMARK    1  A    between atoms: S_2  and  C_6 
REMARK    2  A    between atoms: O_14  and  S_2 
REMARK    3  A    between atoms: S_17  and  C_8 
REMARK    4  A    between atoms: C_19  and  O_14 
ROOT
ATOM      1  C   UNL d   1       0.074   1.187   0.235  0.00  0.00     0.141 A 
ATOM      2  N   UNL d   1      -1.083   0.728   0.823  0.00  0.00    -0.315 N 
ATOM      3  N   UNL d   1       0.731   0.154  -0.260  0.00  0.00    -0.282 N 
ATOM      4  HN  UNL d   1       1.594   0.200  -0.802  1.00  0.00     0.188 HD
ATOM      5  C   UNL d   1       0.984   4.966   0.294  0.00  0.00     0.128 C 
ATOM      6  C   UNL d   1       0.527   2.542   0.085  0.00  0.00     0.052 C 
ATOM      7  C   UNL d   1      -1.016  -0.639   0.745  0.00  0.00     0.162 A 
ATOM      8  N   UNL d   1       0.056  -0.995   0.079  0.00  0.00    -0.278 N 
ATOM      9  HN  UNL d   1       0.337  -1.949  -0.147  1.00  0.00     0.189 HD
ATOM     10  S   UNL d   1       0.379   3.733   1.310  0.00  0.00    -0.072 SA
ATOM     11  C   UNL d   1       1.459   4.446  -0.895  0.00  0.00     0.035 C 
ATOM     12  C   UNL d   1       1.202   3.049  -1.011  0.00  0.00     0.025 C 
ATOM     13  C   UNL d   1      -2.190   1.489   1.343  0.00  0.00     0.160 C 
ENDROOT
BRANCH   5  14
ATOM     14  S   UNL d   1       0.867   6.641   0.887  0.00  0.00     0.309 S 
ATOM     15  O   UNL d   1       1.078   7.444  -0.303  0.00  0.00    -0.192 OA
ATOM     16  O   UNL d   1      -0.352   6.717   1.663  0.00  0.00    -0.192 OA
BRANCH  14  17
ATOM     17  O   UNL d   1       2.170   6.743   1.864  0.00  0.00    -0.229 OA
BRANCH  17  18
ATOM     18  C   UNL d   1       2.432   7.898   2.562  0.00  0.00     0.089 A 
ATOM     19  C   UNL d   1       3.183   7.754   3.732  0.00  0.00     0.040 A 
ATOM     20  C   UNL d   1       3.497   8.871   4.514  0.00  0.00     0.026 A 
ATOM     21  C   UNL d   1       3.068  10.137   4.116  0.00  0.00     0.034 A 
ATOM     22  C   UNL d   1       2.340  10.292   2.942  0.00  0.00     0.026 A 
ATOM     23 CL   UNL d   1       3.443  11.512   5.079  0.00  0.00    -0.084 Cl
ATOM     24  C   UNL d   1       2.026   9.175   2.161  0.00  0.00     0.040 A 
ENDBRANCH  17  18
ENDBRANCH  14  17
ENDBRANCH   5  14
BRANCH   7  25
ATOM     25  S   UNL d   1      -2.196  -1.692   1.446  0.00  0.00    -0.097 SA
ATOM     26  C   UNL d   1      -1.486  -3.308   1.059  0.00  0.00     0.099 C 
ENDBRANCH   7  25
TORSDOF 4
