REMARK  5 active torsions:
REMARK  status: ('A' for Active; 'I' for Inactive)
REMARK    1  A    between atoms: C_2  and  C_1 
REMARK       I    between atoms: N_5  and  C_2 
REMARK    2  A    between atoms: C_4  and  N_7 
REMARK    3  A    between atoms: C_14  and  C_4 
REMARK    4  A    between atoms: N_7  and  N_5 
REMARK    5  A    between atoms: N_6  and  C_14 
ROOT
ATOM      1  N   UNL d   1      -2.012   3.356   0.203  0.00  0.00    -0.190 NA
ATOM      2  H   UNL d   1      -2.502   2.461   0.061  0.00  0.00     0.154 HD
ENDROOT
BRANCH   1   3
ATOM      3  C   UNL d   1      -2.813   4.460  -0.022  0.00  0.00     0.097 C 
ATOM      4  N   UNL d   1      -2.353   5.667  -0.156  0.00  0.00    -0.391 N 
ATOM      5  H   UNL d   1      -1.340   5.633  -0.054  0.00  0.00     0.157 HD
ATOM      6  HN  UNL d   1      -2.909   6.503  -0.333  1.00  0.00     0.157 HD
BRANCH   3   7
ATOM      7  C   UNL d   1      -4.332   4.271  -0.160  0.00  0.00     0.343 C 
BRANCH   7   8
ATOM      8  N   UNL d   1      -4.857   3.101   0.592  0.00  0.00     0.095 N 
ATOM      9  C   UNL d   1      -4.740   3.314   2.048  0.00  0.00     0.273 C 
ATOM     10  C   UNL d   1      -5.348   2.148   2.835  0.00  0.00     0.030 C 
ATOM     11  C   UNL d   1      -6.812   1.939   2.471  0.00  0.00     0.003 C 
ATOM     12  C   UNL d   1      -6.958   1.786   0.965  0.00  0.00     0.030 C 
ATOM     13  C   UNL d   1      -6.282   2.938   0.223  0.00  0.00     0.273 C 
ENDBRANCH   7   8
ENDBRANCH   3   7
ENDBRANCH   1   3
BRANCH   1  14
ATOM     14  N   UNL d   1      -0.722   3.381  -0.385  0.00  0.00    -0.281 N 
ATOM     15  C   UNL d   1      -0.251   2.183  -0.915  0.00  0.00     0.282 C 
ATOM     16  O   UNL d   1      -0.993   1.205  -0.994  0.00  0.00    -0.265 OA
ATOM     17  H   UNL d   1      -0.063   4.040   0.005  0.00  0.00     0.184 HD
BRANCH  15  18
ATOM     18  C   UNL d   1       1.143   2.203  -1.341  0.00  0.00     0.103 A 
ATOM     19  N   UNL d   1       1.903   1.099  -1.696  0.00  0.00    -0.357 N 
ATOM     20  C   UNL d   1       3.162   1.491  -2.089  0.00  0.00     0.091 A 
ATOM     21  C   UNL d   1       1.523  -0.299  -1.682  0.00  0.00     0.156 C 
ATOM     22  C   UNL d   1       3.238   2.857  -1.985  0.00  0.00     0.020 A 
ATOM     23  C   UNL d   1       1.985   3.305  -1.514  0.00  0.00     0.037 A 
ENDBRANCH  15  18
ENDBRANCH   1  14
TORSDOF 5
