REMARK  4 active torsions:
REMARK  status: ('A' for Active; 'I' for Inactive)
REMARK    1  A    between atoms: O_7  and  C_1 
REMARK    2  A    between atoms: C_15  and  C_2 
REMARK    3  A    between atoms: S_3  and  O_7 
REMARK    4  A    between atoms: C_9  and  S_3 
ROOT
ATOM      1  C   UNL d   1      -0.235  -1.887  -0.176  0.00  0.00     0.114 A 
ATOM      2  C   UNL d   1      -1.533  -1.534  -0.307  0.00  0.00     0.045 A 
ATOM      3  C   UNL d   1      -1.952  -0.092  -0.283  0.00  0.00     0.256 A 
ATOM      4  N   UNL d   1      -0.987   0.878  -0.107  0.00  0.00    -0.317 N 
ATOM      5  C   UNL d   1       0.810  -0.797  -0.089  0.00  0.00     0.026 A 
ATOM      6  C   UNL d   1       0.395   0.558  -0.008  0.00  0.00     0.050 A 
ATOM      7  O   UNL d   1      -3.147   0.193  -0.395  0.00  0.00    -0.267 OA
ATOM      8  C   UNL d   1      -1.493   2.243  -0.041  0.00  0.00     0.159 C 
ATOM      9  C   UNL d   1       2.203  -0.991  -0.107  0.00  0.00     0.016 A 
ATOM     10  C   UNL d   1       1.355   1.593   0.127  0.00  0.00     0.031 A 
ATOM     11  C   UNL d   1       3.146   0.039   0.005  0.00  0.00     0.001 A 
ATOM     12  C   UNL d   1       2.718   1.339   0.136  0.00  0.00     0.002 A 
ENDROOT
BRANCH   1  13
ATOM     13  O   UNL d   1       0.038  -3.273  -0.115  0.00  0.00    -0.227 OA
BRANCH  13  14
ATOM     14  S   UNL d   1       1.456  -4.041   0.093  0.00  0.00     0.303 S 
ATOM     15  O   UNL d   1       2.215  -3.898  -1.133  0.00  0.00    -0.193 OA
ATOM     16  O   UNL d   1       2.010  -3.665   1.378  0.00  0.00    -0.193 OA
BRANCH  14  17
ATOM     17  C   UNL d   1       1.129  -5.793   0.231  0.00  0.00     0.086 A 
ATOM     18  C   UNL d   1       1.770  -6.656  -0.670  0.00  0.00     0.026 A 
ATOM     19  C   UNL d   1       1.800  -8.027  -0.423  0.00  0.00     0.008 A 
ATOM     20  C   UNL d   1       1.187  -8.551   0.719  0.00  0.00    -0.062 A 
ATOM     21  C   UNL d   1       0.523  -7.684   1.602  0.00  0.00     0.008 A 
ATOM     22  C   UNL d   1       1.333 -10.014   1.024  0.00  0.00     0.048 C 
ATOM     23  C   UNL d   1       0.494  -6.304   1.364  0.00  0.00     0.026 A 
ENDBRANCH  14  17
ENDBRANCH  13  14
ENDBRANCH   1  13
BRANCH   2  24
ATOM     24  C   UNL d   1      -2.760  -2.425  -0.479  0.00  0.00     0.043 C 
ATOM     25  C   UNL d   1      -2.640  -3.941  -0.485  0.00  0.00     0.010 C 
ENDBRANCH   2  24
TORSDOF 4
