REMARK  5 active torsions:
REMARK  status: ('A' for Active; 'I' for Inactive)
REMARK    1  A    between atoms: N_2  and  S_1 
REMARK    2  A    between atoms: C_3  and  S_1 
REMARK    3  A    between atoms: C_9  and  N_2 
REMARK    4  A    between atoms: O_12  and  C_8 
REMARK    5  A    between atoms: C_18  and  O_12 
ROOT
ATOM      1  N   UNL d   1       0.130   3.003  -3.744  0.00  0.00    -0.344 N 
ATOM      2  HN  UNL d   1      -0.605   3.484  -4.263  1.00  0.00     0.167 HD
ATOM      3  C   UNL d   1       1.405   3.454  -3.739  0.00  0.00     0.148 A 
ATOM      4  C   UNL d   1       0.830   1.214  -2.277  0.00  0.00     0.058 A 
ATOM      5  C   UNL d   1      -0.123   1.888  -3.030  0.00  0.00     0.120 A 
ATOM      6  C   UNL d   1       2.419   2.871  -2.993  0.00  0.00     0.059 A 
ATOM      7  C   UNL d   1       2.120   1.732  -2.242  0.00  0.00     0.036 A 
ENDROOT
BRANCH   4   8
ATOM      8  N   UNL d   1       0.498   0.061  -1.505  0.00  0.00    -0.279 N 
ATOM      9  H   UNL d   1      -0.066  -0.657  -1.959  0.00  0.00     0.179 HD
BRANCH   8  10
ATOM     10  S   UNL d   1      -0.001   0.304   0.099  0.00  0.00     0.263 S 
ATOM     11  O   UNL d   1       1.046   1.015   0.802  0.00  0.00    -0.200 OA
ATOM     12  O   UNL d   1      -0.501  -0.971   0.566  0.00  0.00    -0.200 OA
BRANCH  10  13
ATOM     13  C   UNL d   1      -1.401   1.385  -0.080  0.00  0.00     0.079 A 
ATOM     14  C   UNL d   1      -2.554   0.901  -0.708  0.00  0.00     0.026 A 
ATOM     15  C   UNL d   1      -3.608   1.776  -0.974  0.00  0.00     0.008 A 
ATOM     16  C   UNL d   1      -3.527   3.122  -0.590  0.00  0.00    -0.062 A 
ATOM     17  C   UNL d   1      -2.384   3.578   0.084  0.00  0.00     0.008 A 
ATOM     18  C   UNL d   1      -4.650   4.061  -0.917  0.00  0.00     0.048 C 
ATOM     19  C   UNL d   1      -1.320   2.713   0.340  0.00  0.00     0.026 A 
ENDBRANCH  10  13
ENDBRANCH   8  10
ENDBRANCH   4   8
BRANCH   3  20
ATOM     20  O   UNL d   1       1.736   4.559  -4.510  0.00  0.00    -0.293 OA
BRANCH  20  21
ATOM     21  C   UNL d   1       1.000   4.779  -5.650  0.00  0.00     0.093 A 
ATOM     22  C   UNL d   1       0.757   6.094  -6.022  0.00  0.00     0.124 A 
ATOM     23  N   UNL d   1       0.068   6.455  -7.134  0.00  0.00    -0.373 N 
ATOM     24  C   UNL d   1      -0.401   5.450  -7.906  0.00  0.00     0.088 A 
ATOM     25  HN  UNL d   1      -0.088   7.433  -7.374  1.00  0.00     0.164 HD
ATOM     26  C   UNL d   1      -0.193   4.108  -7.632  0.00  0.00     0.020 A 
ATOM     27  C   UNL d   1       0.537   3.772  -6.496  0.00  0.00     0.040 A 
ENDBRANCH  20  21
ENDBRANCH   3  20
TORSDOF 5
