REMARK  3 active torsions:
REMARK  status: ('A' for Active; 'I' for Inactive)
REMARK    1  A    between atoms: C_4  and  C_1 
REMARK       I    between atoms: N_8  and  C_4 
REMARK    2  A    between atoms: N_11  and  N_8 
REMARK    3  A    between atoms: C_14  and  N_11 
ROOT
ATOM      1  C   UNL d   1      -0.128   2.508  -0.277  0.00  0.00     0.270 C 
ATOM      2  N   UNL d   1      -1.181   3.420  -0.289  0.00  0.00    -0.282 N 
ATOM      3  O   UNL d   1      -0.338   1.319  -0.024  0.00  0.00    -0.266 OA
ATOM      4  H   UNL d   1      -0.996   4.400  -0.119  0.00  0.00     0.184 HD
ENDROOT
BRANCH   2   5
ATOM      5  N   UNL d   1      -2.375   2.955   0.322  0.00  0.00    -0.203 NA
ATOM      6  H   UNL d   1      -2.300   1.954   0.560  0.00  0.00     0.153 HD
BRANCH   5   7
ATOM      7  C   UNL d   1      -3.587   3.198  -0.371  0.00  0.00     0.029 A 
ATOM      8  C   UNL d   1      -4.762   2.641   0.161  0.00  0.00     0.049 A 
ATOM      9  C   UNL d   1      -6.015   2.902  -0.410  0.00  0.00     0.041 A 
ATOM     10 CL   UNL d   1      -7.403   2.182   0.326  0.00  0.00    -0.084 Cl
ATOM     11  C   UNL d   1      -6.128   3.734  -1.529  0.00  0.00    -0.040 A 
ATOM     12  C   UNL d   1      -4.960   4.304  -2.055  0.00  0.00     0.010 A 
ATOM     13  C   UNL d   1      -7.458   4.038  -2.163  0.00  0.00     0.050 C 
ATOM     14  C   UNL d   1      -3.707   4.049  -1.472  0.00  0.00     0.026 A 
ENDBRANCH   5   7
ENDBRANCH   2   5
BRANCH   1  15
ATOM     15  C   UNL d   1       1.213   3.014  -0.524  0.00  0.00     0.088 A 
ATOM     16  C   UNL d   1       2.350   2.230  -0.405  0.00  0.00     0.090 A 
ATOM     17  O   UNL d   1       3.452   2.960  -0.701  0.00  0.00    -0.242 OA
ATOM     18  C   UNL d   1       2.593   0.821  -0.030  0.00  0.00     0.080 C 
ATOM     19  N   UNL d   1       3.079   4.243  -1.020  0.00  0.00    -0.265 N 
ATOM     20  C   UNL d   1       1.743   4.279  -0.917  0.00  0.00     0.047 A 
ATOM     21  HN  UNL d   1       3.694   5.013  -1.282  1.00  0.00     0.194 HD
ATOM     22  C   UNL d   1       1.067   5.564  -1.215  0.00  0.00     0.071 C 
ENDBRANCH   1  15
TORSDOF 3
