REMARK  6 active torsions:
REMARK  status: ('A' for Active; 'I' for Inactive)
REMARK    1  A    between atoms: N_2  and  C_1 
REMARK    2  A    between atoms: C_3  and  C_1 
REMARK    3  A    between atoms: C_4  and  C_1 
REMARK    4  A    between atoms: N_6  and  C_1 
REMARK       I    between atoms: C_5  and  N_2 
REMARK    5  A    between atoms: C_9  and  C_5 
REMARK    6  A    between atoms: C_8  and  N_6 
ROOT
ATOM      1  C   UNL d   1       0.831  -0.033   0.031  0.00  0.00     0.306 C 
ENDROOT
BRANCH   1   2
ATOM      2  N   UNL d   1       0.509  -1.462  -0.242  0.00  0.00    -0.315 N 
ATOM      3  C   UNL d   1       0.916  -2.151  -1.355  0.00  0.00     0.254 C 
ATOM      4  O   UNL d   1       1.606  -1.638  -2.223  0.00  0.00    -0.268 OA
ATOM      5  H   UNL d   1      -0.142  -1.888   0.402  0.00  0.00     0.165 HD
BRANCH   3   6
ATOM      6  C   UNL d   1       0.404  -3.559  -1.496  0.00  0.00     0.032 A 
ATOM      7  C   UNL d   1      -0.124  -4.294  -0.431  0.00  0.00     0.017 A 
ATOM      8  C   UNL d   1      -0.627  -5.590  -0.643  0.00  0.00     0.001 A 
ATOM      9  C   UNL d   1      -0.580  -6.158  -1.913  0.00  0.00     0.000 A 
ATOM     10  C   UNL d   1      -0.027  -5.447  -2.977  0.00  0.00     0.001 A 
ATOM     11  C   UNL d   1       0.466  -4.152  -2.768  0.00  0.00     0.017 A 
ENDBRANCH   3   6
ENDBRANCH   1   2
BRANCH   1  12
ATOM     12  C   UNL d   1      -0.111   0.509   1.150  0.00  0.00     0.441 C 
ATOM     13  F   UNL d   1      -0.468  -0.505   1.995  0.00  0.00    -0.166 F 
ATOM     14  F   UNL d   1       0.460   1.466   1.914  0.00  0.00    -0.166 F 
ATOM     15  F   UNL d   1      -1.282   0.998   0.680  0.00  0.00    -0.166 F 
ENDBRANCH   1  12
BRANCH   1  16
ATOM     16  C   UNL d   1       0.563   0.937  -1.174  0.00  0.00     0.441 C 
ATOM     17  F   UNL d   1      -0.410   0.480  -1.999  0.00  0.00    -0.166 F 
ATOM     18  F   UNL d   1       0.196   2.181  -0.782  0.00  0.00    -0.166 F 
ATOM     19  F   UNL d   1       1.683   1.114  -1.925  0.00  0.00    -0.166 F 
ENDBRANCH   1  16
BRANCH   1  20
ATOM     20  N   UNL d   1       2.282   0.026   0.407  0.00  0.00    -0.349 N 
ATOM     21  H   UNL d   1       2.850   0.464  -0.317  0.00  0.00     0.162 HD
BRANCH  20  22
ATOM     22  C   UNL d   1       2.976  -0.586   1.415  0.00  0.00     0.030 A 
ATOM     23  C   UNL d   1       2.425  -1.482   2.329  0.00  0.00     0.036 A 
ATOM     24  C   UNL d   1       3.184  -2.044   3.367  0.00  0.00    -0.060 A 
ATOM     25  C   UNL d   1       2.567  -3.025   4.319  0.00  0.00     0.048 C 
ATOM     26  C   UNL d   1       4.521  -1.670   3.517  0.00  0.00     0.007 A 
ATOM     27  C   UNL d   1       5.092  -0.762   2.636  0.00  0.00     0.003 A 
ATOM     28  C   UNL d   1       4.321  -0.227   1.596  0.00  0.00     0.029 A 
ENDBRANCH  20  22
ENDBRANCH   1  20
TORSDOF 6
