REMARK  6 active torsions:
REMARK  status: ('A' for Active; 'I' for Inactive)
REMARK    1  A    between atoms: C_2  and  S_1 
REMARK    2  A    between atoms: C_3  and  S_1 
REMARK    3  A    between atoms: C_4  and  C_9 
REMARK    4  A    between atoms: C_5  and  C_8 
REMARK    5  A    between atoms: N_16  and  N_6 
REMARK    6  A    between atoms: C_18  and  N_16 
ROOT
ATOM      1  C   UNL d   1       1.117   1.652  -0.569  0.00  0.00     0.229 C 
ATOM      2  N   UNL d   1       0.384   2.107  -1.546  0.00  0.00    -0.281 N 
ATOM      3  HN  UNL d   1       0.493   3.072  -1.857  1.00  0.00     0.188 HD
ATOM      4  C   UNL d   1       0.973   0.293  -0.140  0.00  0.00     0.132 C 
ATOM      5  N   UNL d   1       0.794  -0.814   0.172  0.00  0.00    -0.189 NA
ENDROOT
BRANCH   1   6
ATOM      6  S   UNL d   1       2.304   2.598   0.281  0.00  0.00     0.240 S 
ATOM      7  O   UNL d   1       3.599   2.018  -0.027  0.00  0.00    -0.214 OA
ATOM      8  O   UNL d   1       1.843   2.751   1.647  0.00  0.00    -0.214 OA
BRANCH   6   9
ATOM      9  C   UNL d   1       2.376   4.237  -0.396  0.00  0.00     0.106 A 
ATOM     10  S   UNL d   1       0.950   5.179  -0.310  0.00  0.00    -0.090 SA
ATOM     11  C   UNL d   1       1.730   6.541  -0.994  0.00  0.00     0.051 A 
ATOM     12  C   UNL d   1       3.053   6.290  -1.280  0.00  0.00     0.009 A 
ATOM     13  C   UNL d   1       3.424   4.957  -0.941  0.00  0.00     0.032 A 
ENDBRANCH   6   9
ENDBRANCH   1   6
BRANCH   2  14
ATOM     14  N   UNL d   1      -0.535   1.290  -2.156  0.00  0.00    -0.299 N 
ATOM     15  H   UNL d   1      -0.945   0.488  -1.671  0.00  0.00     0.187 HD
BRANCH  14  16
ATOM     16  C   UNL d   1      -1.410   1.875  -3.099  0.00  0.00     0.049 A 
ATOM     17  C   UNL d   1      -1.181   3.151  -3.626  0.00  0.00     0.047 A 
ATOM     18  C   UNL d   1      -2.027   3.710  -4.597  0.00  0.00     0.050 A 
ATOM     19  C   UNL d   1      -3.115   2.959  -5.063  0.00  0.00     0.032 A 
ATOM     20  C   UNL d   1      -3.359   1.669  -4.570  0.00  0.00     0.050 A 
ATOM     21  C   UNL d   1      -2.490   1.134  -3.600  0.00  0.00     0.047 A 
BRANCH  18  22
ATOM     22  C   UNL d   1      -1.754   5.107  -5.096  0.00  0.00     0.417 C 
ATOM     23  F   UNL d   1      -2.606   5.508  -6.080  0.00  0.00    -0.166 F 
ATOM     24  F   UNL d   1      -1.861   6.038  -4.107  0.00  0.00    -0.166 F 
ATOM     25  F   UNL d   1      -0.500   5.246  -5.606  0.00  0.00    -0.166 F 
ENDBRANCH  18  22
BRANCH  20  26
ATOM     26  C   UNL d   1      -4.542   0.861  -5.052  0.00  0.00     0.417 C 
ATOM     27  F   UNL d   1      -5.306   1.513  -5.971  0.00  0.00    -0.166 F 
ATOM     28  F   UNL d   1      -4.173  -0.311  -5.635  0.00  0.00    -0.166 F 
ATOM     29  F   UNL d   1      -5.385   0.527  -4.036  0.00  0.00    -0.166 F 
ENDBRANCH  20  26
ENDBRANCH  14  16
ENDBRANCH   2  14
TORSDOF 6
