REMARK  1 active torsions:
REMARK  status: ('A' for Active; 'I' for Inactive)
REMARK    1  A    between atoms: N_7  and  C_1 
ROOT
ATOM      1  C   UNL d   1      -0.233  -1.288  -0.008  0.00  0.00     0.171 A 
ATOM      2  C   UNL d   1       1.054  -0.772  -0.011  0.00  0.00     0.151 A 
ATOM      3  N   UNL d   1      -0.400   0.986   0.003  0.00  0.00    -0.299 N 
ATOM      4  HN  UNL d   1      -0.765   1.938   0.010  1.00  0.00     0.187 HD
ATOM      5  C   UNL d   1      -1.095  -0.160  -0.002  0.00  0.00     0.059 A 
ATOM      6  N   UNL d   1       0.892   0.595  -0.005  0.00  0.00    -0.279 N 
ATOM      7  N   UNL d   1       2.263  -1.381  -0.021  0.00  0.00    -0.382 N 
ATOM      8  C   UNL d   1      -2.580  -0.115   0.001  0.00  0.00     0.072 C 
ATOM      9  C   UNL d   1       1.907   1.622  -0.011  0.00  0.00     0.179 C 
ATOM     10  H   UNL d   1       2.325  -2.402   0.007  0.00  0.00     0.157 HD
ATOM     11  H   UNL d   1       3.161  -0.913   0.043  0.00  0.00     0.157 HD
ENDROOT
BRANCH   1  12
ATOM     12  N   UNL d   1      -0.596  -2.677  -0.011  0.00  0.00    -0.110 N 
ATOM     13  O   UNL d   1       0.321  -3.511  -0.008  0.00  0.00    -0.532 OA
ATOM     14  O   UNL d   1      -1.804  -2.947  -0.013  0.00  0.00    -0.532 OA
ENDBRANCH   1  12
TORSDOF 1
