REMARK  6 active torsions:
REMARK  status: ('A' for Active; 'I' for Inactive)
REMARK    1  A    between atoms: C_4  and  C_1 
REMARK    2  A    between atoms: N_3  and  C_2 
REMARK       I    between atoms: N_6  and  C_4 
REMARK    3  A    between atoms: C_8  and  N_6 
REMARK    4  A    between atoms: N_13  and  C_8 
REMARK    5  A    between atoms: C_15  and  N_13 
REMARK    6  A    between atoms: C_16  and  C_15 
ROOT
ATOM      1  C   UNL d   1       2.655  -1.720   0.404  0.00  0.00     0.258 C 
ATOM      2  N   UNL d   1       2.195  -2.965  -0.014  0.00  0.00    -0.300 N 
ATOM      3  O   UNL d   1       2.346  -1.173   1.456  0.00  0.00    -0.267 OA
ATOM      4  H   UNL d   1       2.674  -3.373  -0.798  0.00  0.00     0.171 HD
ENDROOT
BRANCH   1   5
ATOM      5  C   UNL d   1       3.714  -1.151  -0.441  0.00  0.00     0.041 A 
ATOM      6  C   UNL d   1       3.892  -1.258  -1.866  0.00  0.00     0.061 A 
ATOM      7  C   UNL d   1       5.011  -0.573  -2.303  0.00  0.00     0.144 A 
ATOM      8  S   UNL d   1       5.852   0.184  -1.040  0.00  0.00    -0.077 SA
ATOM      9  C   UNL d   1       4.707  -0.352   0.107  0.00  0.00     0.069 A 
BRANCH   7  10
ATOM     10  N   UNL d   1       5.477  -0.453  -3.661  0.00  0.00    -0.108 N 
ATOM     11  O   UNL d   1       4.734  -0.925  -4.533  0.00  0.00    -0.531 OA
ATOM     12  O   UNL d   1       6.571   0.087  -3.864  0.00  0.00    -0.531 OA
ENDBRANCH   7  10
ENDBRANCH   1   5
BRANCH   2  13
ATOM     13  C   UNL d   1       1.042  -3.657   0.371  0.00  0.00     0.174 C 
ATOM     14  S   UNL d   1      -0.209  -3.041   1.287  0.00  0.00    -0.041 SA
BRANCH  13  15
ATOM     15  N   UNL d   1       1.068  -4.939  -0.168  0.00  0.00    -0.367 N 
ATOM     16  H   UNL d   1       1.983  -5.340  -0.321  0.00  0.00     0.161 HD
BRANCH  15  17
ATOM     17  C   UNL d   1      -0.024  -5.915  -0.158  0.00  0.00     0.126 C 
BRANCH  17  18
ATOM     18  C   UNL d   1      -1.103  -5.614  -1.214  0.00  0.00    -0.005 C 
ATOM     19  C   UNL d   1      -0.507  -5.509  -2.620  0.00  0.00     0.011 C 
ATOM     20  C   UNL d   1      -2.186  -6.692  -1.185  0.00  0.00     0.011 C 
ENDBRANCH  17  18
ENDBRANCH  15  17
ENDBRANCH  13  15
ENDBRANCH   2  13
TORSDOF 6
