REMARK  5 active torsions:
REMARK  status: ('A' for Active; 'I' for Inactive)
REMARK    1  A    between atoms: C_9  and  C_3 
REMARK    2  A    between atoms: S_16  and  C_12 
REMARK    3  A    between atoms: C_13  and  C_21 
REMARK       I    between atoms: N_17  and  C_13 
REMARK    4  A    between atoms: C_21  and  S_16 
REMARK    5  A    between atoms: C_25  and  N_17 
ROOT
ATOM      1  C   UNL d   1      -3.805   0.541  -0.117  0.00  0.00     0.053 A 
ATOM      2  N   UNL d   1      -4.608  -0.248   0.632  0.00  0.00    -0.336 N 
ATOM      3  HN  UNL d   1      -4.227  -0.930   1.288  1.00  0.00     0.168 HD
ATOM      4  C   UNL d   1      -5.932  -0.091   0.469  0.00  0.00     0.145 A 
ATOM      5  N   UNL d   1      -6.513   0.793  -0.356  0.00  0.00    -0.347 N 
ATOM      6  HN  UNL d   1      -7.527   0.872  -0.433  1.00  0.00     0.167 HD
ATOM      7  C   UNL d   1      -4.316   1.474  -1.003  0.00  0.00     0.048 A 
ATOM      8  C   UNL d   1      -5.684   1.566  -1.072  0.00  0.00     0.092 A 
ENDROOT
BRANCH   1   9
ATOM      9  C   UNL d   1      -2.349   0.285   0.013  0.00  0.00     0.039 A 
ATOM     10  S   UNL d   1      -1.247   1.604  -0.258  0.00  0.00    -0.079 SA
ATOM     11  C   UNL d   1       0.058   0.597  -0.066  0.00  0.00     0.059 A 
ATOM     12  C   UNL d   1      -0.250  -0.674   0.247  0.00  0.00     0.003 A 
ATOM     13  S   UNL d   1       1.689   0.910  -0.205  0.00  0.00    -0.074 SA
ATOM     14  C   UNL d   1      -1.659  -0.908   0.328  0.00  0.00    -0.030 A 
ATOM     15  C   UNL d   1       0.901  -1.508   0.416  0.00  0.00    -0.025 A 
ATOM     16  C   UNL d   1      -2.385  -2.175   0.647  0.00  0.00     0.050 C 
ATOM     17  C   UNL d   1       1.002  -2.952   0.777  0.00  0.00     0.051 C 
ATOM     18  C   UNL d   1       2.027  -0.722   0.161  0.00  0.00     0.059 A 
ATOM     19 BR   UNL d   1       3.806  -1.345   0.198  0.00  0.00    -0.042 Br
ENDBRANCH   1   9
BRANCH   4  20
ATOM     20  S   UNL d   1      -7.014  -1.279   1.218  0.00  0.00    -0.085 SA
BRANCH  20  21
ATOM     21  C   UNL d   1      -7.119  -0.578   2.882  0.00  0.00     0.185 C 
BRANCH  21  22
ATOM     22  C   UNL d   1      -7.855   0.750   2.986  0.00  0.00     0.227 C 
ATOM     23  N   UNL d   1      -8.771   1.042   2.006  0.00  0.00    -0.357 N 
ATOM     24  H   UNL d   1      -8.856   0.407   1.218  0.00  0.00     0.162 HD
ATOM     25  O   UNL d   1      -7.678   1.482   3.962  0.00  0.00    -0.273 OA
BRANCH  23  26
ATOM     26  C   UNL d   1      -9.578   2.256   2.028  0.00  0.00     0.076 C 
ATOM     27  C   UNL d   1      -9.843   2.746   0.609  0.00  0.00     0.032 C 
ATOM     28  C   UNL d   1     -10.892   2.020   2.771  0.00  0.00     0.032 C 
ENDBRANCH  23  26
ENDBRANCH  21  22
ENDBRANCH  20  21
ENDBRANCH   4  20
TORSDOF 5
