REMARK  4 active torsions:
REMARK  status: ('A' for Active; 'I' for Inactive)
REMARK    1  A    between atoms: C_2  and  N_1 
REMARK    2  A    between atoms: O_8  and  C_7 
REMARK    3  A    between atoms: C_12  and  O_8 
REMARK    4  A    between atoms: C_13  and  C_12 
ROOT
ATOM      1  C   UNL d   1       1.641  -2.116   1.132  0.00  0.00     0.104 A 
ATOM      2  C   UNL d   1       0.767  -2.929   0.402  0.00  0.00     0.062 A 
ATOM      3  C   UNL d   1      -0.305  -3.542   1.057  0.00  0.00     0.069 A 
ATOM      4  C   UNL d   1      -0.506  -3.361   2.437  0.00  0.00     0.091 A 
ATOM      5  C   UNL d   1       1.430  -1.891   2.497  0.00  0.00     0.039 A 
ATOM      6  C   UNL d   1       0.351  -2.504   3.140  0.00  0.00     0.041 A 
ATOM      7 CL   UNL d   1      -1.356  -4.548   0.123  0.00  0.00    -0.081 Cl
ENDROOT
BRANCH   4   8
ATOM      8  O   UNL d   1      -1.549  -4.038   3.020  0.00  0.00    -0.345 OA
BRANCH   8   9
ATOM      9  C   UNL d   1      -1.456  -4.229   4.434  0.00  0.00     0.214 C 
BRANCH   9  10
ATOM     10  C   UNL d   1      -2.303  -5.382   4.923  0.00  0.00    -0.034 A 
ATOM     11  C   UNL d   1      -2.713  -6.424   4.082  0.00  0.00     0.009 A 
ATOM     12  C   UNL d   1      -3.405  -7.521   4.601  0.00  0.00     0.001 A 
ATOM     13  C   UNL d   1      -3.687  -7.592   5.964  0.00  0.00     0.000 A 
ATOM     14  C   UNL d   1      -3.285  -6.563   6.811  0.00  0.00     0.001 A 
ATOM     15  C   UNL d   1      -2.597  -5.466   6.295  0.00  0.00     0.009 A 
ENDBRANCH   9  10
ENDBRANCH   8   9
ENDBRANCH   4   8
BRANCH   1  16
ATOM     16  N   UNL d   1       2.794  -1.497   0.468  0.00  0.00    -0.116 N 
ATOM     17  O   UNL d   1       2.932  -1.694  -0.747  0.00  0.00    -0.532 OA
ATOM     18  O   UNL d   1       3.562  -0.821   1.163  0.00  0.00    -0.532 OA
ENDBRANCH   1  16
TORSDOF 4
