REMARK  5 active torsions:
REMARK  status: ('A' for Active; 'I' for Inactive)
REMARK    1  A    between atoms: N_5  and  C_1 
REMARK    2  A    between atoms: N_13  and  C_4 
REMARK    3  A    between atoms: N_9  and  C_17 
REMARK    4  A    between atoms: C_19  and  N_13 
REMARK    5  A    between atoms: C_17  and  C_19 
ROOT
ATOM      1  N   UNL d   1       0.476  -2.460   0.048  0.00  0.00    -0.371 N 
ATOM      2  H   UNL d   1      -0.177  -3.250   0.057  0.00  0.00     0.161 HD
ENDROOT
BRANCH   1   3
ATOM      3  C   UNL d   1      -0.030  -1.191   0.038  0.00  0.00     0.155 A 
ATOM      4  C   UNL d   1      -1.363  -0.767   0.051  0.00  0.00     0.219 A 
ATOM      5  N   UNL d   1      -1.475   0.606   0.047  0.00  0.00    -0.330 N 
ATOM      6  C   UNL d   1      -0.239   1.034   0.025  0.00  0.00     0.186 A 
ATOM      7  HN  UNL d   1      -2.329   1.163   0.059  1.00  0.00     0.168 HD
ATOM      8  N   UNL d   1       0.676   0.003   0.010  0.00  0.00    -0.331 N 
ATOM      9  C   UNL d   1       2.085   0.311  -0.039  0.00  0.00     0.158 C 
BRANCH   4  10
ATOM     10  N   UNL d   1      -2.557  -1.585   0.074  0.00  0.00    -0.094 N 
ATOM     11  O   UNL d   1      -2.402  -2.819   0.079  0.00  0.00    -0.530 OA
ATOM     12  O   UNL d   1      -3.654  -1.008   0.085  0.00  0.00    -0.530 OA
ENDBRANCH   4  10
ENDBRANCH   1   3
BRANCH   1  13
ATOM     13  C   UNL d   1       1.886  -2.796   0.040  0.00  0.00     0.141 C 
BRANCH  13  14
ATOM     14  C   UNL d   1       2.194  -4.295   0.085  0.00  0.00     0.147 C 
BRANCH  14  15
ATOM     15  N   UNL d   1       3.623  -4.603  -0.004  0.00  0.00    -0.331 N 
ATOM     16  C   UNL d   1       4.686  -3.697  -0.020  0.00  0.00     0.318 C 
ATOM     17  N   UNL d   1       5.860  -4.430  -0.082  0.00  0.00    -0.341 N 
ATOM     18  O   UNL d   1       4.648  -2.478  -0.012  0.00  0.00    -0.247 OA
ATOM     19  C   UNL d   1       5.574  -5.808  -0.358  0.00  0.00     0.144 C 
ATOM     20  H   UNL d   1       6.720  -3.946  -0.308  0.00  0.00     0.164 HD
ATOM     21  C   UNL d   1       4.126  -5.957   0.092  0.00  0.00     0.147 C 
ENDBRANCH  14  15
ENDBRANCH  13  14
ENDBRANCH   1  13
TORSDOF 5
