REMARK  3 active torsions:
REMARK  status: ('A' for Active; 'I' for Inactive)
REMARK    1  A    between atoms: C_4  and  C_1 
REMARK       I    between atoms: N_2  and  C_4 
REMARK    2  A    between atoms: N_10  and  C_5 
REMARK    3  A    between atoms: N_11  and  C_7 
ROOT
ATOM      1  C   UNL d   1       0.962   0.029   0.017  0.00  0.00     0.127 C 
ATOM      2  C   UNL d   1       0.200   1.080  -0.352  0.00  0.00     0.113 C 
ATOM      3  C   UNL d   1       0.418  -1.202   0.460  0.00  0.00     0.106 C 
ATOM      4  N   UNL d   1      -0.062  -2.197   0.826  0.00  0.00    -0.191 NA
ENDROOT
BRANCH   1   5
ATOM      5  C   UNL d   1       2.450   0.208   0.002  0.00  0.00     0.268 C 
ATOM      6  N   UNL d   1       3.130  -0.914   0.415  0.00  0.00    -0.319 N 
ATOM      7  C   UNL d   1       4.418  -0.855   0.368  0.00  0.00     0.180 C 
ATOM      8  HN  UNL d   1       2.642  -1.748   0.742  1.00  0.00     0.169 HD
ATOM      9  O   UNL d   1       2.971   1.260  -0.356  0.00  0.00    -0.266 OA
BRANCH   7  10
ATOM     10  N   UNL d   1       5.297  -1.851   0.725  0.00  0.00    -0.386 N 
ATOM     11  C   UNL d   1       6.737  -1.664   0.655  0.00  0.00     0.149 C 
ATOM     12  C   UNL d   1       4.850  -3.132   1.250  0.00  0.00     0.149 C 
ENDBRANCH   7  10
ENDBRANCH   1   5
BRANCH   2  13
ATOM     13  N   UNL d   1      -1.176   1.265  -0.493  0.00  0.00    -0.397 N 
ATOM     14  C   UNL d   1      -2.150   0.188  -0.680  0.00  0.00     0.148 C 
ATOM     15  C   UNL d   1      -1.779   2.596  -0.377  0.00  0.00     0.148 C 
ENDBRANCH   2  13
TORSDOF 3
