REMARK  1 active torsions:
REMARK  status: ('A' for Active; 'I' for Inactive)
REMARK    1  A    between atoms: O_20  and  C_18 
ROOT
ATOM      1  N   UNL d   1       1.451   1.375   0.069  0.00  0.00    -0.289 N 
ATOM      2  N   UNL d   1       2.691  -0.620  -0.098  0.00  0.00    -0.270 N 
ATOM      3  C   UNL d   1       2.688   0.767  -0.011  0.00  0.00     0.332 A 
ATOM      4  C   UNL d   1       0.245   0.652   0.029  0.00  0.00     0.127 A 
ATOM      5  C   UNL d   1       0.265  -0.725  -0.049  0.00  0.00     0.077 A 
ATOM      6  C   UNL d   1       1.554  -1.417  -0.054  0.00  0.00     0.265 A 
ATOM      7  N   UNL d   1      -0.916   1.351   0.070  0.00  0.00    -0.341 N 
ATOM      8  HN  UNL d   1      -0.904   2.369   0.133  1.00  0.00     0.167 HD
ATOM      9  C   UNL d   1      -0.945  -1.423  -0.107  0.00  0.00     0.034 A 
ATOM     10  C   UNL d   1      -2.154  -0.714  -0.070  0.00  0.00    -0.006 A 
ATOM     11  C   UNL d   1      -2.081   0.688   0.028  0.00  0.00     0.044 A 
ATOM     12  O   UNL d   1       3.733   1.420   0.003  0.00  0.00    -0.246 OA
ATOM     13  O   UNL d   1       1.576  -2.645  -0.010  0.00  0.00    -0.267 OA
ATOM     14  C   UNL d   1      -3.412  -1.346  -0.117  0.00  0.00     0.050 A 
ATOM     15  C   UNL d   1       1.353   2.824   0.180  0.00  0.00     0.163 C 
ATOM     16  C   UNL d   1       3.970  -1.307  -0.141  0.00  0.00     0.164 C 
ATOM     17  C   UNL d   1      -3.259   1.411   0.085  0.00  0.00     0.033 A 
ATOM     18  C   UNL d   1      -4.592  -0.599  -0.052  0.00  0.00     0.069 A 
ATOM     19  C   UNL d   1      -4.509   0.786   0.050  0.00  0.00     0.039 A 
ENDROOT
BRANCH  18  20
ATOM     20  O   UNL d   1      -5.748  -1.327  -0.090  0.00  0.00    -0.356 OA
ATOM     21  C   UNL d   1      -6.967  -0.593  -0.002  0.00  0.00     0.210 C 
ENDBRANCH  18  20
TORSDOF 1
