REMARK  7 active torsions:
REMARK  status: ('A' for Active; 'I' for Inactive)
REMARK    1  A    between atoms: N_2  and  C_1 
REMARK    2  A    between atoms: N_5  and  C_1 
REMARK       I    between atoms: C_3  and  N_2 
REMARK    3  A    between atoms: O_10  and  C_3 
REMARK    4  A    between atoms: C_4  and  O_6 
REMARK    5  A    between atoms: C_7  and  N_5 
REMARK    6  A    between atoms: O_6  and  C_8 
REMARK    7  A    between atoms: C_15  and  O_10 
ROOT
ATOM      1  C   UNL d   1       0.709  -1.205  -0.017  0.00  0.00     0.180 C 
ATOM      2  S   UNL d   1       1.458  -2.549  -0.661  0.00  0.00    -0.040 SA
ENDROOT
BRANCH   1   3
ATOM      3  N   UNL d   1       0.545  -0.911   1.325  0.00  0.00    -0.279 N 
ATOM      4  C   UNL d   1       1.158  -1.440   2.444  0.00  0.00     0.372 C 
ATOM      5  O   UNL d   1       2.163  -2.131   2.456  0.00  0.00    -0.238 OA
ATOM      6  H   UNL d   1      -0.232  -0.308   1.547  0.00  0.00     0.173 HD
BRANCH   4   7
ATOM      7  O   UNL d   1       0.489  -0.967   3.581  0.00  0.00    -0.261 OA
BRANCH   7   8
ATOM      8  C   UNL d   1       0.844  -1.245   4.926  0.00  0.00     0.081 A 
ATOM      9  C   UNL d   1       2.071  -1.771   5.322  0.00  0.00     0.037 A 
ATOM     10  C   UNL d   1       2.310  -2.024   6.675  0.00  0.00     0.003 A 
ATOM     11  C   UNL d   1       1.333  -1.737   7.628  0.00  0.00     0.000 A 
ATOM     12  C   UNL d   1       0.116  -1.183   7.231  0.00  0.00     0.003 A 
ATOM     13  C   UNL d   1      -0.129  -0.933   5.879  0.00  0.00     0.037 A 
ENDBRANCH   7   8
ENDBRANCH   4   7
ENDBRANCH   1   3
BRANCH   1  14
ATOM     14  N   UNL d   1       0.119  -0.316  -0.893  0.00  0.00    -0.331 N 
ATOM     15  H   UNL d   1       0.004  -0.671  -1.839  0.00  0.00     0.168 HD
BRANCH  14  16
ATOM     16  C   UNL d   1      -0.201   1.044  -0.671  0.00  0.00     0.068 A 
ATOM     17  C   UNL d   1      -1.193   1.688  -1.424  0.00  0.00     0.105 A 
ATOM     18  C   UNL d   1      -1.441   3.055  -1.218  0.00  0.00     0.039 A 
ATOM     19  C   UNL d   1      -0.724   3.779  -0.270  0.00  0.00     0.003 A 
ATOM     20  C   UNL d   1       0.281   3.156   0.464  0.00  0.00     0.002 A 
ATOM     21  C   UNL d   1       0.542   1.796   0.254  0.00  0.00     0.032 A 
BRANCH  17  22
ATOM     22  O   UNL d   1      -1.931   1.138  -2.429  0.00  0.00    -0.253 OA
BRANCH  22  23
ATOM     23  C   UNL d   1      -2.604  -0.086  -2.170  0.00  0.00     0.530 C 
ATOM     24  F   UNL d   1      -2.566  -0.469  -0.877  0.00  0.00    -0.144 F 
ATOM     25  F   UNL d   1      -3.899   0.049  -2.528  0.00  0.00    -0.144 F 
ATOM     26  F   UNL d   1      -2.049  -1.052  -2.933  0.00  0.00    -0.144 F 
ENDBRANCH  22  23
ENDBRANCH  17  22
ENDBRANCH  14  16
ENDBRANCH   1  14
TORSDOF 7
