REMARK  3 active torsions:
REMARK  status: ('A' for Active; 'I' for Inactive)
REMARK    1  A    between atoms: C_4  and  C_1 
REMARK       I    between atoms: N_8  and  C_4 
REMARK    2  A    between atoms: N_9  and  N_8 
REMARK    3  A    between atoms: C_10  and  N_9 
ROOT
ATOM      1  C   UNL d   1      -0.089   2.552   0.066  0.00  0.00     0.274 C 
ATOM      2  N   UNL d   1      -1.138   3.426   0.318  0.00  0.00    -0.265 N 
ATOM      3  O   UNL d   1      -0.281   1.370  -0.214  0.00  0.00    -0.266 OA
ATOM      4  H   UNL d   1      -1.035   4.427   0.409  0.00  0.00     0.190 HD
ENDROOT
BRANCH   2   5
ATOM      5  N   UNL d   1      -2.440   2.945   0.092  0.00  0.00    -0.297 N 
ATOM      6  H   UNL d   1      -2.689   2.872  -0.891  0.00  0.00     0.187 HD
BRANCH   5   7
ATOM      7  C   UNL d   1      -3.457   3.362   0.978  0.00  0.00     0.054 A 
ATOM      8  C   UNL d   1      -4.820   3.273   0.612  0.00  0.00    -0.032 A 
ATOM      9  C   UNL d   1      -5.819   3.661   1.531  0.00  0.00     0.033 A 
ATOM     10  C   UNL d   1      -5.300   2.809  -0.740  0.00  0.00     0.050 C 
ATOM     11  C   UNL d   1      -5.481   4.071   2.817  0.00  0.00     0.034 A 
ATOM     12  C   UNL d   1      -4.152   4.097   3.210  0.00  0.00     0.026 A 
ATOM     13 CL   UNL d   1      -6.717   4.522   3.925  0.00  0.00    -0.084 Cl
ATOM     14  C   UNL d   1      -3.152   3.739   2.300  0.00  0.00     0.033 A 
ENDBRANCH   5   7
ENDBRANCH   2   5
BRANCH   1  15
ATOM     15  C   UNL d   1       1.265   3.094   0.120  0.00  0.00     0.089 A 
ATOM     16  C   UNL d   1       2.395   2.304  -0.016  0.00  0.00     0.090 A 
ATOM     17  O   UNL d   1       3.511   3.068   0.060  0.00  0.00    -0.242 OA
ATOM     18  C   UNL d   1       2.621   0.856  -0.217  0.00  0.00     0.080 C 
ATOM     19  N   UNL d   1       3.154   4.381   0.248  0.00  0.00    -0.265 N 
ATOM     20  C   UNL d   1       1.814   4.403   0.284  0.00  0.00     0.047 A 
ATOM     21  HN  UNL d   1       3.782   5.179   0.342  1.00  0.00     0.194 HD
ATOM     22  C   UNL d   1       1.158   5.718   0.466  0.00  0.00     0.071 C 
ENDBRANCH   1  15
TORSDOF 3
