REMARK  5 active torsions:
REMARK  status: ('A' for Active; 'I' for Inactive)
REMARK       I    between atoms: N_3  and  C_1 
REMARK    1  A    between atoms: C_8  and  C_1 
REMARK    2  A    between atoms: C_2  and  C_7 
REMARK       I    between atoms: N_5  and  C_2 
REMARK    3  A    between atoms: C_10  and  N_3 
REMARK    4  A    between atoms: C_7  and  N_4 
REMARK    5  A    between atoms: C_15  and  N_5 
ROOT
ATOM      1  N   UNL d   1       1.141  -5.185  -0.654  0.00  0.00     0.097 N 
ATOM      2  C   UNL d   1       0.860  -2.381  -0.452  0.00  0.00     0.088 C 
ATOM      3  C   UNL d   1       0.994  -3.015  -1.849  0.00  0.00     0.055 C 
ATOM      4  C   UNL d   1       0.251  -3.248   0.656  0.00  0.00     0.055 C 
ATOM      5  C   UNL d   1       0.105  -4.721   0.308  0.00  0.00     0.275 C 
ATOM      6  C   UNL d   1       0.786  -4.534  -1.929  0.00  0.00     0.275 C 
ENDROOT
BRANCH   1   7
ATOM      7  C   UNL d   1       1.011  -6.671  -0.716  0.00  0.00     0.374 C 
BRANCH   7   8
ATOM      8  C   UNL d   1       2.056  -7.454  -1.517  0.00  0.00     0.250 C 
ATOM      9  N   UNL d   1       3.115  -6.743  -2.040  0.00  0.00    -0.326 N 
ATOM     10  H   UNL d   1       3.163  -5.771  -1.751  0.00  0.00     0.169 HD
ATOM     11  O   UNL d   1       1.900  -8.675  -1.624  0.00  0.00    -0.271 OA
BRANCH   9  12
ATOM     12  C   UNL d   1       4.120  -7.234  -2.910  0.00  0.00     0.034 A 
ATOM     13  C   UNL d   1       4.160  -8.549  -3.389  0.00  0.00     0.029 A 
ATOM     14  C   UNL d   1       5.172  -8.973  -4.258  0.00  0.00     0.002 A 
ATOM     15  C   UNL d   1       6.158  -8.084  -4.667  0.00  0.00     0.000 A 
ATOM     16  C   UNL d   1       6.130  -6.768  -4.208  0.00  0.00     0.002 A 
ATOM     17  C   UNL d   1       5.118  -6.346  -3.336  0.00  0.00     0.029 A 
ENDBRANCH   9  12
ENDBRANCH   7   8
ENDBRANCH   1   7
BRANCH   2  18
ATOM     18  N   UNL d   1       0.300  -1.023  -0.489  0.00  0.00    -0.352 N 
ATOM     19  C   UNL d   1      -1.024  -0.742  -0.762  0.00  0.00     0.252 C 
ATOM     20  O   UNL d   1      -1.858  -1.608  -1.006  0.00  0.00    -0.268 OA
ATOM     21  H   UNL d   1       0.960  -0.259  -0.476  0.00  0.00     0.163 HD
BRANCH  19  22
ATOM     22  C   UNL d   1      -1.417   0.705  -0.781  0.00  0.00     0.032 A 
ATOM     23  C   UNL d   1      -2.534   1.085  -1.538  0.00  0.00     0.017 A 
ATOM     24  C   UNL d   1      -2.942   2.420  -1.585  0.00  0.00     0.001 A 
ATOM     25  C   UNL d   1      -2.244   3.389  -0.867  0.00  0.00     0.000 A 
ATOM     26  C   UNL d   1      -1.142   3.022  -0.095  0.00  0.00     0.001 A 
ATOM     27  C   UNL d   1      -0.729   1.684  -0.047  0.00  0.00     0.017 A 
ENDBRANCH  19  22
ENDBRANCH   2  18
TORSDOF 5
