REMARK  1 active torsions:
REMARK  status: ('A' for Active; 'I' for Inactive)
REMARK    1  A    between atoms: C_2  and  C_1 
REMARK       I    between atoms: N_3  and  C_1 
REMARK       I    between atoms: C_4  and  N_3 
ROOT
ATOM      1  C   UNL d   1       0.181   0.737   0.900  0.00  0.00     0.109 A 
ATOM      2  C   UNL d   1       0.539   2.078   1.055  0.00  0.00     0.135 A 
ATOM      3  C   UNL d   1      -0.906   0.261   1.638  0.00  0.00     0.135 A 
ATOM      4  F   UNL d   1       1.589   2.587   0.391  0.00  0.00    -0.205 F 
ATOM      5  F   UNL d   1      -1.284  -1.024   1.578  0.00  0.00    -0.205 F 
ATOM      6  C   UNL d   1      -1.259   2.439   2.626  0.00  0.00     0.006 A 
ATOM      7  C   UNL d   1      -0.171   2.928   1.906  0.00  0.00     0.043 A 
ATOM      8  C   UNL d   1      -1.622   1.100   2.495  0.00  0.00     0.043 A 
ENDROOT
BRANCH   1   9
ATOM      9  C   UNL d   1       0.895  -0.169  -0.037  0.00  0.00     0.264 C 
ATOM     10  N   UNL d   1       2.198   0.179  -0.360  0.00  0.00    -0.294 N 
ATOM     11  C   UNL d   1       3.032  -0.531  -1.207  0.00  0.00     0.220 C 
ATOM     12  H   UNL d   1       2.568   1.031   0.037  0.00  0.00     0.172 HD
ATOM     13  O   UNL d   1       2.746  -1.548  -1.829  0.00  0.00    -0.274 OA
ATOM     14  C   UNL d   1       4.421   0.050  -1.291  0.00  0.00     0.117 C 
ATOM     15  O   UNL d   1       0.310  -1.154  -0.467  0.00  0.00    -0.267 OA
ENDBRANCH   1   9
TORSDOF 1
