REMARK  2 active torsions:
REMARK  status: ('A' for Active; 'I' for Inactive)
REMARK    1  A    between atoms: N_4  and  C_1 
REMARK    2  A    between atoms: N_7  and  C_3 
ROOT
ATOM      1  C   UNL d   1       0.145   1.205  -0.433  0.00  0.00     0.162 A 
ATOM      2  S   UNL d   1      -0.617  -0.136  -1.148  0.00  0.00    -0.028 SA
ATOM      3  C   UNL d   1       0.207  -1.149  -0.048  0.00  0.00     0.157 A 
ATOM      4  N   UNL d   1       1.020  -0.559   0.805  0.00  0.00    -0.343 N 
ATOM      5  HN  UNL d   1       1.579  -1.031   1.516  1.00  0.00     0.167 HD
ATOM      6  C   UNL d   1       0.990   0.810   0.578  0.00  0.00     0.134 A 
ENDROOT
BRANCH   3   7
ATOM      7  N   UNL d   1      -0.007  -2.537  -0.076  0.00  0.00    -0.313 N 
ATOM      8  C   UNL d   1       0.568  -3.443   0.803  0.00  0.00     0.098 A 
ATOM      9  C   UNL d   1       0.139  -4.716   0.500  0.00  0.00     0.019 A 
ATOM     10  C   UNL d   1      -0.724  -4.610  -0.609  0.00  0.00     0.019 A 
ATOM     11  C   UNL d   1      -0.801  -3.275  -0.940  0.00  0.00     0.098 A 
ENDBRANCH   3   7
BRANCH   1  12
ATOM     12  N   UNL d   1      -0.111   2.539  -0.874  0.00  0.00    -0.107 N 
ATOM     13  O   UNL d   1       0.482   3.439  -0.266  0.00  0.00    -0.531 OA
ATOM     14  O   UNL d   1      -0.898   2.703  -1.814  0.00  0.00    -0.531 OA
ENDBRANCH   1  12
TORSDOF 2
