REMARK  5 active torsions:
REMARK  status: ('A' for Active; 'I' for Inactive)
REMARK    1  A    between atoms: S_5  and  C_2 
REMARK    2  A    between atoms: N_17  and  C_3 
REMARK    3  A    between atoms: C_13  and  S_5 
REMARK    4  A    between atoms: S_18  and  C_10 
REMARK    5  A    between atoms: C_16  and  C_12 
ROOT
ATOM      1  N   UNL d   1      -0.228  -0.657   0.044  0.00  0.00    -0.227 N 
ATOM      2  C   UNL d   1       2.150  -0.876   0.013  0.00  0.00     0.137 A 
ATOM      3  C   UNL d   1       0.929  -1.477   0.018  0.00  0.00     0.127 A 
ATOM      4  C   UNL d   1      -0.140   0.724   0.064  0.00  0.00     0.131 A 
ATOM      5  N   UNL d   1       1.054   1.364   0.102  0.00  0.00    -0.334 N 
ATOM      6  HN  UNL d   1       1.109   2.382   0.143  1.00  0.00     0.168 HD
ATOM      7  N   UNL d   1      -1.524  -1.075   0.005  0.00  0.00    -0.294 N 
ATOM      8  HN  UNL d   1      -1.866  -2.036  -0.017  1.00  0.00     0.187 HD
ATOM      9  C   UNL d   1       2.128   0.629   0.083  0.00  0.00     0.096 A 
ATOM     10  C   UNL d   1      -1.427   1.195   0.045  0.00  0.00     0.077 A 
ATOM     11  C   UNL d   1      -2.255   0.049   0.003  0.00  0.00     0.037 A 
ENDROOT
BRANCH   2  12
ATOM     12  S   UNL d   1       3.558  -1.875  -0.111  0.00  0.00     0.212 S 
ATOM     13  O   UNL d   1       3.230  -3.118  -0.794  0.00  0.00    -0.217 OA
ATOM     14  O   UNL d   1       4.705  -1.139  -0.603  0.00  0.00    -0.217 OA
BRANCH  12  15
ATOM     15  C   UNL d   1       3.920  -2.331   1.584  0.00  0.00     0.064 A 
ATOM     16  C   UNL d   1       3.263  -3.424   2.170  0.00  0.00     0.025 A 
ATOM     17  C   UNL d   1       3.587  -3.813   3.473  0.00  0.00     0.025 A 
ATOM     18  C   UNL d   1       4.578  -3.129   4.176  0.00  0.00     0.034 A 
ATOM     19  C   UNL d   1       5.259  -2.066   3.581  0.00  0.00     0.025 A 
ATOM     20 CL   UNL d   1       4.972  -3.604   5.782  0.00  0.00    -0.084 Cl
ATOM     21  C   UNL d   1       4.936  -1.669   2.280  0.00  0.00     0.025 A 
ENDBRANCH  12  15
ENDBRANCH   2  12
BRANCH   3  22
ATOM     22  N   UNL d   1       0.666  -2.851  -0.022  0.00  0.00    -0.286 NA
ATOM     23  H   UNL d   1       1.320  -3.376  -0.616  0.00  0.00     0.125 HD
ATOM     24  H   UNL d   1      -0.312  -3.030  -0.285  0.00  0.00     0.125 HD
ENDBRANCH   3  22
BRANCH   9  25
ATOM     25  S   UNL d   1       3.639   1.522   0.195  0.00  0.00    -0.115 SA
ATOM     26  C   UNL d   1       3.051   3.240   0.188  0.00  0.00     0.097 C 
ENDBRANCH   9  25
BRANCH  11  27
ATOM     27  C   UNL d   1      -3.776  -0.008  -0.001  0.00  0.00    -0.007 C 
ATOM     28  C   UNL d   1      -4.291  -0.046   1.451  0.00  0.00     0.021 C 
ATOM     29  C   UNL d   1      -4.372   1.230  -0.705  0.00  0.00     0.021 C 
ATOM     30  C   UNL d   1      -4.298  -1.258  -0.740  0.00  0.00     0.021 C 
ENDBRANCH  11  27
TORSDOF 5
