REMARK  4 active torsions:
REMARK  status: ('A' for Active; 'I' for Inactive)
REMARK    1  A    between atoms: N_7  and  C_1 
REMARK    2  A    between atoms: O_11  and  C_2 
REMARK    3  A    between atoms: C_12  and  N_9 
REMARK    4  A    between atoms: O_20  and  C_14 
ROOT
ATOM      1  N   UNL d   1      -0.469  -2.753  -0.070  0.00  0.00    -0.294 N 
ATOM      2  HN  UNL d   1      -1.414  -3.100  -0.234  1.00  0.00     0.187 HD
ATOM      3  N   UNL d   1       0.523  -3.490   0.111  0.00  0.00    -0.300 N 
ATOM      4  HN  UNL d   1       1.451  -3.117   0.311  1.00  0.00     0.187 HD
ENDROOT
BRANCH   1   5
ATOM      5  C   UNL d   1      -0.131  -1.387  -0.022  0.00  0.00     0.124 A 
ATOM      6  C   UNL d   1       1.121  -0.821   0.087  0.00  0.00     0.187 A 
ATOM      7  N   UNL d   1       0.909   0.531   0.068  0.00  0.00    -0.274 N 
ATOM      8  C   UNL d   1       1.911   1.567   0.140  0.00  0.00     0.180 C 
ATOM      9  N   UNL d   1      -0.393   0.875  -0.042  0.00  0.00    -0.299 N 
ATOM     10  C   UNL d   1      -1.035  -0.304  -0.099  0.00  0.00     0.054 A 
ATOM     11  HN  UNL d   1      -0.795   1.812  -0.075  1.00  0.00     0.187 HD
ATOM     12  C   UNL d   1      -2.511  -0.334  -0.228  0.00  0.00     0.072 C 
BRANCH   6  13
ATOM     13  O   UNL d   1       2.339  -1.349   0.188  0.00  0.00    -0.343 OA
ATOM     14  H   UNL d   1       2.199  -2.318   0.178  0.00  0.00     0.219 HD
ENDBRANCH   6  13
ENDBRANCH   1   5
BRANCH   3  15
ATOM     15  C   UNL d   1       0.272  -4.872   0.019  0.00  0.00     0.048 A 
ATOM     16  C   UNL d   1      -0.793  -5.452  -0.682  0.00  0.00     0.034 A 
ATOM     17  C   UNL d   1      -0.917  -6.848  -0.781  0.00  0.00     0.039 A 
ATOM     18  C   UNL d   1       0.026  -7.682  -0.180  0.00  0.00     0.068 A 
ATOM     19  C   UNL d   1       1.091  -7.112   0.515  0.00  0.00     0.039 A 
ATOM     20  C   UNL d   1       1.211  -5.723   0.614  0.00  0.00     0.034 A 
BRANCH  18  21
ATOM     21  O   UNL d   1       0.031  -9.048  -0.201  0.00  0.00    -0.356 OA
ATOM     22  C   UNL d   1      -1.075  -9.690  -0.822  0.00  0.00     0.210 C 
ENDBRANCH  18  21
ENDBRANCH   3  15
TORSDOF 4
