REMARK  2 active torsions:
REMARK  status: ('A' for Active; 'I' for Inactive)
REMARK    1  A    between atoms: N_7  and  C_1 
REMARK       I    between atoms: C_6  and  N_7 
REMARK       I    between atoms: N_8  and  C_6 
REMARK    2  A    between atoms: C_12  and  N_8 
ROOT
ATOM      1  C   UNL d   1       2.779  -2.778   0.205  0.00  0.00     0.325 C 
ATOM      2  N   UNL d   1       3.332  -3.998  -0.010  0.00  0.00    -0.306 N 
ATOM      3  N   UNL d   1       3.542  -1.664   0.087  0.00  0.00    -0.309 N 
ATOM      4  O   UNL d   1       1.570  -2.779   0.447  0.00  0.00    -0.247 OA
ATOM      5  H   UNL d   1       2.586  -4.686  -0.015  0.00  0.00     0.170 HD
ATOM      6  H   UNL d   1       4.383  -1.762  -0.463  0.00  0.00     0.170 HD
ENDROOT
BRANCH   2   7
ATOM      7  C   UNL d   1       4.613  -4.531  -0.088  0.00  0.00     0.067 A 
ATOM      8  C   UNL d   1       5.873  -3.979   0.048  0.00  0.00     0.102 A 
ATOM      9  S   UNL d   1       7.138  -5.124  -0.070  0.00  0.00    -0.063 SA
ATOM     10 CL   UNL d   1       6.384  -2.364   0.344  0.00  0.00    -0.074 Cl
ATOM     11  C   UNL d   1       6.038  -6.377  -0.303  0.00  0.00     0.078 A 
ATOM     12  C   UNL d   1       4.737  -5.954  -0.308  0.00  0.00     0.063 A 
ATOM     13 CL   UNL d   1       6.590  -7.990  -0.492  0.00  0.00    -0.076 Cl
ENDBRANCH   2   7
BRANCH   3  14
ATOM     14  C   UNL d   1       3.127  -0.350   0.399  0.00  0.00     0.036 A 
ATOM     15  C   UNL d   1       2.080  -0.079   1.287  0.00  0.00     0.031 A 
ATOM     16  C   UNL d   1       1.689   1.237   1.550  0.00  0.00     0.026 A 
ATOM     17  C   UNL d   1       2.346   2.290   0.924  0.00  0.00     0.034 A 
ATOM     18  C   UNL d   1       3.407   2.038   0.056  0.00  0.00     0.026 A 
ATOM     19 CL   UNL d   1       1.846   3.909   1.222  0.00  0.00    -0.084 Cl
ATOM     20  C   UNL d   1       3.807   0.720  -0.193  0.00  0.00     0.031 A 
ENDBRANCH   3  14
TORSDOF 2
