REMARK  2 active torsions:
REMARK  status: ('A' for Active; 'I' for Inactive)
REMARK    1  A    between atoms: C_8  and  C_6 
REMARK    2  A    between atoms: O_15  and  C_9 
ROOT
ATOM      1  C   UNL d   1      -1.108  -0.855   0.062  0.00  0.00     0.045 A 
ATOM      2  C   UNL d   1       0.393  -0.971   0.007  0.00  0.00     0.257 A 
ATOM      3  N   UNL d   1       0.845   0.326  -0.173  0.00  0.00    -0.322 N 
ATOM      4  C   UNL d   1      -1.437   0.569  -0.043  0.00  0.00     0.006 A 
ATOM      5  C   UNL d   1      -0.212   1.232  -0.201  0.00  0.00     0.046 A 
ATOM      6  C   UNL d   1      -1.865  -1.961   0.123  0.00  0.00     0.029 C 
ATOM      7  O   UNL d   1       1.063  -1.982   0.081  0.00  0.00    -0.267 OA
ATOM      8  C   UNL d   1      -2.614   1.293   0.006  0.00  0.00     0.015 A 
ATOM      9  C   UNL d   1      -0.118   2.601  -0.347  0.00  0.00     0.030 A 
ATOM     10  C   UNL d   1      -2.542   2.685  -0.130  0.00  0.00     0.001 A 
ATOM     11  C   UNL d   1      -1.307   3.332  -0.313  0.00  0.00     0.002 A 
ATOM     12  H   UNL d   1       1.823   0.555  -0.258  0.00  0.00     0.169 HD
ENDROOT
BRANCH   6  13
ATOM     13  C   UNL d   1      -3.322  -1.991   0.029  0.00  0.00    -0.035 A 
ATOM     14  C   UNL d   1      -3.924  -2.097  -1.229  0.00  0.00     0.014 A 
ATOM     15  C   UNL d   1      -5.317  -2.106  -1.352  0.00  0.00     0.037 A 
ATOM     16  C   UNL d   1      -6.121  -2.006  -0.217  0.00  0.00     0.068 A 
ATOM     17  C   UNL d   1      -5.517  -1.913   1.041  0.00  0.00     0.037 A 
ATOM     18  C   UNL d   1      -4.124  -1.906   1.168  0.00  0.00     0.014 A 
BRANCH  16  19
ATOM     19  O   UNL d   1      -7.488  -1.982  -0.203  0.00  0.00    -0.356 OA
ATOM     20  C   UNL d   1      -8.143  -2.056  -1.465  0.00  0.00     0.210 C 
ENDBRANCH  16  19
ENDBRANCH   6  13
TORSDOF 2
