REMARK  3 active torsions:
REMARK  status: ('A' for Active; 'I' for Inactive)
REMARK       I    between atoms: N_2  and  C_1 
REMARK    1  A    between atoms: C_4  and  C_1 
REMARK       I    between atoms: C_3  and  N_5 
REMARK    2  A    between atoms: C_14  and  C_3 
REMARK    3  A    between atoms: N_5  and  C_15 
ROOT
ATOM      1  C   UNL d   1       1.007  -0.050   0.035  0.00  0.00     0.260 C 
ATOM      2  N   UNL d   1       0.249  -0.913  -0.779  0.00  0.00    -0.347 N 
ATOM      3  C   UNL d   1       0.638  -2.326  -0.853  0.00  0.00     0.128 C 
ATOM      4  C   UNL d   1      -0.974  -0.575  -1.503  0.00  0.00     0.128 C 
ATOM      5  O   UNL d   1       1.952  -0.492   0.686  0.00  0.00    -0.267 OA
ATOM      6  C   UNL d   1      -1.805  -2.935  -1.139  0.00  0.00     0.087 C 
ATOM      7  C   UNL d   1      -2.142  -1.448  -1.063  0.00  0.00     0.045 C 
ATOM      8  C   UNL d   1      -0.498  -3.237  -0.398  0.00  0.00     0.045 C 
ENDROOT
BRANCH   6   9
ATOM      9  N   UNL d   1      -1.773  -3.381  -2.527  0.00  0.00    -0.356 N 
ATOM     10  C   UNL d   1      -2.082  -4.678  -2.877  0.00  0.00     0.222 C 
ATOM     11  O   UNL d   1      -2.312  -5.546  -2.043  0.00  0.00    -0.273 OA
ATOM     12  H   UNL d   1      -1.344  -2.794  -3.229  0.00  0.00     0.162 HD
BRANCH  10  13
ATOM     13  C   UNL d   1      -2.104  -4.923  -4.391  0.00  0.00     0.078 C 
ATOM     14  C   UNL d   1      -3.074  -3.976  -5.115  0.00  0.00     0.014 C 
ATOM     15  C   UNL d   1      -4.534  -4.297  -4.800  0.00  0.00     0.001 C 
ATOM     16  C   UNL d   1      -4.872  -5.749  -5.119  0.00  0.00     0.000 C 
ATOM     17  C   UNL d   1      -3.911  -6.729  -4.453  0.00  0.00     0.001 C 
ATOM     18  C   UNL d   1      -2.445  -6.382  -4.724  0.00  0.00     0.014 C 
ENDBRANCH  10  13
ENDBRANCH   6   9
BRANCH   1  19
ATOM     19  C   UNL d   1       0.634   1.364   0.099  0.00  0.00     0.072 A 
ATOM     20  S   UNL d   1       0.701   2.152   1.625  0.00  0.00    -0.097 SA
ATOM     21  C   UNL d   1       0.104   3.616   0.979  0.00  0.00     0.050 A 
ATOM     22  C   UNL d   1      -0.104   3.534  -0.378  0.00  0.00     0.009 A 
ATOM     23  C   UNL d   1       0.264   2.256  -0.894  0.00  0.00     0.025 A 
ENDBRANCH   1  19
TORSDOF 3
