REMARK  5 active torsions:
REMARK  status: ('A' for Active; 'I' for Inactive)
REMARK       I    between atoms: N_2  and  C_1 
REMARK    1  A    between atoms: C_6  and  C_1 
REMARK    2  A    between atoms: C_7  and  N_2 
REMARK    3  A    between atoms: N_5  and  C_3 
REMARK    4  A    between atoms: C_12  and  N_5 
REMARK    5  A    between atoms: C_13  and  N_5 
ROOT
ATOM      1  C   UNL d   1       2.095  -5.129   0.136  0.00  0.00     0.030 A 
ATOM      2  C   UNL d   1       0.756  -2.601   0.225  0.00  0.00     0.035 A 
ATOM      3  C   UNL d   1       0.975  -4.855  -0.658  0.00  0.00     0.031 A 
ATOM      4  C   UNL d   1       2.484  -4.113   1.023  0.00  0.00     0.031 A 
ATOM      5  C   UNL d   1       0.321  -3.615  -0.624  0.00  0.00     0.032 A 
ATOM      6  C   UNL d   1       1.833  -2.869   1.068  0.00  0.00     0.032 A 
ENDROOT
BRANCH   2   7
ATOM      7  N   UNL d   1       0.213  -1.298   0.221  0.00  0.00    -0.323 N 
ATOM      8  C   UNL d   1      -0.921  -0.895  -0.467  0.00  0.00     0.256 C 
ATOM      9  O   UNL d   1      -1.771  -1.639  -0.951  0.00  0.00    -0.267 OA
ATOM     10  H   UNL d   1       0.693  -0.608   0.780  0.00  0.00     0.169 HD
BRANCH   8  11
ATOM     11  C   UNL d   1      -1.120   0.575  -0.613  0.00  0.00     0.032 A 
ATOM     12  C   UNL d   1      -0.046   1.471  -0.695  0.00  0.00     0.017 A 
ATOM     13  C   UNL d   1      -0.287   2.825  -0.952  0.00  0.00     0.001 A 
ATOM     14  C   UNL d   1      -1.593   3.285  -1.131  0.00  0.00     0.000 A 
ATOM     15  C   UNL d   1      -2.663   2.397  -1.048  0.00  0.00     0.001 A 
ATOM     16  C   UNL d   1      -2.427   1.046  -0.793  0.00  0.00     0.017 A 
ENDBRANCH   8  11
ENDBRANCH   2   7
BRANCH   1  17
ATOM     17  N   UNL d   1       2.797  -6.321   0.015  0.00  0.00    -0.382 N 
BRANCH  17  18
ATOM     18  C   UNL d   1       2.099  -7.571  -0.304  0.00  0.00     0.118 C 
ATOM     19  C   UNL d   1       2.266  -7.952  -1.768  0.00  0.00     0.026 C 
ENDBRANCH  17  18
BRANCH  17  20
ATOM     20  C   UNL d   1       4.229  -6.404   0.322  0.00  0.00     0.118 C 
ATOM     21  C   UNL d   1       5.059  -5.530  -0.611  0.00  0.00     0.026 C 
ENDBRANCH  17  20
ENDBRANCH   1  17
TORSDOF 5
