REMARK  6 active torsions:
REMARK  status: ('A' for Active; 'I' for Inactive)
REMARK    1  A    between atoms: C_14  and  N_1 
REMARK    2  A    between atoms: C_9  and  C_7 
REMARK    3  A    between atoms: C_8  and  C_11 
REMARK    4  A    between atoms: S_12  and  C_9 
REMARK    5  A    between atoms: C_18  and  S_12 
REMARK    6  A    between atoms: C_13  and  C_14 
ROOT
ATOM      1  C   UNL d   1       2.467  -4.840  -0.423  0.00  0.00     0.133 A 
ATOM      2  O   UNL d   1       1.263  -4.282  -0.782  0.00  0.00    -0.309 OA
ATOM      3  C   UNL d   1       0.898  -3.404   0.195  0.00  0.00     0.073 A 
ATOM      4  C   UNL d   1       2.863  -4.297   0.789  0.00  0.00     0.044 A 
ATOM      5  C   UNL d   1       1.861  -3.376   1.180  0.00  0.00     0.037 A 
ENDROOT
BRANCH   1   6
ATOM      6  C   UNL d   1       3.034  -5.825  -1.322  0.00  0.00     0.248 C 
ATOM      7  O   UNL d   1       2.609  -6.085  -2.443  0.00  0.00    -0.277 OA
BRANCH   6   8
ATOM      8  S   UNL d   1       4.415  -6.713  -0.691  0.00  0.00    -0.028 SA
BRANCH   8   9
ATOM      9  C   UNL d   1       3.555  -7.837   0.380  0.00  0.00     0.077 A 
ATOM     10  N   UNL d   1       3.956  -7.838   1.671  0.00  0.00    -0.359 N 
ATOM     11  C   UNL d   1       3.327  -8.678   2.527  0.00  0.00     0.105 A 
ATOM     12  HN  UNL d   1       4.708  -7.227   1.990  1.00  0.00     0.166 HD
ATOM     13  C   UNL d   1       2.293  -9.526   2.162  0.00  0.00     0.063 A 
ATOM     14  C   UNL d   1       1.900  -9.514   0.820  0.00  0.00     0.020 A 
ATOM     15  C   UNL d   1       2.541  -8.668  -0.084  0.00  0.00     0.038 A 
BRANCH  13  16
ATOM     16  C   UNL d   1       1.628 -10.409   3.173  0.00  0.00     0.418 C 
ATOM     17  F   UNL d   1       2.165 -10.309   4.421  0.00  0.00    -0.166 F 
ATOM     18  F   UNL d   1       0.304 -10.127   3.314  0.00  0.00    -0.166 F 
ATOM     19  F   UNL d   1       1.696 -11.727   2.841  0.00  0.00    -0.166 F 
ENDBRANCH  13  16
ENDBRANCH   8   9
ENDBRANCH   6   8
ENDBRANCH   1   6
BRANCH   3  20
ATOM     20  C   UNL d   1      -0.374  -2.666  -0.014  0.00  0.00     0.213 C 
BRANCH  20  21
ATOM     21  N   UNL d   1      -1.302  -2.887   1.092  0.00  0.00    -0.289 N 
ATOM     22  N   UNL d   1      -1.220  -2.067   2.169  0.00  0.00    -0.301 N 
ATOM     23  C   UNL d   1      -2.198  -2.483   2.984  0.00  0.00     0.041 A 
ATOM     24  HN  UNL d   1      -0.561  -1.303   2.324  1.00  0.00     0.187 HD
ATOM     25  C   UNL d   1      -2.416  -1.814   4.288  0.00  0.00     0.071 C 
ATOM     26  C   UNL d   1      -2.903  -3.557   2.412  0.00  0.00     0.058 A 
ATOM     27  C   UNL d   1      -2.322  -3.807   1.189  0.00  0.00     0.044 A 
ATOM     28 BR   UNL d   1      -4.357  -4.444   3.191  0.00  0.00    -0.047 Br
ATOM     29  C   UNL d   1      -2.662  -4.821   0.160  0.00  0.00     0.071 C 
ENDBRANCH  20  21
ENDBRANCH   3  20
TORSDOF 6
