REMARK  9 active torsions:
REMARK  status: ('A' for Active; 'I' for Inactive)
REMARK    1  A    between atoms: C_13  and  C_3 
REMARK    2  A    between atoms: C_4  and  N_9 
REMARK    3  A    between atoms: N_10  and  C_4 
REMARK    4  A    between atoms: C_19  and  C_5 
REMARK    5  A    between atoms: C_8  and  C_18 
REMARK       I    between atoms: N_11  and  C_8 
REMARK    6  A    between atoms: N_9  and  N_11 
REMARK    7  A    between atoms: C_16  and  N_10 
REMARK    8  A    between atoms: S_15  and  C_19 
REMARK    9  A    between atoms: C_18  and  S_15 
ROOT
ATOM      1  C   UNL d   1       2.725  -5.670   0.140  0.00  0.00     0.245 C 
ATOM      2  N   UNL d   1       3.150  -6.657  -0.728  0.00  0.00    -0.267 N 
ATOM      3  O   UNL d   1       3.455  -5.215   1.020  0.00  0.00    -0.271 OA
ATOM      4  H   UNL d   1       2.604  -6.966  -1.528  0.00  0.00     0.190 HD
ENDROOT
BRANCH   1   5
ATOM      5  C   UNL d   1       1.320  -5.169  -0.138  0.00  0.00     0.178 C 
BRANCH   5   6
ATOM      6  S   UNL d   1       1.341  -3.423  -0.655  0.00  0.00    -0.153 SA
BRANCH   6   7
ATOM      7  C   UNL d   1       2.200  -3.584  -2.260  0.00  0.00     0.139 C 
BRANCH   7   8
ATOM      8  C   UNL d   1       2.335  -2.252  -2.936  0.00  0.00     0.060 A 
ATOM      9  N   UNL d   1       1.442  -1.732  -3.754  0.00  0.00    -0.352 N 
ATOM     10  C   UNL d   1       1.861  -0.484  -4.197  0.00  0.00     0.049 A 
ATOM     11  HN  UNL d   1       0.567  -2.182  -4.024  1.00  0.00     0.166 HD
ATOM     12  C   UNL d   1       3.093  -0.087  -3.710  0.00  0.00     0.081 A 
ATOM     13  S   UNL d   1       3.746  -1.298  -2.689  0.00  0.00    -0.086 SA
BRANCH  10  14
ATOM     14  C   UNL d   1       1.023   0.334  -5.069  0.00  0.00    -0.009 A 
ATOM     15  C   UNL d   1      -0.367   0.169  -5.046  0.00  0.00     0.014 A 
ATOM     16  C   UNL d   1      -1.195   0.958  -5.849  0.00  0.00     0.001 A 
ATOM     17  C   UNL d   1      -0.639   1.917  -6.696  0.00  0.00     0.000 A 
ATOM     18  C   UNL d   1       0.742   2.080  -6.744  0.00  0.00     0.001 A 
ATOM     19  C   UNL d   1       1.571   1.294  -5.938  0.00  0.00     0.014 A 
ENDBRANCH  10  14
ENDBRANCH   7   8
ENDBRANCH   6   7
ENDBRANCH   5   6
ENDBRANCH   1   5
BRANCH   2  20
ATOM     20  N   UNL d   1       4.520  -6.947  -0.765  0.00  0.00    -0.274 N 
ATOM     21  H   UNL d   1       5.087  -6.443  -0.079  0.00  0.00     0.189 HD
BRANCH  20  22
ATOM     22  C   UNL d   1       4.982  -8.162  -1.190  0.00  0.00     0.191 C 
ATOM     23  S   UNL d   1       4.019  -9.508  -1.459  0.00  0.00    -0.039 SA
BRANCH  22  24
ATOM     24  N   UNL d   1       6.321  -8.273  -1.440  0.00  0.00    -0.332 N 
ATOM     25  H   UNL d   1       6.612  -9.238  -1.567  0.00  0.00     0.168 HD
BRANCH  24  26
ATOM     26  C   UNL d   1       7.238  -7.307  -1.923  0.00  0.00     0.034 A 
ATOM     27  C   UNL d   1       6.932  -5.961  -2.155  0.00  0.00     0.031 A 
ATOM     28  C   UNL d   1       7.862  -5.112  -2.767  0.00  0.00     0.026 A 
ATOM     29  C   UNL d   1       9.102  -5.606  -3.159  0.00  0.00     0.034 A 
ATOM     30  C   UNL d   1       9.430  -6.934  -2.917  0.00  0.00     0.026 A 
ATOM     31 CL   UNL d   1      10.214  -4.576  -3.971  0.00  0.00    -0.084 Cl
ATOM     32  C   UNL d   1       8.505  -7.780  -2.295  0.00  0.00     0.031 A 
ENDBRANCH  24  26
ENDBRANCH  22  24
ENDBRANCH  20  22
ENDBRANCH   2  20
TORSDOF 9
