REMARK  1 active torsions:
REMARK  status: ('A' for Active; 'I' for Inactive)
REMARK    1  A    between atoms: C_10  and  C_6 
ROOT
ATOM      1  C   UNL d   1      -0.264   0.656   0.068  0.00  0.00     0.691 C 
ATOM      2  N   UNL d   1       2.171   0.573  -0.136  0.00  0.00    -0.288 N 
ATOM      3  HN  UNL d   1       3.036   1.091  -0.287  1.00  0.00     0.187 HD
ATOM      4  N   UNL d   1      -0.318  -0.672  -0.247  0.00  0.00    -0.209 N 
ATOM      5  N   UNL d   1       0.990   1.184   0.206  0.00  0.00    -0.132 N 
ATOM      6  C   UNL d   1       2.097  -0.727  -0.253  0.00  0.00     0.055 C 
ATOM      7  N   UNL d   1      -1.397   1.279   0.232  0.00  0.00    -0.223 N 
ATOM      8  HN  UNL d   1      -1.553   2.254   0.490  1.00  0.00     0.177 HD
ATOM      9  C   UNL d   1       0.818  -1.506   0.076  0.00  0.00     0.200 C 
ATOM     10  C   UNL d   1      -2.415   0.221  -0.052  0.00  0.00     0.158 C 
ATOM     11  C   UNL d   1      -1.669  -1.123  -0.046  0.00  0.00     0.161 C 
ATOM     12  H   UNL d   1       1.005   2.192   0.335  0.00  0.00     0.205 HD
ENDROOT
BRANCH   6  13
ATOM     13  C   UNL d   1       3.286  -1.489  -0.725  0.00  0.00    -0.007 A 
ATOM     14  C   UNL d   1       3.493  -2.824  -0.363  0.00  0.00     0.059 A 
ATOM     15  C   UNL d   1       4.588  -3.509  -0.882  0.00  0.00     0.155 A 
ATOM     16  F   UNL d   1       4.773  -4.792  -0.542  0.00  0.00    -0.203 F 
ATOM     17  C   UNL d   1       5.476  -2.881  -1.748  0.00  0.00     0.154 A 
ATOM     18  C   UNL d   1       5.289  -1.550  -2.101  0.00  0.00     0.046 A 
ATOM     19  F   UNL d   1       6.518  -3.556  -2.253  0.00  0.00    -0.203 F 
ATOM     20  C   UNL d   1       4.196  -0.851  -1.584  0.00  0.00     0.017 A 
ENDBRANCH   6  13
TORSDOF 1
