REMARK  6 active torsions:
REMARK  status: ('A' for Active; 'I' for Inactive)
REMARK    1  A    between atoms: C_7  and  C_1 
REMARK    2  A    between atoms: O_19  and  C_2 
REMARK    3  A    between atoms: C_10  and  C_6 
REMARK    4  A    between atoms: N_17  and  C_6 
REMARK    5  A    between atoms: O_11  and  C_7 
REMARK    6  A    between atoms: N_8  and  O_11 
ROOT
ATOM      1  C   UNL d   1      -5.245  -1.806  -0.183  0.00  0.00     0.116 C 
ATOM      2  N   UNL d   1      -3.967  -1.557  -0.187  0.00  0.00    -0.245 N 
ATOM      3  HN  UNL d   1      -3.254  -2.285  -0.227  1.00  0.00     0.196 HD
ENDROOT
BRANCH   2   4
ATOM      4  O   UNL d   1      -3.664  -0.176  -0.131  0.00  0.00    -0.193 OA
BRANCH   4   5
ATOM      5  C   UNL d   1      -2.295  -0.020  -0.007  0.00  0.00     0.318 C 
ATOM      6  O   UNL d   1      -1.489  -0.943   0.072  0.00  0.00    -0.257 OA
BRANCH   5   7
ATOM      7  C   UNL d   1      -1.884   1.388   0.036  0.00  0.00     0.083 A 
ATOM      8  C   UNL d   1      -0.683   1.879   0.684  0.00  0.00     0.113 A 
ATOM      9  C   UNL d   1      -0.548   3.244   0.519  0.00  0.00     0.108 A 
ATOM     10 CL   UNL d   1       0.658   4.350   1.062  0.00  0.00    -0.073 Cl
ATOM     11  S   UNL d   1      -1.822   3.932  -0.376  0.00  0.00    -0.086 SA
ATOM     12  C   UNL d   1      -2.590   2.418  -0.560  0.00  0.00     0.072 A 
BRANCH   8  13
ATOM     13  O   UNL d   1       0.107   0.998   1.358  0.00  0.00    -0.353 OA
ATOM     14  C   UNL d   1       1.303   1.465   1.949  0.00  0.00     0.210 C 
ENDBRANCH   8  13
ENDBRANCH   5   7
ENDBRANCH   4   5
ENDBRANCH   2   4
BRANCH   1  15
ATOM     15  C   UNL d   1      -5.602  -3.225  -0.255  0.00  0.00     0.044 A 
ATOM     16  S   UNL d   1      -7.247  -3.711  -0.300  0.00  0.00    -0.099 SA
ATOM     17  C   UNL d   1      -6.830  -5.367  -0.399  0.00  0.00     0.050 A 
ATOM     18  C   UNL d   1      -5.468  -5.557  -0.381  0.00  0.00     0.009 A 
ATOM     19  C   UNL d   1      -4.760  -4.323  -0.294  0.00  0.00     0.023 A 
ENDBRANCH   1  15
BRANCH   1  20
ATOM     20  N   UNL d   1      -6.190  -0.810  -0.093  0.00  0.00    -0.286 NA
ATOM     21  H   UNL d   1      -5.841   0.039   0.330  0.00  0.00     0.125 HD
ATOM     22  H   UNL d   1      -7.087  -1.113   0.273  0.00  0.00     0.125 HD
ENDBRANCH   1  20
TORSDOF 6
