REMARK  4 active torsions:
REMARK  status: ('A' for Active; 'I' for Inactive)
REMARK    1  A    between atoms: C_5  and  C_11 
REMARK    2  A    between atoms: C_12  and  C_6 
REMARK    3  A    between atoms: C_13  and  C_17 
REMARK    4  A    between atoms: C_14  and  C_18 
ROOT
ATOM      1  N   UNL d   1       0.864  -3.154   0.999  0.00  0.00    -0.349 N 
ATOM      2  HN  UNL d   1       1.331  -2.612   1.726  1.00  0.00     0.166 HD
ATOM      3  C   UNL d   1       0.906  -4.503   0.988  0.00  0.00     0.084 A 
ATOM      4  C   UNL d   1       0.174  -2.554   0.004  0.00  0.00     0.084 A 
ATOM      5  C   UNL d   1       0.295  -5.282   0.012  0.00  0.00     0.034 A 
ATOM      6  C   UNL d   1      -0.490  -3.249  -1.000  0.00  0.00     0.034 A 
ATOM      7  C   UNL d   1      -0.420  -4.640  -0.997  0.00  0.00     0.005 A 
ENDROOT
BRANCH   3   8
ATOM      8  C   UNL d   1       1.590  -5.141   2.129  0.00  0.00     0.166 C 
ATOM      9  N   UNL d   1       1.751  -6.414   2.314  0.00  0.00    -0.362 N 
ATOM     10  C   UNL d   1       2.306  -6.486   3.679  0.00  0.00     0.111 C 
ATOM     11  HN  UNL d   1       1.544  -7.179   1.672  1.00  0.00     0.162 HD
ATOM     12  C   UNL d   1       2.740  -5.064   4.002  0.00  0.00     0.202 C 
ATOM     13  O   UNL d   1       2.047  -4.266   3.060  0.00  0.00    -0.332 OA
BRANCH  10  14
ATOM     14  C   UNL d   1       3.440  -7.520   3.757  0.00  0.00     0.002 C 
ATOM     15  C   UNL d   1       2.948  -8.918   3.368  0.00  0.00     0.011 C 
ATOM     16  C   UNL d   1       4.035  -7.567   5.166  0.00  0.00     0.011 C 
ENDBRANCH  10  14
ENDBRANCH   3   8
BRANCH   4  17
ATOM     17  C   UNL d   1       0.191  -1.077  -0.003  0.00  0.00     0.166 C 
ATOM     18  N   UNL d   1      -0.400  -0.304  -0.851  0.00  0.00    -0.362 N 
ATOM     19  C   UNL d   1       0.073   1.041  -0.471  0.00  0.00     0.111 C 
ATOM     20  HN  UNL d   1      -1.040  -0.561  -1.602  1.00  0.00     0.162 HD
ATOM     21  C   UNL d   1       0.698   0.859   0.903  0.00  0.00     0.202 C 
ATOM     22  O   UNL d   1       0.936  -0.534   0.995  0.00  0.00    -0.332 OA
BRANCH  19  23
ATOM     23  C   UNL d   1      -1.085   2.053  -0.502  0.00  0.00     0.002 C 
ATOM     24  C   UNL d   1      -1.704   2.141  -1.900  0.00  0.00     0.011 C 
ATOM     25  C   UNL d   1      -0.619   3.444  -0.064  0.00  0.00     0.011 C 
ENDBRANCH  19  23
ENDBRANCH   4  17
TORSDOF 4
