REMARK  5 active torsions:
REMARK  status: ('A' for Active; 'I' for Inactive)
REMARK    1  A    between atoms: S_6  and  C_1 
REMARK    2  A    between atoms: C_8  and  C_5 
REMARK    3  A    between atoms: O_18  and  C_8 
REMARK    4  A    between atoms: O_19  and  N_12 
REMARK    5  A    between atoms: C_22  and  O_18 
ROOT
ATOM      1  C   UNL d   1      -3.523  -0.724   0.149  0.00  0.00     0.113 C 
ATOM      2  C   UNL d   1      -2.256  -0.589  -0.389  0.00  0.00     0.025 C 
ATOM      3  C   UNL d   1      -2.080   0.656  -1.102  0.00  0.00    -0.020 C 
ATOM      4  S   UNL d   1      -4.546   0.525  -0.419  0.00  0.00    -0.071 SA
ATOM      5  C   UNL d   1      -3.277   1.347  -1.231  0.00  0.00     0.088 C 
ATOM      6  C   UNL d   1      -1.122  -1.491  -0.241  0.00  0.00     0.045 C 
ATOM      7  C   UNL d   1      -0.718   1.104  -1.607  0.00  0.00     0.050 C 
ATOM      8  C   UNL d   1       0.402   0.022  -1.472  0.00  0.00    -0.038 C 
ATOM      9  C   UNL d   1       0.221  -0.793  -0.161  0.00  0.00     0.069 C 
ATOM     10  N   UNL d   1      -1.153  -2.780  -0.371  0.00  0.00    -0.273 N 
ATOM     11  HN  UNL d   1      -0.353  -3.385  -0.190  1.00  0.00     0.194 HD
ATOM     12  C   UNL d   1       1.781   0.704  -1.445  0.00  0.00     0.015 C 
ATOM     13  C   UNL d   1       0.368  -0.920  -2.697  0.00  0.00     0.015 C 
ENDROOT
BRANCH   5  14
ATOM     14  C   UNL d   1      -3.504   2.626  -1.896  0.00  0.00     0.300 C 
ATOM     15  O   UNL d   1      -2.626   3.324  -2.390  0.00  0.00    -0.259 OA
BRANCH  14  16
ATOM     16  O   UNL d   1      -4.821   2.981  -1.844  0.00  0.00    -0.317 OA
BRANCH  16  17
ATOM     17  C   UNL d   1      -5.129   4.336  -2.197  0.00  0.00     0.174 C 
ATOM     18  C   UNL d   1      -5.022   5.190  -0.947  0.00  0.00     0.034 C 
ENDBRANCH  16  17
ENDBRANCH  14  16
ENDBRANCH   5  14
BRANCH   1  19
ATOM     19  S   UNL d   1      -4.293  -1.895   1.257  0.00  0.00     0.179 S 
ATOM     20  O   UNL d   1      -5.394  -2.481   0.517  0.00  0.00    -0.222 OA
ATOM     21  O   UNL d   1      -3.230  -2.699   1.827  0.00  0.00    -0.222 OA
ATOM     22  C   UNL d   1      -4.945  -0.928   2.587  0.00  0.00     0.167 C 
ENDBRANCH   1  19
BRANCH  10  23
ATOM     23  O   UNL d   1      -2.403  -3.250  -0.788  0.00  0.00    -0.290 OA
ATOM     24  H   UNL d   1      -2.346  -4.204  -0.602  0.00  0.00     0.244 HD
ENDBRANCH  10  23
TORSDOF 5
