REMARK  7 active torsions:
REMARK  status: ('A' for Active; 'I' for Inactive)
REMARK    1  A    between atoms: C_2  and  S_1 
REMARK    2  A    between atoms: C_7  and  S_1 
REMARK    3  A    between atoms: C_3  and  C_2 
REMARK    4  A    between atoms: N_15  and  C_3 
REMARK    5  A    between atoms: C_4  and  O_8 
REMARK    6  A    between atoms: C_11  and  C_4 
REMARK    7  A    between atoms: O_8  and  N_5 
ROOT
ATOM      1  C   UNL d   1       1.004   2.276   1.474  0.00  0.00     0.110 C 
ATOM      2  N   UNL d   1       1.732   1.620   2.326  0.00  0.00    -0.245 N 
ATOM      3  HN  UNL d   1       2.208   2.036   3.126  1.00  0.00     0.196 HD
ENDROOT
BRANCH   1   4
ATOM      4  C   UNL d   1       0.735   3.728   1.786  0.00  0.00     0.218 C 
BRANCH   4   5
ATOM      5  S   UNL d   1      -0.998   3.955   2.148  0.00  0.00     0.158 S 
ATOM      6  O   UNL d   1      -1.310   3.227   3.366  0.00  0.00    -0.227 OA
ATOM      7  O   UNL d   1      -1.728   3.670   0.925  0.00  0.00    -0.227 OA
BRANCH   5   8
ATOM      8  C   UNL d   1      -1.203   5.739   2.502  0.00  0.00     0.053 C 
ATOM      9  C   UNL d   1      -0.807   6.568   1.273  0.00  0.00     0.031 C 
ATOM     10  C   UNL d   1      -2.686   5.997   2.823  0.00  0.00     0.031 C 
ATOM     11  C   UNL d   1      -0.354   6.154   3.712  0.00  0.00     0.031 C 
ENDBRANCH   5   8
ENDBRANCH   4   5
ENDBRANCH   1   4
BRANCH   1  12
ATOM     12  N   UNL d   1       0.511   1.746   0.312  0.00  0.00    -0.387 N 
ATOM     13  H   UNL d   1      -0.095   2.269  -0.312  0.00  0.00     0.157 HD
ATOM     14  H   UNL d   1       0.805   0.820   0.032  0.00  0.00     0.157 HD
ENDBRANCH   1  12
BRANCH   2  15
ATOM     15  O   UNL d   1       1.773   0.253   1.990  0.00  0.00    -0.193 OA
BRANCH  15  16
ATOM     16  C   UNL d   1       2.332  -0.436   3.025  0.00  0.00     0.315 C 
ATOM     17  O   UNL d   1       3.368  -0.163   3.612  0.00  0.00    -0.257 OA
BRANCH  16  18
ATOM     18  C   UNL d   1       1.440  -1.569   3.404  0.00  0.00     0.041 A 
ATOM     19  C   UNL d   1       1.781  -2.323   4.536  0.00  0.00     0.019 A 
ATOM     20  C   UNL d   1       0.925  -3.327   5.000  0.00  0.00     0.025 A 
ATOM     21  C   UNL d   1      -0.271  -3.582   4.330  0.00  0.00     0.034 A 
ATOM     22  C   UNL d   1      -0.612  -2.853   3.193  0.00  0.00     0.025 A 
ATOM     23 CL   UNL d   1      -1.341  -4.791   4.921  0.00  0.00    -0.084 Cl
ATOM     24  C   UNL d   1       0.241  -1.847   2.728  0.00  0.00     0.019 A 
ENDBRANCH  16  18
ENDBRANCH  15  16
ENDBRANCH   2  15
TORSDOF 7
