REMARK  2 active torsions:
REMARK  status: ('A' for Active; 'I' for Inactive)
REMARK    1  A    between atoms: N_11  and  N_6 
REMARK    2  A    between atoms: C_12  and  N_11 
ROOT
ATOM      1  S   UNL d   1      -1.081  -1.555   0.049  0.00  0.00     0.285 S 
ATOM      2  C   UNL d   1      -2.406  -0.521   0.548  0.00  0.00     0.215 C 
ATOM      3  N   UNL d   1      -1.629  -1.964  -1.506  0.00  0.00    -0.274 N 
ATOM      4  C   UNL d   1      -2.643   0.599  -0.408  0.00  0.00     0.225 C 
ATOM      5  C   UNL d   1      -2.425   0.371  -1.864  0.00  0.00     0.045 A 
ATOM      6  N   UNL d   1      -3.175  -0.855   1.547  0.00  0.00    -0.285 N 
ATOM      7  HN  UNL d   1      -2.972  -1.679   2.112  1.00  0.00     0.188 HD
ATOM      8  C   UNL d   1      -1.943  -0.854  -2.376  0.00  0.00     0.059 A 
ATOM      9  O   UNL d   1       0.087  -0.709  -0.086  0.00  0.00    -0.198 OA
ATOM     10  O   UNL d   1      -1.074  -2.744   0.876  0.00  0.00    -0.198 OA
ATOM     11  O   UNL d   1      -3.064   1.669   0.022  0.00  0.00    -0.284 OA
ATOM     12  C   UNL d   1      -1.355  -3.315  -2.005  0.00  0.00     0.170 C 
ATOM     13  C   UNL d   1      -2.750   1.425  -2.735  0.00  0.00     0.018 A 
ATOM     14  C   UNL d   1      -1.847  -1.000  -3.767  0.00  0.00     0.031 A 
ATOM     15  C   UNL d   1      -2.629   1.262  -4.112  0.00  0.00     0.001 A 
ATOM     16  C   UNL d   1      -2.183   0.049  -4.627  0.00  0.00     0.002 A 
ENDROOT
BRANCH   6  17
ATOM     17  N   UNL d   1      -4.254  -0.076   1.814  0.00  0.00    -0.298 N 
ATOM     18  H   UNL d   1      -4.366   0.866   1.421  0.00  0.00     0.187 HD
BRANCH  17  19
ATOM     19  C   UNL d   1      -5.434  -0.692   2.285  0.00  0.00     0.069 A 
ATOM     20  C   UNL d   1      -6.604   0.056   2.511  0.00  0.00     0.062 A 
ATOM     21 CL   UNL d   1      -6.657   1.748   2.151  0.00  0.00    -0.082 Cl
ATOM     22  C   UNL d   1      -7.761  -0.547   3.018  0.00  0.00     0.026 A 
ATOM     23  C   UNL d   1      -7.768  -1.910   3.313  0.00  0.00     0.002 A 
ATOM     24  C   UNL d   1      -6.619  -2.667   3.106  0.00  0.00     0.002 A 
ATOM     25  C   UNL d   1      -5.463  -2.061   2.606  0.00  0.00     0.033 A 
ENDBRANCH  17  19
ENDBRANCH   6  17
TORSDOF 2
