REMARK  8 active torsions:
REMARK  status: ('A' for Active; 'I' for Inactive)
REMARK    1  A    between atoms: C_6  and  S_1 
REMARK    2  A    between atoms: C_9  and  S_1 
REMARK       I    between atoms: C_2  and  N_4 
REMARK    3  A    between atoms: C_10  and  C_2 
REMARK    4  A    between atoms: C_3  and  C_20 
REMARK       I    between atoms: N_5  and  C_3 
REMARK    5  A    between atoms: N_4  and  N_5 
REMARK    6  A    between atoms: C_21  and  C_6 
REMARK    7  A    between atoms: S_18  and  C_21 
REMARK    8  A    between atoms: C_20  and  S_18 
ROOT
ATOM      1  C   UNL d   1       0.381  -0.859  -6.893  0.00  0.00     0.245 C 
ATOM      2  N   UNL d   1      -0.805  -0.406  -7.433  0.00  0.00    -0.267 N 
ATOM      3  O   UNL d   1       0.992  -1.817  -7.364  0.00  0.00    -0.271 OA
ATOM      4  H   UNL d   1      -1.365   0.362  -7.067  0.00  0.00     0.190 HD
ENDROOT
BRANCH   1   5
ATOM      5  C   UNL d   1       0.879  -0.094  -5.687  0.00  0.00     0.178 C 
BRANCH   5   6
ATOM      6  S   UNL d   1       0.184  -0.748  -4.142  0.00  0.00    -0.159 SA
BRANCH   6   7
ATOM      7  C   UNL d   1       0.930  -2.426  -4.110  0.00  0.00     0.089 C 
BRANCH   7   8
ATOM      8  C   UNL d   1       0.563  -3.058  -2.776  0.00  0.00     0.156 C 
BRANCH   8   9
ATOM      9  S   UNL d   1       1.118  -4.743  -2.667  0.00  0.00     0.176 S 
ATOM     10  O   UNL d   1       2.567  -4.754  -2.723  0.00  0.00    -0.223 OA
ATOM     11  O   UNL d   1       0.330  -5.548  -3.580  0.00  0.00    -0.223 OA
BRANCH   9  12
ATOM     12  C   UNL d   1       0.643  -5.201  -1.009  0.00  0.00     0.059 A 
ATOM     13  C   UNL d   1      -0.634  -5.717  -0.773  0.00  0.00     0.023 A 
ATOM     14  C   UNL d   1      -1.002  -6.068   0.528  0.00  0.00     0.002 A 
ATOM     15  C   UNL d   1      -0.096  -5.913   1.578  0.00  0.00     0.000 A 
ATOM     16  C   UNL d   1       1.183  -5.412   1.333  0.00  0.00     0.002 A 
ATOM     17  C   UNL d   1       1.561  -5.059   0.036  0.00  0.00     0.023 A 
ENDBRANCH   9  12
ENDBRANCH   8   9
ENDBRANCH   7   8
ENDBRANCH   6   7
ENDBRANCH   5   6
ENDBRANCH   1   5
BRANCH   2  18
ATOM     18  N   UNL d   1      -1.258  -1.038  -8.593  0.00  0.00    -0.263 N 
ATOM     19  C   UNL d   1      -2.424  -0.624  -9.199  0.00  0.00     0.270 C 
ATOM     20  O   UNL d   1      -3.145   0.259  -8.755  0.00  0.00    -0.266 OA
ATOM     21  H   UNL d   1      -0.739  -1.869  -8.875  0.00  0.00     0.190 HD
BRANCH  19  22
ATOM     22  C   UNL d   1      -2.768  -1.358 -10.450  0.00  0.00     0.033 A 
ATOM     23  C   UNL d   1      -4.114  -1.587 -10.762  0.00  0.00     0.019 A 
ATOM     24  C   UNL d   1      -4.449  -2.306 -11.914  0.00  0.00     0.025 A 
ATOM     25  C   UNL d   1      -3.443  -2.777 -12.758  0.00  0.00     0.034 A 
ATOM     26  C   UNL d   1      -2.103  -2.526 -12.469  0.00  0.00     0.025 A 
ATOM     27 CL   UNL d   1      -3.854  -3.671 -14.169  0.00  0.00    -0.084 Cl
ATOM     28  C   UNL d   1      -1.764  -1.813 -11.317  0.00  0.00     0.019 A 
ENDBRANCH  19  22
ENDBRANCH   2  18
TORSDOF 8
