REMARK  2 active torsions:
REMARK  status: ('A' for Active; 'I' for Inactive)
REMARK    1  A    between atoms: C_6  and  N_1 
REMARK    2  A    between atoms: C_8  and  C_6 
ROOT
ATOM      1  N   UNL d   1       1.604  -1.000  -0.055  0.00  0.00    -0.286 N 
ATOM      2  C   UNL d   1       1.205  -0.211   1.006  0.00  0.00     0.373 A 
ATOM      3  O   UNL d   1       0.787   1.054   0.568  0.00  0.00    -0.259 OA
ATOM      4  C   UNL d   1       1.494  -0.245  -1.200  0.00  0.00     0.073 A 
ATOM      5  C   UNL d   1       0.990   0.977  -0.801  0.00  0.00     0.107 A 
ATOM      6  O   UNL d   1       1.206  -0.536   2.186  0.00  0.00    -0.237 OA
ATOM      7  C   UNL d   1       1.785  -0.522  -2.518  0.00  0.00     0.033 A 
ATOM      8  C   UNL d   1       0.735   1.987  -1.703  0.00  0.00     0.040 A 
ATOM      9  C   UNL d   1       1.537   0.489  -3.452  0.00  0.00     0.002 A 
ATOM     10  C   UNL d   1       1.013   1.733  -3.049  0.00  0.00     0.003 A 
ENDROOT
BRANCH   1  11
ATOM     11  C   UNL d   1       2.129  -2.334   0.051  0.00  0.00     0.173 C 
BRANCH  11  12
ATOM     12  C   UNL d   1       3.641  -2.362   0.043  0.00  0.00    -0.040 A 
ATOM     13  C   UNL d   1       4.365  -1.779   1.096  0.00  0.00     0.010 A 
ATOM     14  C   UNL d   1       5.759  -1.722   1.053  0.00  0.00     0.024 A 
ATOM     15  C   UNL d   1       6.439  -2.262  -0.035  0.00  0.00     0.034 A 
ATOM     16  C   UNL d   1       5.739  -2.882  -1.067  0.00  0.00     0.024 A 
ATOM     17 CL   UNL d   1       8.154  -2.149  -0.114  0.00  0.00    -0.084 Cl
ATOM     18  C   UNL d   1       4.343  -2.936  -1.028  0.00  0.00     0.010 A 
ENDBRANCH  11  12
ENDBRANCH   1  11
TORSDOF 2
