REMARK  3 active torsions:
REMARK  status: ('A' for Active; 'I' for Inactive)
REMARK    1  A    between atoms: C_6  and  C_1 
REMARK    2  A    between atoms: C_10  and  N_2 
REMARK       I    between atoms: N_9  and  C_6 
REMARK    3  A    between atoms: N_11  and  N_9 
ROOT
ATOM      1  C   UNL d   1      -0.512  -1.217  -0.021  0.00  0.00     0.121 A 
ATOM      2  N   UNL d   1       0.790  -0.769  -0.026  0.00  0.00    -0.287 N 
ATOM      3  N   UNL d   1       0.893   0.579  -0.014  0.00  0.00    -0.302 N 
ATOM      4  HN  UNL d   1       1.745   1.140  -0.011  1.00  0.00     0.186 HD
ATOM      5  C   UNL d   1      -1.280  -0.064  -0.006  0.00  0.00     0.063 A 
ATOM      6  C   UNL d   1      -0.369   1.011  -0.007  0.00  0.00     0.024 A 
ATOM      7  C   UNL d   1      -0.666   2.462   0.002  0.00  0.00     0.070 C 
ENDROOT
BRANCH   1   8
ATOM      8  C   UNL d   1      -0.922  -2.600  -0.060  0.00  0.00     0.283 C 
ATOM      9  O   UNL d   1      -0.217  -3.518  -0.474  0.00  0.00    -0.265 OA
ATOM     10  N   UNL d   1      -2.209  -2.829   0.428  0.00  0.00    -0.288 N 
ATOM     11  H   UNL d   1      -2.676  -2.100   0.959  0.00  0.00     0.183 HD
BRANCH  10  12
ATOM     12  N   UNL d   1      -2.723  -4.145   0.490  0.00  0.00    -0.247 NA
ATOM     13  H   UNL d   1      -1.938  -4.784   0.295  0.00  0.00     0.143 HD
ATOM     14  H   UNL d   1      -3.348  -4.272  -0.310  0.00  0.00     0.143 HD
ENDBRANCH  10  12
ENDBRANCH   1   8
BRANCH   2  15
ATOM     15  C   UNL d   1       2.013  -1.547   0.072  0.00  0.00     0.145 C 
ATOM     16  C   UNL d   1       2.662  -1.801  -1.277  0.00  0.00     0.028 C 
ENDBRANCH   2  15
TORSDOF 3
