REMARK  5 active torsions:
REMARK  status: ('A' for Active; 'I' for Inactive)
REMARK       I    between atoms: N_2  and  C_1 
REMARK    1  A    between atoms: O_4  and  C_1 
REMARK       I    between atoms: C_3  and  N_7 
REMARK       I    between atoms: N_6  and  C_3 
REMARK    2  A    between atoms: C_17  and  O_4 
REMARK    3  A    between atoms: C_5  and  N_6 
REMARK    4  A    between atoms: N_7  and  C_18 
REMARK    5  A    between atoms: C_18  and  C_23 
ROOT
ATOM      1  C   UNL d   1      -3.073   4.833  -2.197  0.00  0.00     0.320 C 
ATOM      2  N   UNL d   1      -4.252   5.545  -2.196  0.00  0.00    -0.309 N 
ATOM      3  N   UNL d   1      -3.079   3.812  -3.120  0.00  0.00    -0.342 N 
ATOM      4  O   UNL d   1      -2.115   5.015  -1.453  0.00  0.00    -0.247 OA
ATOM      5  H   UNL d   1      -5.007   5.155  -2.742  0.00  0.00     0.170 HD
ATOM      6  H   UNL d   1      -3.773   3.822  -3.854  0.00  0.00     0.164 HD
ENDROOT
BRANCH   3   7
ATOM      7  C   UNL d   1      -1.901   2.980  -3.307  0.00  0.00     0.129 C 
BRANCH   7   8
ATOM      8  C   UNL d   1      -2.007   1.602  -2.624  0.00  0.00     0.006 C 
ATOM      9  C   UNL d   1      -2.127   1.655  -1.083  0.00  0.00     0.026 C 
ATOM     10  C   UNL d   1      -0.800   1.933  -0.373  0.00  0.00     0.128 C 
ATOM     11  N   UNL d   1       0.222   1.004  -0.845  0.00  0.00    -0.328 N 
ATOM     12  C   UNL d   1       0.843   0.037  -0.072  0.00  0.00     0.363 C 
ATOM     13  C   UNL d   1       0.470   1.046  -2.278  0.00  0.00     0.128 C 
ATOM     14  O   UNL d   1       1.699  -0.717  -0.519  0.00  0.00    -0.238 OA
ATOM     15  C   UNL d   1      -0.814   0.711  -3.038  0.00  0.00     0.026 C 
BRANCH  12  16
ATOM     16  O   UNL d   1       0.404   0.002   1.219  0.00  0.00    -0.294 OA
BRANCH  16  17
ATOM     17  C   UNL d   1       1.004  -0.925   2.170  0.00  0.00     0.061 C 
ATOM     18  C   UNL d   1       2.472  -0.562   2.434  0.00  0.00     0.046 C 
ATOM     19  C   UNL d   1       0.222  -0.742   3.483  0.00  0.00     0.046 C 
ATOM     20  C   UNL d   1       0.851  -2.390   1.738  0.00  0.00     0.046 C 
ENDBRANCH  16  17
ENDBRANCH  12  16
ENDBRANCH   7   8
ENDBRANCH   3   7
BRANCH   2  21
ATOM     21  C   UNL d   1      -4.580   6.603  -1.316  0.00  0.00     0.039 A 
ATOM     22  C   UNL d   1      -3.643   7.241  -0.497  0.00  0.00     0.053 A 
ATOM     23  C   UNL d   1      -4.050   8.203   0.429  0.00  0.00     0.037 A 
ATOM     24 CL   UNL d   1      -2.884   8.940   1.459  0.00  0.00    -0.084 Cl
ATOM     25  C   UNL d   1      -5.388   8.560   0.539  0.00  0.00     0.048 A 
ATOM     26  C   UNL d   1      -6.315   7.966  -0.311  0.00  0.00     0.037 A 
ATOM     27  C   UNL d   1      -5.920   7.002  -1.243  0.00  0.00     0.053 A 
ATOM     28 CL   UNL d   1      -7.975   8.405  -0.194  0.00  0.00    -0.084 Cl
ENDBRANCH   2  21
TORSDOF 5
