REMARK  3 active torsions:
REMARK  status: ('A' for Active; 'I' for Inactive)
REMARK    1  A    between atoms: N_7  and  C_1 
REMARK    2  A    between atoms: C_10  and  C_3 
REMARK       I    between atoms: C_8  and  N_7 
REMARK    3  A    between atoms: C_9  and  C_8 
ROOT
ATOM      1  C   UNL d   1      -1.174   1.084   0.186  0.00  0.00     0.142 C 
ATOM      2  C   UNL d   1      -0.539  -0.048   0.618  0.00  0.00     0.085 C 
ATOM      3  C   UNL d   1      -1.341  -1.147   0.198  0.00  0.00     0.079 C 
ATOM      4  N   UNL d   1      -2.480  -0.683  -0.350  0.00  0.00    -0.297 N 
ATOM      5  HN  UNL d   1      -3.251  -1.232  -0.732  1.00  0.00     0.187 HD
ATOM      6  N   UNL d   1      -2.385   0.659  -0.285  0.00  0.00    -0.284 N 
ATOM      7 BR   UNL d   1       1.029  -0.048   1.656  0.00  0.00    -0.044 Br
ATOM      8  H   UNL d   1      -3.157   1.227  -0.626  0.00  0.00     0.188 HD
ENDROOT
BRANCH   1   9
ATOM      9  N   UNL d   1      -0.639   2.360   0.254  0.00  0.00    -0.307 N 
ATOM     10  C   UNL d   1      -1.464   3.523   0.278  0.00  0.00     0.257 C 
ATOM     11  O   UNL d   1      -2.679   3.377   0.286  0.00  0.00    -0.267 OA
ATOM     12  H   UNL d   1       0.366   2.414   0.341  0.00  0.00     0.170 HD
BRANCH  10  13
ATOM     13  C   UNL d   1      -0.805   4.856   0.320  0.00  0.00     0.032 A 
ATOM     14  C   UNL d   1      -1.631   5.989   0.278  0.00  0.00     0.018 A 
ATOM     15  C   UNL d   1      -1.084   7.273   0.305  0.00  0.00     0.025 A 
ATOM     16  C   UNL d   1       0.292   7.438   0.384  0.00  0.00     0.034 A 
ATOM     17  C   UNL d   1       1.132   6.324   0.431  0.00  0.00     0.025 A 
ATOM     18 CL   UNL d   1       0.968   9.016   0.432  0.00  0.00    -0.084 Cl
ATOM     19  C   UNL d   1       0.591   5.030   0.402  0.00  0.00     0.018 A 
ENDBRANCH  10  13
ENDBRANCH   1   9
BRANCH   3  20
ATOM     20  C   UNL d   1      -1.075  -2.592   0.280  0.00  0.00    -0.007 A 
ATOM     21  C   UNL d   1      -2.130  -3.517   0.293  0.00  0.00     0.014 A 
ATOM     22  C   UNL d   1      -1.878  -4.892   0.364  0.00  0.00     0.001 A 
ATOM     23  C   UNL d   1      -0.569  -5.362   0.429  0.00  0.00     0.000 A 
ATOM     24  C   UNL d   1       0.490  -4.463   0.396  0.00  0.00     0.001 A 
ATOM     25  C   UNL d   1       0.236  -3.091   0.304  0.00  0.00     0.014 A 
ENDBRANCH   3  20
TORSDOF 3
