REMARK  8 active torsions:
REMARK  status: ('A' for Active; 'I' for Inactive)
REMARK       I    between atoms: N_6  and  C_1 
REMARK    1  A    between atoms: O_9  and  C_1 
REMARK    2  A    between atoms: C_14  and  C_2 
REMARK    3  A    between atoms: N_15  and  C_2 
REMARK    4  A    between atoms: C_3  and  C_10 
REMARK    5  A    between atoms: N_4  and  O_9 
REMARK    6  A    between atoms: C_17  and  N_6 
REMARK    7  A    between atoms: O_16  and  C_14 
REMARK    8  A    between atoms: C_18  and  O_16 
ROOT
ATOM      1  C   UNL d   1      -1.695  -1.438   1.805  0.00  0.00     0.120 C 
ATOM      2  N   UNL d   1      -1.431  -1.298   0.528  0.00  0.00    -0.242 N 
ATOM      3  HN  UNL d   1      -1.904  -0.664  -0.116  1.00  0.00     0.196 HD
ENDROOT
BRANCH   1   4
ATOM      4  C   UNL d   1      -0.949  -2.425   2.760  0.00  0.00     0.253 C 
BRANCH   4   5
ATOM      5  O   UNL d   1       0.442  -2.146   2.839  0.00  0.00    -0.344 OA
BRANCH   5   6
ATOM      6  C   UNL d   1       1.205  -2.989   3.604  0.00  0.00     0.069 A 
ATOM      7  C   UNL d   1       2.543  -3.081   3.218  0.00  0.00     0.037 A 
ATOM      8  C   UNL d   1       3.458  -3.842   3.956  0.00  0.00     0.012 A 
ATOM      9  C   UNL d   1       3.058  -4.521   5.117  0.00  0.00    -0.035 A 
ATOM     10  C   UNL d   1       1.704  -4.432   5.492  0.00  0.00     0.012 A 
ATOM     11  C   UNL d   1       0.786  -3.676   4.742  0.00  0.00     0.037 A 
BRANCH   9  12
ATOM     12  C   UNL d   1       4.087  -5.280   5.933  0.00  0.00     0.141 C 
ATOM     13  S   UNL d   1       3.685  -7.048   6.118  0.00  0.00    -0.148 SA
ATOM     14  C   UNL d   1       4.225  -7.202   7.839  0.00  0.00     0.085 C 
ATOM     15  C   UNL d   1       3.802  -5.940   8.560  0.00  0.00     0.085 C 
ATOM     16  S   UNL d   1       4.356  -4.525   7.576  0.00  0.00    -0.148 SA
ENDBRANCH   9  12
ENDBRANCH   5   6
ENDBRANCH   4   5
ENDBRANCH   1   4
BRANCH   1  17
ATOM     17  N   UNL d   1      -2.728  -0.706   2.342  0.00  0.00    -0.386 N 
ATOM     18  H   UNL d   1      -3.378  -0.331   1.661  0.00  0.00     0.157 HD
ATOM     19  H   UNL d   1      -3.168  -1.054   3.187  0.00  0.00     0.157 HD
ENDBRANCH   1  17
BRANCH   2  20
ATOM     20  O   UNL d   1      -0.385  -2.171   0.203  0.00  0.00    -0.179 OA
BRANCH  20  21
ATOM     21  C   UNL d   1       0.051  -2.145  -1.104  0.00  0.00     0.387 C 
ATOM     22  N   UNL d   1      -0.548  -1.222  -1.952  0.00  0.00    -0.301 N 
ATOM     23  H   UNL d   1      -1.149  -0.565  -1.484  0.00  0.00     0.171 HD
ATOM     24  O   UNL d   1       0.959  -2.913  -1.415  0.00  0.00    -0.236 OA
BRANCH  22  25
ATOM     25  C   UNL d   1      -0.204  -1.065  -3.323  0.00  0.00     0.037 A 
ATOM     26  C   UNL d   1       0.494  -2.047  -4.040  0.00  0.00     0.031 A 
ATOM     27  C   UNL d   1       0.905  -1.844  -5.359  0.00  0.00     0.026 A 
ATOM     28  C   UNL d   1       0.603  -0.648  -5.993  0.00  0.00     0.034 A 
ATOM     29  C   UNL d   1      -0.138   0.326  -5.324  0.00  0.00     0.026 A 
ATOM     30 CL   UNL d   1       1.152  -0.378  -7.601  0.00  0.00    -0.084 Cl
ATOM     31  C   UNL d   1      -0.554   0.113  -3.996  0.00  0.00     0.031 A 
ENDBRANCH  22  25
ENDBRANCH  20  21
ENDBRANCH   2  20
TORSDOF 8
