REMARK  7 active torsions:
REMARK  status: ('A' for Active; 'I' for Inactive)
REMARK    1  A    between atoms: C_3  and  S_1 
REMARK    2  A    between atoms: C_16  and  S_1 
REMARK    3  A    between atoms: S_2  and  C_4 
REMARK    4  A    between atoms: N_15  and  S_2 
REMARK    5  A    between atoms: N_7  and  C_19 
REMARK    6  A    between atoms: C_18  and  N_15 
REMARK    7  A    between atoms: C_19  and  C_18 
ROOT
ATOM      1  C   UNL d   1       1.134  -1.116  -1.877  0.00  0.00     0.106 A 
ATOM      2  C   UNL d   1      -0.321  -1.582  -3.823  0.00  0.00     0.116 A 
ATOM      3  S   UNL d   1       1.002  -0.551  -3.488  0.00  0.00    -0.065 SA
ATOM      4  C   UNL d   1       0.161  -2.055  -1.592  0.00  0.00     0.033 A 
ATOM      5  C   UNL d   1      -0.666  -2.334  -2.715  0.00  0.00     0.034 A 
ENDROOT
BRANCH   2   6
ATOM      6  S   UNL d   1      -1.034  -1.533  -5.457  0.00  0.00     0.248 S 
ATOM      7  O   UNL d   1      -2.452  -1.372  -5.223  0.00  0.00    -0.205 OA
ATOM      8  O   UNL d   1      -0.276  -0.592  -6.247  0.00  0.00    -0.205 OA
BRANCH   6   9
ATOM      9  N   UNL d   1      -0.825  -3.070  -6.114  0.00  0.00    -0.214 NA
ATOM     10  H   UNL d   1      -1.667  -3.393  -6.596  0.00  0.00     0.140 HD
BRANCH   9  11
ATOM     11  C   UNL d   1       0.439  -3.307  -6.835  0.00  0.00     0.124 C 
BRANCH  11  12
ATOM     12  C   UNL d   1       0.554  -4.757  -7.319  0.00  0.00     0.142 C 
BRANCH  12  13
ATOM     13  N   UNL d   1      -0.489  -5.177  -8.241  0.00  0.00    -0.332 N 
ATOM     14  C   UNL d   1      -1.699  -5.751  -7.871  0.00  0.00     0.318 C 
ATOM     15  N   UNL d   1      -2.391  -6.049  -9.037  0.00  0.00    -0.341 N 
ATOM     16  O   UNL d   1      -2.100  -5.968  -6.743  0.00  0.00    -0.247 OA
ATOM     17  C   UNL d   1      -1.519  -5.919 -10.173  0.00  0.00     0.144 C 
ATOM     18  H   UNL d   1      -3.198  -6.657  -8.979  0.00  0.00     0.164 HD
ATOM     19  C   UNL d   1      -0.446  -4.958  -9.672  0.00  0.00     0.147 C 
ENDBRANCH  12  13
ENDBRANCH  11  12
ENDBRANCH   9  11
ENDBRANCH   6   9
ENDBRANCH   2   6
BRANCH   1  20
ATOM     20  S   UNL d   1       2.436  -0.431  -0.874  0.00  0.00     0.213 S 
ATOM     21  O   UNL d   1       3.552  -0.160  -1.757  0.00  0.00    -0.217 OA
ATOM     22  O   UNL d   1       2.562  -1.355   0.239  0.00  0.00    -0.217 OA
BRANCH  20  23
ATOM     23  C   UNL d   1       1.813   1.104  -0.242  0.00  0.00     0.064 A 
ATOM     24  C   UNL d   1       1.100   1.117   0.962  0.00  0.00     0.024 A 
ATOM     25  C   UNL d   1       0.651   2.331   1.481  0.00  0.00     0.002 A 
ATOM     26  C   UNL d   1       0.922   3.522   0.806  0.00  0.00     0.000 A 
ATOM     27  C   UNL d   1       1.646   3.505  -0.388  0.00  0.00     0.002 A 
ATOM     28  C   UNL d   1       2.100   2.296  -0.914  0.00  0.00     0.024 A 
ENDBRANCH  20  23
ENDBRANCH   1  20
TORSDOF 7
