REMARK  3 active torsions:
REMARK  status: ('A' for Active; 'I' for Inactive)
REMARK    1  A    between atoms: C_2  and  N_1 
REMARK    2  A    between atoms: O_4  and  C_3 
REMARK    3  A    between atoms: C_6  and  O_4 
ROOT
ATOM      1  C   UNL d   1       0.184  -1.222  -0.123  0.00  0.00     0.138 A 
ATOM      2  C   UNL d   1      -0.891  -1.084  -1.007  0.00  0.00     0.109 A 
ATOM      3  N   UNL d   1       0.597  -5.957   0.806  0.00  0.00    -0.191 NA
ATOM      4  C   UNL d   1       0.269  -4.907   0.446  0.00  0.00     0.099 C 
ATOM      5  C   UNL d   1       0.582  -2.473   0.370  0.00  0.00     0.061 A 
ATOM      6  C   UNL d   1      -1.655  -2.220  -1.299  0.00  0.00     0.041 A 
ATOM      7  C   UNL d   1      -0.140  -3.608  -0.006  0.00  0.00     0.047 A 
ATOM      8  C   UNL d   1      -1.268  -3.477  -0.822  0.00  0.00     0.025 A 
ENDROOT
BRANCH   1   9
ATOM      9  N   UNL d   1       0.906  -0.052   0.337  0.00  0.00    -0.113 N 
ATOM     10  O   UNL d   1       0.250   0.836   0.897  0.00  0.00    -0.532 OA
ATOM     11  O   UNL d   1       2.136  -0.060   0.196  0.00  0.00    -0.532 OA
ENDBRANCH   1   9
BRANCH   2  12
ATOM     12  O   UNL d   1      -1.173   0.153  -1.540  0.00  0.00    -0.305 OA
BRANCH  12  13
ATOM     13  C   UNL d   1      -1.635   0.235  -2.837  0.00  0.00     0.114 A 
ATOM     14  C   UNL d   1      -1.187  -0.564  -3.898  0.00  0.00     0.153 A 
ATOM     15  C   UNL d   1      -1.740  -0.444  -5.168  0.00  0.00     0.087 A 
ATOM     16  F   UNL d   1      -0.223  -1.478  -3.712  0.00  0.00    -0.203 F 
ATOM     17  C   UNL d   1      -2.713   0.520  -5.388  0.00  0.00     0.119 A 
ATOM     18  C   UNL d   1      -3.132   1.366  -4.365  0.00  0.00     0.045 A 
ATOM     19  F   UNL d   1      -3.254   0.642  -6.607  0.00  0.00    -0.206 F 
ATOM     20  C   UNL d   1      -2.589   1.226  -3.085  0.00  0.00     0.043 A 
ENDBRANCH  12  13
ENDBRANCH   2  12
TORSDOF 3
