REMARK  6 active torsions:
REMARK  status: ('A' for Active; 'I' for Inactive)
REMARK    1  A    between atoms: C_13  and  C_3 
REMARK    2  A    between atoms: C_4  and  C_5 
REMARK    3  A    between atoms: C_5  and  O_12 
REMARK    4  A    between atoms: O_12  and  N_6 
REMARK    5  A    between atoms: C_11  and  C_14 
REMARK    6  A    between atoms: N_22  and  C_11 
ROOT
ATOM      1  N   UNL d   1       5.636  -6.015   0.750  0.00  0.00    -0.246 N 
ATOM      2  HN  UNL d   1       6.277  -6.806   0.700  1.00  0.00     0.196 HD
ATOM      3  C   UNL d   1       4.719  -5.773  -0.142  0.00  0.00     0.109 C 
ENDROOT
BRANCH   3   4
ATOM      4  C   UNL d   1       4.625  -6.718  -1.317  0.00  0.00     0.004 A 
ATOM      5  C   UNL d   1       5.518  -7.795  -1.407  0.00  0.00     0.015 A 
ATOM      6  C   UNL d   1       5.449  -8.699  -2.476  0.00  0.00     0.014 A 
ATOM      7  C   UNL d   1       4.486  -8.548  -3.481  0.00  0.00    -0.009 A 
ATOM      8  C   UNL d   1       3.609  -7.458  -3.405  0.00  0.00     0.014 A 
ATOM      9  C   UNL d   1       3.667  -6.558  -2.328  0.00  0.00     0.015 A 
BRANCH   7  10
ATOM     10  C   UNL d   1       4.378  -9.495  -4.589  0.00  0.00     0.049 A 
ATOM     11  N   UNL d   1       3.909  -9.110  -5.838  0.00  0.00    -0.353 N 
ATOM     12  C   UNL d   1       3.907 -10.140  -6.659  0.00  0.00     0.047 A 
ATOM     13  HN  UNL d   1       3.610  -8.166  -6.085  1.00  0.00     0.166 HD
ATOM     14  S   UNL d   1       4.422 -11.630  -5.977  0.00  0.00    -0.087 SA
ATOM     15  C   UNL d   1       3.493 -10.089  -8.087  0.00  0.00     0.076 C 
ATOM     16  C   UNL d   1       4.688 -10.839  -4.482  0.00  0.00     0.081 A 
ENDBRANCH   7  10
ENDBRANCH   3   4
BRANCH   3  17
ATOM     17  N   UNL d   1       3.861  -4.700  -0.053  0.00  0.00    -0.286 NA
ATOM     18  H   UNL d   1       4.173  -4.023   0.634  0.00  0.00     0.125 HD
ATOM     19  H   UNL d   1       3.599  -4.259  -0.925  0.00  0.00     0.125 HD
ENDBRANCH   3  17
BRANCH   1  20
ATOM     20  O   UNL d   1       5.647  -5.063   1.797  0.00  0.00    -0.193 OA
BRANCH  20  21
ATOM     21  C   UNL d   1       6.738  -5.285   2.593  0.00  0.00     0.320 C 
ATOM     22  O   UNL d   1       7.584  -6.159   2.472  0.00  0.00    -0.257 OA
BRANCH  21  23
ATOM     23  C   UNL d   1       6.800  -4.278   3.669  0.00  0.00     0.101 A 
ATOM     24  C   UNL d   1       6.554  -2.933   3.368  0.00  0.00     0.134 A 
ATOM     25  F   UNL d   1       6.189  -2.558   2.136  0.00  0.00    -0.205 F 
ATOM     26  C   UNL d   1       6.708  -1.935   4.333  0.00  0.00     0.043 A 
ATOM     27  C   UNL d   1       7.119  -2.270   5.619  0.00  0.00     0.005 A 
ATOM     28  C   UNL d   1       7.361  -3.605   5.939  0.00  0.00     0.025 A 
ATOM     29  C   UNL d   1       7.200  -4.609   4.972  0.00  0.00     0.053 A 
ATOM     30 CL   UNL d   1       7.477  -6.233   5.495  0.00  0.00    -0.083 Cl
ENDBRANCH  21  23
ENDBRANCH  20  21
ENDBRANCH   1  20
TORSDOF 6
