REMARK  2 active torsions:
REMARK  status: ('A' for Active; 'I' for Inactive)
REMARK    1  A    between atoms: C_2  and  C_1 
REMARK    2  A    between atoms: C_11  and  C_7 
ROOT
ATOM      1  N   UNL d   1       2.438   2.334   0.246  0.00  0.00    -0.353 N 
ATOM      2  HN  UNL d   1       1.421   2.341   0.327  1.00  0.00     0.166 HD
ATOM      3  N   UNL d   1       5.251   2.315   0.018  0.00  0.00    -0.362 N 
ATOM      4  HN  UNL d   1       6.267   2.298  -0.068  1.00  0.00     0.165 HD
ATOM      5  C   UNL d   1       3.159   3.470   0.328  0.00  0.00     0.059 A 
ATOM      6  C   UNL d   1       3.122   1.182   0.051  0.00  0.00     0.048 A 
ATOM      7  C   UNL d   1       4.572   3.461   0.212  0.00  0.00     0.059 A 
ATOM      8  C   UNL d   1       4.506   1.187  -0.058  0.00  0.00     0.117 A 
ATOM      9  C   UNL d   1       2.509   4.681   0.534  0.00  0.00     0.032 A 
ATOM     10  C   UNL d   1       5.265   4.662   0.303  0.00  0.00     0.032 A 
ATOM     11  C   UNL d   1       3.216   5.881   0.627  0.00  0.00     0.002 A 
ATOM     12  C   UNL d   1       4.599   5.872   0.510  0.00  0.00     0.002 A 
ENDROOT
BRANCH   6  13
ATOM     13  C   UNL d   1       2.359  -0.070  -0.038  0.00  0.00     0.032 C 
ATOM     14  C   UNL d   1       1.021  -0.130   0.053  0.00  0.00     0.018 C 
BRANCH  14  15
ATOM     15  C   UNL d   1       0.290  -1.400  -0.035  0.00  0.00     0.024 A 
ATOM     16  C   UNL d   1      -0.163  -1.842  -1.285  0.00  0.00     0.128 A 
ATOM     17  F   UNL d   1       0.074  -1.113  -2.386  0.00  0.00    -0.205 F 
ATOM     18  C   UNL d   1      -0.867  -3.038  -1.426  0.00  0.00     0.043 A 
ATOM     19  C   UNL d   1      -1.131  -3.821  -0.307  0.00  0.00     0.005 A 
ATOM     20  C   UNL d   1      -0.686  -3.404   0.948  0.00  0.00     0.025 A 
ATOM     21  C   UNL d   1       0.020  -2.201   1.085  0.00  0.00     0.047 A 
ATOM     22 CL   UNL d   1       0.535  -1.752   2.674  0.00  0.00    -0.083 Cl
ENDBRANCH  14  15
ENDBRANCH   6  13
TORSDOF 2
