REMARK  6 active torsions:
REMARK  status: ('A' for Active; 'I' for Inactive)
REMARK    1  A    between atoms: C_3  and  C_1 
REMARK    2  A    between atoms: O_5  and  C_2 
REMARK    3  A    between atoms: C_7  and  O_5 
REMARK    4  A    between atoms: C_19  and  C_7 
REMARK    5  A    between atoms: C_11  and  O_13 
REMARK    6  A    between atoms: O_13  and  C_19 
ROOT
ATOM      1  C   UNL d   1       1.269  -1.363   0.068  0.00  0.00     0.010 A 
ATOM      2  C   UNL d   1       2.430  -0.559  -0.074  0.00  0.00     0.088 A 
ATOM      3  C   UNL d   1      -0.015  -0.717   0.033  0.00  0.00    -0.015 A 
ATOM      4  C   UNL d   1       2.354   0.829  -0.124  0.00  0.00     0.039 A 
ATOM      5  C   UNL d   1      -0.066   0.704  -0.027  0.00  0.00    -0.025 A 
ATOM      6  C   UNL d   1       1.113   1.450  -0.081  0.00  0.00     0.015 A 
ATOM      7  C   UNL d   1      -1.268  -1.385   0.037  0.00  0.00     0.013 A 
ATOM      8  C   UNL d   1      -1.296   1.381  -0.039  0.00  0.00     0.012 A 
ATOM      9  C   UNL d   1      -2.487  -0.698   0.013  0.00  0.00     0.001 A 
ATOM     10  C   UNL d   1      -2.500   0.686  -0.016  0.00  0.00     0.001 A 
ENDROOT
BRANCH   2  11
ATOM     11  O   UNL d   1       3.658  -1.246  -0.274  0.00  0.00    -0.277 OA
BRANCH  11  12
ATOM     12  C   UNL d   1       4.836  -0.670  -0.765  0.00  0.00     0.288 C 
ATOM     13  O   UNL d   1       5.227   0.475  -0.582  0.00  0.00    -0.262 OA
BRANCH  12  14
ATOM     14  C   UNL d   1       5.478  -1.653  -1.725  0.00  0.00     0.287 C 
BRANCH  14  15
ATOM     15  O   UNL d   1       5.805  -2.873  -1.079  0.00  0.00    -0.340 OA
BRANCH  15  16
ATOM     16  C   UNL d   1       6.171  -3.919  -1.884  0.00  0.00     0.091 A 
ATOM     17  C   UNL d   1       7.064  -4.863  -1.349  0.00  0.00     0.069 A 
ATOM     18  C   UNL d   1       7.429  -5.997  -2.077  0.00  0.00     0.050 A 
ATOM     19 CL   UNL d   1       7.734  -4.664   0.232  0.00  0.00    -0.081 Cl
ATOM     20  C   UNL d   1       6.888  -6.203  -3.342  0.00  0.00     0.035 A 
ATOM     21  C   UNL d   1       5.987  -5.288  -3.880  0.00  0.00     0.026 A 
ATOM     22 CL   UNL d   1       7.313  -7.607  -4.238  0.00  0.00    -0.084 Cl
ATOM     23  C   UNL d   1       5.625  -4.151  -3.152  0.00  0.00     0.040 A 
ENDBRANCH  15  16
ENDBRANCH  14  15
ENDBRANCH  12  14
ENDBRANCH  11  12
ENDBRANCH   2  11
BRANCH   1  24
ATOM     24  C   UNL d   1       1.382  -2.861   0.308  0.00  0.00     0.145 C 
ATOM     25  S   UNL d   1       2.263  -3.290   1.843  0.00  0.00    -0.148 SA
ATOM     26  C   UNL d   1       2.572  -5.002   1.364  0.00  0.00     0.085 C 
ATOM     27  C   UNL d   1       3.062  -4.983  -0.072  0.00  0.00     0.085 C 
ATOM     28  S   UNL d   1       2.061  -3.835  -1.075  0.00  0.00    -0.148 SA
ENDBRANCH   1  24
TORSDOF 6
