REMARK  8 active torsions:
REMARK  status: ('A' for Active; 'I' for Inactive)
REMARK    1  A    between atoms: N_2  and  C_1 
REMARK    2  A    between atoms: C_3  and  C_1 
REMARK    3  A    between atoms: C_6  and  C_1 
REMARK    4  A    between atoms: N_7  and  C_1 
REMARK       I    between atoms: C_4  and  N_2 
REMARK    5  A    between atoms: C_5  and  C_4 
REMARK    6  A    between atoms: O_15  and  C_6 
REMARK    7  A    between atoms: C_14  and  N_7 
REMARK    8  A    between atoms: C_24  and  O_15 
ROOT
ATOM      1  C   UNL d   1       0.868  -0.107   0.020  0.00  0.00     0.297 C 
ENDROOT
BRANCH   1   2
ATOM      2  N   UNL d   1       0.466  -1.293  -0.765  0.00  0.00    -0.314 N 
ATOM      3  C   UNL d   1       0.355  -2.564  -0.295  0.00  0.00     0.255 C 
ATOM      4  O   UNL d   1       0.603  -2.845   0.876  0.00  0.00    -0.268 OA
ATOM      5  H   UNL d   1       0.237  -1.106  -1.733  0.00  0.00     0.166 HD
BRANCH   3   6
ATOM      6  C   UNL d   1      -0.156  -3.623  -1.249  0.00  0.00     0.053 A 
ATOM      7  C   UNL d   1      -0.299  -3.486  -2.645  0.00  0.00     0.049 A 
ATOM      8 CL   UNL d   1       0.199  -2.102  -3.555  0.00  0.00    -0.083 Cl
ATOM      9  C   UNL d   1      -0.855  -4.523  -3.411  0.00  0.00     0.025 A 
ATOM     10  C   UNL d   1      -1.252  -5.716  -2.816  0.00  0.00     0.002 A 
ATOM     11  C   UNL d   1      -1.085  -5.883  -1.447  0.00  0.00     0.001 A 
ATOM     12  C   UNL d   1      -0.547  -4.847  -0.673  0.00  0.00     0.019 A 
ENDBRANCH   3   6
ENDBRANCH   1   2
BRANCH   1  13
ATOM     13  C   UNL d   1       0.112   0.105   1.386  0.00  0.00     0.442 C 
ATOM     14  F   UNL d   1      -0.949  -0.725   1.545  0.00  0.00    -0.166 F 
ATOM     15  F   UNL d   1       0.942  -0.098   2.446  0.00  0.00    -0.166 F 
ATOM     16  F   UNL d   1      -0.382   1.363   1.538  0.00  0.00    -0.166 F 
ENDBRANCH   1  13
BRANCH   1  17
ATOM     17  C   UNL d   1       0.425   1.133  -0.794  0.00  0.00     0.318 C 
ATOM     18  O   UNL d   1      -0.485   1.111  -1.618  0.00  0.00    -0.260 OA
BRANCH  17  19
ATOM     19  O   UNL d   1       1.185   2.235  -0.517  0.00  0.00    -0.318 OA
BRANCH  19  20
ATOM     20  C   UNL d   1       0.894   3.414  -1.280  0.00  0.00     0.174 C 
ATOM     21  C   UNL d   1       1.529   3.341  -2.658  0.00  0.00     0.034 C 
ENDBRANCH  19  20
ENDBRANCH  17  19
ENDBRANCH   1  17
BRANCH   1  22
ATOM     22  N   UNL d   1       2.353  -0.158   0.172  0.00  0.00    -0.348 N 
ATOM     23  H   UNL d   1       2.620  -0.632   1.034  0.00  0.00     0.163 HD
BRANCH  22  24
ATOM     24  C   UNL d   1       3.291  -0.272  -0.844  0.00  0.00     0.030 A 
ATOM     25  C   UNL d   1       3.002  -0.148  -2.205  0.00  0.00     0.029 A 
ATOM     26  C   UNL d   1       3.991  -0.273  -3.184  0.00  0.00     0.009 A 
ATOM     27  C   UNL d   1       5.321  -0.472  -2.829  0.00  0.00    -0.062 A 
ATOM     28  C   UNL d   1       5.649  -0.507  -1.473  0.00  0.00     0.009 A 
ATOM     29  C   UNL d   1       6.356  -0.649  -3.900  0.00  0.00     0.048 C 
ATOM     30  C   UNL d   1       4.645  -0.400  -0.499  0.00  0.00     0.029 A 
ENDBRANCH  22  24
ENDBRANCH   1  22
TORSDOF 8
