REMARK  2 active torsions:
REMARK  status: ('A' for Active; 'I' for Inactive)
REMARK    1  A    between atoms: C_2  and  S_1 
REMARK    2  A    between atoms: N_3  and  S_1 
ROOT
ATOM      1  C   UNL d   1       0.916  -0.531   2.033  0.00  0.00     0.087 C 
ATOM      2  C   UNL d   1       0.677  -1.903   2.331  0.00  0.00    -0.032 C 
ATOM      3  C   UNL d   1       0.811   0.449   3.052  0.00  0.00    -0.032 C 
ATOM      4  C   UNL d   1       0.213   0.102   4.296  0.00  0.00    -0.048 C 
ATOM      5  C   UNL d   1       0.161  -2.256   3.606  0.00  0.00    -0.048 C 
ATOM      6  C   UNL d   1      -0.090  -1.253   4.580  0.00  0.00    -0.049 C 
ATOM      7  C   UNL d   1       1.405   1.832   2.905  0.00  0.00     0.050 C 
ATOM      8  C   UNL d   1       0.999  -3.012   1.354  0.00  0.00     0.050 C 
ATOM      9  C   UNL d   1      -0.102  -3.704   3.983  0.00  0.00     0.049 C 
ATOM     10  C   UNL d   1      -0.079   1.164   5.335  0.00  0.00     0.049 C 
ATOM     11  C   UNL d   1      -0.585  -1.675   5.950  0.00  0.00     0.049 C 
ENDROOT
BRANCH   1  12
ATOM     12  S   UNL d   1       1.345  -0.035   0.345  0.00  0.00     0.244 S 
ATOM     13  O   UNL d   1       0.925  -1.067  -0.576  0.00  0.00    -0.206 OA
ATOM     14  O   UNL d   1       2.733   0.390   0.370  0.00  0.00    -0.206 OA
BRANCH  12  15
ATOM     15  N   UNL d   1       0.363   1.330  -0.030  0.00  0.00    -0.206 NA
ATOM     16  C   UNL d   1      -1.117   1.119  -0.089  0.00  0.00     0.112 C 
ATOM     17  C   UNL d   1      -1.579   0.476  -1.411  0.00  0.00    -0.004 C 
ATOM     18  C   UNL d   1      -3.105   0.414  -1.498  0.00  0.00     0.011 C 
ATOM     19  C   UNL d   1      -1.009   1.208  -2.638  0.00  0.00     0.011 C 
ATOM     20  C   UNL d   1       0.508   1.393  -2.522  0.00  0.00    -0.004 C 
ATOM     21  C   UNL d   1       0.840   2.115  -1.210  0.00  0.00     0.112 C 
ATOM     22  C   UNL d   1       1.070   2.132  -3.734  0.00  0.00     0.011 C 
ENDBRANCH  12  15
ENDBRANCH   1  12
TORSDOF 2
