REMARK  4 active torsions:
REMARK  status: ('A' for Active; 'I' for Inactive)
REMARK    1  A    between atoms: C_6  and  C_10 
REMARK    2  A    between atoms: C_17  and  C_8 
REMARK    3  A    between atoms: C_10  and  C_16 
REMARK    4  A    between atoms: C_16  and  N_14 
ROOT
ATOM      1  C   UNL d   1       2.852  -0.904   0.177  0.00  0.00     0.148 A 
ATOM      2  N   UNL d   1       1.821  -1.196  -0.587  0.00  0.00    -0.335 N 
ATOM      3  HN  UNL d   1       1.808  -1.957  -1.265  1.00  0.00     0.168 HD
ATOM      4  S   UNL d   1       2.584   0.472   1.196  0.00  0.00    -0.052 SA
ATOM      5  N   UNL d   1       4.020  -1.606   0.151  0.00  0.00    -0.358 N 
ATOM      6  C   UNL d   1       0.757  -0.341  -0.356  0.00  0.00     0.053 A 
ATOM      7  C   UNL d   1       0.991   0.654   0.589  0.00  0.00     0.035 A 
ATOM      8  N   UNL d   1       5.702  -3.972   0.681  0.00  0.00     0.099 N 
ATOM      9  C   UNL d   1      -0.502  -0.400  -0.989  0.00  0.00     0.054 A 
ATOM     10  C   UNL d   1       4.273  -2.570  -0.925  0.00  0.00     0.155 C 
ATOM     11  C   UNL d   1       5.051  -1.533   1.185  0.00  0.00     0.155 C 
ATOM     12  C   UNL d   1       0.017   1.609   0.923  0.00  0.00     0.023 A 
ATOM     13  C   UNL d   1      -1.480   0.538  -0.652  0.00  0.00     0.036 A 
ATOM     14  C   UNL d   1       4.623  -3.955  -0.338  0.00  0.00     0.292 C 
ATOM     15  C   UNL d   1       5.392  -2.952   1.713  0.00  0.00     0.292 C 
ATOM     16  C   UNL d   1      -1.225   1.533   0.287  0.00  0.00     0.025 A 
ATOM     17 CL   UNL d   1      -3.025   0.464  -1.407  0.00  0.00    -0.084 Cl
ENDROOT
BRANCH   8  18
ATOM     18  C   UNL d   1       7.054  -3.752   0.118  0.00  0.00     0.356 C 
BRANCH  18  19
ATOM     19  C   UNL d   1       7.425  -4.768  -0.972  0.00  0.00     0.194 C 
ATOM     20  O   UNL d   1       7.596  -4.350  -2.123  0.00  0.00    -0.290 OA
BRANCH  19  21
ATOM     21  C   UNL d   1       7.562  -6.188  -0.655  0.00  0.00     0.053 A 
ATOM     22  S   UNL d   1       7.527  -6.803   0.936  0.00  0.00    -0.085 SA
ATOM     23  C   UNL d   1       7.778  -8.423   0.425  0.00  0.00     0.032 A 
ATOM     24  C   UNL d   1       7.828  -8.486  -0.957  0.00  0.00     0.023 A 
ATOM     25  C   UNL d   1       7.751  -7.205  -1.571  0.00  0.00     0.024 A 
BRANCH  23  26
ATOM     26  C   UNL d   1       7.986  -9.520   1.386  0.00  0.00     0.049 A 
ATOM     27  N   UNL d   1       8.598 -10.604   0.844  0.00  0.00    -0.365 N 
ATOM     28  C   UNL d   1       8.949 -11.607   1.677  0.00  0.00     0.088 A 
ATOM     29  HN  UNL d   1       8.787 -10.659  -0.157  1.00  0.00     0.165 HD
ATOM     30  C   UNL d   1       8.713 -11.593   3.039  0.00  0.00     0.017 A 
ATOM     31  C   UNL d   1       8.053 -10.496   3.576  0.00  0.00     0.004 A 
ATOM     32  C   UNL d   1       7.674  -9.446   2.741  0.00  0.00     0.031 A 
ENDBRANCH  23  26
ENDBRANCH  19  21
ENDBRANCH  18  19
ENDBRANCH   8  18
TORSDOF 4
