REMARK  4 active torsions:
REMARK  status: ('A' for Active; 'I' for Inactive)
REMARK       I    between atoms: N_2  and  C_1 
REMARK       I    between atoms: N_3  and  C_1 
REMARK    1  A    between atoms: C_10  and  N_3 
REMARK    2  A    between atoms: C_9  and  N_4 
REMARK    3  A    between atoms: C_6  and  C_7 
REMARK    4  A    between atoms: C_19  and  C_9 
ROOT
ATOM      1  C   UNL d   1       0.825   0.427   0.005  0.00  0.00     0.322 C 
ATOM      2  N   UNL d   1       0.344  -0.367   1.053  0.00  0.00    -0.332 N 
ATOM      3  N   UNL d   1       1.810   1.324   0.344  0.00  0.00    -0.309 N 
ATOM      4  N   UNL d   1      -2.086  -1.141   2.880  0.00  0.00     0.094 N 
ATOM      5  O   UNL d   1       0.384   0.290  -1.135  0.00  0.00    -0.247 OA
ATOM      6  C   UNL d   1      -0.677  -1.375   0.728  0.00  0.00     0.157 C 
ATOM      7  C   UNL d   1      -2.038  -1.156   1.410  0.00  0.00     0.292 C 
ATOM      8  C   UNL d   1       0.010   0.278   3.463  0.00  0.00     0.050 C 
ATOM      9  C   UNL d   1       0.865  -0.428   2.413  0.00  0.00     0.129 C 
ATOM     10  C   UNL d   1      -1.512   0.086   3.429  0.00  0.00     0.274 C 
ATOM     11  H   UNL d   1       2.048   1.408   1.313  0.00  0.00     0.170 HD
ENDROOT
BRANCH   3  12
ATOM     12  C   UNL d   1       2.474   2.243  -0.504  0.00  0.00     0.036 A 
ATOM     13  C   UNL d   1       2.180   2.426  -1.852  0.00  0.00     0.030 A 
ATOM     14  C   UNL d   1       2.809   3.439  -2.588  0.00  0.00     0.010 A 
ATOM     15  C   UNL d   1       3.762   4.296  -2.009  0.00  0.00    -0.051 A 
ATOM     16  C   UNL d   1       4.107   4.048  -0.673  0.00  0.00     0.010 A 
ATOM     17  C   UNL d   1       3.469   3.042   0.068  0.00  0.00     0.030 A 
BRANCH  15  18
ATOM     18  C   UNL d   1       4.323   5.481  -2.812  0.00  0.00    -0.024 C 
ATOM     19  C   UNL d   1       5.375   6.313  -2.046  0.00  0.00     0.019 C 
ATOM     20  C   UNL d   1       4.985   4.992  -4.117  0.00  0.00     0.019 C 
ATOM     21  C   UNL d   1       3.157   6.433  -3.162  0.00  0.00     0.019 C 
ENDBRANCH  15  18
ENDBRANCH   3  12
BRANCH   4  22
ATOM     22  C   UNL d   1      -1.649  -2.366   3.552  0.00  0.00     0.311 C 
BRANCH  22  23
ATOM     23  C   UNL d   1      -2.444  -3.601   3.182  0.00  0.00    -0.030 A 
ATOM     24  C   UNL d   1      -1.834  -4.666   2.499  0.00  0.00     0.009 A 
ATOM     25  C   UNL d   1      -2.558  -5.819   2.187  0.00  0.00     0.001 A 
ATOM     26  C   UNL d   1      -3.897  -5.920   2.556  0.00  0.00     0.000 A 
ATOM     27  C   UNL d   1      -4.517  -4.870   3.228  0.00  0.00     0.001 A 
ATOM     28  C   UNL d   1      -3.795  -3.714   3.537  0.00  0.00     0.009 A 
ENDBRANCH  22  23
ENDBRANCH   4  22
TORSDOF 4
