REMARK  2 active torsions:
REMARK  status: ('A' for Active; 'I' for Inactive)
REMARK    1  A    between atoms: C_5  and  C_1 
REMARK    2  A    between atoms: O_11  and  N_6 
ROOT
ATOM      1  C   UNL d   1      -3.724  -1.390  -0.044  0.00  0.00     0.010 A 
ATOM      2  C   UNL d   1      -3.789   0.006  -0.168  0.00  0.00     0.048 A 
ATOM      3  C   UNL d   1      -5.032   0.654  -0.125  0.00  0.00     0.048 A 
ATOM      4  C   UNL d   1      -4.918  -2.122   0.078  0.00  0.00     0.017 A 
ATOM      5  C   UNL d   1      -6.205  -0.085   0.011  0.00  0.00     0.035 A 
ATOM      6 CL   UNL d   1      -2.411   1.005  -0.465  0.00  0.00    -0.083 Cl
ATOM      7  C   UNL d   1      -6.155  -1.474   0.104  0.00  0.00     0.025 A 
ATOM      8 CL   UNL d   1      -7.724   0.717   0.045  0.00  0.00    -0.084 Cl
ENDROOT
BRANCH   1   9
ATOM      9  C   UNL d   1      -2.460  -2.187  -0.059  0.00  0.00     0.040 C 
ATOM     10  N   UNL d   1      -2.457  -3.309  -0.722  0.00  0.00    -0.273 N 
ATOM     11  HN  UNL d   1      -3.253  -3.665  -1.250  1.00  0.00     0.194 HD
ATOM     12  C   UNL d   1      -1.266  -1.697   0.735  0.00  0.00     0.071 C 
BRANCH  10  13
ATOM     13  O   UNL d   1      -1.226  -3.966  -0.619  0.00  0.00    -0.290 OA
ATOM     14  H   UNL d   1      -1.384  -4.788  -1.120  0.00  0.00     0.244 HD
ENDBRANCH  10  13
ENDBRANCH   1   9
TORSDOF 2
