REMARK  6 active torsions:
REMARK  status: ('A' for Active; 'I' for Inactive)
REMARK    1  A    between atoms: S_2  and  C_1 
REMARK    2  A    between atoms: C_14  and  S_2 
REMARK    3  A    between atoms: S_16  and  C_3 
REMARK    4  A    between atoms: C_7  and  C_5 
REMARK       I    between atoms: N_9  and  C_7 
REMARK       I    between atoms: C_8  and  N_10 
REMARK    5  A    between atoms: C_13  and  C_8 
REMARK    6  A    between atoms: N_10  and  N_9 
ROOT
ATOM      1  C   UNL d   1      -0.242  -2.639   0.003  0.00  0.00     0.277 C 
ATOM      2  N   UNL d   1      -1.567  -2.955  -0.239  0.00  0.00    -0.263 N 
ATOM      3  O   UNL d   1       0.580  -3.540   0.191  0.00  0.00    -0.265 OA
ATOM      4  H   UNL d   1      -2.296  -2.264  -0.402  0.00  0.00     0.190 HD
ENDROOT
BRANCH   1   5
ATOM      5  C   UNL d   1       0.128  -1.231  -0.005  0.00  0.00     0.077 A 
ATOM      6  C   UNL d   1       1.387  -0.736   0.252  0.00  0.00     0.050 A 
ATOM      7  C   UNL d   1       1.506   0.684   0.062  0.00  0.00     0.084 A 
ATOM      8  C   UNL d   1       0.311   1.245  -0.358  0.00  0.00     0.063 A 
ATOM      9  S   UNL d   1      -0.942   0.035  -0.380  0.00  0.00    -0.076 SA
BRANCH   7  10
ATOM     10  S   UNL d   1       3.069   1.428   0.242  0.00  0.00     0.180 S 
ATOM     11  O   UNL d   1       2.828   2.655   0.963  0.00  0.00    -0.222 OA
ATOM     12  O   UNL d   1       3.902   0.389   0.822  0.00  0.00    -0.222 OA
BRANCH  10  13
ATOM     13  C   UNL d   1       3.653   1.768  -1.418  0.00  0.00     0.105 C 
ATOM     14  C   UNL d   1       5.066   2.341  -1.342  0.00  0.00     0.026 C 
ATOM     15  C   UNL d   1       3.645   0.517  -2.293  0.00  0.00     0.026 C 
ENDBRANCH  10  13
ENDBRANCH   7  10
BRANCH   8  16
ATOM     16  S   UNL d   1      -0.138   2.823  -1.005  0.00  0.00    -0.126 SA
ATOM     17  C   UNL d   1       0.568   4.073   0.076  0.00  0.00     0.096 C 
ENDBRANCH   8  16
ENDBRANCH   1   5
BRANCH   2  18
ATOM     18  N   UNL d   1      -1.922  -4.309  -0.325  0.00  0.00    -0.263 N 
ATOM     19  C   UNL d   1      -3.257  -4.637  -0.424  0.00  0.00     0.270 C 
ATOM     20  O   UNL d   1      -4.143  -3.791  -0.487  0.00  0.00    -0.266 OA
ATOM     21  H   UNL d   1      -1.187  -4.977  -0.089  0.00  0.00     0.190 HD
BRANCH  19  22
ATOM     22  C   UNL d   1      -3.587  -6.090  -0.428  0.00  0.00     0.033 A 
ATOM     23  C   UNL d   1      -4.860  -6.480   0.013  0.00  0.00     0.019 A 
ATOM     24  C   UNL d   1      -5.224  -7.830   0.011  0.00  0.00     0.025 A 
ATOM     25  C   UNL d   1      -4.322  -8.790  -0.441  0.00  0.00     0.034 A 
ATOM     26  C   UNL d   1      -3.057  -8.413  -0.892  0.00  0.00     0.025 A 
ATOM     27 CL   UNL d   1      -4.775 -10.449  -0.455  0.00  0.00    -0.084 Cl
ATOM     28  C   UNL d   1      -2.687  -7.063  -0.888  0.00  0.00     0.019 A 
ENDBRANCH  19  22
ENDBRANCH   2  18
TORSDOF 6
