REMARK  5 active torsions:
REMARK  status: ('A' for Active; 'I' for Inactive)
REMARK       I    between atoms: C_9  and  N_7 
REMARK    1  A    between atoms: C_23  and  C_9 
REMARK    2  A    between atoms: C_11  and  C_25 
REMARK    3  A    between atoms: O_21  and  C_11 
REMARK    4  A    between atoms: S_20  and  C_23 
REMARK    5  A    between atoms: C_25  and  S_20 
ROOT
ATOM      1  C   UNL d   1       2.841  -1.205   0.028  0.00  0.00     0.148 A 
ATOM      2  N   UNL d   1       1.897  -1.396  -0.870  0.00  0.00    -0.335 N 
ATOM      3  HN  UNL d   1       1.959  -2.071  -1.632  1.00  0.00     0.168 HD
ATOM      4  S   UNL d   1       2.455   0.039   1.172  0.00  0.00    -0.052 SA
ATOM      5  N   UNL d   1       4.002  -1.922   0.072  0.00  0.00    -0.358 N 
ATOM      6  C   UNL d   1       0.806  -0.565  -0.650  0.00  0.00     0.053 A 
ATOM      7  N   UNL d   1       5.774  -4.082   0.668  0.00  0.00    -0.348 N 
ATOM      8  C   UNL d   1       0.931   0.294   0.438  0.00  0.00     0.035 A 
ATOM      9  C   UNL d   1       7.003  -4.709   0.748  0.00  0.00     0.229 C 
ATOM     10  C   UNL d   1      -0.382  -0.527  -1.409  0.00  0.00     0.054 A 
ATOM     11  C   UNL d   1       4.338  -2.869  -1.001  0.00  0.00     0.145 C 
ATOM     12  C   UNL d   1       5.041  -1.750   1.092  0.00  0.00     0.145 C 
ATOM     13  C   UNL d   1       5.387  -3.118   1.707  0.00  0.00     0.145 C 
ATOM     14  C   UNL d   1       4.769  -4.232  -0.405  0.00  0.00     0.145 C 
ATOM     15  O   UNL d   1       7.827  -4.445   1.636  0.00  0.00    -0.273 OA
ATOM     16  C   UNL d   1      -0.082   1.194   0.807  0.00  0.00     0.023 A 
ATOM     17  C   UNL d   1      -1.398   0.363  -1.045  0.00  0.00     0.036 A 
ATOM     18  C   UNL d   1      -1.254   1.212   0.047  0.00  0.00     0.025 A 
ATOM     19 CL   UNL d   1      -2.857   0.406  -1.960  0.00  0.00    -0.084 Cl
ENDROOT
BRANCH   9  20
ATOM     20  C   UNL d   1       7.404  -5.713  -0.321  0.00  0.00     0.177 C 
BRANCH  20  21
ATOM     21  S   UNL d   1       8.319  -4.875  -1.659  0.00  0.00    -0.149 SA
BRANCH  21  22
ATOM     22  C   UNL d   1       9.738  -4.181  -0.741  0.00  0.00     0.184 C 
BRANCH  22  23
ATOM     23  C   UNL d   1      10.576  -5.244  -0.066  0.00  0.00     0.149 C 
ATOM     24  O   UNL d   1      11.461  -5.874  -0.625  0.00  0.00    -0.649 OA
BRANCH  23  25
ATOM     25  O   UNL d   1      10.250  -5.465   1.230  0.00  0.00    -0.776 OA
ATOM     26  H   UNL d   1       9.483  -4.939   1.566  0.00  0.00     0.167 HD
ENDBRANCH  23  25
ENDBRANCH  22  23
ENDBRANCH  21  22
ENDBRANCH  20  21
ENDBRANCH   9  20
TORSDOF 5
