REMARK  6 active torsions:
REMARK  status: ('A' for Active; 'I' for Inactive)
REMARK       I    between atoms: N_2  and  C_1 
REMARK    1  A    between atoms: C_3  and  C_1 
REMARK       I    between atoms: C_5  and  N_2 
REMARK    2  A    between atoms: C_4  and  C_6 
REMARK       I    between atoms: N_10  and  C_5 
REMARK    3  A    between atoms: C_9  and  N_12 
REMARK    4  A    between atoms: N_12  and  N_10 
REMARK    5  A    between atoms: O_23  and  C_14 
REMARK    6  A    between atoms: O_22  and  C_15 
ROOT
ATOM      1  C   UNL d   1       0.874  -0.211  -0.151  0.00  0.00     0.265 C 
ATOM      2  N   UNL d   1       0.569   1.110  -0.454  0.00  0.00    -0.274 N 
ATOM      3  C   UNL d   1       1.131   1.930  -1.407  0.00  0.00     0.337 C 
ATOM      4  N   UNL d   1       2.275   1.450  -2.011  0.00  0.00    -0.267 N 
ATOM      5  O   UNL d   1       1.757  -0.797  -0.777  0.00  0.00    -0.267 OA
ATOM      6  O   UNL d   1       0.624   3.021  -1.666  0.00  0.00    -0.246 OA
ATOM      7  H   UNL d   1      -0.240   1.522  -0.008  0.00  0.00     0.173 HD
ATOM      8  H   UNL d   1       2.396   0.437  -1.958  0.00  0.00     0.186 HD
ENDROOT
BRANCH   4   9
ATOM      9  N   UNL d   1       2.648   2.069  -3.227  0.00  0.00    -0.186 NA
ATOM     10  H   UNL d   1       2.485   3.081  -3.205  0.00  0.00     0.154 HD
BRANCH   9  11
ATOM     11  C   UNL d   1       3.988   1.877  -3.617  0.00  0.00     0.099 A 
ATOM     12  N   UNL d   1       4.651   2.961  -4.073  0.00  0.00    -0.350 N 
ATOM     13  C   UNL d   1       5.905   2.810  -4.555  0.00  0.00     0.007 A 
ATOM     14  HN  UNL d   1       4.212   3.881  -4.054  1.00  0.00     0.167 HD
ATOM     15  C   UNL d   1       6.598   4.033  -5.078  0.00  0.00     0.068 C 
ATOM     16  C   UNL d   1       6.543   1.578  -4.602  0.00  0.00     0.041 A 
ATOM     17  C   UNL d   1       5.861   0.448  -4.144  0.00  0.00     0.052 A 
ATOM     18  C   UNL d   1       4.562   0.609  -3.647  0.00  0.00     0.060 A 
BRANCH  17  19
ATOM     19  C   UNL d   1       6.506  -0.906  -4.222  0.00  0.00     0.417 C 
ATOM     20  F   UNL d   1       5.733  -1.915  -3.736  0.00  0.00    -0.166 F 
ATOM     21  F   UNL d   1       6.816  -1.257  -5.502  0.00  0.00    -0.166 F 
ATOM     22  F   UNL d   1       7.678  -0.965  -3.529  0.00  0.00    -0.166 F 
ENDBRANCH  17  19
ENDBRANCH   9  11
ENDBRANCH   4   9
BRANCH   1  23
ATOM     23  C   UNL d   1       0.075  -0.881   0.959  0.00  0.00     0.099 A 
ATOM     24  C   UNL d   1      -1.038  -0.255   1.581  0.00  0.00     0.086 A 
ATOM     25  C   UNL d   1      -1.708  -0.899   2.633  0.00  0.00     0.038 A 
ATOM     26  C   UNL d   1      -1.312  -2.160   3.064  0.00  0.00     0.005 A 
ATOM     27  C   UNL d   1      -0.246  -2.798   2.444  0.00  0.00     0.038 A 
ATOM     28  C   UNL d   1       0.441  -2.182   1.387  0.00  0.00     0.086 A 
BRANCH  24  29
ATOM     29  O   UNL d   1      -1.413   0.997   1.150  0.00  0.00    -0.355 OA
ATOM     30  C   UNL d   1      -2.744   1.420   1.450  0.00  0.00     0.210 C 
ENDBRANCH  24  29
BRANCH  28  31
ATOM     31  O   UNL d   1       1.510  -2.800   0.787  0.00  0.00    -0.355 OA
ATOM     32  C   UNL d   1       1.536  -4.224   0.805  0.00  0.00     0.210 C 
ENDBRANCH  28  31
ENDBRANCH   1  23
TORSDOF 6
