REMARK  2 active torsions:
REMARK  status: ('A' for Active; 'I' for Inactive)
REMARK    1  A    between atoms: C_7  and  N_1 
REMARK    2  A    between atoms: C_8  and  C_2 
ROOT
ATOM      1  N   UNL d   1      -0.304  -1.147   0.184  0.00  0.00    -0.242 N 
ATOM      2  C   UNL d   1      -0.362   1.038   0.038  0.00  0.00     0.115 C 
ATOM      3  N   UNL d   1       0.918  -0.662   0.516  0.00  0.00    -0.014 NA
ATOM      4  N   UNL d   1       0.908   0.650   0.365  0.00  0.00    -0.278 N 
ATOM      5  HN  UNL d   1       1.712   1.269   0.474  1.00  0.00     0.184 HD
ATOM      6  C   UNL d   1      -1.176  -0.087  -0.022  0.00  0.00     0.060 C 
ATOM      7  C   UNL d   1      -2.650  -0.203  -0.157  0.00  0.00     0.072 C 
ENDROOT
BRANCH   1   8
ATOM      8  C   UNL d   1      -0.504  -2.551   0.095  0.00  0.00     0.058 A 
ATOM      9  C   UNL d   1       0.349  -3.403   0.814  0.00  0.00     0.055 A 
ATOM     10  C   UNL d   1       0.173  -4.787   0.748  0.00  0.00     0.037 A 
ATOM     11 CL   UNL d   1       1.182  -5.820   1.679  0.00  0.00    -0.084 Cl
ATOM     12  C   UNL d   1      -0.822  -5.336  -0.057  0.00  0.00     0.048 A 
ATOM     13  C   UNL d   1      -1.642  -4.491  -0.795  0.00  0.00     0.037 A 
ATOM     14  C   UNL d   1      -1.496  -3.102  -0.723  0.00  0.00     0.055 A 
ATOM     15 CL   UNL d   1      -2.841  -5.163  -1.831  0.00  0.00    -0.084 Cl
ENDBRANCH   1   8
BRANCH   2  16
ATOM     16  C   UNL d   1      -0.726   2.438  -0.153  0.00  0.00     0.175 C 
ATOM     17  O   UNL d   1      -1.879   2.781  -0.422  0.00  0.00    -0.291 OA
ATOM     18  C   UNL d   1       0.346   3.488   0.012  0.00  0.00     0.098 C 
ENDBRANCH   2  16
TORSDOF 2
