REMARK  4 active torsions:
REMARK  status: ('A' for Active; 'I' for Inactive)
REMARK    1  A    between atoms: C_2  and  S_1 
REMARK    2  A    between atoms: C_7  and  S_1 
REMARK    3  A    between atoms: C_3  and  C_2 
REMARK    4  A    between atoms: C_9  and  C_7 
ROOT
ATOM      1  S   UNL d   1       0.889  -0.105   0.095  0.00  0.00     0.154 S 
ATOM      2  O   UNL d   1       0.510  -0.327   1.484  0.00  0.00    -0.227 OA
ATOM      3  O   UNL d   1       0.389   1.082  -0.577  0.00  0.00    -0.227 OA
ENDROOT
BRANCH   1   4
ATOM      4  C   UNL d   1       0.336  -1.518  -0.836  0.00  0.00     0.209 C 
BRANCH   4   5
ATOM      5  C   UNL d   1       0.797  -2.822  -0.248  0.00  0.00     0.085 C 
ATOM      6  S   UNL d   1       1.672  -3.944  -1.119  0.00  0.00    -0.065 SA
ATOM      7  N   UNL d   1       0.389  -3.139   1.011  0.00  0.00    -0.393 N 
ATOM      8  H   UNL d   1      -0.060  -2.463   1.630  0.00  0.00     0.156 HD
ATOM      9  H   UNL d   1       0.675  -4.020   1.428  0.00  0.00     0.156 HD
ENDBRANCH   4   5
ENDBRANCH   1   4
BRANCH   1  10
ATOM     10  C   UNL d   1       2.685  -0.101   0.027  0.00  0.00     0.179 C 
BRANCH  10  11
ATOM     11  C   UNL d   1       3.208  -0.115  -1.387  0.00  0.00    -0.044 A 
ATOM     12  C   UNL d   1       2.948   0.938  -2.280  0.00  0.00     0.011 A 
ATOM     13  C   UNL d   1       3.435   0.899  -3.588  0.00  0.00     0.043 A 
ATOM     14  C   UNL d   1       4.207  -0.178  -4.003  0.00  0.00     0.116 A 
ATOM     15  C   UNL d   1       4.515  -1.209  -3.126  0.00  0.00     0.043 A 
ATOM     16  F   UNL d   1       4.666  -0.219  -5.260  0.00  0.00    -0.206 F 
ATOM     17  C   UNL d   1       4.027  -1.172  -1.819  0.00  0.00     0.011 A 
ENDBRANCH  10  11
ENDBRANCH   1  10
TORSDOF 4
