REMARK  5 active torsions:
REMARK  status: ('A' for Active; 'I' for Inactive)
REMARK    1  A    between atoms: C_6  and  C_1 
REMARK    2  A    between atoms: S_14  and  C_3 
REMARK    3  A    between atoms: C_7  and  C_6 
REMARK    4  A    between atoms: N_12  and  C_8 
REMARK    5  A    between atoms: C_16  and  N_12 
ROOT
ATOM      1  C   UNL d   1      -2.188  -3.449   0.056  0.00  0.00     0.111 C 
ATOM      2  C   UNL d   1      -2.829  -4.556  -0.376  0.00  0.00     0.115 C 
ATOM      3  C   UNL d   1      -2.922  -2.371   0.618  0.00  0.00     0.105 C 
ATOM      4  N   UNL d   1      -3.573  -1.515   1.059  0.00  0.00    -0.191 NA
ENDROOT
BRANCH   1   5
ATOM      5  C   UNL d   1      -0.684  -3.377   0.015  0.00  0.00     0.211 C 
ATOM      6  O   UNL d   1      -0.049  -4.428   0.117  0.00  0.00    -0.285 OA
BRANCH   5   7
ATOM      7  C   UNL d   1      -0.014  -2.075  -0.086  0.00  0.00     0.065 C 
ATOM      8  S   UNL d   1      -0.670  -0.832  -1.071  0.00  0.00    -0.078 SA
ATOM      9  C   UNL d   1       0.533   0.295  -0.625  0.00  0.00     0.052 C 
ATOM     10  C   UNL d   1       1.501  -0.308   0.152  0.00  0.00    -0.005 A 
ATOM     11  C   UNL d   1       1.207  -1.684   0.452  0.00  0.00    -0.025 A 
ATOM     12  C   UNL d   1       2.694   0.309   0.640  0.00  0.00     0.010 A 
ATOM     13  C   UNL d   1       2.134  -2.529   1.288  0.00  0.00     0.045 A 
ATOM     14  C   UNL d   1       3.452  -1.834   1.702  0.00  0.00     0.032 A 
ATOM     15  C   UNL d   1       3.601  -0.377   1.352  0.00  0.00    -0.025 A 
BRANCH   9  16
ATOM     16  S   UNL d   1       0.499   1.956  -1.218  0.00  0.00    -0.126 SA
ATOM     17  C   UNL d   1      -1.046   2.552  -0.488  0.00  0.00     0.096 C 
ENDBRANCH   9  16
ENDBRANCH   5   7
ENDBRANCH   1   5
BRANCH   2  18
ATOM     18  N   UNL d   1      -4.190  -4.785  -0.347  0.00  0.00    -0.364 N 
ATOM     19  H   UNL d   1      -4.761  -4.048   0.062  0.00  0.00     0.165 HD
BRANCH  18  20
ATOM     20  C   UNL d   1      -4.952  -5.859  -0.841  0.00  0.00     0.032 A 
ATOM     21  C   UNL d   1      -6.280  -5.979  -0.387  0.00  0.00     0.031 A 
ATOM     22  C   UNL d   1      -7.104  -7.026  -0.805  0.00  0.00     0.026 A 
ATOM     23  C   UNL d   1      -6.606  -7.977  -1.684  0.00  0.00     0.034 A 
ATOM     24  C   UNL d   1      -5.291  -7.891  -2.138  0.00  0.00     0.026 A 
ATOM     25 CL   UNL d   1      -7.619  -9.263  -2.214  0.00  0.00    -0.084 Cl
ATOM     26  C   UNL d   1      -4.464  -6.842  -1.706  0.00  0.00     0.031 A 
ENDBRANCH  18  20
ENDBRANCH   2  18
TORSDOF 5
