REMARK  3 active torsions:
REMARK  status: ('A' for Active; 'I' for Inactive)
REMARK    1  A    between atoms: N_7  and  C_1 
REMARK    2  A    between atoms: C_6  and  C_9 
REMARK       I    between atoms: C_9  and  N_7 
REMARK    3  A    between atoms: O_18  and  C_14 
ROOT
ATOM      1  C   UNL d   1      -1.008   1.702  -0.067  0.00  0.00     0.138 A 
ATOM      2  N   UNL d   1      -2.019   0.838  -0.156  0.00  0.00    -0.282 N 
ATOM      3  HN  UNL d   1      -3.012   1.057  -0.229  1.00  0.00     0.189 HD
ATOM      4  C   UNL d   1       0.276   1.016  -0.051  0.00  0.00     0.071 A 
ATOM      5  N   UNL d   1      -1.462  -0.364  -0.130  0.00  0.00    -0.294 N 
ATOM      6  C   UNL d   1      -0.097  -0.345  -0.072  0.00  0.00     0.067 A 
ATOM      7  C   UNL d   1       1.684   1.272  -0.017  0.00  0.00     0.084 A 
ATOM      8  C   UNL d   1      -2.312  -1.533  -0.137  0.00  0.00     0.178 C 
ATOM      9  C   UNL d   1       0.807  -1.420  -0.031  0.00  0.00     0.032 A 
ATOM     10  C   UNL d   1       2.161  -1.136   0.025  0.00  0.00     0.005 A 
ATOM     11  C   UNL d   1       2.586   0.181   0.027  0.00  0.00     0.038 A 
ENDROOT
BRANCH   1  12
ATOM     12  N   UNL d   1      -1.268   3.057   0.042  0.00  0.00    -0.306 N 
ATOM     13  C   UNL d   1      -2.514   3.658  -0.039  0.00  0.00     0.264 C 
ATOM     14  O   UNL d   1      -3.564   3.096  -0.342  0.00  0.00    -0.267 OA
ATOM     15  H   UNL d   1      -0.509   3.659   0.279  0.00  0.00     0.170 HD
BRANCH  13  16
ATOM     16  C   UNL d   1      -2.519   5.095   0.259  0.00  0.00     0.074 A 
ATOM     17  S   UNL d   1      -1.145   5.944   0.817  0.00  0.00    -0.084 SA
ATOM     18  C   UNL d   1      -2.017   7.415   1.017  0.00  0.00     0.016 A 
ATOM     19  C   UNL d   1      -1.531   8.633   1.532  0.00  0.00     0.019 A 
ATOM     20  C   UNL d   1      -3.342   7.278   0.600  0.00  0.00    -0.018 A 
ATOM     21  C   UNL d   1      -2.403   9.721   1.633  0.00  0.00     0.001 A 
ATOM     22  C   UNL d   1      -3.720   9.611   1.211  0.00  0.00     0.001 A 
ATOM     23  C   UNL d   1      -4.195   8.404   0.689  0.00  0.00     0.013 A 
ATOM     24  C   UNL d   1      -3.606   5.942   0.157  0.00  0.00     0.037 A 
ENDBRANCH  13  16
ENDBRANCH   1  12
BRANCH   7  25
ATOM     25  O   UNL d   1       2.425   2.452  -0.031  0.00  0.00    -0.355 OA
ATOM     26  C   UNL d   1       1.792   3.698  -0.145  0.00  0.00     0.210 C 
ENDBRANCH   7  25
TORSDOF 3
