REMARK  6 active torsions:
REMARK  status: ('A' for Active; 'I' for Inactive)
REMARK    1  A    between atoms: C_2  and  C_1 
REMARK    2  A    between atoms: C_3  and  C_1 
REMARK    3  A    between atoms: C_6  and  C_2 
REMARK    4  A    between atoms: C_7  and  C_3 
REMARK    5  A    between atoms: N_8  and  N_4 
REMARK    6  A    between atoms: C_9  and  N_8 
ROOT
ATOM      1  C   UNL d   1       1.064  -0.056  -0.121  0.00  0.00     0.155 C 
ATOM      2  N   UNL d   1       2.369  -0.138  -0.132  0.00  0.00    -0.293 N 
ATOM      3  HN  UNL d   1       2.834  -0.527   0.688  1.00  0.00     0.187 HD
ENDROOT
BRANCH   1   4
ATOM      4  C   UNL d   1       0.217   0.471  -1.254  0.00  0.00     0.287 C 
ATOM      5  O   UNL d   1      -0.769  -0.181  -1.611  0.00  0.00    -0.281 OA
BRANCH   4   6
ATOM      6  C   UNL d   1       0.654   1.729  -1.929  0.00  0.00     0.457 C 
ATOM      7  F   UNL d   1       1.576   2.450  -1.237  0.00  0.00    -0.163 F 
ATOM      8  F   UNL d   1       1.231   1.454  -3.136  0.00  0.00    -0.163 F 
ATOM      9  F   UNL d   1      -0.372   2.586  -2.186  0.00  0.00    -0.163 F 
ENDBRANCH   4   6
ENDBRANCH   1   4
BRANCH   1  10
ATOM     10  C   UNL d   1       0.363  -0.638   1.105  0.00  0.00     0.220 C 
ATOM     11  O   UNL d   1      -0.704  -1.204   0.901  0.00  0.00    -0.284 OA
BRANCH  10  12
ATOM     12  C   UNL d   1       0.977  -0.523   2.425  0.00  0.00     0.057 A 
ATOM     13  S   UNL d   1       0.193  -1.334   3.734  0.00  0.00    -0.098 SA
ATOM     14  C   UNL d   1       1.380  -0.846   4.856  0.00  0.00     0.050 A 
ATOM     15  C   UNL d   1       2.351  -0.071   4.269  0.00  0.00     0.009 A 
ATOM     16  C   UNL d   1       2.112   0.126   2.873  0.00  0.00     0.023 A 
ENDBRANCH  10  12
ENDBRANCH   1  10
BRANCH   2  17
ATOM     17  N   UNL d   1       3.132   0.264  -1.168  0.00  0.00    -0.299 N 
ATOM     18  H   UNL d   1       2.825   0.704  -2.038  0.00  0.00     0.187 HD
BRANCH  17  19
ATOM     19  C   UNL d   1       4.538   0.316  -1.008  0.00  0.00     0.070 A 
ATOM     20  C   UNL d   1       5.345   0.931  -1.988  0.00  0.00     0.063 A 
ATOM     21  C   UNL d   1       6.737   0.946  -1.881  0.00  0.00     0.050 A 
ATOM     22 CL   UNL d   1       4.624   1.700  -3.362  0.00  0.00    -0.082 Cl
ATOM     23  C   UNL d   1       7.343   0.349  -0.781  0.00  0.00     0.035 A 
ATOM     24  C   UNL d   1       6.570  -0.236   0.219  0.00  0.00     0.026 A 
ATOM     25 CL   UNL d   1       9.058   0.324  -0.658  0.00  0.00    -0.084 Cl
ATOM     26  C   UNL d   1       5.176  -0.249   0.106  0.00  0.00     0.034 A 
ENDBRANCH  17  19
ENDBRANCH   2  17
TORSDOF 6
