REMARK  3 active torsions:
REMARK  status: ('A' for Active; 'I' for Inactive)
REMARK    1  A    between atoms: C_2  and  C_1 
REMARK    2  A    between atoms: S_6  and  C_2 
REMARK    3  A    between atoms: C_10  and  S_6 
ROOT
ATOM      1  C   UNL d   1      -1.199   4.102  -1.436  0.00  0.00     0.249 C 
ATOM      2  O   UNL d   1      -0.415   4.347  -2.346  0.00  0.00    -0.277 OA
ENDROOT
BRANCH   1   3
ATOM      3  C   UNL d   1      -2.629   4.266  -1.544  0.00  0.00     0.157 A 
ATOM      4  O   UNL d   1      -3.446   3.997  -0.481  0.00  0.00    -0.234 OA
ATOM      5  N   UNL d   1      -4.765   4.230  -0.831  0.00  0.00    -0.272 N 
ATOM      6  C   UNL d   1      -4.728   4.638  -2.100  0.00  0.00     0.117 A 
ATOM      7  HN  UNL d   1      -5.590   4.115  -0.243  1.00  0.00     0.194 HD
ATOM      8  C   UNL d   1      -3.415   4.681  -2.599  0.00  0.00     0.063 A 
ENDBRANCH   1   3
BRANCH   1   9
ATOM      9  S   UNL d   1      -0.656   3.505   0.135  0.00  0.00    -0.045 SA
BRANCH   9  10
ATOM     10  C   UNL d   1       1.112   3.458  -0.052  0.00  0.00     0.008 A 
ATOM     11  C   UNL d   1       1.883   4.594   0.222  0.00  0.00     0.021 A 
ATOM     12  C   UNL d   1       3.279   4.528   0.170  0.00  0.00     0.025 A 
ATOM     13  C   UNL d   1       3.904   3.325  -0.152  0.00  0.00     0.034 A 
ATOM     14  C   UNL d   1       3.145   2.190  -0.432  0.00  0.00     0.025 A 
ATOM     15 CL   UNL d   1       5.621   3.235  -0.184  0.00  0.00    -0.084 Cl
ATOM     16  C   UNL d   1       1.750   2.257  -0.380  0.00  0.00     0.021 A 
ENDBRANCH   9  10
ENDBRANCH   1   9
TORSDOF 3
