REMARK  4 active torsions:
REMARK  status: ('A' for Active; 'I' for Inactive)
REMARK    1  A    between atoms: C_8  and  N_1 
REMARK    2  A    between atoms: C_9  and  C_4 
REMARK    3  A    between atoms: C_11  and  C_9 
REMARK    4  A    between atoms: N_16  and  C_13 
ROOT
ATOM      1  N   UNL d   1      -0.180  -1.219   0.026  0.00  0.00    -0.243 N 
ATOM      2  N   UNL d   1       1.061  -0.683   0.028  0.00  0.00    -0.235 N 
ATOM      3  HN  UNL d   1       1.932  -1.214   0.064  1.00  0.00     0.209 HD
ATOM      4  C   UNL d   1      -0.351   0.979  -0.059  0.00  0.00     0.123 A 
ATOM      5  C   UNL d   1      -1.118  -0.189  -0.055  0.00  0.00     0.064 A 
ATOM      6  N   UNL d   1       0.972   0.632  -0.026  0.00  0.00    -0.280 N 
ATOM      7  HN  UNL d   1       1.758   1.282  -0.040  1.00  0.00     0.188 HD
ATOM      8  C   UNL d   1      -2.591  -0.379  -0.009  0.00  0.00     0.073 C 
ENDROOT
BRANCH   1   9
ATOM      9  C   UNL d   1      -0.353  -2.636   0.044  0.00  0.00     0.079 A 
ATOM     10  C   UNL d   1       0.527  -3.486   0.742  0.00  0.00     0.064 A 
ATOM     11  C   UNL d   1       0.335  -4.875   0.729  0.00  0.00     0.050 A 
ATOM     12 CL   UNL d   1       1.811  -2.938   1.769  0.00  0.00    -0.082 Cl
ATOM     13  C   UNL d   1      -0.727  -5.429   0.021  0.00  0.00     0.035 A 
ATOM     14  C   UNL d   1      -1.597  -4.606  -0.686  0.00  0.00     0.026 A 
ATOM     15 CL   UNL d   1      -0.966  -7.131   0.026  0.00  0.00    -0.084 Cl
ATOM     16  C   UNL d   1      -1.411  -3.220  -0.682  0.00  0.00     0.035 A 
ENDBRANCH   1   9
BRANCH   4  17
ATOM     17  C   UNL d   1      -0.801   2.373  -0.064  0.00  0.00     0.203 C 
ATOM     18  O   UNL d   1      -1.984   2.698  -0.104  0.00  0.00    -0.286 OA
BRANCH  17  19
ATOM     19  C   UNL d   1       0.303   3.385  -0.010  0.00  0.00     0.074 C 
ATOM     20  C   UNL d   1       0.019   4.698  -0.001  0.00  0.00     0.088 C 
BRANCH  20  21
ATOM     21  N   UNL d   1       0.853   5.813   0.040  0.00  0.00    -0.398 N 
ATOM     22  C   UNL d   1       2.315   5.774   0.055  0.00  0.00     0.148 C 
ATOM     23  C   UNL d   1       0.307   7.174   0.043  0.00  0.00     0.148 C 
ENDBRANCH  20  21
ENDBRANCH  17  19
ENDBRANCH   4  17
TORSDOF 4
