REMARK  8 active torsions:
REMARK  status: ('A' for Active; 'I' for Inactive)
REMARK    1  A    between atoms: C_9  and  C_1 
REMARK    2  A    between atoms: S_16  and  C_5 
REMARK    3  A    between atoms: S_8  and  C_12 
REMARK    4  A    between atoms: C_11  and  S_8 
REMARK    5  A    between atoms: C_10  and  O_15 
REMARK    6  A    between atoms: C_12  and  C_27 
REMARK    7  A    between atoms: O_15  and  C_26 
REMARK    8  A    between atoms: C_27  and  S_16 
ROOT
ATOM      1  C   UNL d   1       2.933  -4.240  -0.355  0.00  0.00     0.156 C 
ENDROOT
BRANCH   1   2
ATOM      2  S   UNL d   1       4.707  -4.266  -0.246  0.00  0.00     0.176 S 
ATOM      3  O   UNL d   1       5.279  -3.627  -1.413  0.00  0.00    -0.223 OA
ATOM      4  O   UNL d   1       5.088  -3.853   1.092  0.00  0.00    -0.223 OA
BRANCH   2   5
ATOM      5  C   UNL d   1       5.116  -6.003  -0.393  0.00  0.00     0.059 A 
ATOM      6  C   UNL d   1       5.233  -6.575  -1.662  0.00  0.00     0.026 A 
ATOM      7  C   UNL d   1       5.635  -7.911  -1.792  0.00  0.00     0.038 A 
ATOM      8  C   UNL d   1       5.964  -8.657  -0.660  0.00  0.00     0.078 A 
ATOM      9  C   UNL d   1       5.817  -8.076   0.605  0.00  0.00     0.038 A 
ATOM     10  C   UNL d   1       5.404  -6.750   0.748  0.00  0.00     0.026 A 
BRANCH   8  11
ATOM     11  O   UNL d   1       6.412  -9.942  -0.635  0.00  0.00    -0.255 OA
BRANCH  11  12
ATOM     12  C   UNL d   1       7.079 -10.491  -1.763  0.00  0.00     0.530 C 
ATOM     13  F   UNL d   1       7.544  -9.566  -2.628  0.00  0.00    -0.144 F 
ATOM     14  F   UNL d   1       8.137 -11.209  -1.323  0.00  0.00    -0.144 F 
ATOM     15  F   UNL d   1       6.246 -11.327  -2.417  0.00  0.00    -0.144 F 
ENDBRANCH  11  12
ENDBRANCH   8  11
ENDBRANCH   2   5
ENDBRANCH   1   2
BRANCH   1  16
ATOM     16  C   UNL d   1       2.352  -2.839  -0.200  0.00  0.00     0.098 C 
BRANCH  16  17
ATOM     17  S   UNL d   1       2.619  -1.787  -1.669  0.00  0.00    -0.091 SA
BRANCH  17  18
ATOM     18  C   UNL d   1       1.938  -0.287  -1.140  0.00  0.00     0.162 A 
ATOM     19  N   UNL d   1       2.031   0.889  -1.845  0.00  0.00    -0.312 N 
ATOM     20  C   UNL d   1       1.304   1.813  -1.119  0.00  0.00     0.209 A 
ATOM     21  C   UNL d   1       2.747   1.058  -3.083  0.00  0.00     0.160 C 
ATOM     22  N   UNL d   1       0.847   1.212  -0.030  0.00  0.00    -0.279 N 
ATOM     23  N   UNL d   1       1.242  -0.099  -0.047  0.00  0.00    -0.278 N 
ATOM     24  HN  UNL d   1       0.291   1.654   0.702  1.00  0.00     0.188 HD
ATOM     25  HN  UNL d   1       1.033  -0.802   0.662  1.00  0.00     0.189 HD
BRANCH  20  26
ATOM     26  C   UNL d   1       1.045   3.235  -1.476  0.00  0.00     0.450 C 
ATOM     27  F   UNL d   1       1.596   3.621  -2.655  0.00  0.00    -0.163 F 
ATOM     28  F   UNL d   1      -0.286   3.490  -1.590  0.00  0.00    -0.163 F 
ATOM     29  F   UNL d   1       1.529   4.091  -0.538  0.00  0.00    -0.163 F 
ENDBRANCH  20  26
ENDBRANCH  17  18
ENDBRANCH  16  17
ENDBRANCH   1  16
TORSDOF 8
