REMARK  6 active torsions:
REMARK  status: ('A' for Active; 'I' for Inactive)
REMARK    1  A    between atoms: N_2  and  S_1 
REMARK    2  A    between atoms: C_4  and  S_1 
REMARK    3  A    between atoms: C_3  and  C_5 
REMARK    4  A    between atoms: C_17  and  N_6 
REMARK    5  A    between atoms: C_18  and  C_17 
REMARK    6  A    between atoms: C_20  and  C_18 
ROOT
ATOM      1  N   UNL d   1       0.636  -0.384   1.320  0.00  0.00    -0.203 NA
ATOM      2  N   UNL d   1       2.501  -2.298   2.645  0.00  0.00     0.091 N 
ATOM      3  C   UNL d   1       1.575   0.093   2.385  0.00  0.00     0.138 C 
ATOM      4  C   UNL d   1       0.284  -1.817   1.537  0.00  0.00     0.138 C 
ATOM      5  C   UNL d   1       2.801  -0.847   2.543  0.00  0.00     0.287 C 
ATOM      6  C   UNL d   1       1.559  -2.675   1.566  0.00  0.00     0.287 C 
ENDROOT
BRANCH   1   7
ATOM      7  S   UNL d   1       1.056   0.007  -0.290  0.00  0.00     0.243 S 
ATOM      8  O   UNL d   1       0.323  -0.864  -1.186  0.00  0.00    -0.206 OA
ATOM      9  O   UNL d   1       2.491   0.150  -0.382  0.00  0.00    -0.206 OA
BRANCH   7  10
ATOM     10  C   UNL d   1       0.331   1.615  -0.480  0.00  0.00     0.075 A 
ATOM     11  C   UNL d   1      -1.056   1.742  -0.342  0.00  0.00     0.041 A 
ATOM     12  C   UNL d   1      -1.673   2.976  -0.587  0.00  0.00     0.049 A 
ATOM     13  C   UNL d   1      -0.874   4.067  -0.971  0.00  0.00     0.016 A 
ATOM     14  C   UNL d   1       0.512   3.931  -1.099  0.00  0.00     0.002 A 
ATOM     15  C   UNL d   1       1.121   2.702  -0.853  0.00  0.00     0.025 A 
BRANCH  12  16
ATOM     16  C   UNL d   1      -3.169   3.134  -0.472  0.00  0.00     0.417 C 
ATOM     17  F   UNL d   1      -3.804   2.006  -0.047  0.00  0.00    -0.166 F 
ATOM     18  F   UNL d   1      -3.521   4.112   0.408  0.00  0.00    -0.166 F 
ATOM     19  F   UNL d   1      -3.751   3.467  -1.657  0.00  0.00    -0.166 F 
ENDBRANCH  12  16
ENDBRANCH   7  10
ENDBRANCH   1   7
BRANCH   2  20
ATOM     20  C   UNL d   1       2.030  -2.659   3.995  0.00  0.00     0.277 C 
BRANCH  20  21
ATOM     21  C   UNL d   1       1.857  -4.176   4.181  0.00  0.00     0.068 C 
BRANCH  21  22
ATOM     22  C   UNL d   1       1.380  -4.541   5.562  0.00  0.00    -0.057 A 
ATOM     23  C   UNL d   1       0.009  -4.556   5.854  0.00  0.00     0.007 A 
ATOM     24  C   UNL d   1      -0.439  -4.935   7.118  0.00  0.00     0.001 A 
ATOM     25  C   UNL d   1       0.479  -5.295   8.103  0.00  0.00     0.000 A 
ATOM     26  C   UNL d   1       1.845  -5.265   7.827  0.00  0.00     0.001 A 
ATOM     27  C   UNL d   1       2.296  -4.885   6.563  0.00  0.00     0.007 A 
ENDBRANCH  21  22
ENDBRANCH  20  21
ENDBRANCH   2  20
TORSDOF 6
