REMARK  3 active torsions:
REMARK  status: ('A' for Active; 'I' for Inactive)
REMARK    1  A    between atoms: C_2  and  C_1 
REMARK       I    between atoms: N_5  and  C_2 
REMARK    2  A    between atoms: N_8  and  C_3 
REMARK    3  A    between atoms: C_9  and  N_5 
ROOT
ATOM      1  C   UNL d   1       1.059   0.134  -0.119  0.00  0.00     0.127 C 
ATOM      2  C   UNL d   1       0.486   1.355  -0.088  0.00  0.00     0.113 C 
ATOM      3  C   UNL d   1       0.341  -1.077  -0.250  0.00  0.00     0.106 C 
ATOM      4  N   UNL d   1      -0.162  -2.119  -0.355  0.00  0.00    -0.191 NA
ENDROOT
BRANCH   1   5
ATOM      5  C   UNL d   1       2.564   0.089   0.023  0.00  0.00     0.268 C 
ATOM      6  N   UNL d   1       3.132  -1.176   0.006  0.00  0.00    -0.322 N 
ATOM      7  H   UNL d   1       2.552  -1.971  -0.238  0.00  0.00     0.169 HD
ATOM      8  O   UNL d   1       3.203   1.133   0.139  0.00  0.00    -0.266 OA
BRANCH   6   9
ATOM      9  C   UNL d   1       4.478  -1.499   0.306  0.00  0.00     0.035 A 
ATOM     10  C   UNL d   1       5.402  -0.584   0.823  0.00  0.00     0.032 A 
ATOM     11  C   UNL d   1       6.701  -0.988   1.144  0.00  0.00     0.044 A 
ATOM     12  C   UNL d   1       7.080  -2.308   0.943  0.00  0.00     0.116 A 
ATOM     13  C   UNL d   1       6.182  -3.232   0.425  0.00  0.00     0.044 A 
ATOM     14  F   UNL d   1       8.322  -2.695   1.257  0.00  0.00    -0.206 F 
ATOM     15  C   UNL d   1       4.880  -2.829   0.111  0.00  0.00     0.032 A 
ENDBRANCH   6   9
ENDBRANCH   1   5
BRANCH   2  16
ATOM     16  N   UNL d   1      -0.817   1.856  -0.159  0.00  0.00    -0.397 N 
ATOM     17  C   UNL d   1      -2.050   1.073  -0.114  0.00  0.00     0.148 C 
ATOM     18  C   UNL d   1      -1.060   3.303  -0.032  0.00  0.00     0.148 C 
ENDBRANCH   2  16
TORSDOF 3
