REMARK  4 active torsions:
REMARK  status: ('A' for Active; 'I' for Inactive)
REMARK    1  A    between atoms: O_3  and  S_1 
REMARK    2  A    between atoms: C_4  and  S_1 
REMARK    3  A    between atoms: C_2  and  C_8 
REMARK    4  A    between atoms: C_7  and  O_3 
ROOT
ATOM      1  S   UNL d   1       0.912   0.012  -0.000  0.00  0.00     0.303 S 
ATOM      2  O   UNL d   1       0.324   1.247   0.481  0.00  0.00    -0.193 OA
ATOM      3  O   UNL d   1       0.674  -1.243   0.689  0.00  0.00    -0.193 OA
ENDROOT
BRANCH   1   4
ATOM      4  O   UNL d   1       2.524   0.231  -0.172  0.00  0.00    -0.228 OA
BRANCH   4   5
ATOM      5  C   UNL d   1       3.317   0.481   0.917  0.00  0.00     0.106 A 
ATOM      6  C   UNL d   1       3.113  -0.051   2.188  0.00  0.00     0.065 A 
ATOM      7  C   UNL d   1       4.007   0.258   3.210  0.00  0.00     0.052 A 
ATOM      8 CL   UNL d   1       3.776  -0.382   4.786  0.00  0.00    -0.083 Cl
ATOM      9  C   UNL d   1       5.084   1.080   2.926  0.00  0.00     0.111 A 
ATOM     10  N   UNL d   1       5.324   1.600   1.696  0.00  0.00    -0.371 N 
ATOM     11  C   UNL d   1       4.437   1.285   0.724  0.00  0.00     0.125 A 
ATOM     12  HN  UNL d   1       6.131   2.198   1.515  1.00  0.00     0.164 HD
ENDBRANCH   4   5
ENDBRANCH   1   4
BRANCH   1  13
ATOM     13  C   UNL d   1       0.345  -0.227  -1.673  0.00  0.00     0.086 A 
ATOM     14  C   UNL d   1       0.312  -1.522  -2.201  0.00  0.00     0.026 A 
ATOM     15  C   UNL d   1      -0.197  -1.728  -3.484  0.00  0.00     0.018 A 
ATOM     16  C   UNL d   1      -0.679  -0.649  -4.244  0.00  0.00     0.048 A 
ATOM     17  C   UNL d   1      -0.650   0.642  -3.691  0.00  0.00     0.018 A 
ATOM     18  C   UNL d   1      -0.143   0.856  -2.406  0.00  0.00     0.026 A 
BRANCH  16  19
ATOM     19  C   UNL d   1      -1.220  -0.896  -5.633  0.00  0.00     0.417 C 
ATOM     20  F   UNL d   1      -1.653   0.233  -6.258  0.00  0.00    -0.166 F 
ATOM     21  F   UNL d   1      -0.288  -1.447  -6.459  0.00  0.00    -0.166 F 
ATOM     22  F   UNL d   1      -2.277  -1.755  -5.636  0.00  0.00    -0.166 F 
ENDBRANCH  16  19
ENDBRANCH   1  13
TORSDOF 4
