REMARK  7 active torsions:
REMARK  status: ('A' for Active; 'I' for Inactive)
REMARK    1  A    between atoms: O_5  and  C_1 
REMARK       I    between atoms: C_2  and  N_9 
REMARK    2  A    between atoms: C_17  and  C_2 
REMARK    3  A    between atoms: C_4  and  O_5 
REMARK       I    between atoms: C_7  and  N_8 
REMARK    4  A    between atoms: C_16  and  C_7 
REMARK    5  A    between atoms: N_8  and  C_10 
REMARK    6  A    between atoms: N_9  and  C_21 
REMARK    7  A    between atoms: N_11  and  C_16 
ROOT
ATOM      1  C   UNL d   1       2.660   2.500   0.303  0.00  0.00     0.250 C 
ATOM      2  N   UNL d   1       1.358   2.340   0.696  0.00  0.00    -0.322 N 
ATOM      3  O   UNL d   1       3.128   3.645   0.364  0.00  0.00    -0.271 OA
ATOM      4  H   UNL d   1       1.068   3.144   1.242  0.00  0.00     0.169 HD
ENDROOT
BRANCH   2   5
ATOM      5  C   UNL d   1       0.616   1.157   0.870  0.00  0.00     0.086 A 
ATOM      6  C   UNL d   1       0.275   0.246  -0.138  0.00  0.00     0.175 A 
ATOM      7  N   UNL d   1      -0.455  -0.879   0.095  0.00  0.00    -0.345 N 
ATOM      8  C   UNL d   1      -0.953  -1.056   1.334  0.00  0.00     0.090 A 
ATOM      9  HN  UNL d   1      -0.618  -1.564  -0.643  1.00  0.00     0.167 HD
ATOM     10  C   UNL d   1      -0.753  -0.164   2.369  0.00  0.00     0.019 A 
ATOM     11  C   UNL d   1       0.040   0.956   2.129  0.00  0.00     0.035 A 
BRANCH   6  12
ATOM     12  O   UNL d   1       0.560   0.574  -1.465  0.00  0.00    -0.291 OA
BRANCH  12  13
ATOM     13  C   UNL d   1      -0.318   0.108  -2.425  0.00  0.00     0.084 A 
ATOM     14  C   UNL d   1       0.200  -0.438  -3.593  0.00  0.00    -0.017 A 
ATOM     15  C   UNL d   1      -0.643  -0.975  -4.574  0.00  0.00    -0.043 A 
ATOM     16  C   UNL d   1       1.637  -0.599  -3.956  0.00  0.00     0.042 C 
ATOM     17  C   UNL d   1       0.139  -1.553  -5.710  0.00  0.00     0.040 C 
ATOM     18  C   UNL d   1      -2.030  -0.979  -4.421  0.00  0.00    -0.055 A 
ATOM     19  C   UNL d   1       1.589  -1.185  -5.373  0.00  0.00     0.009 C 
ATOM     20  C   UNL d   1      -2.557  -0.368  -3.277  0.00  0.00     0.010 A 
ATOM     21  C   UNL d   1      -2.928  -1.629  -5.428  0.00  0.00     0.049 C 
ATOM     22  C   UNL d   1      -1.709   0.189  -2.300  0.00  0.00     0.038 A 
ENDBRANCH  12  13
ENDBRANCH   6  12
ENDBRANCH   2   5
BRANCH   1  23
ATOM     23  C   UNL d   1       3.561   1.318  -0.079  0.00  0.00     0.374 C 
BRANCH  23  24
ATOM     24  N   UNL d   1       4.143   0.668   1.119  0.00  0.00     0.097 N 
ATOM     25  C   UNL d   1       5.074   1.523   1.872  0.00  0.00     0.275 C 
ATOM     26  C   UNL d   1       5.375   0.863   3.223  0.00  0.00     0.055 C 
ATOM     27  C   UNL d   1       5.797  -0.609   3.132  0.00  0.00     0.088 C 
ATOM     28  C   UNL d   1       5.086  -1.388   2.016  0.00  0.00     0.055 C 
ATOM     29  C   UNL d   1       4.858  -0.561   0.753  0.00  0.00     0.275 C 
BRANCH  27  30
ATOM     30  N   UNL d   1       7.245  -0.731   3.008  0.00  0.00    -0.352 N 
ATOM     31  C   UNL d   1       7.934  -1.778   3.584  0.00  0.00     0.252 C 
ATOM     32  O   UNL d   1       7.421  -2.641   4.296  0.00  0.00    -0.268 OA
ATOM     33  H   UNL d   1       7.694  -0.218   2.261  0.00  0.00     0.163 HD
BRANCH  31  34
ATOM     34  C   UNL d   1       9.378  -1.853   3.238  0.00  0.00     0.032 A 
ATOM     35  C   UNL d   1      10.122  -0.691   2.992  0.00  0.00     0.017 A 
ATOM     36  C   UNL d   1      11.452  -0.789   2.584  0.00  0.00     0.001 A 
ATOM     37  C   UNL d   1      12.044  -2.043   2.438  0.00  0.00     0.000 A 
ATOM     38  C   UNL d   1      11.317  -3.200   2.723  0.00  0.00     0.001 A 
ATOM     39  C   UNL d   1       9.985  -3.106   3.129  0.00  0.00     0.017 A 
ENDBRANCH  31  34
ENDBRANCH  27  30
ENDBRANCH  23  24
ENDBRANCH   1  23
TORSDOF 7
