REMARK  6 active torsions:
REMARK  status: ('A' for Active; 'I' for Inactive)
REMARK    1  A    between atoms: C_5  and  C_1 
REMARK    2  A    between atoms: N_8  and  N_2 
REMARK    3  A    between atoms: C_4  and  O_10 
REMARK    4  A    between atoms: N_14  and  C_5 
REMARK    5  A    between atoms: C_15  and  N_8 
REMARK    6  A    between atoms: O_10  and  C_16 
ROOT
ATOM      1  C   UNL d   1       1.020   0.144  -0.073  0.00  0.00     0.162 C 
ATOM      2  N   UNL d   1       0.363   0.640  -1.085  0.00  0.00    -0.305 N 
ATOM      3  HN  UNL d   1      -0.635   0.832  -1.004  1.00  0.00     0.182 HD
ATOM      4  C   UNL d   1       0.126  -0.086   1.043  0.00  0.00     0.122 C 
ATOM      5  N   UNL d   1      -0.586  -0.270   1.947  0.00  0.00    -0.190 NA
ENDROOT
BRANCH   1   6
ATOM      6  C   UNL d   1       2.492  -0.192  -0.040  0.00  0.00     0.133 C 
ATOM      7  S   UNL d   1       3.339  -0.008   1.375  0.00  0.00    -0.058 SA
BRANCH   6   8
ATOM      8  N   UNL d   1       3.103  -0.638  -1.182  0.00  0.00    -0.388 N 
ATOM      9  H   UNL d   1       2.587  -0.756  -2.050  0.00  0.00     0.157 HD
ATOM     10  H   UNL d   1       4.086  -0.891  -1.163  0.00  0.00     0.157 HD
ENDBRANCH   6   8
ENDBRANCH   1   6
BRANCH   2  11
ATOM     11  N   UNL d   1       1.020   0.903  -2.256  0.00  0.00    -0.205 NA
ATOM     12  H   UNL d   1       1.863   1.480  -2.160  0.00  0.00     0.153 HD
BRANCH  11  13
ATOM     13  C   UNL d   1       0.227   1.484  -3.284  0.00  0.00     0.027 A 
ATOM     14  C   UNL d   1      -0.836   2.359  -3.024  0.00  0.00     0.028 A 
ATOM     15  C   UNL d   1      -1.514   3.005  -4.069  0.00  0.00     0.039 A 
ATOM     16  C   UNL d   1      -1.160   2.758  -5.393  0.00  0.00     0.078 A 
ATOM     17  C   UNL d   1      -0.078   1.915  -5.657  0.00  0.00     0.039 A 
ATOM     18  C   UNL d   1       0.614   1.292  -4.613  0.00  0.00     0.028 A 
BRANCH  16  19
ATOM     19  O   UNL d   1      -1.710   3.343  -6.491  0.00  0.00    -0.255 OA
BRANCH  19  20
ATOM     20  C   UNL d   1      -3.106   3.614  -6.525  0.00  0.00     0.530 C 
ATOM     21  F   UNL d   1      -3.769   3.295  -5.396  0.00  0.00    -0.144 F 
ATOM     22  F   UNL d   1      -3.288   4.930  -6.774  0.00  0.00    -0.144 F 
ATOM     23  F   UNL d   1      -3.656   2.917  -7.545  0.00  0.00    -0.144 F 
ENDBRANCH  19  20
ENDBRANCH  16  19
ENDBRANCH  11  13
ENDBRANCH   2  11
TORSDOF 6
