REMARK  2 active torsions:
REMARK  status: ('A' for Active; 'I' for Inactive)
REMARK    1  A    between atoms: N_2  and  C_1 
REMARK    2  A    between atoms: N_4  and  C_3 
ROOT
ATOM      1  C   UNL d   1       1.611   1.143   0.403  0.00  0.00     0.130 A 
ATOM      2  C   UNL d   1       2.423   0.032   0.089  0.00  0.00     0.063 A 
ATOM      3  N   UNL d   1      -3.019  -0.081  -0.392  0.00  0.00    -0.191 NA
ATOM      4  C   UNL d   1       0.206   1.132   0.284  0.00  0.00     0.061 A 
ATOM      5  C   UNL d   1      -1.863  -0.049  -0.299  0.00  0.00     0.099 C 
ATOM      6  C   UNL d   1       1.724  -1.093  -0.398  0.00  0.00     0.033 A 
ATOM      7  C   UNL d   1      -0.435  -0.012  -0.182  0.00  0.00     0.047 A 
ATOM      8  C   UNL d   1       0.328  -1.121  -0.536  0.00  0.00     0.025 A 
ENDROOT
BRANCH   1   9
ATOM      9  N   UNL d   1       2.185   2.416   0.797  0.00  0.00    -0.113 N 
ATOM     10  O   UNL d   1       2.930   2.988  -0.010  0.00  0.00    -0.532 OA
ATOM     11  O   UNL d   1       1.849   2.860   1.905  0.00  0.00    -0.532 OA
ENDBRANCH   1   9
BRANCH   2  12
ATOM     12  N   UNL d   1       3.793  -0.071   0.259  0.00  0.00    -0.377 N 
ATOM     13  C   UNL d   1       4.528   0.561   1.369  0.00  0.00     0.133 C 
ATOM     14  C   UNL d   1       5.372  -0.469   2.131  0.00  0.00     0.093 C 
ATOM     15  S   UNL d   1       6.604  -1.304   1.076  0.00  0.00    -0.166 SA
ATOM     16  C   UNL d   1       5.474  -1.825  -0.260  0.00  0.00     0.093 C 
ATOM     17  C   UNL d   1       4.639  -0.659  -0.800  0.00  0.00     0.133 C 
ENDBRANCH   2  12
TORSDOF 2
