REMARK  3 active torsions:
REMARK  status: ('A' for Active; 'I' for Inactive)
REMARK       I    between atoms: C_2  and  N_1 
REMARK    1  A    between atoms: C_7  and  C_2 
REMARK    2  A    between atoms: C_9  and  C_5 
REMARK    3  A    between atoms: C_10  and  C_9 
ROOT
ATOM      1  N   UNL d   1      -0.311  -1.061   0.019  0.00  0.00    -0.224 N 
ATOM      2  C   UNL d   1      -0.660  -2.398  -0.284  0.00  0.00     0.280 C 
ATOM      3  N   UNL d   1       0.995  -0.744   0.207  0.00  0.00    -0.295 N 
ATOM      4  HN  UNL d   1       1.776  -1.385   0.343  1.00  0.00     0.187 HD
ATOM      5  C   UNL d   1      -0.269   1.166   0.070  0.00  0.00    -0.006 C 
ATOM      6  C   UNL d   1      -1.117   0.064   0.127  0.00  0.00     0.042 C 
ATOM      7  C   UNL d   1       1.032   0.591   0.176  0.00  0.00     0.031 C 
ATOM      8  O   UNL d   1      -1.853  -2.703  -0.304  0.00  0.00    -0.265 OA
ATOM      9  C   UNL d   1      -2.600  -0.031   0.182  0.00  0.00     0.071 C 
ATOM     10  C   UNL d   1       2.354   1.262   0.249  0.00  0.00     0.070 C 
ENDROOT
BRANCH   2  11
ATOM     11  C   UNL d   1       0.323  -3.436  -0.670  0.00  0.00     0.077 A 
ATOM     12  C   UNL d   1       0.337  -4.678  -0.017  0.00  0.00     0.051 A 
ATOM     13 CL   UNL d   1      -0.653  -5.031   1.357  0.00  0.00    -0.083 Cl
ATOM     14  C   UNL d   1       1.186  -5.701  -0.462  0.00  0.00     0.025 A 
ATOM     15  C   UNL d   1       2.043  -5.486  -1.539  0.00  0.00     0.003 A 
ATOM     16  C   UNL d   1       2.041  -4.254  -2.186  0.00  0.00     0.025 A 
ATOM     17  C   UNL d   1       1.166  -3.240  -1.776  0.00  0.00     0.051 A 
ATOM     18 CL   UNL d   1       1.117  -1.828  -2.778  0.00  0.00    -0.083 Cl
ENDBRANCH   2  11
BRANCH   5  19
ATOM     19  C   UNL d   1      -0.641   2.621   0.005  0.00  0.00     0.086 C 
BRANCH  19  20
ATOM     20  C   UNL d   1      -0.765   3.003  -1.455  0.00  0.00     0.006 A 
ATOM     21  C   UNL d   1      -1.970   2.771  -2.131  0.00  0.00     0.124 A 
ATOM     22  F   UNL d   1      -3.027   2.273  -1.472  0.00  0.00    -0.205 F 
ATOM     23  C   UNL d   1      -2.148   3.080  -3.482  0.00  0.00     0.043 A 
ATOM     24  C   UNL d   1      -1.107   3.650  -4.202  0.00  0.00     0.005 A 
ATOM     25  C   UNL d   1       0.089   3.930  -3.552  0.00  0.00     0.024 A 
ATOM     26  C   UNL d   1       0.257   3.631  -2.189  0.00  0.00     0.043 A 
ATOM     27 CL   UNL d   1       1.738   4.150  -1.465  0.00  0.00    -0.084 Cl
ENDBRANCH  19  20
ENDBRANCH   5  19
TORSDOF 3
