REMARK  4 active torsions:
REMARK  status: ('A' for Active; 'I' for Inactive)
REMARK    1  A    between atoms: N_9  and  C_1 
REMARK    2  A    between atoms: N_3  and  C_2 
REMARK    3  A    between atoms: C_16  and  N_9 
REMARK    4  A    between atoms: O_22  and  C_11 
ROOT
ATOM      1  C   UNL d   1      -0.552   1.236   0.002  0.00  0.00     0.141 A 
ATOM      2  C   UNL d   1      -0.869  -0.049  -0.429  0.00  0.00     0.146 A 
ATOM      3  N   UNL d   1       0.609   1.453   0.667  0.00  0.00    -0.321 N 
ATOM      4  HN  UNL d   1       0.851   2.391   0.987  1.00  0.00     0.169 HD
ATOM      5  C   UNL d   1      -0.012  -1.126  -0.172  0.00  0.00     0.044 A 
ATOM      6  C   UNL d   1       1.442   0.417   0.904  0.00  0.00     0.143 A 
ATOM      7  C   UNL d   1       1.170  -0.883   0.519  0.00  0.00     0.059 A 
ENDROOT
BRANCH   1   8
ATOM      8  N   UNL d   1      -1.372   2.355  -0.273  0.00  0.00    -0.340 N 
ATOM      9  H   UNL d   1      -2.322   2.212   0.064  0.00  0.00     0.167 HD
BRANCH   8  10
ATOM     10  C   UNL d   1      -0.923   3.692  -0.192  0.00  0.00     0.034 A 
ATOM     11  C   UNL d   1       0.287   4.057  -0.798  0.00  0.00     0.047 A 
ATOM     12  C   UNL d   1       0.764   5.336  -0.596  0.00  0.00     0.050 A 
ATOM     13  C   UNL d   1       2.007   5.918  -1.077  0.00  0.00     0.294 A 
ATOM     14  C   UNL d   1       0.093   6.265   0.167  0.00  0.00    -0.018 A 
ATOM     15  O   UNL d   1       2.053   7.193  -0.581  0.00  0.00    -0.313 OA
ATOM     16  O   UNL d   1       2.842   5.381  -1.774  0.00  0.00    -0.259 OA
ATOM     17  C   UNL d   1       0.900   7.498   0.235  0.00  0.00     0.218 A 
ATOM     18  C   UNL d   1      -1.123   5.947   0.746  0.00  0.00     0.012 A 
ATOM     19  C   UNL d   1      -1.631   4.651   0.559  0.00  0.00     0.030 A 
ENDBRANCH   8  10
ENDBRANCH   1   8
BRANCH   2  20
ATOM     20  N   UNL d   1      -2.062  -0.276  -1.205  0.00  0.00    -0.112 N 
ATOM     21  O   UNL d   1      -3.132   0.143  -0.736  0.00  0.00    -0.532 OA
ATOM     22  O   UNL d   1      -1.938  -0.897  -2.269  0.00  0.00    -0.532 OA
ENDBRANCH   2  20
BRANCH   6  23
ATOM     23  O   UNL d   1       2.635   0.641   1.556  0.00  0.00    -0.341 OA
ATOM     24  C   UNL d   1       2.883   2.026   1.792  0.00  0.00     0.211 C 
ENDBRANCH   6  23
TORSDOF 4
