REMARK  5 active torsions:
REMARK  status: ('A' for Active; 'I' for Inactive)
REMARK    1  A    between atoms: C_2  and  C_1 
REMARK       I    between atoms: N_10  and  C_2 
REMARK    2  A    between atoms: C_16  and  C_5 
REMARK    3  A    between atoms: C_6  and  C_9 
REMARK    4  A    between atoms: C_11  and  N_10 
REMARK    5  A    between atoms: O_21  and  C_17 
ROOT
ATOM      1  C   UNL d   1       0.280  -2.407   0.699  0.00  0.00     0.261 C 
ATOM      2  N   UNL d   1      -0.344  -3.397  -0.047  0.00  0.00    -0.323 N 
ATOM      3  O   UNL d   1       1.216  -2.581   1.469  0.00  0.00    -0.267 OA
ATOM      4  H   UNL d   1      -1.090  -3.101  -0.665  0.00  0.00     0.169 HD
ENDROOT
BRANCH   1   5
ATOM      5  C   UNL d   1      -0.176  -1.063   0.418  0.00  0.00     0.093 A 
ATOM      6  C   UNL d   1      -1.465  -0.446   0.374  0.00  0.00     0.083 A 
ATOM      7  N   UNL d   1      -1.337   0.847   0.016  0.00  0.00    -0.259 N 
ATOM      8  O   UNL d   1       0.004   1.102  -0.103  0.00  0.00    -0.241 OA
ATOM      9  HN  UNL d   1      -2.096   1.511  -0.137  1.00  0.00     0.195 HD
ATOM     10  C   UNL d   1       0.701  -0.027   0.151  0.00  0.00     0.090 A 
ATOM     11  C   UNL d   1       2.171   0.076   0.063  0.00  0.00     0.080 C 
BRANCH   6  12
ATOM     12  C   UNL d   1      -2.804  -0.970   0.679  0.00  0.00    -0.006 A 
ATOM     13  C   UNL d   1      -3.940  -0.302   0.183  0.00  0.00     0.014 A 
ATOM     14  C   UNL d   1      -5.229  -0.726   0.508  0.00  0.00     0.001 A 
ATOM     15  C   UNL d   1      -5.406  -1.834   1.329  0.00  0.00     0.000 A 
ATOM     16  C   UNL d   1      -4.294  -2.511   1.828  0.00  0.00     0.001 A 
ATOM     17  C   UNL d   1      -3.000  -2.078   1.513  0.00  0.00     0.014 A 
ENDBRANCH   6  12
ENDBRANCH   1   5
BRANCH   2  18
ATOM     18  C   UNL d   1       0.090  -4.742  -0.181  0.00  0.00     0.038 A 
ATOM     19  C   UNL d   1       1.143  -5.293   0.558  0.00  0.00     0.046 A 
ATOM     20  C   UNL d   1       1.599  -6.600   0.320  0.00  0.00     0.052 A 
ATOM     21  C   UNL d   1       0.972  -7.363  -0.671  0.00  0.00     0.053 A 
ATOM     22  C   UNL d   1      -0.080  -6.832  -1.416  0.00  0.00     0.071 A 
ATOM     23  C   UNL d   1      -0.537  -5.535  -1.154  0.00  0.00     0.066 A 
BRANCH  20  24
ATOM     24  C   UNL d   1       2.770  -7.171   1.080  0.00  0.00     0.417 C 
ATOM     25  F   UNL d   1       3.265  -6.339   2.037  0.00  0.00    -0.166 F 
ATOM     26  F   UNL d   1       2.462  -8.333   1.719  0.00  0.00    -0.166 F 
ATOM     27  F   UNL d   1       3.821  -7.463   0.263  0.00  0.00    -0.166 F 
ENDBRANCH  20  24
BRANCH  22  28
ATOM     28  O   UNL d   1      -0.582  -7.676  -2.368  0.00  0.00    -0.356 OA
ATOM     29  C   UNL d   1      -1.211  -7.059  -3.485  0.00  0.00     0.210 C 
ENDBRANCH  22  28
ENDBRANCH   2  18
TORSDOF 5
