REMARK  5 active torsions:
REMARK  status: ('A' for Active; 'I' for Inactive)
REMARK    1  A    between atoms: N_5  and  C_1 
REMARK    2  A    between atoms: N_4  and  C_2 
REMARK    3  A    between atoms: N_10  and  C_3 
REMARK    4  A    between atoms: C_6  and  C_7 
REMARK    5  A    between atoms: C_19  and  N_10 
ROOT
ATOM      1  C   UNL d   1       1.191   0.158  -0.274  0.00  0.00     0.132 A 
ATOM      2  C   UNL d   1      -0.836  -0.976   0.141  0.00  0.00     0.132 A 
ATOM      3  C   UNL d   1       0.568  -1.086  -0.055  0.00  0.00     0.095 A 
ATOM      4  C   UNL d   1      -0.839   1.458   0.151  0.00  0.00     0.052 A 
ATOM      5  C   UNL d   1       0.525   1.403  -0.144  0.00  0.00     0.054 A 
ATOM      6  C   UNL d   1      -1.529   0.250   0.250  0.00  0.00     0.054 A 
ENDROOT
BRANCH   3   7
ATOM      7  N   UNL d   1       1.152  -2.342  -0.059  0.00  0.00    -0.381 N 
ATOM      8  H   UNL d   1       0.681  -3.033   0.536  0.00  0.00     0.160 HD
BRANCH   7   9
ATOM      9  C   UNL d   1       2.385  -2.837  -0.682  0.00  0.00     0.092 C 
ATOM     10  C   UNL d   1       2.254  -4.349  -0.928  0.00  0.00     0.036 C 
ATOM     11  C   UNL d   1       2.525  -5.076   0.380  0.00  0.00     0.076 C 
ATOM     12  S   UNL d   1       3.893  -4.178   1.136  0.00  0.00    -0.167 SA
ATOM     13  C   UNL d   1       3.635  -2.650   0.188  0.00  0.00     0.098 C 
ENDBRANCH   7   9
ENDBRANCH   3   7
BRANCH   2  14
ATOM     14  N   UNL d   1      -1.667  -2.180   0.172  0.00  0.00    -0.113 N 
ATOM     15  O   UNL d   1      -1.311  -3.104   0.918  0.00  0.00    -0.532 OA
ATOM     16  O   UNL d   1      -2.676  -2.185  -0.547  0.00  0.00    -0.532 OA
ENDBRANCH   2  14
BRANCH   1  17
ATOM     17  N   UNL d   1       2.589   0.276  -0.620  0.00  0.00    -0.113 N 
ATOM     18  O   UNL d   1       2.898   0.058  -1.796  0.00  0.00    -0.532 OA
ATOM     19  O   UNL d   1       3.355   0.666   0.271  0.00  0.00    -0.532 OA
ENDBRANCH   1  17
BRANCH   4  20
ATOM     20  C   UNL d   1      -1.561   2.772   0.337  0.00  0.00     0.417 C 
ATOM     21  F   UNL d   1      -0.728   3.847   0.341  0.00  0.00    -0.166 F 
ATOM     22  F   UNL d   1      -2.475   3.001  -0.641  0.00  0.00    -0.166 F 
ATOM     23  F   UNL d   1      -2.241   2.818   1.514  0.00  0.00    -0.166 F 
ENDBRANCH   4  20
TORSDOF 5
