REMARK  3 active torsions:
REMARK  status: ('A' for Active; 'I' for Inactive)
REMARK    1  A    between atoms: N_10  and  C_1 
REMARK    2  A    between atoms: N_9  and  C_2 
REMARK    3  A    between atoms: C_11  and  C_8 
ROOT
ATOM      1  C   UNL d   1      -0.186  -1.174   0.101  0.00  0.00     0.130 A 
ATOM      2  C   UNL d   1      -0.237   1.217  -0.025  0.00  0.00     0.130 A 
ATOM      3  N   UNL d   1      -1.534  -1.198   0.127  0.00  0.00    -0.327 N 
ATOM      4  HN  UNL d   1      -2.045  -2.078   0.191  1.00  0.00     0.169 HD
ATOM      5  N   UNL d   1      -1.580   1.180   0.013  0.00  0.00    -0.327 N 
ATOM      6  HN  UNL d   1      -2.128   2.040   0.003  1.00  0.00     0.169 HD
ATOM      7  C   UNL d   1       0.512   0.035  -0.014  0.00  0.00     0.121 A 
ATOM      8  C   UNL d   1      -2.181  -0.019   0.064  0.00  0.00     0.118 A 
ATOM      9 CL   UNL d   1       2.227   0.064  -0.334  0.00  0.00    -0.076 Cl
ENDROOT
BRANCH   8  10
ATOM     10  C   UNL d   1      -3.659  -0.032   0.050  0.00  0.00     0.008 A 
ATOM     11  C   UNL d   1      -4.394  -1.232   0.087  0.00  0.00     0.017 A 
ATOM     12  C   UNL d   1      -5.800  -1.226   0.112  0.00  0.00     0.025 A 
ATOM     13  C   UNL d   1      -6.489  -0.021   0.088  0.00  0.00     0.034 A 
ATOM     14  C   UNL d   1      -5.798   1.182   0.028  0.00  0.00     0.025 A 
ATOM     15 CL   UNL d   1      -8.207  -0.016   0.144  0.00  0.00    -0.084 Cl
ATOM     16  C   UNL d   1      -4.399   1.169   0.005  0.00  0.00     0.017 A 
ENDBRANCH   8  10
BRANCH   1  17
ATOM     17  N   UNL d   1       0.497  -2.401   0.117  0.00  0.00    -0.366 N 
ATOM     18  C   UNL d   1      -0.267  -3.580  -0.291  0.00  0.00     0.124 C 
ATOM     19  C   UNL d   1       0.738  -4.655  -0.719  0.00  0.00     0.020 C 
ATOM     20  C   UNL d   1       1.758  -4.950   0.383  0.00  0.00     0.003 C 
ATOM     21  C   UNL d   1       2.393  -3.669   0.929  0.00  0.00     0.020 C 
ATOM     22  C   UNL d   1       1.327  -2.640   1.306  0.00  0.00     0.124 C 
ENDBRANCH   1  17
BRANCH   2  23
ATOM     23  N   UNL d   1       0.376   2.466  -0.166  0.00  0.00    -0.366 N 
ATOM     24  C   UNL d   1      -0.446   3.526  -0.751  0.00  0.00     0.124 C 
ATOM     25  C   UNL d   1       0.509   4.557  -1.355  0.00  0.00     0.020 C 
ATOM     26  C   UNL d   1       1.509   5.074  -0.318  0.00  0.00     0.003 C 
ATOM     27  C   UNL d   1       2.196   3.935   0.442  0.00  0.00     0.020 C 
ATOM     28  C   UNL d   1       1.178   2.924   0.974  0.00  0.00     0.124 C 
ENDBRANCH   2  23
TORSDOF 3
