REMARK  4 active torsions:
REMARK  status: ('A' for Active; 'I' for Inactive)
REMARK    1  A    between atoms: C_2  and  S_1 
REMARK    2  A    between atoms: C_4  and  S_1 
REMARK    3  A    between atoms: N_5  and  C_3 
REMARK    4  A    between atoms: C_6  and  C_10 
ROOT
ATOM      1  C   UNL d   1       0.113   0.044  -1.725  0.00  0.00     0.097 A 
ATOM      2  C   UNL d   1       0.785  -0.278  -2.905  0.00  0.00     0.125 A 
ATOM      3  C   UNL d   1       0.198  -0.052  -4.165  0.00  0.00     0.053 A 
ATOM      4  C   UNL d   1      -1.089   0.500  -4.253  0.00  0.00     0.050 A 
ATOM      5  C   UNL d   1      -1.152   0.642  -1.822  0.00  0.00     0.027 A 
ATOM      6  C   UNL d   1      -1.758   0.838  -3.067  0.00  0.00     0.018 A 
ENDROOT
BRANCH   1   7
ATOM      7  S   UNL d   1       0.893  -0.028  -0.126  0.00  0.00     0.210 S 
ATOM      8  O   UNL d   1       0.184   0.909   0.729  0.00  0.00    -0.217 OA
ATOM      9  O   UNL d   1       2.306   0.206  -0.363  0.00  0.00    -0.217 OA
BRANCH   7  10
ATOM     10  C   UNL d   1       0.718  -1.624   0.642  0.00  0.00     0.086 A 
ATOM     11  C   UNL d   1      -0.522  -2.112   1.054  0.00  0.00     0.057 A 
ATOM     12  C   UNL d   1      -0.585  -3.258   1.856  0.00  0.00     0.049 A 
ATOM     13 CL   UNL d   1      -2.037  -1.404   0.645  0.00  0.00    -0.083 Cl
ATOM     14  C   UNL d   1       0.577  -3.932   2.237  0.00  0.00     0.041 A 
ATOM     15  C   UNL d   1       1.827  -3.494   1.785  0.00  0.00    -0.039 A 
ATOM     16 CL   UNL d   1       0.393  -5.290   3.288  0.00  0.00    -0.084 Cl
ATOM     17  C   UNL d   1       1.886  -2.323   1.001  0.00  0.00     0.034 A 
ATOM     18  C   UNL d   1       3.120  -4.186   2.121  0.00  0.00     0.050 C 
ENDBRANCH   7  10
ENDBRANCH   1   7
BRANCH   2  19
ATOM     19  N   UNL d   1       2.089  -0.916  -2.893  0.00  0.00    -0.114 N 
ATOM     20  O   UNL d   1       2.163  -1.987  -2.275  0.00  0.00    -0.532 OA
ATOM     21  O   UNL d   1       2.984  -0.392  -3.563  0.00  0.00    -0.532 OA
ENDBRANCH   2  19
BRANCH   4  22
ATOM     22  C   UNL d   1      -1.765   0.732  -5.587  0.00  0.00     0.417 C 
ATOM     23  F   UNL d   1      -0.976   0.427  -6.652  0.00  0.00    -0.166 F 
ATOM     24  F   UNL d   1      -2.892  -0.018  -5.725  0.00  0.00    -0.166 F 
ATOM     25  F   UNL d   1      -2.148   2.026  -5.756  0.00  0.00    -0.166 F 
ENDBRANCH   4  22
TORSDOF 4
