REMARK  9 active torsions:
REMARK  status: ('A' for Active; 'I' for Inactive)
REMARK    1  A    between atoms: C_3  and  C_1 
REMARK    2  A    between atoms: N_4  and  C_2 
REMARK    3  A    between atoms: O_17  and  C_3 
REMARK       I    between atoms: C_7  and  N_8 
REMARK    4  A    between atoms: C_15  and  C_7 
REMARK    5  A    between atoms: N_8  and  C_10 
REMARK    6  A    between atoms: C_9  and  C_16 
REMARK    7  A    between atoms: O_18  and  C_9 
REMARK    8  A    between atoms: C_16  and  C_15 
REMARK    9  A    between atoms: C_21  and  O_17 
ROOT
ATOM      1  C   UNL d   1       1.450  -0.242   0.064  0.00  0.00     0.068 A 
ATOM      2  C   UNL d   1       0.612  -1.379   0.057  0.00  0.00     0.046 A 
ATOM      3  C   UNL d   1       0.895   1.060   0.053  0.00  0.00     0.049 A 
ATOM      4  C   UNL d   1      -0.775  -1.137  -0.044  0.00  0.00     0.032 A 
ATOM      5  C   UNL d   1      -0.480   1.266   0.028  0.00  0.00     0.035 A 
ATOM      6  C   UNL d   1      -1.315   0.155  -0.051  0.00  0.00     0.032 A 
ENDROOT
BRANCH   5   7
ATOM      7  N   UNL d   1      -1.087   2.534   0.119  0.00  0.00    -0.327 N 
ATOM      8  C   UNL d   1      -0.458   3.764   0.136  0.00  0.00     0.222 C 
ATOM      9  O   UNL d   1       0.729   3.986  -0.077  0.00  0.00    -0.273 OA
ATOM     10  H   UNL d   1      -2.108   2.539   0.135  0.00  0.00     0.169 HD
BRANCH   8  11
ATOM     11  C   UNL d   1      -1.409   4.920   0.380  0.00  0.00     0.113 C 
BRANCH  11  12
ATOM     12  C   UNL d   1      -1.986   5.416  -0.939  0.00  0.00     0.119 C 
BRANCH  12  13
ATOM     13  C   UNL d   1      -2.940   4.406  -1.525  0.00  0.00     0.139 C 
ATOM     14  O   UNL d   1      -3.528   3.558  -0.867  0.00  0.00    -0.650 OA
BRANCH  13  15
ATOM     15  O   UNL d   1      -3.090   4.522  -2.859  0.00  0.00    -0.776 OA
ATOM     16  H   UNL d   1      -2.533   5.211  -3.271  0.00  0.00     0.167 HD
ENDBRANCH  13  15
ENDBRANCH  12  13
ENDBRANCH  11  12
ENDBRANCH   8  11
ENDBRANCH   5   7
BRANCH   1  17
ATOM     17  C   UNL d   1       2.933  -0.325  -0.010  0.00  0.00     0.295 C 
ATOM     18  O   UNL d   1       3.562  -1.131  -0.676  0.00  0.00    -0.259 OA
BRANCH  17  19
ATOM     19  O   UNL d   1       3.473   0.653   0.765  0.00  0.00    -0.318 OA
BRANCH  19  20
ATOM     20  C   UNL d   1       4.906   0.725   0.817  0.00  0.00     0.174 C 
ATOM     21  C   UNL d   1       5.500   1.286  -0.464  0.00  0.00     0.034 C 
ENDBRANCH  19  20
ENDBRANCH  17  19
ENDBRANCH   1  17
BRANCH   2  22
ATOM     22  N   UNL d   1       0.989  -2.707   0.250  0.00  0.00    -0.380 N 
ATOM     23  C   UNL d   1       2.113  -3.048   1.125  0.00  0.00     0.123 C 
ATOM     24  C   UNL d   1       1.840  -4.412   1.759  0.00  0.00     0.020 C 
ATOM     25  C   UNL d   1       1.603  -5.473   0.685  0.00  0.00     0.003 C 
ATOM     26  C   UNL d   1       0.495  -5.040  -0.276  0.00  0.00     0.020 C 
ATOM     27  C   UNL d   1       0.758  -3.646  -0.856  0.00  0.00     0.123 C 
ENDBRANCH   2  22
TORSDOF 9
