REMARK  5 active torsions:
REMARK  status: ('A' for Active; 'I' for Inactive)
REMARK    1  A    between atoms: C_4  and  C_1 
REMARK    2  A    between atoms: C_15  and  C_5 
REMARK    3  A    between atoms: S_20  and  C_13 
REMARK    4  A    between atoms: C_19  and  C_21 
REMARK    5  A    between atoms: C_21  and  S_20 
ROOT
ATOM      1  N   UNL d   1       3.108  -6.703  -1.294  0.00  0.00    -0.335 N 
ATOM      2  HN  UNL d   1       2.927  -6.874  -0.305  1.00  0.00     0.168 HD
ATOM      3  C   UNL d   1       3.328  -7.708  -2.151  0.00  0.00     0.144 A 
ATOM      4  C   UNL d   1       3.139  -5.452  -1.800  0.00  0.00     0.062 A 
ATOM      5  N   UNL d   1       3.552  -7.552  -3.465  0.00  0.00    -0.347 N 
ATOM      6  HN  UNL d   1       3.704  -8.351  -4.081  1.00  0.00     0.167 HD
ATOM      7  C   UNL d   1       3.366  -5.190  -3.132  0.00  0.00     0.049 A 
ATOM      8  C   UNL d   1       3.567  -6.290  -3.927  0.00  0.00     0.092 A 
ENDROOT
BRANCH   4   9
ATOM      9  C   UNL d   1       2.958  -4.363  -0.844  0.00  0.00     0.066 A 
ATOM     10  N   UNL d   1       2.959  -3.029  -1.235  0.00  0.00    -0.346 N 
ATOM     11  C   UNL d   1       2.853  -2.252  -0.173  0.00  0.00     0.102 A 
ATOM     12  HN  UNL d   1       3.032  -2.699  -2.197  1.00  0.00     0.167 HD
ATOM     13  S   UNL d   1       2.709  -3.070   1.331  0.00  0.00    -0.080 SA
ATOM     14  C   UNL d   1       2.799  -4.569   0.513  0.00  0.00     0.083 A 
BRANCH  11  15
ATOM     15  C   UNL d   1       2.873  -0.753  -0.273  0.00  0.00     0.073 A 
ATOM     16  N   UNL d   1       2.868   0.067   0.846  0.00  0.00    -0.352 N 
ATOM     17  C   UNL d   1       2.933   1.327   0.477  0.00  0.00     0.047 A 
ATOM     18  HN  UNL d   1       2.820  -0.259   1.812  1.00  0.00     0.166 HD
ATOM     19  C   UNL d   1       3.000   2.474   1.423  0.00  0.00     0.076 C 
ATOM     20  S   UNL d   1       2.947   1.603  -1.220  0.00  0.00    -0.087 SA
ATOM     21  C   UNL d   1       2.912  -0.090  -1.483  0.00  0.00     0.083 A 
ENDBRANCH  11  15
ENDBRANCH   4   9
BRANCH   3  22
ATOM     22  S   UNL d   1       3.339  -9.369  -1.522  0.00  0.00    -0.089 SA
BRANCH  22  23
ATOM     23  C   UNL d   1       3.123  -9.027   0.253  0.00  0.00     0.122 C 
BRANCH  23  24
ATOM     24  C   UNL d   1       3.148 -10.292   1.077  0.00  0.00    -0.027 A 
ATOM     25  C   UNL d   1       4.332 -10.839   1.599  0.00  0.00     0.041 A 
ATOM     26 CL   UNL d   1       5.867 -10.074   1.386  0.00  0.00    -0.084 Cl
ATOM     27  C   UNL d   1       4.303 -12.031   2.331  0.00  0.00     0.024 A 
ATOM     28  C   UNL d   1       3.095 -12.689   2.556  0.00  0.00     0.002 A 
ATOM     29  C   UNL d   1       1.911 -12.155   2.055  0.00  0.00     0.001 A 
ATOM     30  C   UNL d   1       1.937 -10.969   1.318  0.00  0.00     0.009 A 
ENDBRANCH  23  24
ENDBRANCH  22  23
ENDBRANCH   3  22
TORSDOF 5
