REMARK  2 active torsions:
REMARK  status: ('A' for Active; 'I' for Inactive)
REMARK    1  A    between atoms: C_7  and  C_1 
REMARK    2  A    between atoms: O_21  and  C_18 
ROOT
ATOM      1  C   UNL d   1       2.463   0.724  -0.020  0.00  0.00     0.055 C 
ATOM      2  C   UNL d   1       1.196   1.507   0.137  0.00  0.00     0.198 C 
ATOM      3  C   UNL d   1       2.397  -0.621   0.033  0.00  0.00     0.065 C 
ATOM      4  C   UNL d   1      -0.050   0.739   0.120  0.00  0.00     0.049 A 
ATOM      5  C   UNL d   1       0.022  -0.648   0.153  0.00  0.00     0.092 A 
ATOM      6  O   UNL d   1       1.211  -1.328   0.205  0.00  0.00    -0.313 OA
ATOM      7  C   UNL d   1      -1.150  -1.403   0.125  0.00  0.00     0.074 A 
ATOM      8  C   UNL d   1      -1.284   1.395   0.046  0.00  0.00     0.021 A 
ATOM      9  O   UNL d   1       1.177   2.723   0.253  0.00  0.00    -0.286 OA
ATOM     10  C   UNL d   1      -2.377  -0.748   0.036  0.00  0.00     0.068 A 
ATOM     11  C   UNL d   1      -2.454   0.639  -0.006  0.00  0.00     0.037 A 
ATOM     12  C   UNL d   1       3.582  -1.539  -0.086  0.00  0.00     0.077 C 
ENDROOT
BRANCH   1  13
ATOM     13  C   UNL d   1       3.699   1.492  -0.214  0.00  0.00    -0.017 A 
ATOM     14  C   UNL d   1       4.540   1.739   0.874  0.00  0.00     0.052 A 
ATOM     15  C   UNL d   1       5.472   2.764   0.780  0.00  0.00     0.102 A 
ATOM     16  O   UNL d   1       6.161   3.096   1.917  0.00  0.00    -0.346 OA
ATOM     17  C   UNL d   1       5.610   3.503  -0.397  0.00  0.00     0.102 A 
ATOM     18  C   UNL d   1       6.131   4.520   2.009  0.00  0.00     0.202 C 
ATOM     19  C   UNL d   1       6.781   5.163   0.788  0.00  0.00     0.202 C 
ATOM     20  O   UNL d   1       6.372   4.634  -0.482  0.00  0.00    -0.346 OA
ATOM     21  C   UNL d   1       4.883   3.149  -1.529  0.00  0.00     0.040 A 
ATOM     22  C   UNL d   1       3.913   2.153  -1.434  0.00  0.00     0.015 A 
ENDBRANCH   1  13
BRANCH  10  23
ATOM     23  O   UNL d   1      -3.549  -1.447  -0.021  0.00  0.00    -0.361 OA
ATOM     24  H   UNL d   1      -3.355  -2.397   0.039  0.00  0.00     0.217 HD
ENDBRANCH  10  23
TORSDOF 2
