REMARK  5 active torsions:
REMARK  status: ('A' for Active; 'I' for Inactive)
REMARK    1  A    between atoms: S_9  and  C_2 
REMARK    2  A    between atoms: S_11  and  C_3 
REMARK    3  A    between atoms: C_8  and  C_12 
REMARK    4  A    between atoms: N_13  and  C_8 
REMARK    5  A    between atoms: C_12  and  S_9 
ROOT
ATOM      1  S   UNL d   1       1.157   0.058  -0.044  0.00  0.00    -0.038 SA
ATOM      2  C   UNL d   1      -0.093   1.226   0.029  0.00  0.00     0.129 A 
ATOM      3  C   UNL d   1      -0.069  -1.141   0.002  0.00  0.00     0.128 A 
ATOM      4  N   UNL d   1      -1.308   0.721   0.076  0.00  0.00    -0.287 N 
ATOM      5  HN  UNL d   1      -2.158   1.283   0.120  1.00  0.00     0.188 HD
ATOM      6  N   UNL d   1      -1.294  -0.660   0.061  0.00  0.00    -0.287 N 
ATOM      7  HN  UNL d   1      -2.133  -1.239   0.092  1.00  0.00     0.188 HD
ENDROOT
BRANCH   2   8
ATOM      8  S   UNL d   1       0.204   2.949   0.018  0.00  0.00    -0.097 SA
BRANCH   8   9
ATOM      9  C   UNL d   1      -1.302   3.531   0.859  0.00  0.00     0.150 C 
BRANCH   9  10
ATOM     10  C   UNL d   1      -1.301   5.044   0.919  0.00  0.00     0.080 C 
ATOM     11  S   UNL d   1      -0.630   5.912   2.177  0.00  0.00    -0.065 SA
BRANCH  10  12
ATOM     12  N   UNL d   1      -1.907   5.707  -0.112  0.00  0.00    -0.393 N 
ATOM     13  H   UNL d   1      -2.298   5.236  -0.919  0.00  0.00     0.156 HD
ATOM     14  H   UNL d   1      -1.920   6.721  -0.107  0.00  0.00     0.156 HD
ENDBRANCH  10  12
ENDBRANCH   9  10
ENDBRANCH   8   9
ENDBRANCH   2   8
BRANCH   3  15
ATOM     15  S   UNL d   1       0.279  -2.854  -0.025  0.00  0.00    -0.108 SA
ATOM     16  C   UNL d   1      -1.393  -3.542  -0.026  0.00  0.00     0.097 C 
ENDBRANCH   3  15
TORSDOF 5
