REMARK  13 active torsions:
REMARK  status: ('A' for Active; 'I' for Inactive)
REMARK    1  A    between atoms: C_2  and  N_1 
REMARK    2  A    between atoms: S_11  and  C_3 
REMARK    3  A    between atoms: C_9  and  C_4 
REMARK    4  A    between atoms: C_17  and  C_10 
REMARK    5  A    between atoms: C_18  and  C_17 
REMARK    6  A    between atoms: C_27  and  C_18 
REMARK    7  A    between atoms: C_19  and  C_22 
REMARK    8  A    between atoms: C_22  and  C_26 
REMARK    9  A    between atoms: C_23  and  C_28 
REMARK   10  A    between atoms: C_24  and  C_23 
REMARK   11  A    between atoms: C_25  and  C_24 
REMARK   12  A    between atoms: C_26  and  C_25 
REMARK   13  A    between atoms: C_28  and  C_27 
ROOT
ATOM      1  N   UNL d   1      -0.172   0.801  -0.004  0.00  0.00    -0.278 N 
ATOM      2  C   UNL d   1       1.022   0.132   0.253  0.00  0.00     0.164 C 
ATOM      3  N   UNL d   1       0.863  -1.161   0.110  0.00  0.00    -0.278 N 
ATOM      4  HN  UNL d   1       1.602  -1.863   0.134  1.00  0.00     0.189 HD
ATOM      5  N   UNL d   1      -0.461  -1.402  -0.074  0.00  0.00    -0.286 N 
ATOM      6  HN  UNL d   1      -0.883  -2.318  -0.224  1.00  0.00     0.188 HD
ATOM      7  C   UNL d   1      -1.111  -0.248  -0.027  0.00  0.00     0.104 C 
ENDROOT
BRANCH   7   8
ATOM      8  C   UNL d   1      -2.614  -0.167  -0.041  0.00  0.00     0.078 C 
BRANCH   8   9
ATOM      9  C   UNL d   1      -3.252  -1.568  -0.079  0.00  0.00     0.007 C 
BRANCH   9  10
ATOM     10  C   UNL d   1      -4.783  -1.554  -0.004  0.00  0.00     0.000 C 
BRANCH  10  11
ATOM     11  C   UNL d   1      -5.315  -2.993   0.004  0.00  0.00     0.000 C 
BRANCH  11  12
ATOM     12  C   UNL d   1      -6.842  -3.065   0.040  0.00  0.00     0.000 C 
BRANCH  12  13
ATOM     13  C   UNL d   1      -7.314  -4.523   0.028  0.00  0.00     0.000 C 
BRANCH  13  14
ATOM     14  C   UNL d   1      -8.839  -4.623   0.048  0.00  0.00     0.000 C 
BRANCH  14  15
ATOM     15  C   UNL d   1      -9.304  -6.081   0.030  0.00  0.00     0.000 C 
BRANCH  15  16
ATOM     16  C   UNL d   1     -10.831  -6.170   0.047  0.00  0.00    -0.000 C 
BRANCH  16  17
ATOM     17  C   UNL d   1     -11.309  -7.621   0.032  0.00  0.00    -0.005 C 
ATOM     18  C   UNL d   1     -12.827  -7.702   0.051  0.00  0.00     0.005 C 
ENDBRANCH  16  17
ENDBRANCH  15  16
ENDBRANCH  14  15
ENDBRANCH  13  14
ENDBRANCH  12  13
ENDBRANCH  11  12
ENDBRANCH  10  11
ENDBRANCH   9  10
ENDBRANCH   8   9
ENDBRANCH   7   8
BRANCH   1  19
ATOM     19  C   UNL d   1      -0.411   2.212  -0.127  0.00  0.00     0.058 A 
ATOM     20  C   UNL d   1       0.420   3.095  -0.866  0.00  0.00     0.075 A 
ATOM     21  C   UNL d   1       0.113   4.480  -0.852  0.00  0.00     0.018 A 
ATOM     22  C   UNL d   1      -1.014   4.982  -0.207  0.00  0.00     0.001 A 
ATOM     23  C   UNL d   1      -1.848   4.109   0.469  0.00  0.00     0.002 A 
ATOM     24  C   UNL d   1      -1.541   2.746   0.522  0.00  0.00     0.031 A 
BRANCH  20  25
ATOM     25  C   UNL d   1       1.604   2.727  -1.736  0.00  0.00     0.419 C 
ATOM     26  F   UNL d   1       1.677   1.419  -2.079  0.00  0.00    -0.166 F 
ATOM     27  F   UNL d   1       1.624   3.415  -2.914  0.00  0.00    -0.166 F 
ATOM     28  F   UNL d   1       2.780   3.030  -1.116  0.00  0.00    -0.166 F 
ENDBRANCH  20  25
ENDBRANCH   1  19
BRANCH   2  29
ATOM     29  S   UNL d   1       2.442   0.787   1.010  0.00  0.00    -0.105 SA
ATOM     30  H   UNL d   1       2.523   1.993   0.444  0.00  0.00     0.110 HD
ENDBRANCH   2  29
TORSDOF 13
