REMARK  4 active torsions:
REMARK  status: ('A' for Active; 'I' for Inactive)
REMARK       I    between atoms: C_3  and  N_1 
REMARK    1  A    between atoms: C_8  and  C_3 
REMARK    2  A    between atoms: C_14  and  C_8 
REMARK    3  A    between atoms: O_18  and  C_9 
REMARK    4  A    between atoms: O_20  and  C_12 
ROOT
ATOM      1  N   UNL d   1      -0.832   2.979  -2.253  0.00  0.00    -0.183 N 
ATOM      2  C   UNL d   1      -0.171   1.798  -2.600  0.00  0.00     0.275 C 
ATOM      3  C   UNL d   1      -1.339   3.258  -0.992  0.00  0.00     0.250 C 
ATOM      4  N   UNL d   1      -1.586   3.587  -3.290  0.00  0.00    -0.254 N 
ATOM      5  C   UNL d   1       0.333   1.767  -4.015  0.00  0.00     0.013 C 
ATOM      6  C   UNL d   1      -1.046   3.728  -4.534  0.00  0.00     0.261 C 
ATOM      7  C   UNL d   1      -0.032   2.726  -4.880  0.00  0.00     0.088 C 
ATOM      8  O   UNL d   1       0.030   0.854  -1.843  0.00  0.00    -0.266 OA
ATOM      9  O   UNL d   1      -2.541   3.523  -0.832  0.00  0.00    -0.271 OA
ATOM     10  O   UNL d   1      -1.426   4.563  -5.342  0.00  0.00    -0.267 OA
ATOM     11  C   UNL d   1       1.253   0.658  -4.427  0.00  0.00     0.054 C 
ATOM     12  H   UNL d   1      -2.321   4.225  -2.993  0.00  0.00     0.191 HD
ENDROOT
BRANCH   3  13
ATOM     13  C   UNL d   1      -0.393   3.401   0.191  0.00  0.00     0.144 C 
BRANCH  13  14
ATOM     14  C   UNL d   1       1.091   3.284  -0.038  0.00  0.00    -0.046 A 
ATOM     15  C   UNL d   1       1.734   2.071   0.249  0.00  0.00     0.047 A 
ATOM     16  C   UNL d   1       3.101   1.881   0.011  0.00  0.00     0.102 A 
ATOM     17  C   UNL d   1       3.866   2.973  -0.427  0.00  0.00     0.101 A 
ATOM     18  C   UNL d   1       3.230   4.200  -0.678  0.00  0.00     0.040 A 
ATOM     19  C   UNL d   1       1.854   4.357  -0.499  0.00  0.00     0.010 A 
BRANCH  16  20
ATOM     20  O   UNL d   1       3.711   0.684   0.256  0.00  0.00    -0.353 OA
ATOM     21  C   UNL d   1       2.970  -0.514   0.032  0.00  0.00     0.210 C 
ENDBRANCH  16  20
BRANCH  17  22
ATOM     22  O   UNL d   1       5.212   3.021  -0.685  0.00  0.00    -0.353 OA
ATOM     23  C   UNL d   1       6.024   1.955  -0.215  0.00  0.00     0.210 C 
ENDBRANCH  17  22
ENDBRANCH  13  14
ENDBRANCH   3  13
TORSDOF 4
