REMARK  4 active torsions:
REMARK  status: ('A' for Active; 'I' for Inactive)
REMARK    1  A    between atoms: C_12  and  C_2 
REMARK    2  A    between atoms: S_11  and  C_7 
REMARK    3  A    between atoms: C_13  and  S_11 
REMARK    4  A    between atoms: C_14  and  C_13 
ROOT
ATOM      1  C   UNL d   1      -0.689   1.219  -0.020  0.00  0.00     0.110 A 
ATOM      2  C   UNL d   1      -1.300   0.011  -0.032  0.00  0.00     0.068 A 
ATOM      3  N   UNL d   1       1.358  -0.048   0.085  0.00  0.00    -0.326 N 
ATOM      4  C   UNL d   1       0.800   1.201   0.029  0.00  0.00     0.125 A 
ATOM      5  N   UNL d   1      -0.661  -1.217   0.007  0.00  0.00    -0.335 N 
ATOM      6  HN  UNL d   1      -1.181  -2.094  -0.021  1.00  0.00     0.168 HD
ATOM      7  C   UNL d   1       0.626  -1.194   0.082  0.00  0.00     0.146 A 
ATOM      8  C   UNL d   1      -1.393   2.467  -0.032  0.00  0.00     0.105 C 
ATOM      9  N   UNL d   1      -1.964   3.477  -0.043  0.00  0.00    -0.191 NA
ATOM     10  S   UNL d   1       1.841   2.515   0.033  0.00  0.00    -0.059 SA
ATOM     11  H   UNL d   1       2.366  -0.130   0.145  0.00  0.00     0.169 HD
ENDROOT
BRANCH   2  12
ATOM     12  C   UNL d   1      -2.782  -0.021  -0.056  0.00  0.00    -0.008 A 
ATOM     13  C   UNL d   1      -3.470   0.010  -1.278  0.00  0.00     0.014 A 
ATOM     14  C   UNL d   1      -4.862   0.119  -1.297  0.00  0.00     0.001 A 
ATOM     15  C   UNL d   1      -5.575   0.192  -0.101  0.00  0.00     0.000 A 
ATOM     16  C   UNL d   1      -4.900   0.137   1.118  0.00  0.00     0.001 A 
ATOM     17  C   UNL d   1      -3.508   0.027   1.142  0.00  0.00     0.014 A 
ENDBRANCH   2  12
BRANCH   7  18
ATOM     18  S   UNL d   1       1.661  -2.574   0.239  0.00  0.00    -0.089 SA
BRANCH  18  19
ATOM     19  C   UNL d   1       0.746  -3.878  -0.624  0.00  0.00     0.121 C 
BRANCH  19  20
ATOM     20  C   UNL d   1       1.560  -5.158  -0.662  0.00  0.00    -0.049 A 
ATOM     21  C   UNL d   1       1.437  -6.117   0.356  0.00  0.00     0.008 A 
ATOM     22  C   UNL d   1       2.216  -7.282   0.343  0.00  0.00     0.001 A 
ATOM     23  C   UNL d   1       3.131  -7.498  -0.683  0.00  0.00     0.000 A 
ATOM     24  C   UNL d   1       3.270  -6.552  -1.699  0.00  0.00     0.001 A 
ATOM     25  C   UNL d   1       2.492  -5.391  -1.688  0.00  0.00     0.008 A 
ENDBRANCH  19  20
ENDBRANCH  18  19
ENDBRANCH   7  18
TORSDOF 4
