REMARK  4 active torsions:
REMARK  status: ('A' for Active; 'I' for Inactive)
REMARK    1  A    between atoms: N_6  and  C_1 
REMARK    2  A    between atoms: C_10  and  C_3 
REMARK       I    between atoms: C_8  and  N_6 
REMARK    3  A    between atoms: C_9  and  C_8 
REMARK    4  A    between atoms: C_13  and  C_14 
ROOT
ATOM      1  C   UNL d   1      -2.249   0.932  -0.408  0.00  0.00     0.142 C 
ATOM      2  C   UNL d   1      -1.866  -0.275  -0.930  0.00  0.00     0.085 C 
ATOM      3  C   UNL d   1      -1.527  -1.109   0.173  0.00  0.00     0.079 C 
ATOM      4  N   UNL d   1      -1.605  -0.392   1.316  0.00  0.00    -0.297 N 
ATOM      5  HN  UNL d   1      -1.416  -0.715   2.264  1.00  0.00     0.187 HD
ATOM      6  N   UNL d   1      -1.988   0.843   0.932  0.00  0.00    -0.284 N 
ATOM      7 BR   UNL d   1      -1.734  -0.624  -2.775  0.00  0.00    -0.044 Br
ATOM      8  H   UNL d   1      -2.100   1.563   1.637  0.00  0.00     0.188 HD
ENDROOT
BRANCH   1   9
ATOM      9  N   UNL d   1      -2.783   1.973  -1.145  0.00  0.00    -0.307 N 
ATOM     10  C   UNL d   1      -2.748   3.330  -0.709  0.00  0.00     0.260 C 
ATOM     11  O   UNL d   1      -2.160   3.617   0.321  0.00  0.00    -0.267 OA
ATOM     12  H   UNL d   1      -3.175   1.739  -2.053  0.00  0.00     0.170 HD
BRANCH  10  13
ATOM     13  C   UNL d   1      -3.386   4.326  -1.594  0.00  0.00     0.070 A 
ATOM     14  C   UNL d   1      -4.452   3.962  -2.417  0.00  0.00     0.132 A 
ATOM     15  F   UNL d   1      -4.890   2.694  -2.437  0.00  0.00    -0.205 F 
ATOM     16  C   UNL d   1      -5.078   4.897  -3.234  0.00  0.00     0.043 A 
ATOM     17  C   UNL d   1      -4.622   6.216  -3.245  0.00  0.00     0.003 A 
ATOM     18  C   UNL d   1      -3.546   6.588  -2.436  0.00  0.00     0.001 A 
ATOM     19  C   UNL d   1      -2.930   5.649  -1.602  0.00  0.00     0.020 A 
ENDBRANCH  10  13
ENDBRANCH   1   9
BRANCH   3  20
ATOM     20  C   UNL d   1      -1.135  -2.530   0.199  0.00  0.00    -0.007 A 
ATOM     21  C   UNL d   1      -0.372  -3.056   1.246  0.00  0.00     0.014 A 
ATOM     22  C   UNL d   1       0.022  -4.409   1.249  0.00  0.00     0.009 A 
ATOM     23  C   UNL d   1      -0.328  -5.278   0.198  0.00  0.00    -0.051 A 
ATOM     24  C   UNL d   1      -1.122  -4.748  -0.823  0.00  0.00     0.009 A 
ATOM     25  C   UNL d   1      -1.533  -3.410  -0.810  0.00  0.00     0.014 A 
BRANCH  23  26
ATOM     26  C   UNL d   1       0.149  -6.743   0.188  0.00  0.00    -0.024 C 
ATOM     27  C   UNL d   1      -0.310  -7.535  -1.060  0.00  0.00     0.019 C 
ATOM     28  C   UNL d   1       1.691  -6.789   0.208  0.00  0.00     0.019 C 
ATOM     29  C   UNL d   1      -0.399  -7.487   1.423  0.00  0.00     0.019 C 
ENDBRANCH  23  26
ENDBRANCH   3  20
TORSDOF 4
