REMARK  6 active torsions:
REMARK  status: ('A' for Active; 'I' for Inactive)
REMARK    1  A    between atoms: N_3  and  S_1 
REMARK    2  A    between atoms: C_10  and  S_1 
REMARK    3  A    between atoms: N_2  and  C_11 
REMARK    4  A    between atoms: C_4  and  N_3 
REMARK    5  A    between atoms: O_8  and  C_5 
REMARK    6  A    between atoms: C_7  and  O_8 
ROOT
ATOM      1  C   UNL d   1       0.899   1.962  -1.719  0.00  0.00     0.074 A 
ATOM      2  C   UNL d   1       0.015   2.944  -2.184  0.00  0.00     0.170 A 
ATOM      3  N   UNL d   1       0.345   4.258  -2.263  0.00  0.00    -0.345 N 
ATOM      4  HN  UNL d   1      -0.341   4.960  -2.541  1.00  0.00     0.167 HD
ATOM      5  C   UNL d   1       2.200   2.356  -1.403  0.00  0.00     0.030 A 
ATOM      6  C   UNL d   1       1.612   4.601  -1.959  0.00  0.00     0.090 A 
ATOM      7  C   UNL d   1       2.569   3.692  -1.544  0.00  0.00     0.019 A 
ENDROOT
BRANCH   1   8
ATOM      8  N   UNL d   1       0.507   0.579  -1.621  0.00  0.00    -0.177 NA
ATOM      9  H   UNL d   1       0.737   0.179  -0.708  0.00  0.00     0.146 HD
BRANCH   8  10
ATOM     10  S   UNL d   1       1.128  -0.477  -2.800  0.00  0.00     0.246 S 
ATOM     11  O   UNL d   1       0.375  -1.708  -2.704  0.00  0.00    -0.206 OA
ATOM     12  O   UNL d   1       2.570  -0.483  -2.660  0.00  0.00    -0.206 OA
BRANCH  10  13
ATOM     13  C   UNL d   1       0.719   0.307  -4.338  0.00  0.00     0.075 A 
ATOM     14  C   UNL d   1       1.702   1.029  -5.024  0.00  0.00     0.027 A 
ATOM     15  C   UNL d   1       1.365   1.708  -6.196  0.00  0.00     0.037 A 
ATOM     16  C   UNL d   1       0.049   1.646  -6.677  0.00  0.00     0.102 A 
ATOM     17  C   UNL d   1      -0.923   0.884  -6.010  0.00  0.00     0.037 A 
ATOM     18  C   UNL d   1      -0.584   0.207  -4.836  0.00  0.00     0.027 A 
BRANCH  16  19
ATOM     19  N   UNL d   1      -0.324   2.430  -7.861  0.00  0.00    -0.116 N 
ATOM     20  O   UNL d   1      -1.470   2.293  -8.309  0.00  0.00    -0.532 OA
ATOM     21  O   UNL d   1       0.532   3.190  -8.338  0.00  0.00    -0.532 OA
ENDBRANCH  16  19
ENDBRANCH  10  13
ENDBRANCH   8  10
ENDBRANCH   1   8
BRANCH   2  22
ATOM     22  O   UNL d   1      -1.265   2.542  -2.564  0.00  0.00    -0.291 OA
BRANCH  22  23
ATOM     23  C   UNL d   1      -1.954   3.314  -3.472  0.00  0.00     0.084 A 
ATOM     24  C   UNL d   1      -3.339   3.358  -3.378  0.00  0.00    -0.017 A 
ATOM     25  C   UNL d   1      -4.092   4.172  -4.237  0.00  0.00    -0.043 A 
ATOM     26  C   UNL d   1      -4.213   2.667  -2.380  0.00  0.00     0.042 C 
ATOM     27  C   UNL d   1      -5.541   4.161  -3.856  0.00  0.00     0.040 C 
ATOM     28  C   UNL d   1      -3.489   4.929  -5.238  0.00  0.00    -0.055 A 
ATOM     29  C   UNL d   1      -5.630   2.979  -2.885  0.00  0.00     0.009 C 
ATOM     30  C   UNL d   1      -2.102   4.818  -5.387  0.00  0.00     0.010 A 
ATOM     31  C   UNL d   1      -4.275   5.863  -6.105  0.00  0.00     0.049 C 
ATOM     32  C   UNL d   1      -1.350   4.016  -4.521  0.00  0.00     0.038 A 
ENDBRANCH  22  23
ENDBRANCH   2  22
TORSDOF 6
