REMARK  5 active torsions:
REMARK  status: ('A' for Active; 'I' for Inactive)
REMARK    1  A    between atoms: N_8  and  C_2 
REMARK    2  A    between atoms: C_10  and  C_3 
REMARK       I    between atoms: C_9  and  N_8 
REMARK       I    between atoms: N_12  and  C_9 
REMARK    3  A    between atoms: C_16  and  N_12 
REMARK    4  A    between atoms: C_17  and  C_16 
REMARK    5  A    between atoms: C_18  and  C_17 
ROOT
ATOM      1  S   UNL d   1       1.200   0.017   0.412  0.00  0.00    -0.037 SA
ATOM      2  C   UNL d   1       0.114   1.252  -0.022  0.00  0.00     0.169 A 
ATOM      3  C   UNL d   1      -0.074  -1.117   0.176  0.00  0.00     0.077 A 
ATOM      4  N   UNL d   1      -1.214  -0.546  -0.168  0.00  0.00    -0.295 N 
ATOM      5  HN  UNL d   1      -2.076  -1.062  -0.346  1.00  0.00     0.187 HD
ATOM      6  N   UNL d   1      -1.108   0.833  -0.262  0.00  0.00    -0.279 N 
ATOM      7  HN  UNL d   1      -1.888   1.450  -0.489  1.00  0.00     0.189 HD
ENDROOT
BRANCH   2   8
ATOM      8  N   UNL d   1       0.475   2.578  -0.053  0.00  0.00    -0.288 N 
ATOM      9  C   UNL d   1       1.767   3.043  -0.055  0.00  0.00     0.322 C 
ATOM     10  O   UNL d   1       2.788   2.366  -0.089  0.00  0.00    -0.247 OA
ATOM     11  N   UNL d   1       1.825   4.417  -0.003  0.00  0.00    -0.343 N 
ATOM     12  H   UNL d   1       0.983   4.965  -0.082  0.00  0.00     0.164 HD
ATOM     13  H   UNL d   1      -0.280   3.209  -0.257  0.00  0.00     0.172 HD
BRANCH  11  14
ATOM     14  C   UNL d   1       3.106   5.103  -0.027  0.00  0.00     0.124 C 
BRANCH  14  15
ATOM     15  C   UNL d   1       3.643   5.293  -1.446  0.00  0.00     0.019 C 
BRANCH  15  16
ATOM     16  C   UNL d   1       2.782   6.254  -2.267  0.00  0.00    -0.003 C 
ATOM     17  C   UNL d   1       3.365   6.481  -3.652  0.00  0.00     0.005 C 
ENDBRANCH  15  16
ENDBRANCH  14  15
ENDBRANCH  11  14
ENDBRANCH   2   8
BRANCH   3  18
ATOM     18  C   UNL d   1       0.144  -2.608   0.385  0.00  0.00    -0.001 C 
ATOM     19  C   UNL d   1       0.484  -2.891   1.861  0.00  0.00     0.021 C 
ATOM     20  C   UNL d   1      -1.136  -3.388   0.027  0.00  0.00     0.021 C 
ATOM     21  C   UNL d   1       1.284  -3.129  -0.513  0.00  0.00     0.021 C 
ENDBRANCH   3  18
TORSDOF 5
