REMARK  4 active torsions:
REMARK  status: ('A' for Active; 'I' for Inactive)
REMARK    1  A    between atoms: S_6  and  C_1 
REMARK    2  A    between atoms: N_2  and  C_7 
REMARK    3  A    between atoms: C_14  and  S_6 
REMARK    4  A    between atoms: C_15  and  C_14 
ROOT
ATOM      1  C   UNL d   1       3.521   7.027  -0.017  0.00  0.00     0.102 A 
ATOM      2  C   UNL d   1       2.233   6.783   0.468  0.00  0.00     0.036 A 
ATOM      3  C   UNL d   1       4.325   5.969  -0.457  0.00  0.00     0.036 A 
ATOM      4  C   UNL d   1       2.519   4.399   0.031  0.00  0.00    -0.048 A 
ATOM      5  C   UNL d   1       1.746   5.473   0.505  0.00  0.00     0.010 A 
ATOM      6  C   UNL d   1       3.822   4.664  -0.428  0.00  0.00     0.010 A 
ENDROOT
BRANCH   4   7
ATOM      7  C   UNL d   1       2.034   2.962   0.082  0.00  0.00     0.121 C 
BRANCH   7   8
ATOM      8  S   UNL d   1       0.281   2.748  -0.356  0.00  0.00    -0.089 SA
BRANCH   8   9
ATOM      9  C   UNL d   1       0.102   1.041  -0.130  0.00  0.00     0.146 A 
ATOM     10  N   UNL d   1      -1.096   0.385  -0.238  0.00  0.00    -0.341 N 
ATOM     11  C   UNL d   1      -0.849  -0.947  -0.014  0.00  0.00     0.109 A 
ATOM     12  C   UNL d   1      -2.406   0.918  -0.521  0.00  0.00     0.158 C 
ATOM     13  C   UNL d   1       0.501  -1.027   0.228  0.00  0.00     0.107 A 
ATOM     14  N   UNL d   1       1.081   0.213   0.156  0.00  0.00    -0.345 N 
ATOM     15  HN  UNL d   1       2.065   0.444   0.296  1.00  0.00     0.167 HD
ENDBRANCH   8   9
ENDBRANCH   7   8
ENDBRANCH   4   7
BRANCH   1  16
ATOM     16  N   UNL d   1       4.037   8.401  -0.059  0.00  0.00    -0.116 N 
ATOM     17  O   UNL d   1       3.285   9.311   0.323  0.00  0.00    -0.532 OA
ATOM     18  O   UNL d   1       5.191   8.572  -0.476  0.00  0.00    -0.532 OA
ENDBRANCH   1  16
TORSDOF 4
