REMARK  4 active torsions:
REMARK  status: ('A' for Active; 'I' for Inactive)
REMARK    1  A    between atoms: N_8  and  S_1 
REMARK    2  A    between atoms: C_10  and  S_1 
REMARK    3  A    between atoms: C_2  and  C_9 
REMARK    4  A    between atoms: C_14  and  N_8 
ROOT
ATOM      1  C   UNL d   1       2.554  -3.386   2.327  0.00  0.00    -0.004 A 
ATOM      2  C   UNL d   1       2.238  -2.091   1.889  0.00  0.00     0.044 A 
ATOM      3  C   UNL d   1       0.944  -1.593   2.033  0.00  0.00     0.043 A 
ATOM      4  C   UNL d   1       1.538  -4.172   2.889  0.00  0.00     0.014 A 
ATOM      5  C   UNL d   1       0.238  -3.680   3.012  0.00  0.00     0.003 A 
ATOM      6  C   UNL d   1      -0.055  -2.383   2.600  0.00  0.00     0.030 A 
ENDROOT
BRANCH   3   7
ATOM      7  N   UNL d   1       0.633  -0.294   1.538  0.00  0.00    -0.281 N 
ATOM      8  H   UNL d   1       0.081   0.316   2.135  0.00  0.00     0.179 HD
BRANCH   7   9
ATOM      9  S   UNL d   1       0.215  -0.145  -0.097  0.00  0.00     0.263 S 
ATOM     10  O   UNL d   1       1.268  -0.701  -0.914  0.00  0.00    -0.200 OA
ATOM     11  O   UNL d   1      -0.252   1.214  -0.280  0.00  0.00    -0.200 OA
BRANCH   9  12
ATOM     12  C   UNL d   1      -1.217  -1.198  -0.232  0.00  0.00     0.080 A 
ATOM     13  C   UNL d   1      -2.382  -0.844   0.461  0.00  0.00     0.027 A 
ATOM     14  C   UNL d   1      -3.478  -1.708   0.445  0.00  0.00     0.025 A 
ATOM     15  C   UNL d   1      -3.413  -2.896  -0.284  0.00  0.00     0.034 A 
ATOM     16  C   UNL d   1      -2.264  -3.227  -1.004  0.00  0.00     0.025 A 
ATOM     17 CL   UNL d   1      -4.759  -3.967  -0.283  0.00  0.00    -0.084 Cl
ATOM     18  C   UNL d   1      -1.156  -2.377  -0.979  0.00  0.00     0.027 A 
ENDBRANCH   9  12
ENDBRANCH   7   9
ENDBRANCH   3   7
BRANCH   1  19
ATOM     19  C   UNL d   1       3.934  -3.872   2.239  0.00  0.00     0.077 A 
ATOM     20  C   UNL d   1       4.443  -5.165   1.940  0.00  0.00     0.057 A 
ATOM     21  C   UNL d   1       5.808  -5.076   2.028  0.00  0.00     0.131 A 
ATOM     22 BR   UNL d   1       3.496  -6.712   1.473  0.00  0.00    -0.047 Br
ATOM     23  N   UNL d   1       6.063  -3.776   2.338  0.00  0.00    -0.306 N 
ATOM     24  N   UNL d   1       4.957  -3.026   2.472  0.00  0.00    -0.297 N 
ATOM     25  C   UNL d   1       7.366  -3.185   2.524  0.00  0.00     0.177 C 
ATOM     26  HN  UNL d   1       4.903  -2.033   2.700  1.00  0.00     0.187 HD
ENDBRANCH   1  19
TORSDOF 4
