REMARK  2 active torsions:
REMARK  status: ('A' for Active; 'I' for Inactive)
REMARK       I    between atoms: C_2  and  N_5 
REMARK       I    between atoms: N_9  and  C_2 
REMARK    1  A    between atoms: N_5  and  C_4 
REMARK    2  A    between atoms: C_14  and  N_9 
ROOT
ATOM      1  C   UNL d   1       0.414   1.152  -0.111  0.00  0.00     0.123 A 
ATOM      2  C   UNL d   1       0.823  -0.181  -0.132  0.00  0.00     0.166 A 
ATOM      3  C   UNL d   1      -0.101  -1.232  -0.230  0.00  0.00     0.076 A 
ATOM      4  C   UNL d   1       1.375   2.195   0.023  0.00  0.00     0.106 C 
ATOM      5  N   UNL d   1       2.178   3.029   0.140  0.00  0.00    -0.191 NA
ATOM      6  C   UNL d   1      -0.938   1.453  -0.212  0.00  0.00     0.140 A 
ATOM      7  C   UNL d   1      -1.456  -0.892  -0.384  0.00  0.00     0.036 A 
ATOM      8  C   UNL d   1      -1.875   0.441  -0.368  0.00  0.00     0.046 A 
ATOM      9  F   UNL d   1       2.139  -0.427  -0.075  0.00  0.00    -0.202 F 
ATOM     10  F   UNL d   1      -1.361   2.723  -0.158  0.00  0.00    -0.204 F 
ENDROOT
BRANCH   3  11
ATOM     11  N   UNL d   1       0.166  -2.615  -0.162  0.00  0.00    -0.306 N 
ATOM     12  C   UNL d   1       1.225  -3.413   0.160  0.00  0.00     0.325 C 
ATOM     13  N   UNL d   1       2.419  -2.834   0.450  0.00  0.00    -0.309 N 
ATOM     14  O   UNL d   1       0.983  -4.619   0.214  0.00  0.00    -0.247 OA
ATOM     15  H   UNL d   1       2.477  -1.841   0.322  0.00  0.00     0.170 HD
ATOM     16  H   UNL d   1      -0.641  -3.224  -0.279  0.00  0.00     0.171 HD
BRANCH  13  17
ATOM     17  C   UNL d   1       3.577  -3.441   0.974  0.00  0.00     0.036 A 
ATOM     18  C   UNL d   1       3.715  -4.814   1.188  0.00  0.00     0.031 A 
ATOM     19  C   UNL d   1       4.854  -5.320   1.823  0.00  0.00     0.026 A 
ATOM     20  C   UNL d   1       5.861  -4.455   2.240  0.00  0.00     0.034 A 
ATOM     21  C   UNL d   1       5.761  -3.090   1.987  0.00  0.00     0.026 A 
ATOM     22 CL   UNL d   1       7.223  -5.071   3.089  0.00  0.00    -0.084 Cl
ATOM     23  C   UNL d   1       4.625  -2.587   1.346  0.00  0.00     0.031 A 
ENDBRANCH  13  17
ENDBRANCH   3  11
TORSDOF 2
