REMARK  2 active torsions:
REMARK  status: ('A' for Active; 'I' for Inactive)
REMARK    1  A    between atoms: C_13  and  C_6 
REMARK    2  A    between atoms: C_19  and  C_14 
ROOT
ATOM      1  C   UNL d   1       1.536   1.558   0.319  0.00  0.00     0.027 C 
ATOM      2  N   UNL d   1       0.733   1.563  -0.702  0.00  0.00    -0.357 N 
ATOM      3  HN  UNL d   1       0.908   2.212  -1.470  1.00  0.00     0.166 HD
ATOM      4  C   UNL d   1       1.460   0.463   1.357  0.00  0.00     0.065 C 
ATOM      5  S   UNL d   1       0.946  -1.851  -0.082  0.00  0.00    -0.117 SA
ATOM      6  C   UNL d   1       2.172  -0.673   0.558  0.00  0.00     0.096 C 
ATOM      7  C   UNL d   1       2.756   2.417   0.343  0.00  0.00     0.004 A 
ATOM      8  S   UNL d   1       2.794   2.291   3.145  0.00  0.00    -0.128 SA
ATOM      9  C   UNL d   1      -0.384   0.685  -0.773  0.00  0.00     0.049 A 
ATOM     10  C   UNL d   1       1.835   0.808   2.786  0.00  0.00     0.091 C 
ATOM     11  C   UNL d   1      -0.417  -0.730  -0.575  0.00  0.00     0.028 A 
ATOM     12  C   UNL d   1       3.408   2.711   1.543  0.00  0.00     0.012 A 
ATOM     13  C   UNL d   1       3.334   2.804  -0.878  0.00  0.00     0.015 A 
ATOM     14  C   UNL d   1      -1.596   1.350  -1.022  0.00  0.00     0.031 A 
ATOM     15  C   UNL d   1      -1.663  -1.392  -0.621  0.00  0.00     0.021 A 
ATOM     16  C   UNL d   1       4.625   3.407   1.511  0.00  0.00     0.019 A 
ATOM     17  C   UNL d   1       4.560   3.472  -0.895  0.00  0.00     0.001 A 
ATOM     18  C   UNL d   1      -2.819   0.681  -1.030  0.00  0.00     0.002 A 
ATOM     19  C   UNL d   1      -2.851  -0.692  -0.826  0.00  0.00     0.002 A 
ATOM     20  C   UNL d   1       5.207   3.777   0.298  0.00  0.00     0.001 A 
ENDROOT
BRANCH   6  21
ATOM     21  C   UNL d   1       3.441  -1.223   1.168  0.00  0.00    -0.043 A 
ATOM     22  C   UNL d   1       4.666  -0.761   0.653  0.00  0.00     0.009 A 
ATOM     23  C   UNL d   1       5.864  -0.995   1.321  0.00  0.00     0.008 A 
ATOM     24  C   UNL d   1       5.872  -1.695   2.530  0.00  0.00    -0.055 A 
ATOM     25  C   UNL d   1       4.665  -2.244   2.994  0.00  0.00     0.008 A 
ATOM     26  C   UNL d   1       3.462  -2.029   2.308  0.00  0.00     0.009 A 
BRANCH  24  27
ATOM     27  C   UNL d   1       7.134  -1.785   3.368  0.00  0.00     0.010 C 
ATOM     28  C   UNL d   1       8.304  -2.405   2.601  0.00  0.00     0.015 C 
ATOM     29  C   UNL d   1       7.515  -0.398   3.901  0.00  0.00     0.015 C 
ENDBRANCH  24  27
ENDBRANCH   6  21
TORSDOF 2
