REMARK  6 active torsions:
REMARK  status: ('A' for Active; 'I' for Inactive)
REMARK    1  A    between atoms: C_9  and  S_1 
REMARK    2  A    between atoms: N_10  and  S_1 
REMARK    3  A    between atoms: C_2  and  C_11 
REMARK    4  A    between atoms: C_20  and  C_8 
REMARK    5  A    between atoms: C_12  and  N_10 
REMARK    6  A    between atoms: C_21  and  C_22 
ROOT
ATOM      1  C   UNL d   1       2.123  -2.875  -0.950  0.00  0.00     0.044 A 
ATOM      2  C   UNL d   1       0.791  -2.570  -0.603  0.00  0.00     0.057 A 
ATOM      3  C   UNL d   1       2.344  -3.853  -1.938  0.00  0.00     0.018 A 
ATOM      4  C   UNL d   1      -0.265  -3.331  -1.117  0.00  0.00     0.031 A 
ATOM      5  C   UNL d   1       1.278  -4.547  -2.515  0.00  0.00     0.001 A 
ATOM      6  C   UNL d   1      -0.022  -4.308  -2.081  0.00  0.00     0.002 A 
ENDROOT
BRANCH   1   7
ATOM      7  C   UNL d   1       3.282  -2.226  -0.349  0.00  0.00     0.177 A 
ATOM      8  O   UNL d   1       3.066  -1.415   0.732  0.00  0.00    -0.273 OA
ATOM      9  C   UNL d   1       4.331  -1.032   1.066  0.00  0.00     0.174 A 
ATOM     10  N   UNL d   1       5.243  -1.566   0.279  0.00  0.00    -0.277 N 
ATOM     11  N   UNL d   1       4.563  -2.339  -0.642  0.00  0.00    -0.277 N 
ATOM     12  HN  UNL d   1       6.253  -1.434   0.338  1.00  0.00     0.189 HD
ATOM     13  HN  UNL d   1       4.970  -2.888  -1.398  1.00  0.00     0.189 HD
BRANCH   9  14
ATOM     14  C   UNL d   1       4.473  -0.129   2.195  0.00  0.00     0.017 A 
ATOM     15  C   UNL d   1       3.375   0.503   2.796  0.00  0.00     0.016 A 
ATOM     16  C   UNL d   1       3.562   1.422   3.837  0.00  0.00     0.009 A 
ATOM     17  C   UNL d   1       4.848   1.745   4.308  0.00  0.00    -0.051 A 
ATOM     18  C   UNL d   1       5.932   1.061   3.734  0.00  0.00     0.009 A 
ATOM     19  C   UNL d   1       5.747   0.146   2.693  0.00  0.00     0.016 A 
BRANCH  17  20
ATOM     20  C   UNL d   1       5.042   2.842   5.369  0.00  0.00    -0.024 C 
ATOM     21  C   UNL d   1       6.527   3.110   5.706  0.00  0.00     0.019 C 
ATOM     22  C   UNL d   1       4.452   4.169   4.840  0.00  0.00     0.019 C 
ATOM     23  C   UNL d   1       4.332   2.460   6.682  0.00  0.00     0.019 C 
ENDBRANCH  17  20
ENDBRANCH   9  14
ENDBRANCH   1   7
BRANCH   2  24
ATOM     24  N   UNL d   1       0.485  -1.479   0.254  0.00  0.00    -0.280 N 
ATOM     25  H   UNL d   1       0.371  -1.646   1.254  0.00  0.00     0.179 HD
BRANCH  24  26
ATOM     26  S   UNL d   1      -0.199  -0.054  -0.309  0.00  0.00     0.263 S 
ATOM     27  O   UNL d   1      -1.343  -0.358  -1.144  0.00  0.00    -0.200 OA
ATOM     28  O   UNL d   1      -0.372   0.747   0.883  0.00  0.00    -0.200 OA
BRANCH  26  29
ATOM     29  C   UNL d   1       1.045   0.765  -1.326  0.00  0.00     0.086 A 
ATOM     30  C   UNL d   1       1.565   1.987  -0.846  0.00  0.00     0.034 A 
ATOM     31  C   UNL d   1       2.422   2.787  -1.629  0.00  0.00    -0.039 A 
ATOM     32  C   UNL d   1       2.822   4.157  -1.157  0.00  0.00     0.050 C 
ATOM     33  C   UNL d   1       2.820   2.311  -2.881  0.00  0.00     0.040 A 
ATOM     34  C   UNL d   1       2.318   1.103  -3.360  0.00  0.00     0.032 A 
ATOM     35 CL   UNL d   1       3.873   3.210  -3.912  0.00  0.00    -0.084 Cl
ATOM     36  C   UNL d   1       1.383   0.344  -2.626  0.00  0.00    -0.037 A 
ATOM     37  C   UNL d   1       0.809  -0.828  -3.367  0.00  0.00     0.050 C 
ENDBRANCH  26  29
ENDBRANCH  24  26
ENDBRANCH   2  24
TORSDOF 6
