REMARK  5 active torsions:
REMARK  status: ('A' for Active; 'I' for Inactive)
REMARK    1  A    between atoms: N_2  and  S_1 
REMARK    2  A    between atoms: C_7  and  S_1 
REMARK       I    between atoms: C_4  and  N_2 
REMARK    3  A    between atoms: C_5  and  C_4 
REMARK    4  A    between atoms: O_8  and  C_6 
REMARK    5  A    between atoms: C_16  and  O_8 
ROOT
ATOM      1  C   UNL d   1       1.929  -2.287   1.840  0.00  0.00     0.084 A 
ATOM      2  C   UNL d   1       2.839  -3.125   2.481  0.00  0.00     0.163 A 
ATOM      3  N   UNL d   1       3.143  -4.367   2.007  0.00  0.00    -0.346 N 
ATOM      4  HN  UNL d   1       3.856  -4.937   2.461  1.00  0.00     0.167 HD
ATOM      5  C   UNL d   1       1.276  -2.788   0.701  0.00  0.00     0.023 A 
ATOM      6  C   UNL d   1       2.481  -4.823   0.925  0.00  0.00     0.090 A 
ATOM      7  C   UNL d   1       1.539  -4.076   0.248  0.00  0.00     0.018 A 
ENDROOT
BRANCH   1   8
ATOM      8  C   UNL d   1       1.581  -0.923   2.323  0.00  0.00     0.267 C 
ATOM      9  N   UNL d   1       1.122   0.044   1.394  0.00  0.00    -0.279 N 
ATOM     10  HN  UNL d   1       0.755  -0.257   0.491  1.00  0.00     0.179 HD
ATOM     11  O   UNL d   1       1.554  -0.730   3.532  0.00  0.00    -0.267 OA
BRANCH   9  12
ATOM     12  S   UNL d   1       1.172   1.544   1.735  0.00  0.00     0.055 S 
ATOM     13  O   UNL d   1       2.320   2.219   2.321  0.00  0.00    -0.245 OA
ATOM     14  C   UNL d   1      -0.241   1.966   2.733  0.00  0.00     0.142 C 
BRANCH  12  15
ATOM     15  C   UNL d   1       0.809   2.429   0.218  0.00  0.00     0.038 A 
ATOM     16  C   UNL d   1      -0.407   2.215  -0.437  0.00  0.00     0.022 A 
ATOM     17  C   UNL d   1      -0.773   3.052  -1.495  0.00  0.00     0.008 A 
ATOM     18  C   UNL d   1       0.070   4.095  -1.905  0.00  0.00    -0.062 A 
ATOM     19  C   UNL d   1       1.308   4.264  -1.271  0.00  0.00     0.008 A 
ATOM     20  C   UNL d   1      -0.374   5.039  -2.985  0.00  0.00     0.048 C 
ATOM     21  C   UNL d   1       1.680   3.433  -0.213  0.00  0.00     0.022 A 
ENDBRANCH  12  15
ENDBRANCH   9  12
ENDBRANCH   1   8
BRANCH   2  22
ATOM     22  O   UNL d   1       3.509  -2.697   3.622  0.00  0.00    -0.293 OA
BRANCH  22  23
ATOM     23  C   UNL d   1       3.977  -3.681   4.477  0.00  0.00     0.077 A 
ATOM     24  C   UNL d   1       5.275  -3.552   4.977  0.00  0.00     0.037 A 
ATOM     25  C   UNL d   1       5.794  -4.532   5.829  0.00  0.00     0.003 A 
ATOM     26  C   UNL d   1       5.017  -5.635   6.188  0.00  0.00     0.000 A 
ATOM     27  C   UNL d   1       3.711  -5.747   5.716  0.00  0.00     0.003 A 
ATOM     28  C   UNL d   1       3.185  -4.761   4.880  0.00  0.00     0.037 A 
ENDBRANCH  22  23
ENDBRANCH   2  22
TORSDOF 5
