REMARK  0 active torsions:
REMARK  status: ('A' for Active; 'I' for Inactive)
ROOT
ATOM      1  C   UNL d   1      -0.122  -0.842   0.009  0.00  0.00    -0.021 A 
ATOM      2  C   UNL d   1      -0.394   0.527  -0.000  0.00  0.00     0.024 A 
ATOM      3  C   UNL d   1      -1.856   0.685   0.000  0.00  0.00     0.168 A 
ATOM      4  C   UNL d   1      -2.534  -0.682   0.032  0.00  0.00     0.022 A 
ATOM      5  C   UNL d   1       1.192  -1.315   0.007  0.00  0.00     0.057 A 
ATOM      6  C   UNL d   1      -1.363  -1.687   0.013  0.00  0.00     0.058 A 
ATOM      7  C   UNL d   1       0.625   1.476  -0.007  0.00  0.00    -0.047 A 
ATOM      8  C   UNL d   1       2.247  -0.386  -0.003  0.00  0.00    -0.040 A 
ATOM      9  C   UNL d   1       1.431  -2.731   0.013  0.00  0.00     0.100 C 
ATOM     10  C   UNL d   1       1.948   0.995  -0.008  0.00  0.00     0.016 A 
ATOM     11  N   UNL d   1       1.603  -3.878   0.017  0.00  0.00    -0.191 NA
ATOM     12  O   UNL d   1      -2.438   1.756  -0.019  0.00  0.00    -0.291 OA
ATOM     13  C   UNL d   1      -3.426  -0.861  -1.198  0.00  0.00     0.023 C 
ATOM     14  C   UNL d   1      -3.358  -0.826   1.314  0.00  0.00     0.023 C 
ATOM     15  C   UNL d   1       0.413   2.960  -0.011  0.00  0.00     0.049 C 
ATOM     16  C   UNL d   1       3.697  -0.795  -0.006  0.00  0.00     0.050 C 
ENDROOT
TORSDOF 0
