REMARK  10 active torsions:
REMARK  status: ('A' for Active; 'I' for Inactive)
REMARK    1  A    between atoms: C_10  and  C_1 
REMARK    2  A    between atoms: O_11  and  C_1 
REMARK    3  A    between atoms: C_17  and  C_2 
REMARK    4  A    between atoms: N_22  and  C_2 
REMARK    5  A    between atoms: N_3  and  O_11 
REMARK    6  A    between atoms: C_7  and  O_14 
REMARK    7  A    between atoms: N_8  and  O_16 
REMARK    8  A    between atoms: O_16  and  C_10 
REMARK    9  A    between atoms: C_13  and  C_12 
REMARK   10  A    between atoms: O_14  and  C_17 
ROOT
ATOM      1  C   UNL d   1       3.368   2.101   3.289  0.00  0.00     0.100 C 
ATOM      2  N   UNL d   1       3.947   1.680   2.209  0.00  0.00    -0.249 N 
ATOM      3  HN  UNL d   1       4.789   2.100   1.815  1.00  0.00     0.196 HD
ENDROOT
BRANCH   2   4
ATOM      4  O   UNL d   1       3.283   0.579   1.642  0.00  0.00    -0.196 OA
BRANCH   4   5
ATOM      5  C   UNL d   1       3.848   0.344   0.407  0.00  0.00     0.307 C 
ATOM      6  O   UNL d   1       5.028   0.509   0.115  0.00  0.00    -0.261 OA
BRANCH   5   7
ATOM      7  C   UNL d   1       2.758  -0.089  -0.547  0.00  0.00     0.314 C 
BRANCH   7   8
ATOM      8  O   UNL d   1       3.217   0.180  -1.866  0.00  0.00    -0.270 OA
BRANCH   8   9
ATOM      9  N   UNL d   1       2.147   0.124  -2.766  0.00  0.00    -0.270 N 
ATOM     10  C   UNL d   1       2.473   0.647  -3.916  0.00  0.00     0.038 C 
ATOM     11  C   UNL d   1       3.824   1.284  -4.199  0.00  0.00     0.071 C 
ATOM     12  HN  UNL d   1       1.232  -0.274  -2.551  1.00  0.00     0.194 HD
BRANCH  10  13
ATOM     13  C   UNL d   1       1.471   0.615  -5.035  0.00  0.00    -0.012 A 
ATOM     14  C   UNL d   1       0.180   0.125  -4.791  0.00  0.00     0.015 A 
ATOM     15  C   UNL d   1      -0.763   0.058  -5.820  0.00  0.00     0.024 A 
ATOM     16  C   UNL d   1      -0.418   0.479  -7.103  0.00  0.00     0.034 A 
ATOM     17  C   UNL d   1       0.861   0.970  -7.362  0.00  0.00     0.024 A 
ATOM     18 CL   UNL d   1      -1.571   0.384  -8.375  0.00  0.00    -0.084 Cl
ATOM     19  C   UNL d   1       1.802   1.036  -6.332  0.00  0.00     0.015 A 
ENDBRANCH  10  13
ENDBRANCH   8   9
ENDBRANCH   7   8
ENDBRANCH   5   7
ENDBRANCH   4   5
ENDBRANCH   2   4
BRANCH   1  20
ATOM     20  C   UNL d   1       3.893   3.425   3.850  0.00  0.00     0.247 C 
BRANCH  20  21
ATOM     21  O   UNL d   1       4.584   3.218   5.072  0.00  0.00    -0.343 OA
BRANCH  21  22
ATOM     22  C   UNL d   1       5.168   4.332   5.626  0.00  0.00     0.091 A 
ATOM     23  C   UNL d   1       5.474   4.282   6.996  0.00  0.00     0.069 A 
ATOM     24  C   UNL d   1       6.072   5.370   7.639  0.00  0.00     0.050 A 
ATOM     25 CL   UNL d   1       5.104   2.884   7.946  0.00  0.00    -0.081 Cl
ATOM     26  C   UNL d   1       6.377   6.516   6.910  0.00  0.00     0.035 A 
ATOM     27  C   UNL d   1       6.100   6.578   5.549  0.00  0.00     0.026 A 
ATOM     28 CL   UNL d   1       7.105   7.863   7.693  0.00  0.00    -0.084 Cl
ATOM     29  C   UNL d   1       5.500   5.489   4.908  0.00  0.00     0.040 A 
ENDBRANCH  21  22
ENDBRANCH  20  21
ENDBRANCH   1  20
BRANCH   1  30
ATOM     30  N   UNL d   1       2.322   1.480   3.931  0.00  0.00    -0.289 NA
ATOM     31  H   UNL d   1       2.245   0.495   3.698  0.00  0.00     0.125 HD
ATOM     32  H   UNL d   1       2.277   1.647   4.932  0.00  0.00     0.125 HD
ENDBRANCH   1  30
TORSDOF 10
