REMARK  1 active torsions:
REMARK  status: ('A' for Active; 'I' for Inactive)
REMARK    1  A    between atoms: N_5  and  C_1 
REMARK       I    between atoms: C_6  and  N_5 
REMARK       I    between atoms: N_11  and  C_6 
ROOT
ATOM      1  C   UNL d   1      -2.289  -0.138  -0.053  0.00  0.00     0.685 A 
ATOM      2  N   UNL d   1      -1.619   0.991  -0.071  0.00  0.00    -0.189 N 
ATOM      3  HN  UNL d   1      -2.003   1.936  -0.098  1.00  0.00     0.184 HD
ATOM      4  N   UNL d   1      -1.438  -1.213   0.009  0.00  0.00    -0.189 N 
ATOM      5  C   UNL d   1      -0.292   0.635  -0.046  0.00  0.00     0.076 A 
ATOM      6  C   UNL d   1      -0.149  -0.746  -0.014  0.00  0.00     0.076 A 
ATOM      7  C   UNL d   1       0.853   1.444  -0.040  0.00  0.00     0.032 A 
ATOM      8  C   UNL d   1       1.089  -1.390   0.006  0.00  0.00     0.032 A 
ATOM      9  C   UNL d   1       2.222  -0.567   0.004  0.00  0.00     0.002 A 
ATOM     10  C   UNL d   1       2.110   0.826  -0.012  0.00  0.00     0.002 A 
ATOM     11  H   UNL d   1      -1.722  -2.176   0.104  0.00  0.00     0.184 HD
ENDROOT
BRANCH   1  12
ATOM     12  N   UNL d   1      -3.627  -0.269  -0.009  0.00  0.00    -0.166 N 
ATOM     13  C   UNL d   1      -4.433  -1.355  -0.063  0.00  0.00     0.163 C 
ATOM     14  N   UNL d   1      -4.212  -2.497  -0.613  0.00  0.00    -0.376 N 
ATOM     15  N   UNL d   1      -5.622  -1.156   0.546  0.00  0.00    -0.274 NA
ATOM     16  H   UNL d   1      -3.343  -2.462  -1.146  0.00  0.00     0.158 HD
ATOM     17  HN  UNL d   1      -4.816  -3.315  -0.528  1.00  0.00     0.158 HD
ATOM     18  H   UNL d   1      -5.558  -0.710   1.453  0.00  0.00     0.127 HD
ATOM     19  H   UNL d   1      -6.137  -2.030   0.605  0.00  0.00     0.127 HD
ATOM     20  H   UNL d   1      -4.128   0.610   0.063  0.00  0.00     0.187 HD
ENDBRANCH   1  12
TORSDOF 1
