REMARK  4 active torsions:
REMARK  status: ('A' for Active; 'I' for Inactive)
REMARK    1  A    between atoms: C_8  and  C_1 
REMARK    2  A    between atoms: C_6  and  C_8 
REMARK    3  A    between atoms: N_7  and  C_9 
REMARK    4  A    between atoms: C_10  and  N_7 
ROOT
ATOM      1  C   UNL d   1      -2.407  -4.112  -0.262  0.00  0.00     0.124 C 
ATOM      2  N   UNL d   1      -2.939  -6.631  -0.525  0.00  0.00    -0.191 NA
ATOM      3  N   UNL d   1      -4.368  -2.430  -0.223  0.00  0.00    -0.191 NA
ATOM      4  C   UNL d   1      -2.720  -5.496  -0.407  0.00  0.00     0.110 C 
ATOM      5  C   UNL d   1      -3.487  -3.188  -0.245  0.00  0.00     0.110 C 
ENDROOT
BRANCH   1   6
ATOM      6  C   UNL d   1      -1.142  -3.658  -0.142  0.00  0.00     0.035 C 
BRANCH   6   7
ATOM      7  C   UNL d   1       0.047  -4.491  -0.128  0.00  0.00     0.019 C 
ATOM      8  C   UNL d   1       1.305  -4.032  -0.023  0.00  0.00     0.090 C 
BRANCH   8   9
ATOM      9  N   UNL d   1       2.493  -4.760   0.007  0.00  0.00    -0.361 N 
ATOM     10  C   UNL d   1       2.536  -6.230   0.008  0.00  0.00     0.155 C 
BRANCH   9  11
ATOM     11  C   UNL d   1       3.780  -4.150   0.079  0.00  0.00     0.033 A 
ATOM     12  C   UNL d   1       3.994  -2.962   0.802  0.00  0.00     0.029 A 
ATOM     13  C   UNL d   1       5.258  -2.360   0.866  0.00  0.00     0.002 A 
ATOM     14  C   UNL d   1       6.341  -2.931   0.206  0.00  0.00     0.000 A 
ATOM     15  C   UNL d   1       6.162  -4.106  -0.514  0.00  0.00     0.002 A 
ATOM     16  C   UNL d   1       4.898  -4.704  -0.575  0.00  0.00     0.029 A 
ENDBRANCH   9  11
ENDBRANCH   8   9
ENDBRANCH   6   7
ENDBRANCH   1   6
TORSDOF 4
