REMARK  5 active torsions:
REMARK  status: ('A' for Active; 'I' for Inactive)
REMARK    1  A    between atoms: C_6  and  C_1 
REMARK    2  A    between atoms: C_7  and  C_2 
REMARK    3  A    between atoms: C_9  and  C_5 
REMARK       I    between atoms: N_8  and  C_6 
REMARK    4  A    between atoms: C_16  and  N_8 
REMARK    5  A    between atoms: O_26  and  C_18 
ROOT
ATOM      1  C   UNL d   1       1.131   0.677   0.096  0.00  0.00     0.073 A 
ATOM      2  C   UNL d   1      -0.164   1.146  -0.063  0.00  0.00     0.175 A 
ATOM      3  O   UNL d   1      -1.046   0.094  -0.027  0.00  0.00    -0.304 OA
ATOM      4  C   UNL d   1       0.992  -0.725   0.350  0.00  0.00     0.058 A 
ATOM      5  C   UNL d   1      -0.338  -1.045   0.209  0.00  0.00     0.087 A 
ENDROOT
BRANCH   1   6
ATOM      6  C   UNL d   1       2.420   1.363   0.083  0.00  0.00     0.259 C 
ATOM      7  N   UNL d   1       2.478   2.548  -0.630  0.00  0.00    -0.323 N 
ATOM      8  H   UNL d   1       1.613   2.955  -0.952  0.00  0.00     0.169 HD
ATOM      9  O   UNL d   1       3.368   0.850   0.660  0.00  0.00    -0.267 OA
BRANCH   7  10
ATOM     10  C   UNL d   1       3.620   3.361  -0.797  0.00  0.00     0.035 A 
ATOM     11  C   UNL d   1       4.924   2.929  -0.537  0.00  0.00     0.032 A 
ATOM     12  C   UNL d   1       5.995   3.821  -0.625  0.00  0.00     0.044 A 
ATOM     13  C   UNL d   1       5.761   5.141  -0.985  0.00  0.00     0.116 A 
ATOM     14  C   UNL d   1       4.480   5.574  -1.303  0.00  0.00     0.044 A 
ATOM     15  F   UNL d   1       6.780   6.007  -1.022  0.00  0.00    -0.206 F 
ATOM     16  C   UNL d   1       3.410   4.679  -1.225  0.00  0.00     0.032 A 
ENDBRANCH   7  10
ENDBRANCH   1   6
BRANCH   2  17
ATOM     17  C   UNL d   1      -0.789   2.482  -0.228  0.00  0.00     0.440 C 
ATOM     18  F   UNL d   1       0.125   3.483  -0.113  0.00  0.00    -0.164 F 
ATOM     19  F   UNL d   1      -1.351   2.632  -1.452  0.00  0.00    -0.164 F 
ATOM     20  F   UNL d   1      -1.752   2.727   0.694  0.00  0.00    -0.164 F 
ENDBRANCH   2  17
BRANCH   5  21
ATOM     21  C   UNL d   1      -1.083  -2.295   0.260  0.00  0.00    -0.002 A 
ATOM     22  C   UNL d   1      -2.472  -2.314   0.430  0.00  0.00     0.017 A 
ATOM     23  C   UNL d   1      -3.172  -3.524   0.511  0.00  0.00     0.037 A 
ATOM     24  C   UNL d   1      -2.491  -4.737   0.416  0.00  0.00     0.068 A 
ATOM     25  C   UNL d   1      -1.111  -4.727   0.222  0.00  0.00     0.037 A 
ATOM     26  C   UNL d   1      -0.412  -3.521   0.144  0.00  0.00     0.017 A 
BRANCH  24  27
ATOM     27  O   UNL d   1      -3.049  -5.982   0.496  0.00  0.00    -0.356 OA
ATOM     28  C   UNL d   1      -4.442  -6.042   0.770  0.00  0.00     0.210 C 
ENDBRANCH  24  27
ENDBRANCH   5  21
TORSDOF 5
