REMARK  5 active torsions:
REMARK  status: ('A' for Active; 'I' for Inactive)
REMARK    1  A    between atoms: O_5  and  C_10 
REMARK    2  A    between atoms: C_8  and  O_5 
REMARK    3  A    between atoms: C_10  and  C_6 
REMARK    4  A    between atoms: C_18  and  C_12 
REMARK    5  A    between atoms: O_17  and  C_18 
ROOT
ATOM      1  O   UNL d   1      -3.624   2.837  -0.277  0.00  0.00    -0.347 OA
ENDROOT
BRANCH   1   2
ATOM      2  C   UNL d   1      -3.602   1.678   0.554  0.00  0.00     0.214 C 
BRANCH   2   3
ATOM      3  C   UNL d   1      -2.329   0.909   0.282  0.00  0.00    -0.032 A 
ATOM      4  C   UNL d   1      -2.376  -0.433  -0.125  0.00  0.00     0.035 A 
ATOM      5  C   UNL d   1      -1.195  -1.150  -0.357  0.00  0.00     0.056 A 
ATOM      6  C   UNL d   1       0.045  -0.528  -0.179  0.00  0.00     0.055 A 
ATOM      7 CL   UNL d   1      -1.342  -2.799  -0.854  0.00  0.00    -0.083 Cl
ATOM      8  C   UNL d   1       0.099   0.807   0.228  0.00  0.00     0.026 A 
ATOM      9 CL   UNL d   1       1.542  -1.350  -0.443  0.00  0.00    -0.083 Cl
ATOM     10  C   UNL d   1      -1.080   1.520   0.459  0.00  0.00     0.011 A 
ENDBRANCH   2   3
ENDBRANCH   1   2
BRANCH   1  11
ATOM     11  C   UNL d   1      -4.706   3.665  -0.150  0.00  0.00     0.069 A 
ATOM     12  C   UNL d   1      -5.788   3.477   0.709  0.00  0.00     0.037 A 
ATOM     13  C   UNL d   1      -6.840   4.401   0.730  0.00  0.00     0.012 A 
ATOM     14  C   UNL d   1      -6.834   5.520  -0.114  0.00  0.00    -0.035 A 
ATOM     15  C   UNL d   1      -5.731   5.715  -0.955  0.00  0.00     0.012 A 
ATOM     16  C   UNL d   1      -4.682   4.790  -0.976  0.00  0.00     0.037 A 
BRANCH  14  17
ATOM     17  C   UNL d   1      -7.949   6.532  -0.088  0.00  0.00     0.202 C 
BRANCH  17  18
ATOM     18  O   UNL d   1      -9.187   5.918   0.247  0.00  0.00    -0.396 OA
ATOM     19  H   UNL d   1      -9.868   6.605   0.165  0.00  0.00     0.209 HD
ENDBRANCH  17  18
ENDBRANCH  14  17
ENDBRANCH   1  11
TORSDOF 5
