REMARK  7 active torsions:
REMARK  status: ('A' for Active; 'I' for Inactive)
REMARK    1  A    between atoms: C_3  and  C_1 
REMARK    2  A    between atoms: O_21  and  C_2 
REMARK    3  A    between atoms: O_13  and  C_3 
REMARK    4  A    between atoms: C_4  and  C_5 
REMARK    5  A    between atoms: N_18  and  C_5 
REMARK    6  A    between atoms: N_6  and  O_13 
REMARK    7  A    between atoms: S_17  and  C_10 
ROOT
ATOM      1  C   UNL d   1      -1.520   4.680  -0.729  0.00  0.00     0.109 C 
ATOM      2  N   UNL d   1      -0.750   3.636  -0.792  0.00  0.00    -0.246 N 
ATOM      3  HN  UNL d   1       0.266   3.684  -0.721  1.00  0.00     0.196 HD
ENDROOT
BRANCH   1   4
ATOM      4  C   UNL d   1      -0.838   5.997  -0.491  0.00  0.00     0.006 A 
ATOM      5  C   UNL d   1      -1.470   7.210  -0.770  0.00  0.00     0.036 A 
ATOM      6  C   UNL d   1      -0.772   8.413  -0.593  0.00  0.00     0.046 A 
ATOM      7 BR   UNL d   1      -1.678  10.030  -1.018  0.00  0.00    -0.048 Br
ATOM      8  C   UNL d   1       0.555   8.422  -0.130  0.00  0.00     0.102 A 
ATOM      9  C   UNL d   1       1.183   7.200   0.140  0.00  0.00     0.046 A 
ATOM     10  C   UNL d   1       0.485   6.001  -0.025  0.00  0.00     0.036 A 
ATOM     11 BR   UNL d   1       3.006   7.062   0.656  0.00  0.00    -0.048 Br
BRANCH   8  12
ATOM     12  O   UNL d   1       1.225   9.619  -0.094  0.00  0.00    -0.353 OA
ATOM     13  C   UNL d   1       1.548  10.049   1.228  0.00  0.00     0.210 C 
ENDBRANCH   8  12
ENDBRANCH   1   4
BRANCH   1  14
ATOM     14  N   UNL d   1      -2.885   4.634  -0.864  0.00  0.00    -0.286 NA
ATOM     15  H   UNL d   1      -3.423   5.266  -0.281  0.00  0.00     0.125 HD
ATOM     16  H   UNL d   1      -3.252   3.688  -0.854  0.00  0.00     0.125 HD
ENDBRANCH   1  14
BRANCH   2  17
ATOM     17  O   UNL d   1      -1.456   2.431  -0.967  0.00  0.00    -0.193 OA
BRANCH  17  18
ATOM     18  C   UNL d   1      -0.547   1.422  -1.130  0.00  0.00     0.318 C 
ATOM     19  O   UNL d   1       0.671   1.502  -1.257  0.00  0.00    -0.257 OA
BRANCH  18  20
ATOM     20  C   UNL d   1      -1.204   0.135  -0.891  0.00  0.00     0.074 A 
ATOM     21  C   UNL d   1      -2.270  -0.356  -1.640  0.00  0.00     0.085 A 
ATOM     22  N   UNL d   1      -2.843  -1.555  -1.352  0.00  0.00    -0.360 N 
ATOM     23  C   UNL d   1      -2.325  -2.289  -0.340  0.00  0.00     0.089 A 
ATOM     24  HN  UNL d   1      -3.644  -1.893  -1.886  1.00  0.00     0.166 HD
ATOM     25  C   UNL d   1      -1.247  -1.887   0.425  0.00  0.00     0.018 A 
ATOM     26  C   UNL d   1      -0.678  -0.653   0.143  0.00  0.00     0.022 A 
BRANCH  21  27
ATOM     27  S   UNL d   1      -2.927   0.508  -3.062  0.00  0.00    -0.116 SA
ATOM     28  C   UNL d   1      -4.018  -0.764  -3.760  0.00  0.00     0.097 C 
ENDBRANCH  21  27
ENDBRANCH  18  20
ENDBRANCH  17  18
ENDBRANCH   2  17
TORSDOF 7
