REMARK  5 active torsions:
REMARK  status: ('A' for Active; 'I' for Inactive)
REMARK    1  A    between atoms: N_6  and  C_1 
REMARK    2  A    between atoms: N_4  and  C_2 
REMARK    3  A    between atoms: N_5  and  C_3 
REMARK    4  A    between atoms: C_12  and  N_6 
REMARK    5  A    between atoms: C_7  and  C_8 
ROOT
ATOM      1  C   UNL d   1       1.236  -0.382   0.002  0.00  0.00     0.095 A 
ATOM      2  C   UNL d   1       0.150  -1.252   0.222  0.00  0.00     0.132 A 
ATOM      3  C   UNL d   1       0.850   0.915  -0.465  0.00  0.00     0.132 A 
ATOM      4  C   UNL d   1      -1.546   0.417  -0.306  0.00  0.00     0.052 A 
ATOM      5  C   UNL d   1      -1.208  -0.876   0.087  0.00  0.00     0.054 A 
ATOM      6  C   UNL d   1      -0.506   1.301  -0.605  0.00  0.00     0.054 A 
ENDROOT
BRANCH   1   7
ATOM      7  N   UNL d   1       2.561  -0.667   0.236  0.00  0.00    -0.373 N 
ATOM      8  H   UNL d   1       3.202   0.139   0.155  0.00  0.00     0.160 HD
BRANCH   7   9
ATOM      9  C   UNL d   1       3.369  -1.902   0.310  0.00  0.00     0.174 C 
ATOM     10  C   UNL d   1       4.630  -1.542   1.153  0.00  0.00     0.240 C 
ATOM     11  N   UNL d   1       5.610  -2.463   1.348  0.00  0.00    -0.359 N 
ATOM     12  O   UNL d   1       4.774  -0.432   1.675  0.00  0.00    -0.271 OA
ATOM     13  C   UNL d   1       5.674  -3.809   0.840  0.00  0.00     0.122 C 
ATOM     14  H   UNL d   1       6.368  -2.123   1.930  0.00  0.00     0.162 HD
ATOM     15  C   UNL d   1       5.727  -3.840  -0.679  0.00  0.00     0.020 C 
ATOM     16  C   UNL d   1       4.348  -3.678  -1.310  0.00  0.00     0.004 C 
ATOM     17  C   UNL d   1       3.724  -2.297  -1.130  0.00  0.00     0.035 C 
ENDBRANCH   7   9
ENDBRANCH   1   7
BRANCH   2  18
ATOM     18  N   UNL d   1       0.351  -2.623   0.632  0.00  0.00    -0.113 N 
ATOM     19  O   UNL d   1       0.497  -2.840   1.840  0.00  0.00    -0.532 OA
ATOM     20  O   UNL d   1       0.302  -3.481  -0.261  0.00  0.00    -0.532 OA
ENDBRANCH   2  18
BRANCH   3  21
ATOM     21  N   UNL d   1       1.859   1.928  -0.871  0.00  0.00    -0.113 N 
ATOM     22  O   UNL d   1       3.049   1.592  -0.935  0.00  0.00    -0.532 OA
ATOM     23  O   UNL d   1       1.447   3.064  -1.151  0.00  0.00    -0.532 OA
ENDBRANCH   3  21
BRANCH   4  24
ATOM     24  C   UNL d   1      -2.984   0.872  -0.418  0.00  0.00     0.417 C 
ATOM     25  F   UNL d   1      -3.879  -0.085  -0.052  0.00  0.00    -0.166 F 
ATOM     26  F   UNL d   1      -3.244   1.953   0.364  0.00  0.00    -0.166 F 
ATOM     27  F   UNL d   1      -3.310   1.232  -1.687  0.00  0.00    -0.166 F 
ENDBRANCH   4  24
TORSDOF 5
