REMARK  7 active torsions:
REMARK  status: ('A' for Active; 'I' for Inactive)
REMARK    1  A    between atoms: S_8  and  C_2 
REMARK    2  A    between atoms: C_15  and  S_8 
REMARK    3  A    between atoms: C_9  and  C_11 
REMARK    4  A    between atoms: O_20  and  C_9 
REMARK    5  A    between atoms: C_10  and  C_15 
REMARK       I    between atoms: N_12  and  C_10 
REMARK    6  A    between atoms: C_18  and  N_12 
REMARK    7  A    between atoms: C_23  and  O_20 
ROOT
ATOM      1  C   UNL d   1       2.241   6.504  -0.934  0.00  0.00     0.231 C 
ATOM      2  N   UNL d   1       1.637   5.534  -0.152  0.00  0.00    -0.327 N 
ATOM      3  O   UNL d   1       1.650   7.360  -1.592  0.00  0.00    -0.272 OA
ATOM      4  H   UNL d   1       2.255   4.957   0.408  0.00  0.00     0.169 HD
ENDROOT
BRANCH   2   5
ATOM      5  C   UNL d   1       0.252   5.272  -0.051  0.00  0.00     0.034 A 
ATOM      6  C   UNL d   1      -0.708   5.908  -0.840  0.00  0.00     0.030 A 
ATOM      7  C   UNL d   1      -2.067   5.619  -0.689  0.00  0.00     0.020 A 
ATOM      8  C   UNL d   1      -2.493   4.686   0.257  0.00  0.00     0.039 A 
ATOM      9  C   UNL d   1      -1.538   4.029   1.043  0.00  0.00     0.020 A 
ATOM     10  C   UNL d   1      -0.174   4.320   0.885  0.00  0.00     0.030 A 
BRANCH   8  11
ATOM     11  C   UNL d   1      -3.958   4.480   0.408  0.00  0.00     0.293 C 
ATOM     12  O   UNL d   1      -4.790   5.086  -0.251  0.00  0.00    -0.259 OA
BRANCH  11  13
ATOM     13  O   UNL d   1      -4.218   3.603   1.408  0.00  0.00    -0.318 OA
BRANCH  13  14
ATOM     14  C   UNL d   1      -5.594   3.537   1.812  0.00  0.00     0.174 C 
ATOM     15  C   UNL d   1      -5.833   4.577   2.891  0.00  0.00     0.034 C 
ENDBRANCH  13  14
ENDBRANCH  11  13
ENDBRANCH   8  11
ENDBRANCH   2   5
BRANCH   1  16
ATOM     16  C   UNL d   1       3.757   6.546  -0.855  0.00  0.00     0.185 C 
BRANCH  16  17
ATOM     17  S   UNL d   1       4.518   4.899  -0.997  0.00  0.00    -0.083 SA
BRANCH  17  18
ATOM     18  C   UNL d   1       6.181   5.374  -1.015  0.00  0.00     0.162 A 
ATOM     19  N   UNL d   1       7.225   4.542  -1.292  0.00  0.00    -0.326 N 
ATOM     20  C   UNL d   1       8.346   5.310  -1.169  0.00  0.00     0.201 A 
ATOM     21  C   UNL d   1       7.217   3.148  -1.643  0.00  0.00     0.159 C 
ATOM     22  N   UNL d   1       8.008   6.539  -0.852  0.00  0.00    -0.294 N 
ATOM     23  N   UNL d   1       6.638   6.578  -0.753  0.00  0.00    -0.279 N 
ATOM     24  HN  UNL d   1       8.646   7.321  -0.705  1.00  0.00     0.187 HD
ATOM     25  HN  UNL d   1       6.075   7.396  -0.520  1.00  0.00     0.189 HD
ENDBRANCH  17  18
ENDBRANCH  16  17
ENDBRANCH   1  16
TORSDOF 7
