REMARK  8 active torsions:
REMARK  status: ('A' for Active; 'I' for Inactive)
REMARK    1  A    between atoms: N_4  and  S_1 
REMARK    2  A    between atoms: C_14  and  S_1 
REMARK    3  A    between atoms: N_2  and  C_6 
REMARK    4  A    between atoms: C_7  and  C_3 
REMARK    5  A    between atoms: C_8  and  N_4 
REMARK    6  A    between atoms: C_9  and  C_7 
REMARK    7  A    between atoms: C_17  and  O_25 
REMARK    8  A    between atoms: O_25  and  C_29 
ROOT
ATOM      1  C   UNL d   1      -0.040  -1.874   0.366  0.00  0.00     0.111 C 
ATOM      2  C   UNL d   1       0.611  -0.719   0.576  0.00  0.00     0.124 C 
ATOM      3  C   UNL d   1       0.023  -2.965   1.273  0.00  0.00     0.105 C 
ATOM      4  N   UNL d   1       0.057  -3.896   1.964  0.00  0.00    -0.191 NA
ENDROOT
BRANCH   1   5
ATOM      5  C   UNL d   1      -0.860  -1.964  -0.883  0.00  0.00     0.210 C 
ATOM      6  O   UNL d   1      -1.226  -0.913  -1.417  0.00  0.00    -0.285 OA
BRANCH   5   7
ATOM      7  C   UNL d   1      -1.174  -3.276  -1.450  0.00  0.00     0.056 A 
ATOM      8  S   UNL d   1      -2.607  -3.448  -2.383  0.00  0.00    -0.098 SA
ATOM      9  C   UNL d   1      -2.319  -5.109  -2.658  0.00  0.00     0.050 A 
ATOM     10  C   UNL d   1      -1.143  -5.529  -2.083  0.00  0.00     0.009 A 
ATOM     11  C   UNL d   1      -0.472  -4.470  -1.403  0.00  0.00     0.023 A 
ENDBRANCH   5   7
ENDBRANCH   1   5
BRANCH   2  12
ATOM     12  N   UNL d   1       1.500  -0.572   1.697  0.00  0.00    -0.322 N 
ATOM     13  HN  UNL d   1       1.628  -1.353   2.341  1.00  0.00     0.175 HD
BRANCH  12  14
ATOM     14  S   UNL d   1       2.267   0.751   1.944  0.00  0.00     0.052 S 
ATOM     15  O   UNL d   1       1.636   2.055   1.993  0.00  0.00    -0.245 OA
ATOM     16  C   UNL d   1       3.575   0.853   0.743  0.00  0.00     0.142 C 
BRANCH  14  17
ATOM     17  C   UNL d   1       3.184   0.537   3.461  0.00  0.00     0.038 A 
ATOM     18  C   UNL d   1       3.653  -0.734   3.800  0.00  0.00     0.024 A 
ATOM     19  C   UNL d   1       4.397  -0.907   4.967  0.00  0.00     0.039 A 
ATOM     20  C   UNL d   1       4.638   0.178   5.817  0.00  0.00     0.077 A 
ATOM     21  C   UNL d   1       4.186   1.452   5.459  0.00  0.00     0.039 A 
ATOM     22  C   UNL d   1       3.449   1.636   4.283  0.00  0.00     0.024 A 
BRANCH  20  23
ATOM     23  O   UNL d   1       5.373   0.087   6.981  0.00  0.00    -0.294 OA
BRANCH  23  24
ATOM     24  C   UNL d   1       5.248  -1.067   7.744  0.00  0.00     0.148 A 
ATOM     25  N   UNL d   1       4.077  -1.748   7.744  0.00  0.00    -0.344 N 
ATOM     26  C   UNL d   1       4.026  -2.899   8.457  0.00  0.00     0.126 A 
ATOM     27  HN  UNL d   1       3.265  -1.408   7.229  1.00  0.00     0.167 HD
ATOM     28  C   UNL d   1       5.100  -3.379   9.190  0.00  0.00     0.118 A 
ATOM     29  C   UNL d   1       6.285  -2.637   9.222  0.00  0.00     0.041 A 
ATOM     30  C   UNL d   1       6.356  -1.452   8.487  0.00  0.00     0.059 A 
BRANCH  28  31
ATOM     31  N   UNL d   1       4.986  -4.649   9.891  0.00  0.00    -0.114 N 
ATOM     32  O   UNL d   1       3.920  -5.271   9.790  0.00  0.00    -0.532 OA
ATOM     33  O   UNL d   1       5.969  -5.036  10.539  0.00  0.00    -0.532 OA
ENDBRANCH  28  31
ENDBRANCH  23  24
ENDBRANCH  20  23
ENDBRANCH  14  17
ENDBRANCH  12  14
ENDBRANCH   2  12
TORSDOF 8
