REMARK  0 active torsions:
REMARK  status: ('A' for Active; 'I' for Inactive)
ROOT
ATOM      1  C   UNL d   1      18.127   1.122   1.349  0.00  0.00     0.186 A 
ATOM      2  N   UNL d   1      17.418   2.184   2.031  0.00  0.00    -0.044 NA
ATOM      3  S   UNL d   1      15.812   2.273   1.337  0.00  0.00     0.237 S 
ATOM      4  C   UNL d   1      17.503   0.637   0.073  0.00  0.00     0.031 C 
ATOM      5  O   UNL d   1      17.414   0.887   2.586  0.00  0.00    -0.255 OA
ATOM      6  C   UNL d   1      16.067   1.100  -0.005  0.00  0.00     0.174 C 
ATOM      7  C   UNL d   1      17.912  -0.863   0.114  0.00  0.00    -0.031 C 
ATOM      8  C   UNL d   1      19.492   0.542   1.456  0.00  0.00     0.066 C 
ATOM      9  C   UNL d   1      19.435  -0.475   0.242  0.00  0.00    -0.002 C 
ATOM     10  C   UNL d   1      18.382   1.213  -1.091  0.00  0.00     0.016 C 
ATOM     11  O   UNL d   1      14.854   1.711   2.258  0.00  0.00    -0.209 OA
ATOM     12  O   UNL d   1      15.640   3.591   0.765  0.00  0.00    -0.209 OA
ATOM     13  C   UNL d   1      19.669   0.368  -1.022  0.00  0.00     0.006 C 
ATOM     14  C   UNL d   1      17.395  -1.676   1.320  0.00  0.00     0.016 C 
ATOM     15  C   UNL d   1      17.508  -1.646  -1.146  0.00  0.00     0.016 C 
ENDROOT
TORSDOF 0
