REMARK  9 active torsions:
REMARK  status: ('A' for Active; 'I' for Inactive)
REMARK    1  A    between atoms: N_3  and  C_11 
REMARK    2  A    between atoms: N_19  and  C_4 
REMARK    3  A    between atoms: C_7  and  C_5 
REMARK    4  A    between atoms: S_16  and  C_6 
REMARK    5  A    between atoms: O_24  and  C_7 
REMARK    6  A    between atoms: C_12  and  C_22 
REMARK       I    between atoms: N_15  and  C_12 
REMARK    7  A    between atoms: C_23  and  N_15 
REMARK    8  A    between atoms: C_22  and  S_16 
REMARK    9  A    between atoms: C_27  and  O_24 
ROOT
ATOM      1  N   UNL d   1      -1.321  -0.803   0.875  0.00  0.00    -0.327 N 
ATOM      2  HN  UNL d   1      -2.080  -1.239   1.397  1.00  0.00     0.169 HD
ATOM      3  C   UNL d   1      -0.490   0.079   1.460  0.00  0.00     0.097 A 
ATOM      4  C   UNL d   1       0.549   0.680   0.771  0.00  0.00     0.092 A 
ATOM      5  C   UNL d   1      -1.116  -1.088  -0.422  0.00  0.00     0.145 A 
ATOM      6  N   UNL d   1      -0.161  -0.536  -1.181  0.00  0.00    -0.346 N 
ATOM      7  HN  UNL d   1      -0.054  -0.769  -2.169  1.00  0.00     0.167 HD
ATOM      8  C   UNL d   1       0.650   0.348  -0.564  0.00  0.00     0.111 A 
ENDROOT
BRANCH   5   9
ATOM      9  S   UNL d   1      -2.121  -2.336  -1.188  0.00  0.00    -0.085 SA
BRANCH   9  10
ATOM     10  C   UNL d   1      -3.460  -2.413   0.035  0.00  0.00     0.185 C 
BRANCH  10  11
ATOM     11  C   UNL d   1      -4.576  -3.389  -0.312  0.00  0.00     0.231 C 
ATOM     12  N   UNL d   1      -4.274  -4.345  -1.262  0.00  0.00    -0.327 N 
ATOM     13  H   UNL d   1      -3.328  -4.316  -1.629  0.00  0.00     0.169 HD
ATOM     14  O   UNL d   1      -5.638  -3.312   0.305  0.00  0.00    -0.272 OA
BRANCH  12  15
ATOM     15  C   UNL d   1      -5.135  -5.329  -1.791  0.00  0.00     0.034 A 
ATOM     16  C   UNL d   1      -6.494  -5.421  -1.474  0.00  0.00     0.032 A 
ATOM     17  C   UNL d   1      -7.302  -6.407  -2.053  0.00  0.00     0.038 A 
ATOM     18  C   UNL d   1      -6.745  -7.314  -2.955  0.00  0.00     0.103 A 
ATOM     19  C   UNL d   1      -5.386  -7.241  -3.281  0.00  0.00     0.038 A 
ATOM     20  C   UNL d   1      -4.589  -6.245  -2.700  0.00  0.00     0.032 A 
BRANCH  18  21
ATOM     21  N   UNL d   1      -7.594  -8.343  -3.569  0.00  0.00    -0.116 N 
ATOM     22  O   UNL d   1      -8.798  -8.348  -3.280  0.00  0.00    -0.532 OA
ATOM     23  O   UNL d   1      -7.053  -9.149  -4.342  0.00  0.00    -0.532 OA
ENDBRANCH  18  21
ENDBRANCH  12  15
ENDBRANCH  10  11
ENDBRANCH   9  10
ENDBRANCH   5   9
BRANCH   3  24
ATOM     24  N   UNL d   1      -0.822   0.390   2.776  0.00  0.00    -0.288 NA
ATOM     25  H   UNL d   1      -1.552  -0.234   3.106  0.00  0.00     0.125 HD
ATOM     26  H   UNL d   1      -0.011   0.423   3.389  0.00  0.00     0.125 HD
ENDBRANCH   3  24
BRANCH   4  27
ATOM     27  C   UNL d   1       1.593   1.539   1.352  0.00  0.00     0.298 C 
ATOM     28  O   UNL d   1       2.341   2.227   0.675  0.00  0.00    -0.259 OA
BRANCH  27  29
ATOM     29  O   UNL d   1       1.703   1.301   2.682  0.00  0.00    -0.318 OA
BRANCH  29  30
ATOM     30  C   UNL d   1       2.908   1.748   3.321  0.00  0.00     0.174 C 
ATOM     31  C   UNL d   1       3.789   0.529   3.526  0.00  0.00     0.034 C 
ENDBRANCH  29  30
ENDBRANCH  27  29
ENDBRANCH   4  27
TORSDOF 9
