REMARK  9 active torsions:
REMARK  status: ('A' for Active; 'I' for Inactive)
REMARK    1  A    between atoms: S_7  and  C_1 
REMARK    2  A    between atoms: C_6  and  C_4 
REMARK    3  A    between atoms: O_14  and  C_6 
REMARK    4  A    between atoms: C_12  and  S_7 
REMARK    5  A    between atoms: O_16  and  C_8 
REMARK    6  A    between atoms: C_9  and  C_12 
REMARK    7  A    between atoms: O_15  and  C_9 
REMARK    8  A    between atoms: C_19  and  O_14 
REMARK    9  A    between atoms: C_20  and  O_15 
ROOT
ATOM      1  C   UNL d   1       1.228  -1.538   0.162  0.00  0.00     0.052 A 
ATOM      2  C   UNL d   1       0.127  -0.712   0.010  0.00  0.00     0.002 A 
ATOM      3  C   UNL d   1       0.512   0.685   0.020  0.00  0.00    -0.024 A 
ATOM      4  C   UNL d   1       1.890   0.853   0.013  0.00  0.00     0.088 A 
ATOM      5  S   UNL d   1       2.687  -0.655   0.169  0.00  0.00    -0.076 SA
ATOM      6  C   UNL d   1      -1.319  -1.139  -0.093  0.00  0.00     0.153 C 
ATOM      7  C   UNL d   1      -0.510   1.791  -0.032  0.00  0.00     0.041 C 
ATOM      8  C   UNL d   1      -1.899   1.298   0.377  0.00  0.00     0.007 C 
ATOM      9  C   UNL d   1      -2.268   0.034  -0.395  0.00  0.00     0.037 C 
ENDROOT
BRANCH   1  10
ATOM     10  S   UNL d   1       1.202  -3.300   0.270  0.00  0.00    -0.112 SA
BRANCH  10  11
ATOM     11  C   UNL d   1       2.132  -3.612   1.795  0.00  0.00     0.191 C 
BRANCH  11  12
ATOM     12  C   UNL d   1       1.498  -3.004   3.027  0.00  0.00     0.268 C 
ATOM     13  O   UNL d   1       0.462  -2.358   3.088  0.00  0.00    -0.264 OA
BRANCH  12  14
ATOM     14  O   UNL d   1       2.335  -3.228   4.088  0.00  0.00    -0.321 OA
BRANCH  14  15
ATOM     15  C   UNL d   1       2.149  -2.353   5.209  0.00  0.00     0.174 C 
ATOM     16  C   UNL d   1       2.998  -1.117   4.969  0.00  0.00     0.034 C 
ENDBRANCH  14  15
ENDBRANCH  12  14
ENDBRANCH  11  12
ENDBRANCH  10  11
ENDBRANCH   1  10
BRANCH   6  17
ATOM     17  O   UNL d   1      -1.523  -2.100  -1.133  0.00  0.00    -0.391 OA
ATOM     18  H   UNL d   1      -0.951  -1.839  -1.873  0.00  0.00     0.210 HD
ENDBRANCH   6  17
BRANCH   4  19
ATOM     19  C   UNL d   1       2.630   2.096  -0.156  0.00  0.00     0.300 C 
ATOM     20  O   UNL d   1       2.120   3.200  -0.326  0.00  0.00    -0.259 OA
BRANCH  19  21
ATOM     21  O   UNL d   1       3.976   1.865  -0.211  0.00  0.00    -0.317 OA
BRANCH  21  22
ATOM     22  C   UNL d   1       4.763   2.911  -0.791  0.00  0.00     0.174 C 
ATOM     23  C   UNL d   1       4.804   2.690  -2.293  0.00  0.00     0.034 C 
ENDBRANCH  21  22
ENDBRANCH  19  21
ENDBRANCH   4  19
TORSDOF 9
