REMARK  8 active torsions:
REMARK  status: ('A' for Active; 'I' for Inactive)
REMARK    1  A    between atoms: C_3  and  S_1 
REMARK    2  A    between atoms: C_8  and  S_1 
REMARK    3  A    between atoms: C_2  and  C_4 
REMARK    4  A    between atoms: C_7  and  O_25 
REMARK    5  A    between atoms: C_12  and  C_7 
REMARK    6  A    between atoms: C_26  and  C_8 
REMARK    7  A    between atoms: C_13  and  C_14 
REMARK    8  A    between atoms: O_25  and  C_26 
ROOT
ATOM      1  C   UNL d   1       0.323  -4.841  -1.945  0.00  0.00     0.174 C 
ENDROOT
BRANCH   1   2
ATOM      2  S   UNL d   1      -0.861  -5.795  -1.027  0.00  0.00     0.193 S 
ATOM      3  O   UNL d   1      -1.097  -5.117   0.236  0.00  0.00    -0.221 OA
ATOM      4  O   UNL d   1      -1.969  -6.117  -1.909  0.00  0.00    -0.221 OA
BRANCH   2   5
ATOM      5  C   UNL d   1      -0.068  -7.340  -0.631  0.00  0.00     0.128 A 
ATOM      6  N   UNL d   1       1.218  -7.467  -1.046  0.00  0.00    -0.356 N 
ATOM      7  C   UNL d   1       1.813  -8.651  -0.762  0.00  0.00     0.105 A 
ATOM      8  HN  UNL d   1       1.705  -6.719  -1.541  1.00  0.00     0.166 HD
ATOM      9  C   UNL d   1       1.191  -9.698  -0.088  0.00  0.00     0.063 A 
ATOM     10  C   UNL d   1      -0.136  -9.513   0.326  0.00  0.00     0.020 A 
ATOM     11  C   UNL d   1      -0.784  -8.312   0.051  0.00  0.00     0.042 A 
BRANCH   9  12
ATOM     12  C   UNL d   1       1.918 -10.983   0.179  0.00  0.00     0.418 C 
ATOM     13  F   UNL d   1       3.195 -10.996  -0.293  0.00  0.00    -0.166 F 
ATOM     14  F   UNL d   1       2.009 -11.262   1.509  0.00  0.00    -0.166 F 
ATOM     15  F   UNL d   1       1.300 -12.056  -0.386  0.00  0.00    -0.166 F 
ENDBRANCH   9  12
ENDBRANCH   2   5
ENDBRANCH   1   2
BRANCH   1  16
ATOM     16  C   UNL d   1      -0.290  -3.511  -2.348  0.00  0.00     0.194 C 
BRANCH  16  17
ATOM     17  O   UNL d   1       0.663  -2.686  -3.049  0.00  0.00    -0.317 OA
BRANCH  17  18
ATOM     18  C   UNL d   1       0.746  -2.893  -4.390  0.00  0.00     0.293 C 
ATOM     19  O   UNL d   1       0.146  -3.754  -5.009  0.00  0.00    -0.259 OA
BRANCH  18  20
ATOM     20  C   UNL d   1       1.710  -1.948  -5.023  0.00  0.00     0.039 A 
ATOM     21  C   UNL d   1       2.025  -2.120  -6.374  0.00  0.00     0.018 A 
ATOM     22  C   UNL d   1       2.973  -1.295  -6.996  0.00  0.00     0.009 A 
ATOM     23  C   UNL d   1       3.633  -0.271  -6.290  0.00  0.00    -0.051 A 
ATOM     24  C   UNL d   1       3.267  -0.084  -4.945  0.00  0.00     0.009 A 
ATOM     25  C   UNL d   1       2.321  -0.909  -4.318  0.00  0.00     0.018 A 
BRANCH  23  26
ATOM     26  C   UNL d   1       4.737   0.562  -6.973  0.00  0.00    -0.024 C 
ATOM     27  C   UNL d   1       5.353   1.641  -6.053  0.00  0.00     0.019 C 
ATOM     28  C   UNL d   1       5.888  -0.372  -7.411  0.00  0.00     0.019 C 
ATOM     29  C   UNL d   1       4.184   1.287  -8.219  0.00  0.00     0.019 C 
ENDBRANCH  23  26
ENDBRANCH  18  20
ENDBRANCH  17  18
ENDBRANCH  16  17
ENDBRANCH   1  16
TORSDOF 8
