REMARK  5 active torsions:
REMARK  status: ('A' for Active; 'I' for Inactive)
REMARK    1  A    between atoms: C_2  and  S_1 
REMARK    2  A    between atoms: N_8  and  S_1 
REMARK    3  A    between atoms: C_10  and  C_4 
REMARK    4  A    between atoms: C_15  and  N_8 
REMARK    5  A    between atoms: O_23  and  C_10 
ROOT
ATOM      1  S   UNL d   1       0.875   0.056   0.101  0.00  0.00     0.261 S 
ATOM      2  O   UNL d   1       0.123  -0.519  -0.994  0.00  0.00    -0.204 OA
ATOM      3  O   UNL d   1       2.315   0.142   0.043  0.00  0.00    -0.204 OA
ENDROOT
BRANCH   1   4
ATOM      4  C   UNL d   1       0.436  -0.933   1.521  0.00  0.00     0.146 A 
ATOM      5  N   UNL d   1       1.186  -1.118   2.675  0.00  0.00    -0.336 N 
ATOM      6  C   UNL d   1       0.475  -1.892   3.593  0.00  0.00     0.111 A 
ATOM      7  C   UNL d   1       2.514  -0.607   2.958  0.00  0.00     0.157 C 
ATOM      8  C   UNL d   1      -0.725  -2.225   2.986  0.00  0.00     0.039 A 
ATOM      9  C   UNL d   1      -0.745  -1.639   1.711  0.00  0.00     0.046 A 
BRANCH   6  10
ATOM     10  C   UNL d   1       0.932  -2.261   4.923  0.00  0.00     0.309 C 
ATOM     11  O   UNL d   1       2.011  -1.964   5.418  0.00  0.00    -0.258 OA
BRANCH  10  12
ATOM     12  O   UNL d   1      -0.031  -2.991   5.555  0.00  0.00    -0.321 OA
ATOM     13  C   UNL d   1       0.302  -3.383   6.886  0.00  0.00     0.213 C 
ENDBRANCH  10  12
ENDBRANCH   6  10
ENDBRANCH   1   4
BRANCH   1  14
ATOM     14  N   UNL d   1       0.224   1.596   0.355  0.00  0.00    -0.180 NA
ATOM     15  H   UNL d   1       0.157   2.072  -0.545  0.00  0.00     0.146 HD
BRANCH  14  16
ATOM     16  C   UNL d   1       0.763   2.389   1.405  0.00  0.00     0.024 A 
ATOM     17  C   UNL d   1       0.078   2.443   2.616  0.00  0.00     0.042 A 
ATOM     18  C   UNL d   1       0.582   3.284   3.593  0.00  0.00     0.049 A 
ATOM     19  C   UNL d   1       0.039   3.561   4.915  0.00  0.00     0.294 A 
ATOM     20  C   UNL d   1       1.722   4.039   3.412  0.00  0.00    -0.018 A 
ATOM     21  O   UNL d   1       0.867   4.483   5.490  0.00  0.00    -0.313 OA
ATOM     22  O   UNL d   1      -0.957   3.070   5.403  0.00  0.00    -0.259 OA
ATOM     23  C   UNL d   1       1.958   4.856   4.620  0.00  0.00     0.218 A 
ATOM     24  C   UNL d   1       2.431   3.966   2.226  0.00  0.00     0.012 A 
ATOM     25  C   UNL d   1       1.944   3.128   1.213  0.00  0.00     0.025 A 
ENDBRANCH  14  16
ENDBRANCH   1  14
TORSDOF 5
