REMARK  4 active torsions:
REMARK  status: ('A' for Active; 'I' for Inactive)
REMARK    1  A    between atoms: C_7  and  C_2 
REMARK    2  A    between atoms: N_6  and  C_3 
REMARK    3  A    between atoms: N_10  and  C_5 
REMARK    4  A    between atoms: O_12  and  C_7 
ROOT
ATOM      1  C   UNL d   1      -0.563   0.322  -0.027  0.00  0.00     0.106 A 
ATOM      2  C   UNL d   1       1.331  -1.058  -0.042  0.00  0.00     0.110 A 
ATOM      3  C   UNL d   1       0.423   1.305  -0.014  0.00  0.00     0.096 A 
ATOM      4  S   UNL d   1       1.972   0.528  -0.041  0.00  0.00    -0.063 SA
ATOM      5  C   UNL d   1      -0.049  -1.018  -0.027  0.00  0.00     0.073 A 
ATOM      6  C   UNL d   1      -1.967   0.592  -0.018  0.00  0.00     0.104 C 
ATOM      7  N   UNL d   1      -3.118   0.784  -0.016  0.00  0.00    -0.191 NA
ENDROOT
BRANCH   3   8
ATOM      8  N   UNL d   1       0.309   2.675   0.032  0.00  0.00    -0.374 N 
ATOM      9  C   UNL d   1       1.440   3.598   0.084  0.00  0.00     0.123 C 
ATOM     10  C   UNL d   1       0.807   4.881   0.610  0.00  0.00     0.021 C 
ATOM     11  C   UNL d   1      -0.555   4.895  -0.062  0.00  0.00     0.021 C 
ATOM     12  C   UNL d   1      -0.931   3.417  -0.201  0.00  0.00     0.123 C 
ENDBRANCH   3   8
BRANCH   5  13
ATOM     13  N   UNL d   1      -0.833  -2.123  -0.014  0.00  0.00    -0.397 N 
ATOM     14  H   UNL d   1      -0.440  -3.066   0.025  0.00  0.00     0.156 HD
ATOM     15  H   UNL d   1      -1.847  -2.102   0.064  0.00  0.00     0.156 HD
ENDBRANCH   5  13
BRANCH   2  16
ATOM     16  C   UNL d   1       2.194  -2.236  -0.051  0.00  0.00     0.302 C 
ATOM     17  O   UNL d   1       1.798  -3.397  -0.027  0.00  0.00    -0.259 OA
BRANCH  16  18
ATOM     18  O   UNL d   1       3.515  -1.888  -0.089  0.00  0.00    -0.322 OA
ATOM     19  C   UNL d   1       4.434  -2.981  -0.106  0.00  0.00     0.213 C 
ENDBRANCH  16  18
ENDBRANCH   2  16
TORSDOF 4
