REMARK  5 active torsions:
REMARK  status: ('A' for Active; 'I' for Inactive)
REMARK    1  A    between atoms: N_8  and  C_1 
REMARK    2  A    between atoms: C_12  and  C_6 
REMARK    3  A    between atoms: N_7  and  C_11 
REMARK    4  A    between atoms: C_16  and  N_8 
REMARK    5  A    between atoms: O_23  and  C_22 
ROOT
ATOM      1  C   UNL d   1      -0.533  -1.338  -0.182  0.00  0.00     0.079 C 
ATOM      2  C   UNL d   1      -1.406  -0.315  -0.021  0.00  0.00     0.140 C 
ATOM      3  S   UNL d   1       1.144  -1.049  -0.607  0.00  0.00    -0.086 SA
ATOM      4  C   UNL d   1      -1.026   1.113  -0.047  0.00  0.00     0.265 C 
ATOM      5  N   UNL d   1       0.276   1.475  -0.162  0.00  0.00    -0.339 N 
ATOM      6  C   UNL d   1       1.440   0.639  -0.079  0.00  0.00     0.186 C 
ATOM      7  C   UNL d   1      -2.804  -0.589   0.111  0.00  0.00     0.107 C 
ATOM      8  N   UNL d   1      -3.938  -0.833   0.177  0.00  0.00    -0.191 NA
ATOM      9  O   UNL d   1      -1.868   2.007   0.047  0.00  0.00    -0.267 OA
ATOM     10  H   UNL d   1       0.417   2.475  -0.116  0.00  0.00     0.164 HD
ENDROOT
BRANCH   1  11
ATOM     11  N   UNL d   1      -0.983  -2.664  -0.136  0.00  0.00    -0.253 NA
ATOM     12  H   UNL d   1      -0.650  -3.189  -0.945  0.00  0.00     0.134 HD
BRANCH  11  13
ATOM     13  C   UNL d   1      -0.852  -3.493   1.018  0.00  0.00     0.015 A 
ATOM     14  C   UNL d   1      -0.526  -2.990   2.288  0.00  0.00     0.060 A 
ATOM     15  C   UNL d   1      -0.493  -3.828   3.408  0.00  0.00     0.069 A 
ATOM     16  C   UNL d   1      -0.811  -5.178   3.265  0.00  0.00     0.037 A 
ATOM     17  C   UNL d   1      -1.163  -5.690   2.018  0.00  0.00     0.005 A 
ATOM     18  C   UNL d   1      -1.191  -4.849   0.904  0.00  0.00     0.024 A 
BRANCH  15  19
ATOM     19  O   UNL d   1      -0.180  -3.448   4.685  0.00  0.00    -0.356 OA
ATOM     20  C   UNL d   1       0.165  -2.084   4.885  0.00  0.00     0.210 C 
ENDBRANCH  15  19
ENDBRANCH  11  13
ENDBRANCH   1  11
BRANCH   6  21
ATOM     21  C   UNL d   1       2.170   0.740   1.254  0.00  0.00    -0.025 A 
ATOM     22  C   UNL d   1       1.504   0.971   2.470  0.00  0.00     0.012 A 
ATOM     23  C   UNL d   1       2.212   1.052   3.675  0.00  0.00     0.037 A 
ATOM     24  C   UNL d   1       3.603   0.892   3.681  0.00  0.00     0.102 A 
ATOM     25  C   UNL d   1       4.292   0.669   2.484  0.00  0.00     0.037 A 
ATOM     26  C   UNL d   1       3.575   0.595   1.284  0.00  0.00     0.012 A 
BRANCH  24  27
ATOM     27  N   UNL d   1       4.339   0.949   4.951  0.00  0.00    -0.116 N 
ATOM     28  O   UNL d   1       3.683   1.125   5.987  0.00  0.00    -0.532 OA
ATOM     29  O   UNL d   1       5.569   0.811   4.911  0.00  0.00    -0.532 OA
ENDBRANCH  24  27
ENDBRANCH   6  21
TORSDOF 5
