REMARK  5 active torsions:
REMARK  status: ('A' for Active; 'I' for Inactive)
REMARK    1  A    between atoms: C_3  and  N_1 
REMARK    2  A    between atoms: N_5  and  N_1 
REMARK       I    between atoms: C_2  and  N_5 
REMARK    3  A    between atoms: C_10  and  C_2 
REMARK    4  A    between atoms: C_13  and  C_10 
REMARK    5  A    between atoms: C_14  and  C_13 
ROOT
ATOM      1  C   UNL d   1       2.949   1.263   0.460  0.00  0.00     0.232 C 
ATOM      2  N   UNL d   1       2.397   0.124  -0.106  0.00  0.00    -0.287 N 
ATOM      3  O   UNL d   1       2.274   2.125   1.017  0.00  0.00    -0.272 OA
ATOM      4  H   UNL d   1       2.861  -0.334  -0.883  0.00  0.00     0.184 HD
ENDROOT
BRANCH   2   5
ATOM      5  N   UNL d   1       0.986   0.038  -0.103  0.00  0.00    -0.203 NA
ATOM      6  H   UNL d   1       0.599   0.830   0.425  0.00  0.00     0.153 HD
BRANCH   5   7
ATOM      7  C   UNL d   1       0.485  -1.200   0.391  0.00  0.00     0.033 A 
ATOM      8  C   UNL d   1      -0.817  -1.285   0.940  0.00  0.00    -0.038 A 
ATOM      9  C   UNL d   1      -1.307  -2.533   1.380  0.00  0.00     0.032 A 
ATOM     10  C   UNL d   1      -1.716  -0.094   1.140  0.00  0.00     0.050 C 
ATOM     11  C   UNL d   1      -0.553  -3.692   1.224  0.00  0.00     0.034 A 
ATOM     12  C   UNL d   1       0.696  -3.632   0.622  0.00  0.00     0.026 A 
ATOM     13 CL   UNL d   1      -1.176  -5.203   1.758  0.00  0.00    -0.084 Cl
ATOM     14  C   UNL d   1       1.199  -2.399   0.199  0.00  0.00     0.027 A 
ENDBRANCH   5   7
ENDBRANCH   2   5
BRANCH   1  15
ATOM     15  C   UNL d   1       4.456   1.319   0.317  0.00  0.00     0.108 C 
BRANCH  15  16
ATOM     16  C   UNL d   1       5.051   2.387   1.230  0.00  0.00     0.048 C 
BRANCH  16  17
ATOM     17  C   UNL d   1       6.560   2.384   1.216  0.00  0.00    -0.058 A 
ATOM     18  C   UNL d   1       7.266   3.171   0.299  0.00  0.00     0.007 A 
ATOM     19  C   UNL d   1       8.663   3.187   0.308  0.00  0.00     0.001 A 
ATOM     20  C   UNL d   1       9.366   2.413   1.229  0.00  0.00     0.000 A 
ATOM     21  C   UNL d   1       8.670   1.612   2.135  0.00  0.00     0.001 A 
ATOM     22  C   UNL d   1       7.276   1.595   2.128  0.00  0.00     0.007 A 
ENDBRANCH  16  17
ENDBRANCH  15  16
ENDBRANCH   1  15
TORSDOF 5
