REMARK  1 active torsions:
REMARK  status: ('A' for Active; 'I' for Inactive)
REMARK    1  A    between atoms: C_8  and  C_6 
ROOT
ATOM      1  C   UNL d   1      -1.801  -0.035  -0.028  0.00  0.00     0.057 A 
ATOM      2  S   UNL d   1      -0.970   1.502  -0.056  0.00  0.00    -0.086 SA
ATOM      3  C   UNL d   1      -0.835  -1.179  -0.076  0.00  0.00     0.200 A 
ATOM      4  C   UNL d   1       0.544  -0.678  -0.055  0.00  0.00     0.032 A 
ATOM      5  C   UNL d   1       0.613   0.710  -0.037  0.00  0.00     0.020 A 
ATOM      6  C   UNL d   1      -3.137  -0.117   0.053  0.00  0.00     0.034 C 
ATOM      7  O   UNL d   1      -1.102  -2.366  -0.128  0.00  0.00    -0.286 OA
ATOM      8  C   UNL d   1       1.684  -1.473  -0.038  0.00  0.00     0.017 A 
ATOM      9  C   UNL d   1       1.848   1.342   0.000  0.00  0.00     0.020 A 
ATOM     10  C   UNL d   1       2.927  -0.841   0.003  0.00  0.00     0.001 A 
ATOM     11  C   UNL d   1       3.008   0.560   0.021  0.00  0.00     0.001 A 
ENDROOT
BRANCH   6  12
ATOM     12  C   UNL d   1      -3.905  -1.359   0.134  0.00  0.00    -0.035 A 
ATOM     13  C   UNL d   1      -4.134  -1.962   1.378  0.00  0.00     0.014 A 
ATOM     14  C   UNL d   1      -4.879  -3.139   1.458  0.00  0.00     0.043 A 
ATOM     15  C   UNL d   1      -5.391  -3.707   0.297  0.00  0.00     0.116 A 
ATOM     16  C   UNL d   1      -5.168  -3.122  -0.945  0.00  0.00     0.043 A 
ATOM     17  F   UNL d   1      -6.113  -4.832   0.376  0.00  0.00    -0.206 F 
ATOM     18  C   UNL d   1      -4.422  -1.945  -1.028  0.00  0.00     0.014 A 
ENDBRANCH   6  12
TORSDOF 1
