REMARK  7 active torsions:
REMARK  status: ('A' for Active; 'I' for Inactive)
REMARK    1  A    between atoms: S_6  and  C_1 
REMARK    2  A    between atoms: C_2  and  C_5 
REMARK    3  A    between atoms: C_8  and  S_6 
REMARK    4  A    between atoms: N_7  and  C_9 
REMARK       I    between atoms: C_10  and  N_7 
REMARK    5  A    between atoms: C_21  and  C_10 
REMARK    6  A    between atoms: C_13  and  S_16 
REMARK    7  A    between atoms: S_16  and  C_21 
ROOT
ATOM      1  C   UNL d   1      -1.381   3.683  -0.245  0.00  0.00     0.035 A 
ATOM      2  C   UNL d   1      -2.080   3.305   0.920  0.00  0.00     0.052 A 
ATOM      3  C   UNL d   1      -3.355   3.843   1.163  0.00  0.00     0.031 A 
ATOM      4  C   UNL d   1      -1.928   4.683  -1.067  0.00  0.00     0.021 A 
ATOM      5  C   UNL d   1      -3.887   4.824   0.327  0.00  0.00     0.002 A 
ATOM      6  C   UNL d   1      -3.167   5.258  -0.779  0.00  0.00     0.002 A 
ENDROOT
BRANCH   1   7
ATOM      7  S   UNL d   1       0.126   2.938  -0.861  0.00  0.00    -0.052 SA
BRANCH   7   8
ATOM      8  C   UNL d   1      -0.293   1.236  -1.132  0.00  0.00     0.149 A 
ATOM      9  N   UNL d   1      -1.551   0.815  -0.937  0.00  0.00    -0.333 N 
ATOM     10  C   UNL d   1      -1.810  -0.503  -1.139  0.00  0.00     0.119 A 
ATOM     11  HN  UNL d   1      -2.287   1.459  -0.647  1.00  0.00     0.168 HD
ATOM     12  C   UNL d   1      -0.830  -1.380  -1.571  0.00  0.00     0.051 A 
ATOM     13  C   UNL d   1       0.420  -0.847  -1.764  0.00  0.00     0.092 A 
ATOM     14  N   UNL d   1       0.710   0.446  -1.551  0.00  0.00    -0.346 N 
ATOM     15  HN  UNL d   1       1.650   0.813  -1.700  1.00  0.00     0.167 HD
BRANCH  10  16
ATOM     16  C   UNL d   1      -3.211  -1.029  -0.889  0.00  0.00     0.432 C 
ATOM     17  F   UNL d   1      -4.063  -0.118  -0.339  0.00  0.00    -0.165 F 
ATOM     18  F   UNL d   1      -3.814  -1.465  -2.032  0.00  0.00    -0.165 F 
ATOM     19  F   UNL d   1      -3.220  -2.100  -0.042  0.00  0.00    -0.165 F 
ENDBRANCH  10  16
ENDBRANCH   7   8
ENDBRANCH   1   7
BRANCH   2  20
ATOM     20  N   UNL d   1      -1.633   2.349   1.852  0.00  0.00    -0.325 N 
ATOM     21  C   UNL d   1      -0.504   2.384   2.642  0.00  0.00     0.231 C 
ATOM     22  O   UNL d   1      -0.359   1.468   3.454  0.00  0.00    -0.272 OA
ATOM     23  H   UNL d   1      -2.331   1.736   2.258  0.00  0.00     0.169 HD
BRANCH  21  24
ATOM     24  C   UNL d   1       0.423   3.585   2.537  0.00  0.00     0.184 C 
BRANCH  24  25
ATOM     25  S   UNL d   1       1.748   3.577   3.784  0.00  0.00    -0.103 SA
BRANCH  25  26
ATOM     26  C   UNL d   1       2.662   5.007   3.231  0.00  0.00     0.069 A 
ATOM     27  N   UNL d   1       2.149   5.743   2.218  0.00  0.00    -0.361 N 
ATOM     28  C   UNL d   1       2.846   6.829   1.821  0.00  0.00     0.089 A 
ATOM     29  HN  UNL d   1       1.269   5.487   1.772  1.00  0.00     0.165 HD
ATOM     30  C   UNL d   1       4.038   7.229   2.397  0.00  0.00     0.017 A 
ATOM     31  C   UNL d   1       4.553   6.462   3.435  0.00  0.00     0.004 A 
ATOM     32  C   UNL d   1       3.858   5.331   3.858  0.00  0.00     0.037 A 
ENDBRANCH  25  26
ENDBRANCH  24  25
ENDBRANCH  21  24
ENDBRANCH   2  20
TORSDOF 7
