REMARK  6 active torsions:
REMARK  status: ('A' for Active; 'I' for Inactive)
REMARK    1  A    between atoms: C_4  and  C_1 
REMARK       I    between atoms: N_10  and  C_4 
REMARK       I    between atoms: C_5  and  N_11 
REMARK    2  A    between atoms: C_8  and  C_5 
REMARK    3  A    between atoms: C_21  and  C_7 
REMARK    4  A    between atoms: N_11  and  N_10 
REMARK    5  A    between atoms: O_16  and  C_21 
REMARK    6  A    between atoms: C_18  and  O_16 
ROOT
ATOM      1  C   UNL d   1       1.271   0.823   0.154  0.00  0.00     0.109 A 
ATOM      2  N   UNL d   1       1.491  -0.559   0.179  0.00  0.00    -0.347 N 
ATOM      3  HN  UNL d   1       2.408  -1.005   0.203  1.00  0.00     0.166 HD
ATOM      4  C   UNL d   1      -0.062   1.188   0.124  0.00  0.00     0.086 A 
ATOM      5  C   UNL d   1       0.337  -1.204   0.169  0.00  0.00     0.075 A 
ATOM      6  S   UNL d   1      -1.063  -0.197   0.140  0.00  0.00    -0.084 SA
ENDROOT
BRANCH   1   7
ATOM      7  C   UNL d   1       2.369   1.793   0.123  0.00  0.00     0.287 C 
ATOM      8  N   UNL d   1       3.622   1.221   0.171  0.00  0.00    -0.262 N 
ATOM      9  H   UNL d   1       3.746   0.215   0.289  0.00  0.00     0.190 HD
ATOM     10  O   UNL d   1       2.195   3.008   0.043  0.00  0.00    -0.264 OA
BRANCH   8  11
ATOM     11  N   UNL d   1       4.753   2.045   0.141  0.00  0.00    -0.263 N 
ATOM     12  C   UNL d   1       5.966   1.573   0.608  0.00  0.00     0.277 C 
ATOM     13  O   UNL d   1       6.080   0.418   1.026  0.00  0.00    -0.265 OA
ATOM     14  H   UNL d   1       4.611   3.027  -0.085  0.00  0.00     0.190 HD
BRANCH  12  15
ATOM     15  C   UNL d   1       7.078   2.515   0.566  0.00  0.00     0.074 A 
ATOM     16  S   UNL d   1       6.960   4.042  -0.209  0.00  0.00    -0.097 SA
ATOM     17  C   UNL d   1       8.595   4.418   0.119  0.00  0.00     0.050 A 
ATOM     18  C   UNL d   1       9.222   3.419   0.828  0.00  0.00     0.009 A 
ATOM     19  C   UNL d   1       8.346   2.324   1.088  0.00  0.00     0.025 A 
ENDBRANCH  12  15
ENDBRANCH   8  11
ENDBRANCH   1   7
BRANCH   5  20
ATOM     20  C   UNL d   1       0.182  -2.696   0.041  0.00  0.00     0.240 C 
BRANCH  20  21
ATOM     21  O   UNL d   1      -0.589  -3.182   1.146  0.00  0.00    -0.343 OA
BRANCH  21  22
ATOM     22  C   UNL d   1      -0.882  -4.524   1.119  0.00  0.00     0.090 A 
ATOM     23  C   UNL d   1      -0.969  -5.208   2.341  0.00  0.00     0.067 A 
ATOM     24 CL   UNL d   1      -0.670  -4.410   3.844  0.00  0.00    -0.081 Cl
ATOM     25  C   UNL d   1      -1.295  -6.570   2.374  0.00  0.00     0.026 A 
ATOM     26  C   UNL d   1      -1.553  -7.258   1.192  0.00  0.00     0.002 A 
ATOM     27  C   UNL d   1      -1.495  -6.583  -0.026  0.00  0.00     0.003 A 
ATOM     28  C   UNL d   1      -1.169  -5.223  -0.061  0.00  0.00     0.038 A 
ENDBRANCH  21  22
ENDBRANCH  20  21
ENDBRANCH   5  20
TORSDOF 6
