REMARK  7 active torsions:
REMARK  status: ('A' for Active; 'I' for Inactive)
REMARK       I    between atoms: C_2  and  N_1 
REMARK    1  A    between atoms: C_23  and  C_2 
REMARK    2  A    between atoms: C_16  and  N_3 
REMARK    3  A    between atoms: C_8  and  C_24 
REMARK    4  A    between atoms: O_22  and  C_8 
REMARK    5  A    between atoms: C_14  and  C_16 
REMARK    6  A    between atoms: S_18  and  C_23 
REMARK    7  A    between atoms: C_24  and  S_18 
ROOT
ATOM      1  N   UNL d   1      -1.502   0.065   0.371  0.00  0.00    -0.348 N 
ATOM      2  C   UNL d   1      -2.721   0.203   1.013  0.00  0.00     0.229 C 
ATOM      3  N   UNL d   1       1.390  -0.078  -0.226  0.00  0.00     0.095 N 
ATOM      4  C   UNL d   1      -0.863  -1.213   0.029  0.00  0.00     0.156 C 
ATOM      5  C   UNL d   1      -0.793   1.255  -0.116  0.00  0.00     0.156 C 
ATOM      6  O   UNL d   1      -3.200   1.308   1.303  0.00  0.00    -0.273 OA
ATOM      7  C   UNL d   1       0.728   1.192   0.165  0.00  0.00     0.292 C 
ATOM      8  C   UNL d   1       0.636  -1.198   0.376  0.00  0.00     0.292 C 
ENDROOT
BRANCH   3   9
ATOM      9  C   UNL d   1       1.512  -0.171  -1.691  0.00  0.00     0.311 C 
BRANCH   9  10
ATOM     10  C   UNL d   1       2.165  -1.443  -2.197  0.00  0.00    -0.027 A 
ATOM     11  C   UNL d   1       1.465  -2.287  -3.078  0.00  0.00     0.048 A 
ATOM     12  C   UNL d   1       2.106  -3.412  -3.552  0.00  0.00     0.105 A 
ATOM     13  O   UNL d   1       1.575  -4.320  -4.414  0.00  0.00    -0.323 OA
ATOM     14  C   UNL d   1       3.393  -3.722  -3.187  0.00  0.00     0.105 A 
ATOM     15  C   UNL d   1       2.683  -5.234  -4.559  0.00  0.00     0.352 A 
ATOM     16  O   UNL d   1       3.838  -4.863  -3.779  0.00  0.00    -0.323 OA
ATOM     17  C   UNL d   1       4.111  -2.927  -2.320  0.00  0.00     0.040 A 
ATOM     18  C   UNL d   1       3.487  -1.777  -1.820  0.00  0.00     0.012 A 
ENDBRANCH   9  10
ENDBRANCH   3   9
BRANCH   2  19
ATOM     19  C   UNL d   1      -3.472  -1.046   1.454  0.00  0.00     0.177 C 
BRANCH  19  20
ATOM     20  S   UNL d   1      -2.944  -1.544   3.127  0.00  0.00    -0.149 SA
BRANCH  20  21
ATOM     21  C   UNL d   1      -3.369  -0.048   4.085  0.00  0.00     0.184 C 
BRANCH  21  22
ATOM     22  C   UNL d   1      -4.844   0.274   4.028  0.00  0.00     0.149 C 
ATOM     23  O   UNL d   1      -5.686  -0.232   4.758  0.00  0.00    -0.649 OA
BRANCH  22  24
ATOM     24  O   UNL d   1      -5.179   1.170   3.066  0.00  0.00    -0.776 OA
ATOM     25  H   UNL d   1      -4.431   1.476   2.495  0.00  0.00     0.167 HD
ENDBRANCH  22  24
ENDBRANCH  21  22
ENDBRANCH  20  21
ENDBRANCH  19  20
ENDBRANCH   2  19
TORSDOF 7
