REMARK  4 active torsions:
REMARK  status: ('A' for Active; 'I' for Inactive)
REMARK    1  A    between atoms: C_4  and  C_13 
REMARK    2  A    between atoms: C_13  and  C_5 
REMARK    3  A    between atoms: C_15  and  C_11 
REMARK    4  A    between atoms: C_18  and  C_14 
ROOT
ATOM      1  C   UNL d   1      -0.570  -1.083   0.160  0.00  0.00     0.081 C 
ATOM      2  N   UNL d   1       0.661  -0.571  -0.149  0.00  0.00    -0.317 N 
ATOM      3  C   UNL d   1      -0.503   1.391   0.293  0.00  0.00     0.075 C 
ATOM      4  C   UNL d   1      -0.871  -2.378   0.005  0.00  0.00     0.094 C 
ATOM      5  C   UNL d   1       0.799   0.798  -0.110  0.00  0.00     0.263 C 
ATOM      6  S   UNL d   1      -1.629   0.159   0.740  0.00  0.00    -0.067 SA
ATOM      7  C   UNL d   1      -0.747   2.706   0.230  0.00  0.00     0.036 C 
ATOM      8  O   UNL d   1       1.812   1.413  -0.402  0.00  0.00    -0.267 OA
ATOM      9  H   UNL d   1       1.436  -1.129  -0.480  0.00  0.00     0.169 HD
ENDROOT
BRANCH   4  10
ATOM     10  C   UNL d   1      -2.228  -2.951   0.242  0.00  0.00     0.203 C 
ATOM     11  O   UNL d   1      -3.256  -2.285   0.227  0.00  0.00    -0.286 OA
BRANCH  10  12
ATOM     12  C   UNL d   1      -2.262  -4.389   0.483  0.00  0.00     0.107 A 
ATOM     13  N   UNL d   1      -1.203  -5.202   0.342  0.00  0.00    -0.257 N 
ATOM     14  O   UNL d   1      -1.640  -6.462   0.703  0.00  0.00    -0.241 OA
ATOM     15  HN  UNL d   1      -0.266  -4.942   0.032  1.00  0.00     0.195 HD
ATOM     16  C   UNL d   1      -2.950  -6.410   1.080  0.00  0.00     0.086 A 
ATOM     17  C   UNL d   1      -3.397  -5.121   0.912  0.00  0.00     0.071 A 
BRANCH  16  18
ATOM     18  C   UNL d   1      -3.558  -7.681   1.598  0.00  0.00     0.000 C 
ATOM     19  C   UNL d   1      -4.970  -7.426   2.159  0.00  0.00     0.021 C 
ATOM     20  C   UNL d   1      -3.656  -8.717   0.467  0.00  0.00     0.021 C 
ATOM     21  C   UNL d   1      -2.679  -8.236   2.734  0.00  0.00     0.021 C 
ENDBRANCH  16  18
ENDBRANCH  10  12
ENDBRANCH   4  10
BRANCH   7  22
ATOM     22  C   UNL d   1      -2.044   3.318   0.537  0.00  0.00    -0.035 A 
ATOM     23  C   UNL d   1      -2.281   3.862   1.803  0.00  0.00     0.013 A 
ATOM     24  C   UNL d   1      -3.522   4.433   2.099  0.00  0.00     0.024 A 
ATOM     25  C   UNL d   1      -4.526   4.454   1.132  0.00  0.00     0.034 A 
ATOM     26  C   UNL d   1      -4.304   3.902  -0.128  0.00  0.00     0.024 A 
ATOM     27 CL   UNL d   1      -6.048   5.170   1.494  0.00  0.00    -0.084 Cl
ATOM     28  C   UNL d   1      -3.063   3.332  -0.425  0.00  0.00     0.013 A 
ENDBRANCH   7  22
TORSDOF 4
