REMARK  3 active torsions:
REMARK  status: ('A' for Active; 'I' for Inactive)
REMARK       I    between atoms: N_3  and  C_1 
REMARK    1  A    between atoms: C_10  and  C_1 
REMARK    2  A    between atoms: C_2  and  N_3 
REMARK    3  A    between atoms: N_4  and  C_10 
ROOT
ATOM      1  C   UNL d   1       1.128   0.105   0.292  0.00  0.00     0.250 C 
ATOM      2  N   UNL d   1       1.522  -1.042  -0.378  0.00  0.00    -0.326 N 
ATOM      3  O   UNL d   1       1.384   0.374   1.464  0.00  0.00    -0.271 OA
ATOM      4  H   UNL d   1       1.336  -1.075  -1.374  0.00  0.00     0.169 HD
ENDROOT
BRANCH   2   5
ATOM      5  C   UNL d   1       2.268  -2.109   0.168  0.00  0.00     0.037 A 
ATOM      6  C   UNL d   1       2.423  -2.315   1.542  0.00  0.00     0.053 A 
ATOM      7  C   UNL d   1       3.210  -3.369   2.012  0.00  0.00     0.037 A 
ATOM      8 CL   UNL d   1       3.383  -3.613   3.708  0.00  0.00    -0.084 Cl
ATOM      9  C   UNL d   1       3.854  -4.225   1.127  0.00  0.00     0.048 A 
ATOM     10  C   UNL d   1       3.685  -4.032  -0.240  0.00  0.00     0.037 A 
ATOM     11  C   UNL d   1       2.884  -2.994  -0.723  0.00  0.00     0.053 A 
ATOM     12 CL   UNL d   1       4.487  -5.074  -1.351  0.00  0.00    -0.084 Cl
ENDBRANCH   2   5
BRANCH   1  13
ATOM     13  C   UNL d   1       0.351   1.101  -0.579  0.00  0.00     0.375 C 
BRANCH  13  14
ATOM     14  N   UNL d   1      -1.113   0.930  -0.456  0.00  0.00     0.101 N 
ATOM     15  C   UNL d   1      -1.818   1.961  -1.259  0.00  0.00     0.299 C 
ATOM     16  C   UNL d   1      -1.739   3.385  -0.671  0.00  0.00     0.198 C 
ATOM     17  O   UNL d   1      -2.200   3.426   0.684  0.00  0.00    -0.388 OA
ATOM     18  C   UNL d   1      -1.481   2.495   1.504  0.00  0.00     0.198 C 
ATOM     19  C   UNL d   1      -1.598   1.068   0.943  0.00  0.00     0.299 C 
ENDBRANCH  13  14
ENDBRANCH   1  13
TORSDOF 3
