REMARK  3 active torsions:
REMARK  status: ('A' for Active; 'I' for Inactive)
REMARK    1  A    between atoms: C_3  and  N_1 
REMARK    2  A    between atoms: C_16  and  C_9 
REMARK    3  A    between atoms: C_14  and  C_10 
ROOT
ATOM      1  N   UNL d   1      -0.748  -1.022  -0.189  0.00  0.00    -0.209 N 
ATOM      2  C   UNL d   1       0.602  -1.071   0.052  0.00  0.00     0.334 C 
ATOM      3  N   UNL d   1       1.062   0.243   0.106  0.00  0.00    -0.320 N 
ATOM      4  C   UNL d   1      -1.203   0.275  -0.187  0.00  0.00     0.261 C 
ATOM      5  C   UNL d   1       0.029   1.182  -0.278  0.00  0.00     0.215 C 
ATOM      6  O   UNL d   1       1.329  -2.039   0.205  0.00  0.00    -0.246 OA
ATOM      7  O   UNL d   1      -2.350   0.699  -0.188  0.00  0.00    -0.270 OA
ATOM      8  C   UNL d   1       2.434   0.644   0.330  0.00  0.00     0.155 C 
ENDROOT
BRANCH   1   9
ATOM      9  C   UNL d   1      -1.577  -2.062  -0.532  0.00  0.00     0.178 A 
ATOM     10  S   UNL d   1      -0.962  -3.647  -0.746  0.00  0.00    -0.036 SA
ATOM     11  C   UNL d   1      -2.510  -4.117  -1.335  0.00  0.00     0.077 A 
ATOM     12  N   UNL d   1      -3.393  -3.141  -1.297  0.00  0.00    -0.295 N 
ATOM     13  N   UNL d   1      -2.855  -1.964  -0.830  0.00  0.00    -0.278 N 
ATOM     14  HN  UNL d   1      -4.366  -3.246  -1.581  1.00  0.00     0.187 HD
ATOM     15  HN  UNL d   1      -3.392  -1.103  -0.726  1.00  0.00     0.189 HD
BRANCH  11  16
ATOM     16  C   UNL d   1      -2.806  -5.527  -1.818  0.00  0.00    -0.001 C 
ATOM     17  C   UNL d   1      -2.664  -6.522  -0.654  0.00  0.00     0.021 C 
ATOM     18  C   UNL d   1      -4.255  -5.603  -2.346  0.00  0.00     0.021 C 
ATOM     19  C   UNL d   1      -1.865  -5.929  -2.969  0.00  0.00     0.021 C 
ENDBRANCH  11  16
ENDBRANCH   1   9
BRANCH   5  20
ATOM     20  C   UNL d   1       0.160   1.701  -1.701  0.00  0.00    -0.026 A 
ATOM     21  C   UNL d   1      -0.523   2.870  -2.069  0.00  0.00     0.010 A 
ATOM     22  C   UNL d   1      -0.493   3.325  -3.389  0.00  0.00     0.001 A 
ATOM     23  C   UNL d   1       0.214   2.618  -4.359  0.00  0.00     0.000 A 
ATOM     24  C   UNL d   1       0.883   1.448  -4.015  0.00  0.00     0.001 A 
ATOM     25  C   UNL d   1       0.850   0.989  -2.699  0.00  0.00     0.010 A 
ENDBRANCH   5  20
TORSDOF 3
