REMARK  3 active torsions:
REMARK  status: ('A' for Active; 'I' for Inactive)
REMARK    1  A    between atoms: N_2  and  C_1 
REMARK    2  A    between atoms: C_16  and  C_8 
REMARK    3  A    between atoms: C_17  and  C_16 
ROOT
ATOM      1  C   UNL d   1       0.173   1.392  -0.144  0.00  0.00     0.679 A 
ATOM      2  N   UNL d   1       0.235   0.968  -1.417  0.00  0.00    -0.201 N 
ATOM      3  HN  UNL d   1       0.208   1.631  -2.191  1.00  0.00     0.183 HD
ATOM      4  N   UNL d   1       0.208   0.530   0.887  0.00  0.00    -0.201 N 
ATOM      5  HN  UNL d   1       0.164   0.864   1.850  1.00  0.00     0.183 HD
ATOM      6  C   UNL d   1       0.369  -1.308  -0.656  0.00  0.00    -0.026 A 
ATOM      7  C   UNL d   1       0.333  -0.357  -1.646  0.00  0.00     0.114 A 
ATOM      8  C   UNL d   1       0.303  -0.788   0.615  0.00  0.00     0.114 A 
ENDROOT
BRANCH   1   9
ATOM      9  N   UNL d   1       0.125   2.767   0.118  0.00  0.00    -0.216 N 
ATOM     10  C   UNL d   1      -0.595   3.132   1.339  0.00  0.00     0.143 C 
ATOM     11  C   UNL d   1       0.175   4.156   2.167  0.00  0.00     0.050 C 
ATOM     12  C   UNL d   1       0.631   5.432   1.459  0.00  0.00     0.271 C 
ATOM     13  N   UNL d   1      -0.091   5.812   0.248  0.00  0.00     0.085 N 
ATOM     14  C   UNL d   1       0.385   5.043  -0.910  0.00  0.00     0.289 C 
ATOM     15  H   UNL d   1      -1.093   5.678   0.370  0.00  0.00     0.315 HD
ATOM     16  C   UNL d   1      -0.148   3.602  -1.061  0.00  0.00     0.171 C 
ENDBRANCH   1   9
BRANCH   6  17
ATOM     17  C   UNL d   1       0.505  -2.769  -0.947  0.00  0.00     0.041 C 
BRANCH  17  18
ATOM     18  C   UNL d   1      -0.645  -3.637  -0.426  0.00  0.00     0.000 C 
ATOM     19  C   UNL d   1      -1.980  -3.319  -1.084  0.00  0.00     0.005 C 
ENDBRANCH  17  18
ENDBRANCH   6  17
TORSDOF 3
