REMARK  8 active torsions:
REMARK  status: ('A' for Active; 'I' for Inactive)
REMARK    1  A    between atoms: C_2  and  S_1 
REMARK    2  A    between atoms: C_8  and  S_1 
REMARK    3  A    between atoms: C_4  and  C_2 
REMARK    4  A    between atoms: C_3  and  C_10 
REMARK    5  A    between atoms: N_24  and  C_4 
REMARK    6  A    between atoms: C_5  and  O_9 
REMARK    7  A    between atoms: C_13  and  C_5 
REMARK    8  A    between atoms: O_9  and  N_6 
ROOT
ATOM      1  C   UNL d   1       0.992   1.827  -1.871  0.00  0.00     0.110 C 
ATOM      2  N   UNL d   1       1.829   2.465  -1.115  0.00  0.00    -0.245 N 
ATOM      3  HN  UNL d   1       2.298   3.326  -1.395  1.00  0.00     0.196 HD
ENDROOT
BRANCH   1   4
ATOM      4  C   UNL d   1       0.723   2.411  -3.239  0.00  0.00     0.223 C 
BRANCH   4   5
ATOM      5  S   UNL d   1      -0.623   3.553  -3.215  0.00  0.00     0.182 S 
ATOM      6  O   UNL d   1      -1.779   2.901  -2.624  0.00  0.00    -0.222 OA
ATOM      7  O   UNL d   1      -0.734   4.117  -4.551  0.00  0.00    -0.222 OA
BRANCH   5   8
ATOM      8  C   UNL d   1      -0.143   4.887  -2.143  0.00  0.00     0.059 A 
ATOM      9  C   UNL d   1       0.555   5.979  -2.672  0.00  0.00     0.025 A 
ATOM     10  C   UNL d   1       0.827   7.082  -1.858  0.00  0.00     0.025 A 
ATOM     11  C   UNL d   1       0.394   7.089  -0.531  0.00  0.00     0.034 A 
ATOM     12  C   UNL d   1      -0.298   5.998  -0.005  0.00  0.00     0.025 A 
ATOM     13 CL   UNL d   1       0.687   8.468   0.454  0.00  0.00    -0.084 Cl
ATOM     14  C   UNL d   1      -0.576   4.894  -0.813  0.00  0.00     0.025 A 
ENDBRANCH   5   8
ENDBRANCH   4   5
ENDBRANCH   1   4
BRANCH   1  15
ATOM     15  N   UNL d   1       0.377   0.652  -1.526  0.00  0.00    -0.387 N 
ATOM     16  H   UNL d   1      -0.010   0.056  -2.249  0.00  0.00     0.157 HD
ATOM     17  H   UNL d   1       0.771   0.164  -0.731  0.00  0.00     0.157 HD
ENDBRANCH   1  15
BRANCH   2  18
ATOM     18  O   UNL d   1       2.027   1.838   0.146  0.00  0.00    -0.193 OA
BRANCH  18  19
ATOM     19  C   UNL d   1       2.950   2.564   0.852  0.00  0.00     0.315 C 
ATOM     20  O   UNL d   1       3.538   3.566   0.455  0.00  0.00    -0.257 OA
BRANCH  19  21
ATOM     21  C   UNL d   1       3.206   2.021   2.220  0.00  0.00     0.041 A 
ATOM     22  C   UNL d   1       4.136   2.712   3.018  0.00  0.00     0.018 A 
ATOM     23  C   UNL d   1       4.443   2.283   4.313  0.00  0.00     0.017 A 
ATOM     24  C   UNL d   1       3.825   1.146   4.848  0.00  0.00     0.048 A 
ATOM     25  C   UNL d   1       2.894   0.454   4.054  0.00  0.00     0.017 A 
ATOM     26  C   UNL d   1       2.585   0.884   2.750  0.00  0.00     0.018 A 
BRANCH  24  27
ATOM     27  C   UNL d   1       4.172   0.697   6.251  0.00  0.00     0.417 C 
ATOM     28  F   UNL d   1       3.497  -0.417   6.649  0.00  0.00    -0.166 F 
ATOM     29  F   UNL d   1       5.494   0.401   6.391  0.00  0.00    -0.166 F 
ATOM     30  F   UNL d   1       3.902   1.650   7.186  0.00  0.00    -0.166 F 
ENDBRANCH  24  27
ENDBRANCH  19  21
ENDBRANCH  18  19
ENDBRANCH   2  18
TORSDOF 8
