REMARK  9 active torsions:
REMARK  status: ('A' for Active; 'I' for Inactive)
REMARK    1  A    between atoms: S_3  and  C_1 
REMARK    2  A    between atoms: C_7  and  C_2 
REMARK    3  A    between atoms: N_11  and  S_3 
REMARK    4  A    between atoms: O_15  and  C_7 
REMARK    5  A    between atoms: C_8  and  C_18 
REMARK    6  A    between atoms: C_21  and  N_11 
REMARK    7  A    between atoms: C_18  and  S_22 
REMARK    8  A    between atoms: C_26  and  C_21 
REMARK    9  A    between atoms: S_22  and  C_26 
ROOT
ATOM      1  S   UNL d   1       1.734   2.757  -0.096  0.00  0.00     0.245 S 
ATOM      2  O   UNL d   1       1.470   3.376  -1.373  0.00  0.00    -0.206 OA
ATOM      3  O   UNL d   1       1.522   3.457   1.148  0.00  0.00    -0.206 OA
ENDROOT
BRANCH   1   4
ATOM      4  C   UNL d   1       0.686   1.390  -0.004  0.00  0.00     0.122 A 
ATOM      5  C   UNL d   1       0.706   0.366   1.015  0.00  0.00     0.094 A 
ATOM      6  C   UNL d   1      -0.304  -0.516   0.643  0.00  0.00     0.067 A 
ATOM      7  C   UNL d   1      -0.857  -1.775   1.193  0.00  0.00     0.078 C 
ATOM      8  O   UNL d   1      -0.903  -0.105  -0.505  0.00  0.00    -0.318 OA
ATOM      9  C   UNL d   1      -0.307   1.051  -0.900  0.00  0.00     0.073 A 
ATOM     10  C   UNL d   1      -0.863   1.612  -2.154  0.00  0.00     0.078 C 
BRANCH   5  11
ATOM     11  C   UNL d   1       1.542   0.189   2.199  0.00  0.00     0.297 C 
ATOM     12  O   UNL d   1       1.372  -0.714   3.010  0.00  0.00    -0.259 OA
BRANCH  11  13
ATOM     13  O   UNL d   1       2.548   1.100   2.302  0.00  0.00    -0.322 OA
ATOM     14  C   UNL d   1       3.364   0.947   3.468  0.00  0.00     0.213 C 
ENDBRANCH  11  13
ENDBRANCH   5  11
ENDBRANCH   1   4
BRANCH   1  15
ATOM     15  N   UNL d   1       3.326   2.208  -0.133  0.00  0.00    -0.215 NA
ATOM     16  H   UNL d   1       3.588   1.859   0.795  0.00  0.00     0.140 HD
BRANCH  15  17
ATOM     17  C   UNL d   1       3.685   1.280  -1.231  0.00  0.00     0.114 C 
BRANCH  17  18
ATOM     18  C   UNL d   1       5.127   0.788  -1.048  0.00  0.00     0.089 C 
BRANCH  18  19
ATOM     19  S   UNL d   1       5.249  -0.075   0.558  0.00  0.00    -0.163 SA
BRANCH  19  20
ATOM     20  C   UNL d   1       7.038  -0.408   0.623  0.00  0.00     0.117 C 
BRANCH  20  21
ATOM     21  C   UNL d   1       7.401  -0.919   1.994  0.00  0.00     0.011 A 
ATOM     22  C   UNL d   1       7.814  -0.007   2.974  0.00  0.00     0.125 A 
ATOM     23  F   UNL d   1       7.934   1.292   2.665  0.00  0.00    -0.205 F 
ATOM     24  C   UNL d   1       8.094  -0.403   4.280  0.00  0.00     0.043 A 
ATOM     25  C   UNL d   1       7.961  -1.740   4.639  0.00  0.00     0.005 A 
ATOM     26  C   UNL d   1       7.548  -2.669   3.685  0.00  0.00     0.024 A 
ATOM     27  C   UNL d   1       7.268  -2.264   2.373  0.00  0.00     0.044 A 
ATOM     28 CL   UNL d   1       6.741  -3.479   1.262  0.00  0.00    -0.084 Cl
ENDBRANCH  20  21
ENDBRANCH  19  20
ENDBRANCH  18  19
ENDBRANCH  17  18
ENDBRANCH  15  17
ENDBRANCH   1  15
TORSDOF 9
