REMARK  6 active torsions:
REMARK  status: ('A' for Active; 'I' for Inactive)
REMARK    1  A    between atoms: C_3  and  S_1 
REMARK    2  A    between atoms: O_4  and  S_1 
REMARK    3  A    between atoms: S_2  and  C_3 
REMARK    4  A    between atoms: O_5  and  S_2 
REMARK    5  A    between atoms: C_14  and  O_4 
REMARK    6  A    between atoms: C_15  and  O_5 
ROOT
ATOM      1  C   UNL d   1       0.507   1.625  -0.190  0.00  0.00     0.341 C 
ENDROOT
BRANCH   1   2
ATOM      2  S   UNL d   1       0.925   2.643   1.169  0.00  0.00     0.285 S 
ATOM      3  O   UNL d   1       0.103   2.291   2.310  0.00  0.00    -0.197 OA
ATOM      4  O   UNL d   1       2.364   2.730   1.252  0.00  0.00    -0.197 OA
BRANCH   2   5
ATOM      5  O   UNL d   1       0.360   4.064   0.579  0.00  0.00    -0.232 OA
BRANCH   5   6
ATOM      6  C   UNL d   1       0.493   5.232   1.304  0.00  0.00     0.091 A 
ATOM      7  C   UNL d   1       1.490   5.448   2.260  0.00  0.00     0.063 A 
ATOM      8  C   UNL d   1       1.579   6.667   2.943  0.00  0.00     0.058 A 
ATOM      9 CL   UNL d   1       2.845   6.835   4.107  0.00  0.00    -0.082 Cl
ATOM     10  C   UNL d   1       0.670   7.688   2.667  0.00  0.00     0.056 A 
ATOM     11  C   UNL d   1      -0.325   7.482   1.705  0.00  0.00     0.028 A 
ATOM     12 CL   UNL d   1       0.727   9.216   3.467  0.00  0.00    -0.083 Cl
ATOM     13  C   UNL d   1      -0.411   6.260   1.024  0.00  0.00     0.040 A 
ENDBRANCH   5   6
ENDBRANCH   2   5
ENDBRANCH   1   2
BRANCH   1  14
ATOM     14  S   UNL d   1       1.001  -0.033   0.137  0.00  0.00     0.285 S 
ATOM     15  O   UNL d   1       2.400  -0.082   0.499  0.00  0.00    -0.197 OA
ATOM     16  O   UNL d   1       0.500  -0.848  -0.954  0.00  0.00    -0.197 OA
BRANCH  14  17
ATOM     17  O   UNL d   1       0.078  -0.312   1.447  0.00  0.00    -0.232 OA
BRANCH  17  18
ATOM     18  C   UNL d   1       0.105  -1.482   2.159  0.00  0.00     0.091 A 
ATOM     19  C   UNL d   1       0.857  -2.614   1.846  0.00  0.00     0.063 A 
ATOM     20  C   UNL d   1       0.752  -3.767   2.637  0.00  0.00     0.058 A 
ATOM     21 CL   UNL d   1       1.698  -5.141   2.183  0.00  0.00    -0.082 Cl
ATOM     22  C   UNL d   1      -0.103  -3.786   3.745  0.00  0.00     0.056 A 
ATOM     23  C   UNL d   1      -0.836  -2.643   4.071  0.00  0.00     0.028 A 
ATOM     24 CL   UNL d   1      -0.309  -5.183   4.740  0.00  0.00    -0.083 Cl
ATOM     25  C   UNL d   1      -0.729  -1.497   3.282  0.00  0.00     0.040 A 
ENDBRANCH  17  18
ENDBRANCH  14  17
ENDBRANCH   1  14
TORSDOF 6
