REMARK  3 active torsions:
REMARK  status: ('A' for Active; 'I' for Inactive)
REMARK       I    between atoms: C_9  and  N_3 
REMARK       I    between atoms: N_19  and  C_9 
REMARK    1  A    between atoms: C_22  and  N_19 
REMARK    2  A    between atoms: C_23  and  C_22 
REMARK    3  A    between atoms: C_24  and  C_23 
ROOT
ATOM      1  C   UNL d   1      -0.144  -1.102  -0.167  0.00  0.00     0.058 A 
ATOM      2  C   UNL d   1      -0.265  -2.535  -0.062  0.00  0.00     0.082 C 
ATOM      3  N   UNL d   1       0.068  -3.303   1.054  0.00  0.00    -0.205 N 
ATOM      4  S   UNL d   1      -0.394  -0.087   1.200  0.00  0.00    -0.067 SA
ATOM      5  C   UNL d   1      -0.202   1.311   0.235  0.00  0.00     0.092 A 
ATOM      6  N   UNL d   1      -0.003   1.069  -1.045  0.00  0.00    -0.352 N 
ATOM      7  HN  UNL d   1       0.118   1.788  -1.759  1.00  0.00     0.166 HD
ATOM      8  C   UNL d   1       0.018  -0.301  -1.290  0.00  0.00     0.025 A 
ATOM      9  C   UNL d   1       0.831  -2.958   2.196  0.00  0.00     0.342 C 
ATOM     10  N   UNL d   1      -0.495  -4.557   0.982  0.00  0.00    -0.301 N 
ATOM     11  HN  UNL d   1      -0.548  -5.265   1.715  1.00  0.00     0.186 HD
ATOM     12  C   UNL d   1      -0.316   2.654   0.752  0.00  0.00     0.038 A 
ATOM     13  C   UNL d   1      -0.855  -3.413  -0.950  0.00  0.00     0.052 C 
ATOM     14  S   UNL d   1      -0.452   3.020   2.428  0.00  0.00    -0.099 SA
ATOM     15  C   UNL d   1      -0.954  -4.633  -0.266  0.00  0.00     0.110 C 
ATOM     16  O   UNL d   1       1.754  -2.159   2.125  0.00  0.00    -0.245 OA
ATOM     17  C   UNL d   1      -0.347   3.817  -0.000  0.00  0.00     0.022 A 
ATOM     18  C   UNL d   1      -0.588   4.697   2.132  0.00  0.00     0.050 A 
ATOM     19  N   UNL d   1       0.336  -3.581   3.319  0.00  0.00    -0.341 N 
ATOM     20  C   UNL d   1      -0.515   4.988   0.792  0.00  0.00     0.008 A 
ATOM     21  C   UNL d   1       0.180  -0.735  -2.705  0.00  0.00     0.070 C 
ATOM     22  H   UNL d   1      -0.459  -4.203   3.188  0.00  0.00     0.164 HD
ENDROOT
BRANCH  19  23
ATOM     23  C   UNL d   1       0.825  -3.291   4.647  0.00  0.00     0.124 C 
BRANCH  23  24
ATOM     24  C   UNL d   1       0.430  -1.904   5.165  0.00  0.00     0.019 C 
BRANCH  24  25
ATOM     25  C   UNL d   1      -1.080  -1.732   5.347  0.00  0.00    -0.003 C 
ATOM     26  C   UNL d   1      -1.417  -0.363   5.924  0.00  0.00     0.005 C 
ENDBRANCH  24  25
ENDBRANCH  23  24
ENDBRANCH  19  23
TORSDOF 3
