REMARK  9 active torsions:
REMARK  status: ('A' for Active; 'I' for Inactive)
REMARK    1  A    between atoms: N_6  and  C_1 
REMARK    2  A    between atoms: C_7  and  C_2 
REMARK    3  A    between atoms: C_10  and  C_3 
REMARK       I    between atoms: C_8  and  N_6 
REMARK    4  A    between atoms: O_16  and  C_7 
REMARK    5  A    between atoms: C_14  and  C_8 
REMARK    6  A    between atoms: C_9  and  C_15 
REMARK    7  A    between atoms: O_18  and  C_9 
REMARK    8  A    between atoms: C_15  and  C_14 
REMARK    9  A    between atoms: C_21  and  O_16 
ROOT
ATOM      1  C   UNL d   1      -1.757  -0.050  -0.234  0.00  0.00     0.094 A 
ATOM      2  C   UNL d   1      -1.401  -1.387  -0.208  0.00  0.00     0.085 A 
ATOM      3  C   UNL d   1       0.047  -1.536  -0.089  0.00  0.00     0.006 A 
ATOM      4  S   UNL d   1      -0.431   0.997  -0.139  0.00  0.00    -0.075 SA
ATOM      5  C   UNL d   1       0.681  -0.296  -0.021  0.00  0.00    -0.007 A 
ATOM      6  C   UNL d   1       2.130   0.049   0.142  0.00  0.00     0.057 C 
ENDROOT
BRANCH   1   7
ATOM      7  N   UNL d   1      -3.026   0.506  -0.232  0.00  0.00    -0.320 N 
ATOM      8  C   UNL d   1      -3.372   1.526  -1.093  0.00  0.00     0.223 C 
ATOM      9  O   UNL d   1      -2.673   2.004  -1.988  0.00  0.00    -0.273 OA
ATOM     10  H   UNL d   1      -3.776  -0.125   0.036  0.00  0.00     0.169 HD
BRANCH   8  11
ATOM     11  C   UNL d   1      -4.805   1.989  -0.929  0.00  0.00     0.113 C 
BRANCH  11  12
ATOM     12  C   UNL d   1      -5.369   2.431  -2.274  0.00  0.00     0.119 C 
BRANCH  12  13
ATOM     13  C   UNL d   1      -5.487   1.241  -3.191  0.00  0.00     0.139 C 
ATOM     14  O   UNL d   1      -6.492   0.551  -3.269  0.00  0.00    -0.650 OA
BRANCH  13  15
ATOM     15  O   UNL d   1      -4.351   0.952  -3.860  0.00  0.00    -0.776 OA
ATOM     16  H   UNL d   1      -3.578   1.513  -3.609  0.00  0.00     0.167 HD
ENDBRANCH  13  15
ENDBRANCH  12  13
ENDBRANCH  11  12
ENDBRANCH   8  11
ENDBRANCH   1   7
BRANCH   2  17
ATOM     17  C   UNL d   1      -2.370  -2.471  -0.362  0.00  0.00     0.297 C 
ATOM     18  O   UNL d   1      -2.114  -3.540  -0.904  0.00  0.00    -0.259 OA
BRANCH  17  19
ATOM     19  O   UNL d   1      -3.595  -2.169   0.174  0.00  0.00    -0.318 OA
BRANCH  19  20
ATOM     20  C   UNL d   1      -4.588  -3.202   0.063  0.00  0.00     0.174 C 
ATOM     21  C   UNL d   1      -4.377  -4.277   1.116  0.00  0.00     0.034 C 
ENDBRANCH  19  20
ENDBRANCH  17  19
ENDBRANCH   2  17
BRANCH   3  22
ATOM     22  C   UNL d   1       0.795  -2.797   0.040  0.00  0.00    -0.024 A 
ATOM     23  C   UNL d   1       1.976  -3.026  -0.681  0.00  0.00     0.012 A 
ATOM     24  C   UNL d   1       2.707  -4.205  -0.506  0.00  0.00     0.001 A 
ATOM     25  C   UNL d   1       2.241  -5.193   0.358  0.00  0.00     0.000 A 
ATOM     26  C   UNL d   1       1.050  -5.000   1.051  0.00  0.00     0.001 A 
ATOM     27  C   UNL d   1       0.342  -3.803   0.906  0.00  0.00     0.012 A 
ENDBRANCH   3  22
TORSDOF 9
