REMARK  4 active torsions:
REMARK  status: ('A' for Active; 'I' for Inactive)
REMARK    1  A    between atoms: C_6  and  C_2 
REMARK    2  A    between atoms: C_9  and  C_5 
REMARK    3  A    between atoms: O_12  and  C_6 
REMARK    4  A    between atoms: C_15  and  O_12 
ROOT
ATOM      1  N   UNL d   1      -0.639  -1.017  -0.249  0.00  0.00    -0.340 N 
ATOM      2  C   UNL d   1       0.138   1.231  -0.208  0.00  0.00     0.192 C 
ATOM      3  C   UNL d   1       0.722  -1.139  -0.384  0.00  0.00     0.290 C 
ATOM      4  C   UNL d   1       1.277   0.262  -0.142  0.00  0.00     0.232 C 
ATOM      5  C   UNL d   1      -1.038   0.323   0.170  0.00  0.00     0.141 C 
ATOM      6  O   UNL d   1       1.385  -2.116  -0.643  0.00  0.00    -0.264 OA
ATOM      7  O   UNL d   1       2.448   0.529   0.050  0.00  0.00    -0.286 OA
ATOM      8  C   UNL d   1      -1.591  -2.069  -0.518  0.00  0.00     0.154 C 
ENDROOT
BRANCH   5   9
ATOM      9  C   UNL d   1      -1.315   0.404   1.671  0.00  0.00    -0.034 A 
ATOM     10  C   UNL d   1      -2.212   1.372   2.154  0.00  0.00     0.009 A 
ATOM     11  C   UNL d   1      -2.444   1.511   3.526  0.00  0.00     0.001 A 
ATOM     12  C   UNL d   1      -1.781   0.692   4.437  0.00  0.00     0.000 A 
ATOM     13  C   UNL d   1      -0.888  -0.270   3.978  0.00  0.00     0.001 A 
ATOM     14  C   UNL d   1      -0.655  -0.413   2.608  0.00  0.00     0.009 A 
ENDBRANCH   5   9
BRANCH   2  15
ATOM     15  C   UNL d   1      -0.023   1.722  -1.614  0.00  0.00     0.273 C 
ATOM     16  O   UNL d   1       0.393   1.137  -2.604  0.00  0.00    -0.264 OA
BRANCH  15  17
ATOM     17  O   UNL d   1      -0.681   2.914  -1.634  0.00  0.00    -0.321 OA
BRANCH  17  18
ATOM     18  C   UNL d   1      -0.618   3.616  -2.888  0.00  0.00     0.174 C 
ATOM     19  C   UNL d   1       0.627   4.485  -2.891  0.00  0.00     0.034 C 
ENDBRANCH  17  18
ENDBRANCH  15  17
ENDBRANCH   2  15
TORSDOF 4
