REMARK  4 active torsions:
REMARK  status: ('A' for Active; 'I' for Inactive)
REMARK    1  A    between atoms: N_2  and  C_1 
REMARK    2  A    between atoms: N_3  and  C_7 
REMARK    3  A    between atoms: O_10  and  C_6 
REMARK    4  A    between atoms: C_11  and  O_10 
ROOT
ATOM      1  C   UNL d   1      -1.024   1.166  -0.034  0.00  0.00     0.208 A 
ATOM      2  N   UNL d   1       0.348   1.156  -0.028  0.00  0.00    -0.339 N 
ATOM      3  HN  UNL d   1       0.881   2.026  -0.038  1.00  0.00     0.167 HD
ATOM      4  C   UNL d   1      -1.798   0.003  -0.040  0.00  0.00     0.128 A 
ATOM      5  C   UNL d   1      -1.120  -1.217   0.023  0.00  0.00     0.043 A 
ATOM      6  C   UNL d   1       0.972  -0.043  -0.007  0.00  0.00     0.007 A 
ATOM      7  C   UNL d   1       0.273  -1.244   0.024  0.00  0.00     0.027 A 
ATOM      8  C   UNL d   1       2.471  -0.048  -0.008  0.00  0.00     0.068 C 
ENDROOT
BRANCH   4   9
ATOM      9  O   UNL d   1      -3.171   0.086  -0.024  0.00  0.00    -0.290 OA
BRANCH   9  10
ATOM     10  C   UNL d   1      -3.901  -0.844  -0.749  0.00  0.00     0.148 A 
ATOM     11  N   UNL d   1      -3.358  -1.413  -1.851  0.00  0.00    -0.344 N 
ATOM     12  C   UNL d   1      -4.106  -2.345  -2.494  0.00  0.00     0.126 A 
ATOM     13  HN  UNL d   1      -2.430  -1.154  -2.183  1.00  0.00     0.167 HD
ATOM     14  C   UNL d   1      -5.377  -2.714  -2.078  0.00  0.00     0.118 A 
ATOM     15  C   UNL d   1      -5.934  -2.085  -0.961  0.00  0.00     0.041 A 
ATOM     16  C   UNL d   1      -5.181  -1.123  -0.288  0.00  0.00     0.059 A 
BRANCH  14  17
ATOM     17  N   UNL d   1      -6.098  -3.760  -2.789  0.00  0.00    -0.114 N 
ATOM     18  O   UNL d   1      -5.528  -4.302  -3.746  0.00  0.00    -0.532 OA
ATOM     19  O   UNL d   1      -7.231  -4.053  -2.385  0.00  0.00    -0.532 OA
ENDBRANCH  14  17
ENDBRANCH   9  10
ENDBRANCH   4   9
BRANCH   1  20
ATOM     20  N   UNL d   1      -1.755   2.442  -0.018  0.00  0.00    -0.095 N 
ATOM     21  O   UNL d   1      -2.531   2.649   0.929  0.00  0.00    -0.530 OA
ATOM     22  O   UNL d   1      -1.532   3.234  -0.947  0.00  0.00    -0.530 OA
ENDBRANCH   1  20
TORSDOF 4
