REMARK  2 active torsions:
REMARK  status: ('A' for Active; 'I' for Inactive)
REMARK    1  A    between atoms: C_8  and  C_3 
REMARK    2  A    between atoms: N_6  and  C_7 
ROOT
ATOM      1  C   UNL d   1      -0.173   0.746   0.008  0.00  0.00     0.058 A 
ATOM      2  C   UNL d   1       1.222   1.190   0.021  0.00  0.00     0.181 A 
ATOM      3  C   UNL d   1       2.128  -0.015  -0.075  0.00  0.00     0.204 A 
ATOM      4  C   UNL d   1       1.161  -1.173  -0.069  0.00  0.00     0.179 A 
ATOM      5  C   UNL d   1      -0.200  -0.643  -0.008  0.00  0.00     0.027 A 
ATOM      6  C   UNL d   1      -1.359   1.448   0.025  0.00  0.00     0.117 A 
ATOM      7  O   UNL d   1       1.571   2.349   0.119  0.00  0.00    -0.291 OA
ATOM      8  O   UNL d   1       1.420  -2.357  -0.167  0.00  0.00    -0.291 OA
ATOM      9  C   UNL d   1      -1.385  -1.364   0.004  0.00  0.00     0.016 A 
ATOM     10  C   UNL d   1      -2.582   0.756   0.037  0.00  0.00     0.037 A 
ATOM     11  C   UNL d   1      -2.587  -0.649   0.031  0.00  0.00     0.003 A 
ENDROOT
BRANCH   3  12
ATOM     12  C   UNL d   1       3.135  -0.053   1.038  0.00  0.00     0.142 C 
ATOM     13  O   UNL d   1       2.877  -0.570   2.126  0.00  0.00    -0.297 OA
ATOM     14  C   UNL d   1       4.455   0.635   0.805  0.00  0.00     0.092 C 
ENDBRANCH   3  12
BRANCH   6  15
ATOM     15  N   UNL d   1      -1.382   2.890  -0.024  0.00  0.00    -0.115 N 
ATOM     16  O   UNL d   1      -0.945   3.421  -1.052  0.00  0.00    -0.532 OA
ATOM     17  O   UNL d   1      -1.929   3.470   0.923  0.00  0.00    -0.532 OA
ENDBRANCH   6  15
TORSDOF 2
