REMARK  3 active torsions:
REMARK  status: ('A' for Active; 'I' for Inactive)
REMARK    1  A    between atoms: N_14  and  C_10 
REMARK    2  A    between atoms: C_11  and  N_13 
REMARK    3  A    between atoms: N_13  and  N_14 
ROOT
ATOM      1  C   UNL d   1       0.061  -0.560   0.064  0.00  0.00     0.136 A 
ATOM      2  C   UNL d   1       0.169   0.830   0.007  0.00  0.00     0.039 A 
ATOM      3  N   UNL d   1       1.342  -1.036   0.063  0.00  0.00    -0.280 N 
ATOM      4  N   UNL d   1       2.283  -0.075   0.042  0.00  0.00    -0.301 N 
ATOM      5  HN  UNL d   1       3.297  -0.189   0.048  1.00  0.00     0.187 HD
ATOM      6  C   UNL d   1       1.580   1.067   0.012  0.00  0.00     0.036 A 
ATOM      7  N   UNL d   1      -1.066  -1.307   0.108  0.00  0.00    -0.330 N 
ATOM      8  HN  UNL d   1      -1.057  -2.324   0.185  1.00  0.00     0.168 HD
ATOM      9  C   UNL d   1      -1.034   1.571  -0.025  0.00  0.00    -0.043 A 
ATOM     10  C   UNL d   1      -2.203  -0.584   0.040  0.00  0.00     0.100 A 
ATOM     11  C   UNL d   1      -2.219   0.811  -0.028  0.00  0.00     0.051 A 
ATOM     12  C   UNL d   1       1.757  -2.417   0.061  0.00  0.00     0.179 C 
ATOM     13  C   UNL d   1       2.351   2.337  -0.017  0.00  0.00     0.070 C 
ATOM     14  C   UNL d   1      -1.182   3.065  -0.048  0.00  0.00     0.049 C 
ENDROOT
BRANCH  10  15
ATOM     15  N   UNL d   1      -3.472  -1.214   0.121  0.00  0.00    -0.188 NA
ATOM     16  H   UNL d   1      -4.066  -0.944  -0.663  0.00  0.00     0.154 HD
BRANCH  15  17
ATOM     17  N   UNL d   1      -3.433  -2.611   0.294  0.00  0.00    -0.292 N 
ATOM     18  H   UNL d   1      -2.537  -2.935   0.651  0.00  0.00     0.183 HD
BRANCH  17  19
ATOM     19  C   UNL d   1      -4.596  -3.239   0.673  0.00  0.00     0.182 C 
ATOM     20  S   UNL d   1      -6.134  -2.573   0.579  0.00  0.00    -0.040 SA
ATOM     21  N   UNL d   1      -4.505  -4.523   1.109  0.00  0.00    -0.371 N 
ATOM     22  C   UNL d   1      -3.366  -5.410   1.168  0.00  0.00     0.148 C 
ATOM     23  H   UNL d   1      -5.401  -4.916   1.378  0.00  0.00     0.161 HD
ENDBRANCH  17  19
ENDBRANCH  15  17
ENDBRANCH  10  15
TORSDOF 3
