REMARK  6 active torsions:
REMARK  status: ('A' for Active; 'I' for Inactive)
REMARK    1  A    between atoms: N_7  and  S_1 
REMARK    2  A    between atoms: C_14  and  S_1 
REMARK    3  A    between atoms: N_2  and  C_15 
REMARK    4  A    between atoms: C_11  and  C_6 
REMARK    5  A    between atoms: N_13  and  C_10 
REMARK    6  A    between atoms: S_21  and  C_10 
ROOT
ATOM      1  C   UNL d   1      -0.994   0.239  -2.624  0.00  0.00     0.080 A 
ATOM      2  C   UNL d   1      -1.529  -2.292  -3.705  0.00  0.00     0.057 A 
ATOM      3  C   UNL d   1      -1.837   0.115  -3.733  0.00  0.00     0.027 A 
ATOM      4  C   UNL d   1      -0.403  -0.892  -2.055  0.00  0.00     0.027 A 
ATOM      5  C   UNL d   1      -0.676  -2.159  -2.595  0.00  0.00     0.033 A 
ATOM      6  C   UNL d   1      -2.091  -1.145  -4.283  0.00  0.00     0.033 A 
ENDROOT
BRANCH   2   7
ATOM      7  N   UNL d   1      -1.810  -3.563  -4.290  0.00  0.00    -0.255 N 
ATOM      8  C   UNL d   1      -1.847  -4.825  -3.705  0.00  0.00     0.076 C 
ATOM      9  C   UNL d   1      -1.907  -5.721  -4.756  0.00  0.00     0.069 C 
ATOM     10  C   UNL d   1      -1.917  -5.111  -2.297  0.00  0.00     0.033 A 
ATOM     11  C   UNL d   1      -2.044  -4.942  -5.930  0.00  0.00     0.135 C 
ATOM     12  N   UNL d   1      -2.078  -3.632  -5.626  0.00  0.00    -0.289 N 
ATOM     13  HN  UNL d   1      -2.265  -2.855  -6.259  1.00  0.00     0.187 HD
ATOM     14  S   UNL d   1      -1.133  -6.479  -1.621  0.00  0.00    -0.100 SA
ATOM     15  C   UNL d   1      -2.618  -4.413  -1.331  0.00  0.00     0.021 A 
ATOM     16  C   UNL d   1      -1.685  -6.104  -0.047  0.00  0.00     0.050 A 
ATOM     17  C   UNL d   1      -2.462  -4.969  -0.029  0.00  0.00     0.008 A 
BRANCH  11  18
ATOM     18  C   UNL d   1      -2.184  -5.477  -7.332  0.00  0.00     0.434 C 
ATOM     19  F   UNL d   1      -2.285  -4.511  -8.282  0.00  0.00    -0.165 F 
ATOM     20  F   UNL d   1      -1.118  -6.252  -7.675  0.00  0.00    -0.165 F 
ATOM     21  F   UNL d   1      -3.285  -6.267  -7.457  0.00  0.00    -0.165 F 
ENDBRANCH  11  18
ENDBRANCH   2   7
BRANCH   1  22
ATOM     22  S   UNL d   1      -0.554   1.880  -2.044  0.00  0.00     0.264 S 
ATOM     23  O   UNL d   1       0.888   1.951  -2.185  0.00  0.00    -0.200 OA
ATOM     24  O   UNL d   1      -1.419   2.782  -2.786  0.00  0.00    -0.200 OA
BRANCH  22  25
ATOM     25  N   UNL d   1      -0.939   1.914  -0.470  0.00  0.00    -0.260 N 
ATOM     26  C   UNL d   1      -0.878   3.010   0.234  0.00  0.00     0.151 C 
ATOM     27  HN  UNL d   1      -1.237   1.051  -0.015  1.00  0.00     0.181 HD
BRANCH  26  28
ATOM     28  N   UNL d   1      -1.154   3.015   1.604  0.00  0.00    -0.361 N 
ATOM     29  C   UNL d   1      -1.635   4.185   2.356  0.00  0.00     0.125 C 
ATOM     30  C   UNL d   1      -0.830   4.324   3.647  0.00  0.00     0.020 C 
ATOM     31  C   UNL d   1      -0.925   3.055   4.488  0.00  0.00     0.003 C 
ATOM     32  C   UNL d   1      -0.559   1.823   3.663  0.00  0.00     0.020 C 
ATOM     33  C   UNL d   1      -1.335   1.759   2.344  0.00  0.00     0.125 C 
ENDBRANCH  26  28
BRANCH  26  34
ATOM     34  S   UNL d   1      -0.412   4.578  -0.463  0.00  0.00    -0.098 SA
ATOM     35  C   UNL d   1       1.207   4.772   0.303  0.00  0.00     0.099 C 
ENDBRANCH  26  34
ENDBRANCH  22  25
ENDBRANCH   1  22
TORSDOF 6
