REMARK  3 active torsions:
REMARK  status: ('A' for Active; 'I' for Inactive)
REMARK    1  A    between atoms: S_2  and  C_1 
REMARK    2  A    between atoms: N_4  and  S_2 
REMARK    3  A    between atoms: N_13  and  C_9 
ROOT
ATOM      1  S   UNL d   1       1.719  -3.082   0.106  0.00  0.00     0.265 S 
ATOM      2  O   UNL d   1       3.121  -3.425  -0.014  0.00  0.00    -0.200 OA
ATOM      3  O   UNL d   1       1.268  -1.709   0.082  0.00  0.00    -0.200 OA
ENDROOT
BRANCH   1   4
ATOM      4  C   UNL d   1       0.973  -3.859  -1.245  0.00  0.00     0.110 A 
ATOM      5  C   UNL d   1      -0.246  -3.543  -1.794  0.00  0.00     0.099 A 
ATOM      6  S   UNL d   1      -0.645  -4.524  -3.131  0.00  0.00    -0.064 SA
ATOM      7 CL   UNL d   1      -1.388  -2.343  -1.334  0.00  0.00    -0.075 Cl
ATOM      8  C   UNL d   1       0.797  -5.393  -2.974  0.00  0.00     0.077 A 
ATOM      9  C   UNL d   1       1.580  -4.965  -1.934  0.00  0.00     0.059 A 
ATOM     10 CL   UNL d   1       1.150  -6.669  -4.065  0.00  0.00    -0.076 Cl
ENDBRANCH   1   4
BRANCH   1  11
ATOM     11  N   UNL d   1       1.033  -3.916   1.308  0.00  0.00    -0.277 N 
ATOM     12  C   UNL d   1       1.412  -3.591   2.495  0.00  0.00     0.188 C 
ATOM     13  HN  UNL d   1       0.346  -4.651   1.138  1.00  0.00     0.179 HD
BRANCH  12  14
ATOM     14  N   UNL d   1       0.999  -4.167   3.676  0.00  0.00    -0.385 N 
ATOM     15  C   UNL d   1       1.507  -3.735   4.969  0.00  0.00     0.149 C 
ATOM     16  C   UNL d   1       0.006  -5.229   3.713  0.00  0.00     0.149 C 
ENDBRANCH  12  14
ENDBRANCH   1  11
TORSDOF 3
