REMARK  4 active torsions:
REMARK  status: ('A' for Active; 'I' for Inactive)
REMARK    1  A    between atoms: C_11  and  C_1 
REMARK       I    between atoms: C_15  and  N_2 
REMARK    2  A    between atoms: C_12  and  C_7 
REMARK    3  A    between atoms: C_10  and  C_14 
REMARK    4  A    between atoms: C_20  and  C_15 
ROOT
ATOM      1  C   UNL d   1       2.330   1.584  -0.074  0.00  0.00     0.034 A 
ATOM      2  S   UNL d   1       2.529   2.606   1.275  0.00  0.00    -0.086 SA
ATOM      3  C   UNL d   1       3.943   3.305   0.636  0.00  0.00     0.034 A 
ATOM      4  C   UNL d   1       3.331   1.764  -1.005  0.00  0.00     0.023 A 
ATOM      5  C   UNL d   1       4.262   2.775  -0.598  0.00  0.00     0.023 A 
ENDROOT
BRANCH   3   6
ATOM      6  C   UNL d   1       4.720   4.364   1.354  0.00  0.00     0.067 A 
ATOM      7  N   UNL d   1       5.761   4.989   0.794  0.00  0.00    -0.290 N 
ATOM      8  N   UNL d   1       6.171   5.884   1.734  0.00  0.00    -0.231 N 
ATOM      9  HN  UNL d   1       6.159   4.830  -0.131  1.00  0.00     0.187 HD
ATOM     10  C   UNL d   1       7.197   6.805   1.448  0.00  0.00     0.276 C 
ATOM     11  C   UNL d   1       5.452   5.764   2.901  0.00  0.00     0.122 A 
ATOM     12  O   UNL d   1       7.724   7.382   2.400  0.00  0.00    -0.265 OA
ATOM     13  C   UNL d   1       4.469   4.838   2.661  0.00  0.00     0.051 A 
BRANCH  10  14
ATOM     14  C   UNL d   1       7.627   7.147   0.068  0.00  0.00     0.034 A 
ATOM     15  C   UNL d   1       6.686   7.219  -0.968  0.00  0.00     0.019 A 
ATOM     16  C   UNL d   1       7.084   7.590  -2.255  0.00  0.00     0.025 A 
ATOM     17  C   UNL d   1       8.418   7.903  -2.498  0.00  0.00     0.034 A 
ATOM     18  C   UNL d   1       9.358   7.851  -1.468  0.00  0.00     0.025 A 
ATOM     19 CL   UNL d   1       8.905   8.365  -4.082  0.00  0.00    -0.084 Cl
ATOM     20  C   UNL d   1       8.962   7.482  -0.177  0.00  0.00     0.019 A 
ENDBRANCH  10  14
ENDBRANCH   3   6
BRANCH   1  21
ATOM     21  C   UNL d   1       1.191   0.620  -0.195  0.00  0.00     0.067 A 
ATOM     22  C   UNL d   1       0.138   0.479   0.728  0.00  0.00     0.068 A 
ATOM     23  C   UNL d   1      -0.693  -0.494   0.211  0.00  0.00     0.136 A 
ATOM     24  N   UNL d   1      -0.086  -0.909  -0.944  0.00  0.00    -0.292 N 
ATOM     25  N   UNL d   1       1.047  -0.223  -1.221  0.00  0.00    -0.297 N 
ATOM     26  C   UNL d   1      -0.452  -1.952  -1.873  0.00  0.00     0.178 C 
ATOM     27  HN  UNL d   1       1.656  -0.327  -2.033  1.00  0.00     0.187 HD
BRANCH  23  28
ATOM     28  C   UNL d   1      -1.961  -0.995   0.774  0.00  0.00     0.434 C 
ATOM     29  F   UNL d   1      -2.638  -1.847  -0.032  0.00  0.00    -0.165 F 
ATOM     30  F   UNL d   1      -1.752  -1.644   1.946  0.00  0.00    -0.165 F 
ATOM     31  F   UNL d   1      -2.808   0.031   1.045  0.00  0.00    -0.165 F 
ENDBRANCH  23  28
ENDBRANCH   1  21
TORSDOF 4
