REMARK  6 active torsions:
REMARK  status: ('A' for Active; 'I' for Inactive)
REMARK    1  A    between atoms: C_6  and  C_1 
REMARK    2  A    between atoms: N_9  and  C_2 
REMARK    3  A    between atoms: C_7  and  C_3 
REMARK    4  A    between atoms: N_4  and  N_9 
REMARK    5  A    between atoms: O_19  and  C_6 
REMARK    6  A    between atoms: C_14  and  C_7 
ROOT
ATOM      1  C   UNL d   1       3.833   3.505  -0.212  0.00  0.00     0.179 C 
ATOM      2  N   UNL d   1       2.691   2.902  -0.076  0.00  0.00    -0.287 N 
ATOM      3  HN  UNL d   1       1.818   3.420  -0.173  1.00  0.00     0.188 HD
ATOM      4  C   UNL d   1       3.664   4.902  -0.536  0.00  0.00     0.123 C 
ATOM      5  N   UNL d   1       3.576   6.040  -0.753  0.00  0.00    -0.190 NA
ENDROOT
BRANCH   1   6
ATOM      6  C   UNL d   1       5.188   2.886  -0.034  0.00  0.00     0.220 C 
ATOM      7  O   UNL d   1       5.419   1.811  -0.576  0.00  0.00    -0.284 OA
BRANCH   6   8
ATOM      8  C   UNL d   1       6.233   3.606   0.741  0.00  0.00     0.017 A 
ATOM      9  C   UNL d   1       5.914   4.506   1.766  0.00  0.00     0.017 A 
ATOM     10  C   UNL d   1       6.935   5.197   2.432  0.00  0.00     0.025 A 
ATOM     11  C   UNL d   1       8.267   4.979   2.084  0.00  0.00     0.034 A 
ATOM     12  C   UNL d   1       8.593   4.067   1.082  0.00  0.00     0.025 A 
ATOM     13 CL   UNL d   1       9.515   5.836   2.900  0.00  0.00    -0.084 Cl
ATOM     14  C   UNL d   1       7.577   3.377   0.413  0.00  0.00     0.017 A 
ENDBRANCH   6   8
ENDBRANCH   1   6
BRANCH   2  15
ATOM     15  N   UNL d   1       2.675   1.560   0.200  0.00  0.00    -0.298 N 
ATOM     16  H   UNL d   1       3.435   0.971  -0.176  0.00  0.00     0.187 HD
BRANCH  15  17
ATOM     17  C   UNL d   1       1.544   0.964   0.678  0.00  0.00     0.071 A 
ATOM     18  C   UNL d   1       1.323  -0.401   0.795  0.00  0.00     0.108 A 
ATOM     19  S   UNL d   1      -0.225  -0.713   1.498  0.00  0.00    -0.094 SA
ATOM     20  C   UNL d   1      -0.596   0.943   1.621  0.00  0.00     0.053 A 
ATOM     21  C   UNL d   1       0.426   1.727   1.145  0.00  0.00     0.039 A 
BRANCH  18  22
ATOM     22  C   UNL d   1       2.127  -1.557   0.443  0.00  0.00     0.302 C 
ATOM     23  O   UNL d   1       1.829  -2.731   0.640  0.00  0.00    -0.259 OA
BRANCH  22  24
ATOM     24  O   UNL d   1       3.292  -1.172  -0.165  0.00  0.00    -0.322 OA
ATOM     25  C   UNL d   1       4.106  -2.280  -0.561  0.00  0.00     0.213 C 
ENDBRANCH  22  24
ENDBRANCH  18  22
ENDBRANCH  15  17
ENDBRANCH   2  15
TORSDOF 6
