REMARK  2 active torsions:
REMARK  status: ('A' for Active; 'I' for Inactive)
REMARK    1  A    between atoms: C_3  and  N_1 
REMARK    2  A    between atoms: O_12  and  C_4 
ROOT
ATOM      1  N   UNL d   1      -0.016  -1.346   0.081  0.00  0.00    -0.279 N 
ATOM      2  C   UNL d   1       1.216  -0.692   0.212  0.00  0.00     0.303 A 
ATOM      3  C   UNL d   1       1.138   0.825   0.040  0.00  0.00     0.210 A 
ATOM      4  N   UNL d   1       0.067   1.496  -0.235  0.00  0.00    -0.341 N 
ATOM      5  HN  UNL d   1       0.069   2.511  -0.337  1.00  0.00     0.167 HD
ATOM      6  C   UNL d   1      -1.133  -0.588  -0.244  0.00  0.00     0.118 A 
ATOM      7  C   UNL d   1      -1.069   0.744  -0.378  0.00  0.00     0.108 A 
ATOM      8  O   UNL d   1       2.335  -1.167   0.378  0.00  0.00    -0.263 OA
ENDROOT
BRANCH   1   9
ATOM      9  C   UNL d   1      -0.078  -2.768   0.238  0.00  0.00     0.119 A 
ATOM     10  C   UNL d   1       0.619  -3.421   1.265  0.00  0.00     0.146 A 
ATOM     11  F   UNL d   1       1.285  -2.718   2.194  0.00  0.00    -0.204 F 
ATOM     12  C   UNL d   1       0.557  -4.807   1.427  0.00  0.00     0.045 A 
ATOM     13  C   UNL d   1      -0.204  -5.578   0.553  0.00  0.00     0.006 A 
ATOM     14  C   UNL d   1      -0.913  -4.954  -0.471  0.00  0.00     0.045 A 
ATOM     15  C   UNL d   1      -0.856  -3.566  -0.614  0.00  0.00     0.146 A 
ATOM     16  F   UNL d   1      -1.532  -3.018  -1.635  0.00  0.00    -0.204 F 
ENDBRANCH   1   9
BRANCH   3  17
ATOM     17  O   UNL d   1       2.330   1.426   0.182  0.00  0.00    -0.342 OA
ATOM     18  H   UNL d   1       3.018   0.753   0.354  0.00  0.00     0.219 HD
ENDBRANCH   3  17
TORSDOF 2
