REMARK  2 active torsions:
REMARK  status: ('A' for Active; 'I' for Inactive)
REMARK    1  A    between atoms: S_2  and  C_4 
REMARK    2  A    between atoms: N_16  and  S_2 
ROOT
ATOM      1  S   UNL d   1      -2.116  -0.500   0.011  0.00  0.00     0.245 S 
ATOM      2  C   UNL d   1      -0.367  -0.350   0.012  0.00  0.00     0.102 A 
ATOM      3  C   UNL d   1       1.805  -1.400   0.004  0.00  0.00     0.097 A 
ATOM      4  N   UNL d   1      -2.626   1.006  -0.523  0.00  0.00    -0.199 NA
ATOM      5  C   UNL d   1       0.411  -1.512   0.040  0.00  0.00     0.053 A 
ATOM      6  C   UNL d   1       0.199   0.925  -0.045  0.00  0.00     0.053 A 
ATOM      7  C   UNL d   1       2.405  -0.140  -0.046  0.00  0.00     0.059 A 
ATOM      8  C   UNL d   1       1.597   1.006  -0.094  0.00  0.00     0.056 A 
ATOM      9  O   UNL d   1      -2.545  -0.619   1.389  0.00  0.00    -0.206 OA
ATOM     10  O   UNL d   1      -2.506  -1.464  -0.990  0.00  0.00    -0.206 OA
ATOM     11  N   UNL d   1      -0.551   2.089  -0.212  0.00  0.00    -0.376 N 
ATOM     12  C   UNL d   1      -1.940   2.074   0.171  0.00  0.00     0.226 C 
ATOM     13 CL   UNL d   1       4.112   0.122  -0.081  0.00  0.00    -0.083 Cl
ATOM     14  H   UNL d   1      -3.635   1.065  -0.403  0.00  0.00     0.141 HD
ATOM     15  H   UNL d   1      -0.067   2.936   0.071  0.00  0.00     0.161 HD
ENDROOT
BRANCH   3  16
ATOM     16  S   UNL d   1       2.764  -2.877  -0.067  0.00  0.00     0.241 S 
ATOM     17  O   UNL d   1       3.766  -2.849   0.972  0.00  0.00    -0.206 OA
ATOM     18  O   UNL d   1       1.875  -4.003  -0.239  0.00  0.00    -0.206 OA
BRANCH  16  19
ATOM     19  N   UNL d   1       3.548  -2.718  -1.540  0.00  0.00    -0.225 NA
ATOM     20  H   UNL d   1       4.556  -2.638  -1.402  0.00  0.00     0.136 HD
ATOM     21  H   UNL d   1       3.260  -3.453  -2.184  0.00  0.00     0.136 HD
ENDBRANCH  16  19
ENDBRANCH   3  16
TORSDOF 2
