REMARK  7 active torsions:
REMARK  status: ('A' for Active; 'I' for Inactive)
REMARK    1  A    between atoms: C_3  and  C_1 
REMARK    2  A    between atoms: C_4  and  C_2 
REMARK       I    between atoms: N_5  and  C_3 
REMARK    3  A    between atoms: O_13  and  C_4 
REMARK    4  A    between atoms: C_12  and  N_5 
REMARK    5  A    between atoms: C_17  and  O_13 
REMARK    6  A    between atoms: O_16  and  C_20 
REMARK    7  A    between atoms: C_20  and  C_17 
ROOT
ATOM      1  C   UNL d   1      -0.798  -1.056  -0.521  0.00  0.00     0.134 A 
ATOM      2  C   UNL d   1       0.154  -0.936   0.486  0.00  0.00     0.141 A 
ATOM      3  N   UNL d   1      -1.480   0.032  -0.977  0.00  0.00    -0.358 N 
ATOM      4  HN  UNL d   1      -2.224  -0.052  -1.670  1.00  0.00     0.165 HD
ATOM      5  N   UNL d   1       0.503   0.285   1.012  0.00  0.00    -0.358 N 
ATOM      6  HN  UNL d   1       1.212   0.375   1.740  1.00  0.00     0.165 HD
ATOM      7  C   UNL d   1      -1.117   1.230  -0.460  0.00  0.00     0.105 A 
ATOM      8  C   UNL d   1      -0.144   1.355   0.512  0.00  0.00     0.105 A 
ENDROOT
BRANCH   1   9
ATOM      9  C   UNL d   1      -1.230  -2.395  -0.985  0.00  0.00     0.275 C 
ATOM     10  N   UNL d   1      -1.419  -2.785  -2.293  0.00  0.00    -0.322 N 
ATOM     11  H   UNL d   1      -1.570  -3.789  -2.296  0.00  0.00     0.169 HD
ATOM     12  O   UNL d   1      -1.373  -3.268  -0.123  0.00  0.00    -0.266 OA
BRANCH  10  13
ATOM     13  C   UNL d   1      -1.457  -2.202  -3.573  0.00  0.00     0.035 A 
ATOM     14  C   UNL d   1      -1.542  -0.848  -3.875  0.00  0.00     0.029 A 
ATOM     15  C   UNL d   1      -1.669  -0.409  -5.202  0.00  0.00     0.002 A 
ATOM     16  C   UNL d   1      -1.692  -1.321  -6.251  0.00  0.00     0.000 A 
ATOM     17  C   UNL d   1      -1.585  -2.677  -5.974  0.00  0.00     0.002 A 
ATOM     18  C   UNL d   1      -1.477  -3.110  -4.648  0.00  0.00     0.029 A 
ENDBRANCH  10  13
ENDBRANCH   1   9
BRANCH   2  19
ATOM     19  C   UNL d   1       0.897  -2.077   1.065  0.00  0.00     0.312 C 
ATOM     20  O   UNL d   1       1.074  -2.233   2.264  0.00  0.00    -0.258 OA
BRANCH  19  21
ATOM     21  O   UNL d   1       1.518  -2.753   0.061  0.00  0.00    -0.314 OA
BRANCH  21  22
ATOM     22  C   UNL d   1       2.664  -3.521   0.459  0.00  0.00     0.205 C 
BRANCH  22  23
ATOM     23  C   UNL d   1       2.600  -4.951  -0.064  0.00  0.00     0.193 C 
BRANCH  23  24
ATOM     24  O   UNL d   1       3.908  -5.517   0.061  0.00  0.00    -0.394 OA
ATOM     25  C   UNL d   1       3.972  -6.854  -0.407  0.00  0.00     0.201 C 
ENDBRANCH  23  24
ENDBRANCH  22  23
ENDBRANCH  21  22
ENDBRANCH  19  21
ENDBRANCH   2  19
TORSDOF 7
