REMARK  3 active torsions:
REMARK  status: ('A' for Active; 'I' for Inactive)
REMARK    1  A    between atoms: C_3  and  C_5 
REMARK       I    between atoms: N_7  and  C_3 
REMARK    2  A    between atoms: C_4  and  C_12 
REMARK    3  A    between atoms: C_12  and  N_7 
ROOT
ATOM      1  N   UNL d   1       6.569   3.182   0.471  0.00  0.00    -0.197 NA
ATOM      2  C   UNL d   1       6.179   2.333  -0.219  0.00  0.00     0.068 C 
ATOM      3  C   UNL d   1       5.718   1.283  -1.124  0.00  0.00     0.226 C 
ENDROOT
BRANCH   3   4
ATOM      4  C   UNL d   1       4.235   1.071  -0.958  0.00  0.00     0.231 C 
ATOM      5  N   UNL d   1       3.432   1.815  -1.792  0.00  0.00    -0.354 N 
ATOM      6  H   UNL d   1       3.805   2.513  -2.425  0.00  0.00     0.162 HD
ATOM      7  O   UNL d   1       3.778   0.281  -0.135  0.00  0.00    -0.273 OA
BRANCH   5   8
ATOM      8  C   UNL d   1       1.994   1.716  -1.692  0.00  0.00     0.187 C 
BRANCH   8   9
ATOM      9  C   UNL d   1       1.320   2.651  -2.629  0.00  0.00     0.070 A 
ATOM     10  O   UNL d   1       2.089   3.342  -3.525  0.00  0.00    -0.325 OA
ATOM     11  C   UNL d   1       1.245   4.116  -4.257  0.00  0.00     0.142 A 
ATOM     12  C   UNL d   1      -0.055   3.934  -3.848  0.00  0.00     0.027 A 
ATOM     13  C   UNL d   1      -0.008   2.989  -2.797  0.00  0.00     0.036 A 
ENDBRANCH   8   9
ENDBRANCH   5   8
ENDBRANCH   3   4
TORSDOF 3
