REMARK  5 active torsions:
REMARK  status: ('A' for Active; 'I' for Inactive)
REMARK    1  A    between atoms: C_4  and  C_1 
REMARK    2  A    between atoms: N_14  and  C_4 
REMARK    3  A    between atoms: O_12  and  N_6 
REMARK    4  A    between atoms: C_8  and  O_12 
REMARK       I    between atoms: N_11  and  C_8 
REMARK    5  A    between atoms: C_15  and  N_11 
ROOT
ATOM      1  C   UNL d   1      -2.516  -1.171  -0.903  0.00  0.00     0.127 C 
ATOM      2  N   UNL d   1      -3.688  -0.970  -0.399  0.00  0.00    -0.243 N 
ATOM      3  HN  UNL d   1      -4.423  -1.674  -0.334  1.00  0.00     0.196 HD
ENDROOT
BRANCH   2   4
ATOM      4  O   UNL d   1      -3.808   0.364   0.050  0.00  0.00    -0.179 OA
BRANCH   4   5
ATOM      5  C   UNL d   1      -5.107   0.764  -0.057  0.00  0.00     0.387 C 
ATOM      6  N   UNL d   1      -5.674   1.296   1.075  0.00  0.00    -0.301 N 
ATOM      7  H   UNL d   1      -6.625   1.589   0.894  0.00  0.00     0.171 HD
ATOM      8  O   UNL d   1      -5.756   0.700  -1.101  0.00  0.00    -0.236 OA
BRANCH   6   9
ATOM      9  C   UNL d   1      -5.250   1.295   2.417  0.00  0.00     0.036 A 
ATOM     10  C   UNL d   1      -4.001   0.862   2.868  0.00  0.00     0.029 A 
ATOM     11  C   UNL d   1      -3.711   0.829   4.237  0.00  0.00     0.002 A 
ATOM     12  C   UNL d   1      -4.664   1.229   5.169  0.00  0.00     0.000 A 
ATOM     13  C   UNL d   1      -5.904   1.682   4.733  0.00  0.00     0.002 A 
ATOM     14  C   UNL d   1      -6.191   1.721   3.365  0.00  0.00     0.029 A 
ENDBRANCH   6   9
ENDBRANCH   4   5
ENDBRANCH   2   4
BRANCH   1  15
ATOM     15  C   UNL d   1      -2.147  -2.535  -1.283  0.00  0.00     0.097 A 
ATOM     16  N   UNL d   1      -0.979  -2.798  -1.900  0.00  0.00    -0.258 N 
ATOM     17  O   UNL d   1      -0.943  -4.167  -2.079  0.00  0.00    -0.242 OA
ATOM     18  HN  UNL d   1      -0.266  -2.123  -2.179  1.00  0.00     0.195 HD
ATOM     19  C   UNL d   1      -2.080  -4.722  -1.584  0.00  0.00     0.074 A 
ATOM     20  C   UNL d   1      -2.881  -3.732  -1.077  0.00  0.00     0.069 A 
ATOM     21  C   UNL d   1      -2.196  -6.186  -1.698  0.00  0.00     0.079 C 
ENDBRANCH   1  15
BRANCH   1  22
ATOM     22  N   UNL d   1      -1.539  -0.240  -1.147  0.00  0.00    -0.285 NA
ATOM     23  H   UNL d   1      -0.859  -0.538  -1.845  0.00  0.00     0.125 HD
ATOM     24  H   UNL d   1      -1.908   0.689  -1.315  0.00  0.00     0.125 HD
ENDBRANCH   1  22
TORSDOF 5
