REMARK  2 active torsions:
REMARK  status: ('A' for Active; 'I' for Inactive)
REMARK    1  A    between atoms: C_7  and  C_1 
REMARK    2  A    between atoms: O_9  and  C_7 
ROOT
ATOM      1  C   UNL d   1      -0.468   1.281   0.033  0.00  0.00     0.085 A 
ATOM      2  N   UNL d   1      -0.655  -0.997   0.032  0.00  0.00    -0.302 N 
ATOM      3  HN  UNL d   1      -1.033  -1.944   0.058  1.00  0.00     0.186 HD
ATOM      4  N   UNL d   1       0.637  -0.631   0.009  0.00  0.00    -0.300 N 
ATOM      5  C   UNL d   1      -1.338   0.151   0.015  0.00  0.00     0.041 A 
ATOM      6  C   UNL d   1       0.811   0.728   0.002  0.00  0.00     0.043 A 
ATOM      7  C   UNL d   1       1.622  -1.688  -0.009  0.00  0.00     0.177 C 
ATOM      8  C   UNL d   1      -2.821   0.083  -0.060  0.00  0.00     0.071 C 
ATOM      9  C   UNL d   1       2.129   1.420  -0.032  0.00  0.00     0.071 C 
ENDROOT
BRANCH   1  10
ATOM     10  C   UNL d   1      -0.755   2.713   0.026  0.00  0.00     0.180 C 
ATOM     11  O   UNL d   1       0.006   3.554  -0.425  0.00  0.00    -0.646 OA
BRANCH  10  12
ATOM     12  O   UNL d   1      -1.927   3.072   0.608  0.00  0.00    -0.773 OA
ATOM     13  H   UNL d   1      -2.341   2.347   1.105  0.00  0.00     0.167 HD
ENDBRANCH  10  12
ENDBRANCH   1  10
TORSDOF 2
