REMARK  8 active torsions:
REMARK  status: ('A' for Active; 'I' for Inactive)
REMARK    1  A    between atoms: C_9  and  C_3 
REMARK    2  A    between atoms: N_12  and  C_4 
REMARK    3  A    between atoms: C_11  and  C_5 
REMARK    4  A    between atoms: C_10  and  C_6 
REMARK    5  A    between atoms: O_17  and  C_9 
REMARK    6  A    between atoms: O_18  and  C_10 
REMARK    7  A    between atoms: C_23  and  O_17 
REMARK    8  A    between atoms: C_24  and  O_18 
ROOT
ATOM      1  C   UNL d   1       0.176   0.399   0.042  0.00  0.00     0.028 A 
ATOM      2  C   UNL d   1      -0.130  -0.906   0.113  0.00  0.00     0.060 A 
ATOM      3  C   UNL d   1      -2.147   0.421   0.132  0.00  0.00     0.108 A 
ATOM      4  C   UNL d   1      -0.994   1.214   0.032  0.00  0.00     0.062 A 
ATOM      5  C   UNL d   1       1.593   0.654  -0.029  0.00  0.00     0.012 A 
ATOM      6  C   UNL d   1       2.247  -0.594  -0.070  0.00  0.00     0.093 A 
ATOM      7  S   UNL d   1      -1.743  -1.262   0.254  0.00  0.00    -0.074 SA
ATOM      8  S   UNL d   1       1.161  -1.939   0.028  0.00  0.00    -0.075 SA
ENDROOT
BRANCH   5   9
ATOM      9  C   UNL d   1       2.345   1.924  -0.074  0.00  0.00    -0.023 A 
ATOM     10  C   UNL d   1       1.973   3.014   0.727  0.00  0.00     0.014 A 
ATOM     11  C   UNL d   1       2.680   4.225   0.681  0.00  0.00     0.024 A 
ATOM     12  C   UNL d   1       3.809   4.341  -0.122  0.00  0.00     0.034 A 
ATOM     13  C   UNL d   1       4.223   3.264  -0.896  0.00  0.00     0.024 A 
ATOM     14 CL   UNL d   1       4.696   5.815  -0.159  0.00  0.00    -0.084 Cl
ATOM     15  C   UNL d   1       3.481   2.076  -0.891  0.00  0.00     0.014 A 
ENDBRANCH   5   9
BRANCH   6  16
ATOM     16  C   UNL d   1       3.636  -0.998  -0.144  0.00  0.00     0.301 C 
ATOM     17  O   UNL d   1       4.088  -1.829  -0.916  0.00  0.00    -0.259 OA
BRANCH  16  18
ATOM     18  O   UNL d   1       4.341  -0.426   0.875  0.00  0.00    -0.317 OA
BRANCH  18  19
ATOM     19  C   UNL d   1       5.534  -1.129   1.250  0.00  0.00     0.174 C 
ATOM     20  C   UNL d   1       5.225  -1.885   2.530  0.00  0.00     0.034 C 
ENDBRANCH  18  19
ENDBRANCH  16  18
ENDBRANCH   6  16
BRANCH   4  21
ATOM     21  N   UNL d   1      -1.032   2.560  -0.093  0.00  0.00    -0.397 N 
ATOM     22  H   UNL d   1      -1.926   3.034  -0.233  0.00  0.00     0.156 HD
ATOM     23  H   UNL d   1      -0.260   3.071  -0.513  0.00  0.00     0.156 HD
ENDBRANCH   4  21
BRANCH   3  24
ATOM     24  C   UNL d   1      -3.571   0.708   0.090  0.00  0.00     0.302 C 
ATOM     25  O   UNL d   1      -4.467  -0.114   0.261  0.00  0.00    -0.259 OA
BRANCH  24  26
ATOM     26  O   UNL d   1      -3.804   2.007  -0.269  0.00  0.00    -0.317 OA
BRANCH  26  27
ATOM     27  C   UNL d   1      -5.151   2.276  -0.695  0.00  0.00     0.174 C 
ATOM     28  C   UNL d   1      -5.187   2.203  -2.210  0.00  0.00     0.034 C 
ENDBRANCH  26  27
ENDBRANCH  24  26
ENDBRANCH   3  24
TORSDOF 8
