REMARK  5 active torsions:
REMARK  status: ('A' for Active; 'I' for Inactive)
REMARK    1  A    between atoms: C_3  and  C_1 
REMARK    2  A    between atoms: N_5  and  C_1 
REMARK    3  A    between atoms: C_2  and  C_3 
REMARK       I    between atoms: N_4  and  C_2 
REMARK    4  A    between atoms: C_7  and  N_4 
REMARK    5  A    between atoms: C_9  and  N_5 
ROOT
ATOM      1  C   UNL d   1       0.068   0.959  -0.752  0.00  0.00     0.246 C 
ATOM      2  C   UNL d   1       0.098  -0.444  -0.311  0.00  0.00     0.080 C 
ATOM      3  N   UNL d   1       0.166  -1.569  -0.026  0.00  0.00    -0.196 NA
ENDROOT
BRANCH   1   4
ATOM      4  C   UNL d   1      -0.467   1.860   0.362  0.00  0.00     0.246 C 
ATOM      5  N   UNL d   1      -0.728   3.181  -0.020  0.00  0.00    -0.325 N 
ATOM      6  H   UNL d   1      -0.939   3.308  -1.004  0.00  0.00     0.169 HD
ATOM      7  O   UNL d   1      -0.606   1.434   1.507  0.00  0.00    -0.271 OA
BRANCH   5   8
ATOM      8  C   UNL d   1      -1.441   4.071   0.829  0.00  0.00     0.040 C 
ATOM      9  C   UNL d   1      -1.149   4.279   2.186  0.00  0.00    -0.035 C 
ATOM     10  C   UNL d   1      -2.076   4.985   2.975  0.00  0.00     0.015 C 
ATOM     11  C   UNL d   1       0.109   3.809   2.863  0.00  0.00     0.050 C 
ATOM     12  C   UNL d   1      -3.239   5.536   2.424  0.00  0.00    -0.061 C 
ATOM     13  C   UNL d   1      -3.446   5.433   1.050  0.00  0.00     0.009 C 
ATOM     14  C   UNL d   1      -4.273   6.151   3.320  0.00  0.00     0.048 C 
ATOM     15  C   UNL d   1      -2.544   4.722   0.255  0.00  0.00     0.030 C 
ENDBRANCH   5   8
ENDBRANCH   1   4
BRANCH   1  16
ATOM     16  C   UNL d   1      -0.636   1.034  -2.107  0.00  0.00     0.105 C 
ATOM     17  S   UNL d   1      -2.302   1.265  -2.243  0.00  0.00    -0.063 SA
BRANCH  16  18
ATOM     18  N   UNL d   1       0.211   0.807  -3.192  0.00  0.00    -0.348 N 
ATOM     19  H   UNL d   1       0.853   0.014  -3.120  0.00  0.00     0.166 HD
BRANCH  18  20
ATOM     20  C   UNL d   1       0.065   1.316  -4.509  0.00  0.00     0.054 A 
ATOM     21  C   UNL d   1       0.526   0.573  -5.609  0.00  0.00     0.060 A 
ATOM     22 CL   UNL d   1       1.193  -1.008  -5.399  0.00  0.00    -0.082 Cl
ATOM     23  C   UNL d   1       0.426   1.087  -6.906  0.00  0.00     0.026 A 
ATOM     24  C   UNL d   1      -0.100   2.362  -7.112  0.00  0.00     0.002 A 
ATOM     25  C   UNL d   1      -0.526   3.120  -6.025  0.00  0.00     0.002 A 
ATOM     26  C   UNL d   1      -0.444   2.600  -4.731  0.00  0.00     0.031 A 
ENDBRANCH  18  20
ENDBRANCH  16  18
ENDBRANCH   1  16
TORSDOF 5
