REMARK  8 active torsions:
REMARK  status: ('A' for Active; 'I' for Inactive)
REMARK    1  A    between atoms: C_4  and  S_1 
REMARK    2  A    between atoms: C_7  and  S_1 
REMARK    3  A    between atoms: S_2  and  C_3 
REMARK    4  A    between atoms: C_8  and  S_2 
REMARK    5  A    between atoms: C_3  and  C_13 
REMARK    6  A    between atoms: C_14  and  C_4 
REMARK    7  A    between atoms: N_5  and  C_14 
REMARK    8  A    between atoms: C_13  and  N_6 
ROOT
ATOM      1  N   UNL d   1       0.450   1.155   3.587  0.00  0.00     0.092 N 
ATOM      2  N   UNL d   1       1.831   3.868   3.417  0.00  0.00     0.092 N 
ATOM      3  C   UNL d   1      -0.232   2.371   3.073  0.00  0.00     0.302 C 
ATOM      4  C   UNL d   1       2.492   2.635   3.892  0.00  0.00     0.302 C 
ATOM      5  C   UNL d   1       0.711   3.478   2.522  0.00  0.00     0.302 C 
ATOM      6  C   UNL d   1       1.529   1.587   4.497  0.00  0.00     0.302 C 
ENDROOT
BRANCH   1   7
ATOM      7  C   UNL d   1       0.918   0.294   2.476  0.00  0.00     0.287 C 
BRANCH   7   8
ATOM      8  C   UNL d   1       1.524  -1.025   2.956  0.00  0.00     0.176 C 
BRANCH   8   9
ATOM      9  S   UNL d   1       2.053  -2.022   1.582  0.00  0.00     0.177 S 
ATOM     10  O   UNL d   1       3.079  -1.293   0.859  0.00  0.00    -0.223 OA
ATOM     11  O   UNL d   1       0.879  -2.528   0.894  0.00  0.00    -0.223 OA
BRANCH   9  12
ATOM     12  C   UNL d   1       2.848  -3.408   2.372  0.00  0.00     0.059 A 
ATOM     13  C   UNL d   1       2.100  -4.539   2.704  0.00  0.00     0.024 A 
ATOM     14  C   UNL d   1       2.739  -5.642   3.275  0.00  0.00     0.008 A 
ATOM     15  C   UNL d   1       4.122  -5.626   3.504  0.00  0.00    -0.062 A 
ATOM     16  C   UNL d   1       4.858  -4.481   3.172  0.00  0.00     0.008 A 
ATOM     17  C   UNL d   1       4.802  -6.841   4.069  0.00  0.00     0.048 C 
ATOM     18  C   UNL d   1       4.226  -3.373   2.602  0.00  0.00     0.024 A 
ENDBRANCH   9  12
ENDBRANCH   8   9
ENDBRANCH   7   8
ENDBRANCH   1   7
BRANCH   2  19
ATOM     19  C   UNL d   1       1.369   4.751   4.515  0.00  0.00     0.287 C 
BRANCH  19  20
ATOM     20  C   UNL d   1       2.525   5.326   5.338  0.00  0.00     0.176 C 
BRANCH  20  21
ATOM     21  S   UNL d   1       1.926   6.400   6.627  0.00  0.00     0.177 S 
ATOM     22  O   UNL d   1       1.354   7.586   6.014  0.00  0.00    -0.223 OA
ATOM     23  O   UNL d   1       1.157   5.603   7.561  0.00  0.00    -0.223 OA
BRANCH  21  24
ATOM     24  C   UNL d   1       3.418   6.904   7.466  0.00  0.00     0.059 A 
ATOM     25  C   UNL d   1       4.089   8.058   7.055  0.00  0.00     0.024 A 
ATOM     26  C   UNL d   1       5.253   8.452   7.721  0.00  0.00     0.008 A 
ATOM     27  C   UNL d   1       5.746   7.705   8.801  0.00  0.00    -0.062 A 
ATOM     28  C   UNL d   1       5.046   6.565   9.220  0.00  0.00     0.008 A 
ATOM     29  C   UNL d   1       7.005   8.137   9.497  0.00  0.00     0.048 C 
ATOM     30  C   UNL d   1       3.881   6.165   8.558  0.00  0.00     0.024 A 
ENDBRANCH  21  24
ENDBRANCH  20  21
ENDBRANCH  19  20
ENDBRANCH   2  19
TORSDOF 8
