REMARK  3 active torsions:
REMARK  status: ('A' for Active; 'I' for Inactive)
REMARK    1  A    between atoms: C_4  and  C_1 
REMARK    2  A    between atoms: C_3  and  S_7 
REMARK    3  A    between atoms: S_7  and  C_4 
ROOT
ATOM      1  S   UNL d   1      -1.796   2.881   0.012  0.00  0.00    -0.123 SA
ENDROOT
BRANCH   1   2
ATOM      2  C   UNL d   1      -1.367   4.634  -0.108  0.00  0.00     0.023 A 
ATOM      3  C   UNL d   1      -2.358   5.633  -0.103  0.00  0.00     0.052 A 
ATOM      4  C   UNL d   1      -2.017   6.987  -0.232  0.00  0.00     0.049 A 
ATOM      5 CL   UNL d   1      -4.047   5.277   0.059  0.00  0.00    -0.083 Cl
ATOM      6  C   UNL d   1      -0.684   7.374  -0.380  0.00  0.00     0.041 A 
ATOM      7  C   UNL d   1       0.327   6.412  -0.387  0.00  0.00    -0.039 A 
ATOM      8 CL   UNL d   1      -0.352   9.059  -0.554  0.00  0.00    -0.084 Cl
ATOM      9  C   UNL d   1      -0.033   5.057  -0.238  0.00  0.00     0.028 A 
ATOM     10  C   UNL d   1       1.789   6.713  -0.573  0.00  0.00     0.050 C 
ENDBRANCH   1   2
BRANCH   1  11
ATOM     11  C   UNL d   1      -0.177   2.050   0.021  0.00  0.00     0.121 C 
BRANCH  11  12
ATOM     12  C   UNL d   1      -0.244   0.546  -0.090  0.00  0.00    -0.005 A 
ATOM     13  C   UNL d   1      -0.252  -0.084  -1.351  0.00  0.00     0.042 A 
ATOM     14 CL   UNL d   1      -0.298   0.811  -2.833  0.00  0.00    -0.084 Cl
ATOM     15  C   UNL d   1      -0.191  -1.479  -1.463  0.00  0.00     0.024 A 
ATOM     16  C   UNL d   1      -0.137  -2.272  -0.324  0.00  0.00     0.003 A 
ATOM     17  C   UNL d   1      -0.169  -1.672   0.932  0.00  0.00     0.024 A 
ATOM     18  C   UNL d   1      -0.229  -0.277   1.050  0.00  0.00     0.042 A 
ATOM     19 CL   UNL d   1      -0.249   0.369   2.654  0.00  0.00    -0.084 Cl
ENDBRANCH  11  12
ENDBRANCH   1  11
TORSDOF 3
