REMARK  3 active torsions:
REMARK  status: ('A' for Active; 'I' for Inactive)
REMARK    1  A    between atoms: N_2  and  S_1 
REMARK    2  A    between atoms: C_3  and  S_1 
REMARK    3  A    between atoms: N_8  and  N_2 
ROOT
ATOM      1  S   UNL d   1       0.978   0.088  -0.041  0.00  0.00     0.254 S 
ATOM      2  O   UNL d   1       1.745   0.359  -1.239  0.00  0.00    -0.205 OA
ATOM      3  O   UNL d   1       1.490  -0.755   1.016  0.00  0.00    -0.205 OA
ENDROOT
BRANCH   1   4
ATOM      4  N   UNL d   1      -0.526  -0.581  -0.585  0.00  0.00    -0.150 NA
ATOM      5  H   UNL d   1      -0.983   0.053  -1.251  0.00  0.00     0.159 HD
BRANCH   4   6
ATOM      6  N   UNL d   1      -0.286  -1.862  -1.168  0.00  0.00    -0.257 NA
ATOM      7  H   UNL d   1       0.138  -2.455  -0.441  0.00  0.00     0.138 HD
ATOM      8  H   UNL d   1       0.454  -1.760  -1.878  0.00  0.00     0.138 HD
ENDBRANCH   4   6
ENDBRANCH   1   4
BRANCH   1   9
ATOM      9  C   UNL d   1       0.458   1.628   0.664  0.00  0.00     0.075 A 
ATOM     10  C   UNL d   1      -0.398   1.621   1.770  0.00  0.00     0.026 A 
ATOM     11  C   UNL d   1      -0.792   2.834   2.340  0.00  0.00     0.025 A 
ATOM     12  C   UNL d   1      -0.325   4.037   1.806  0.00  0.00     0.034 A 
ATOM     13  C   UNL d   1       0.529   4.040   0.703  0.00  0.00     0.025 A 
ATOM     14 CL   UNL d   1      -0.802   5.529   2.518  0.00  0.00    -0.084 Cl
ATOM     15  C   UNL d   1       0.925   2.832   0.127  0.00  0.00     0.026 A 
ENDBRANCH   1   9
TORSDOF 3
