REMARK  7 active torsions:
REMARK  status: ('A' for Active; 'I' for Inactive)
REMARK    1  A    between atoms: N_3  and  S_1 
REMARK    2  A    between atoms: C_6  and  S_1 
REMARK    3  A    between atoms: C_11  and  N_3 
REMARK    4  A    between atoms: C_21  and  C_20 
REMARK    5  A    between atoms: C_22  and  C_21 
REMARK    6  A    between atoms: C_24  and  C_22 
REMARK    7  A    between atoms: C_23  and  C_24 
ROOT
ATOM      1  S   UNL d   1       1.000   0.013  -0.033  0.00  0.00     0.245 S 
ATOM      2  O   UNL d   1       1.735   1.049  -0.729  0.00  0.00    -0.206 OA
ATOM      3  O   UNL d   1       1.600  -1.282   0.215  0.00  0.00    -0.206 OA
ENDROOT
BRANCH   1   4
ATOM      4  N   UNL d   1      -0.437  -0.180  -0.913  0.00  0.00    -0.181 NA
ATOM      5  H   UNL d   1      -0.310   0.218  -1.844  0.00  0.00     0.146 HD
BRANCH   4   6
ATOM      6  C   UNL d   1      -1.082  -1.447  -0.843  0.00  0.00     0.024 A 
ATOM      7  C   UNL d   1      -2.031  -1.677   0.148  0.00  0.00     0.042 A 
ATOM      8  C   UNL d   1      -2.575  -2.948   0.216  0.00  0.00     0.049 A 
ATOM      9  C   UNL d   1      -3.577  -3.450   1.144  0.00  0.00     0.294 A 
ATOM     10  C   UNL d   1      -2.209  -3.969  -0.637  0.00  0.00    -0.018 A 
ATOM     11  O   UNL d   1      -3.780  -4.764   0.828  0.00  0.00    -0.313 OA
ATOM     12  O   UNL d   1      -4.126  -2.819   2.023  0.00  0.00    -0.259 OA
ATOM     13  C   UNL d   1      -2.948  -5.194  -0.272  0.00  0.00     0.218 A 
ATOM     14  C   UNL d   1      -1.269  -3.751  -1.628  0.00  0.00     0.012 A 
ATOM     15  C   UNL d   1      -0.701  -2.474  -1.726  0.00  0.00     0.025 A 
ENDBRANCH   4   6
ENDBRANCH   1   4
BRANCH   1  16
ATOM     16  C   UNL d   1       0.458   0.689   1.518  0.00  0.00     0.074 A 
ATOM     17  C   UNL d   1       0.148  -0.165   2.579  0.00  0.00     0.025 A 
ATOM     18  C   UNL d   1      -0.168   0.372   3.831  0.00  0.00     0.009 A 
ATOM     19  C   UNL d   1      -0.156   1.760   4.036  0.00  0.00    -0.058 A 
ATOM     20  C   UNL d   1       0.174   2.602   2.964  0.00  0.00     0.009 A 
ATOM     21  C   UNL d   1       0.475   2.073   1.708  0.00  0.00     0.025 A 
BRANCH  19  22
ATOM     22  C   UNL d   1      -0.467   2.335   5.399  0.00  0.00     0.038 C 
BRANCH  22  23
ATOM     23  C   UNL d   1      -1.636   3.326   5.411  0.00  0.00     0.005 C 
BRANCH  23  24
ATOM     24  C   UNL d   1      -2.962   2.694   4.982  0.00  0.00    -0.000 C 
BRANCH  24  25
ATOM     25  C   UNL d   1      -4.090   3.724   5.007  0.00  0.00    -0.005 C 
ATOM     26  C   UNL d   1      -5.411   3.115   4.568  0.00  0.00     0.005 C 
ENDBRANCH  24  25
ENDBRANCH  23  24
ENDBRANCH  22  23
ENDBRANCH  19  22
ENDBRANCH   1  16
TORSDOF 7
