REMARK  2 active torsions:
REMARK  status: ('A' for Active; 'I' for Inactive)
REMARK    1  A    between atoms: C_2  and  C_1 
REMARK       I    between atoms: N_7  and  C_2 
REMARK    2  A    between atoms: C_8  and  C_3 
ROOT
ATOM      1  C   UNL d   1       1.058   0.434  -0.688  0.00  0.00     0.112 C 
ATOM      2  C   UNL d   1       0.379   0.981   0.340  0.00  0.00     0.039 C 
ATOM      3  C   UNL d   1       0.425  -0.097  -1.844  0.00  0.00     0.105 C 
ATOM      4  N   UNL d   1      -0.028  -0.545  -2.814  0.00  0.00    -0.191 NA
ENDROOT
BRANCH   1   5
ATOM      5  C   UNL d   1       2.548   0.388  -0.564  0.00  0.00     0.260 C 
ATOM      6  O   UNL d   1       3.150   0.833   0.408  0.00  0.00    -0.267 OA
ATOM      7  N   UNL d   1       3.245  -0.187  -1.583  0.00  0.00    -0.365 N 
ATOM      8  H   UNL d   1       2.840  -0.587  -2.420  0.00  0.00     0.159 HD
ATOM      9  H   UNL d   1       4.253  -0.229  -1.486  0.00  0.00     0.159 HD
ENDBRANCH   1   5
BRANCH   2  10
ATOM     10  C   UNL d   1      -1.080   1.077   0.433  0.00  0.00    -0.035 A 
ATOM     11  C   UNL d   1      -1.811   0.037   1.018  0.00  0.00     0.011 A 
ATOM     12  C   UNL d   1      -3.200   0.130   1.129  0.00  0.00     0.001 A 
ATOM     13  C   UNL d   1      -3.863   1.262   0.659  0.00  0.00     0.000 A 
ATOM     14  C   UNL d   1      -3.139   2.302   0.076  0.00  0.00     0.001 A 
ATOM     15  C   UNL d   1      -1.750   2.211  -0.039  0.00  0.00     0.011 A 
ENDBRANCH   2  10
TORSDOF 2
