REMARK  4 active torsions:
REMARK  status: ('A' for Active; 'I' for Inactive)
REMARK    1  A    between atoms: C_11  and  C_3 
REMARK    2  A    between atoms: C_12  and  C_4 
REMARK    3  A    between atoms: C_14  and  C_10 
REMARK       I    between atoms: N_15  and  C_12 
REMARK    4  A    between atoms: C_23  and  N_15 
ROOT
ATOM      1  C   UNL d   1       0.148  -0.747  -0.108  0.00  0.00     0.145 A 
ATOM      2  N   UNL d   1       0.239   0.660  -0.165  0.00  0.00    -0.234 N 
ATOM      3  C   UNL d   1      -0.896   1.448  -0.031  0.00  0.00     0.144 A 
ATOM      4  C   UNL d   1       1.444  -1.224  -0.197  0.00  0.00     0.095 A 
ATOM      5  N   UNL d   1      -1.055  -1.395   0.022  0.00  0.00    -0.336 N 
ATOM      6  HN  UNL d   1      -1.109  -2.413   0.055  1.00  0.00     0.167 HD
ATOM      7  C   UNL d   1      -2.098   0.853   0.106  0.00  0.00     0.071 A 
ATOM      8  N   UNL d   1       1.513   1.053  -0.366  0.00  0.00    -0.302 N 
ATOM      9  HN  UNL d   1       1.855   2.007  -0.482  1.00  0.00     0.186 HD
ATOM     10  C   UNL d   1      -2.130  -0.650   0.102  0.00  0.00     0.120 A 
ATOM     11  C   UNL d   1       2.226  -0.067  -0.381  0.00  0.00     0.128 A 
ENDROOT
BRANCH   4  12
ATOM     12  C   UNL d   1       1.977  -2.573  -0.113  0.00  0.00     0.261 C 
ATOM     13  N   UNL d   1       1.039  -3.580   0.036  0.00  0.00    -0.323 N 
ATOM     14  H   UNL d   1       0.068  -3.309  -0.081  0.00  0.00     0.169 HD
ATOM     15  O   UNL d   1       3.188  -2.743  -0.170  0.00  0.00    -0.267 OA
BRANCH  13  16
ATOM     16  C   UNL d   1       1.306  -4.926   0.373  0.00  0.00     0.035 A 
ATOM     17  C   UNL d   1       2.557  -5.375   0.814  0.00  0.00     0.031 A 
ATOM     18  C   UNL d   1       2.740  -6.697   1.232  0.00  0.00     0.026 A 
ATOM     19  C   UNL d   1       1.673  -7.587   1.198  0.00  0.00     0.034 A 
ATOM     20  C   UNL d   1       0.430  -7.169   0.730  0.00  0.00     0.026 A 
ATOM     21 CL   UNL d   1       1.887  -9.199   1.759  0.00  0.00    -0.084 Cl
ATOM     22  C   UNL d   1       0.246  -5.840   0.324  0.00  0.00     0.031 A 
ENDBRANCH  13  16
ENDBRANCH   4  12
BRANCH   3  23
ATOM     23  C   UNL d   1      -0.756   2.929  -0.028  0.00  0.00     0.434 C 
ATOM     24  F   UNL d   1       0.498   3.428  -0.098  0.00  0.00    -0.165 F 
ATOM     25  F   UNL d   1      -1.450   3.474  -1.063  0.00  0.00    -0.165 F 
ATOM     26  F   UNL d   1      -1.309   3.450   1.103  0.00  0.00    -0.165 F 
ENDBRANCH   3  23
BRANCH  10  27
ATOM     27  C   UNL d   1      -3.516  -1.307   0.193  0.00  0.00     0.432 C 
ATOM     28  F   UNL d   1      -4.531  -0.399   0.165  0.00  0.00    -0.165 F 
ATOM     29  F   UNL d   1      -3.741  -2.164  -0.838  0.00  0.00    -0.165 F 
ATOM     30  F   UNL d   1      -3.670  -2.020   1.339  0.00  0.00    -0.165 F 
ENDBRANCH  10  27
TORSDOF 4
