REMARK  5 active torsions:
REMARK  status: ('A' for Active; 'I' for Inactive)
REMARK    1  A    between atoms: N_9  and  C_1 
REMARK    2  A    between atoms: C_4  and  C_8 
REMARK    3  A    between atoms: C_11  and  CA_7 
REMARK       I    between atoms: C_8  and  N_9 
REMARK    4  A    between atoms: OXT_19  and  C_11 
REMARK    5  A    between atoms: O_22  and  C_16 
ROOT
ATOM      1  C   UNL d   1      -1.927   3.825  -0.685  0.00  0.00     0.276 C 
ATOM      2  N   UNL d   1      -1.148   3.071   0.166  0.00  0.00    -0.306 N 
ATOM      3  O   UNL d   1      -2.422   3.460  -1.748  0.00  0.00    -0.266 OA
ATOM      4  H   UNL d   1      -0.730   3.497   0.979  0.00  0.00     0.170 HD
ENDROOT
BRANCH   2   5
ATOM      5  C   UNL d   1      -0.942   1.720  -0.016  0.00  0.00     0.138 A 
ATOM      6  N   UNL d   1      -1.989   0.905  -0.171  0.00  0.00    -0.282 N 
ATOM      7  N   UNL d   1      -1.462  -0.321  -0.131  0.00  0.00    -0.294 N 
ATOM      8  HN  UNL d   1      -2.969   1.161  -0.292  1.00  0.00     0.189 HD
ATOM      9  C   UNL d   1      -2.331  -1.475  -0.148  0.00  0.00     0.178 C 
ATOM     10  C   UNL d   1      -0.094  -0.340  -0.045  0.00  0.00     0.067 A 
ATOM     11  C   UNL d   1       0.305   1.007   0.026  0.00  0.00     0.071 A 
ATOM     12  C   UNL d   1       0.798  -1.424  -0.020  0.00  0.00     0.032 A 
ATOM     13  C   UNL d   1       1.707   1.261   0.076  0.00  0.00     0.084 A 
ATOM     14  C   UNL d   1       2.600   0.167   0.082  0.00  0.00     0.038 A 
ATOM     15  C   UNL d   1       2.157  -1.148   0.042  0.00  0.00     0.005 A 
BRANCH  13  16
ATOM     16  O   UNL d   1       2.413   2.459   0.108  0.00  0.00    -0.355 OA
ATOM     17  C   UNL d   1       1.742   3.671  -0.159  0.00  0.00     0.210 C 
ENDBRANCH  13  16
ENDBRANCH   2   5
BRANCH   1  18
ATOM     18  C   UNL d   1      -2.114   5.238  -0.279  0.00  0.00     0.134 A 
ATOM     19  CA  UNL d   1      -2.170   6.300  -1.179  0.00  0.00     0.139 A 
ATOM     20  N   UNL d   1      -2.462   7.564  -0.729  0.00  0.00    -0.357 N 
ATOM     21  C   UNL d   1      -2.693   7.715   0.593  0.00  0.00     0.105 A 
ATOM     22  HN  UNL d   1      -2.503   8.358  -1.368  1.00  0.00     0.165 HD
ATOM     23  C   UNL d   1      -2.596   6.659   1.477  0.00  0.00     0.105 A 
ATOM     24  N   UNL d   1      -2.288   5.406   1.073  0.00  0.00    -0.358 N 
ATOM     25  HN  UNL d   1      -2.190   4.633   1.731  1.00  0.00     0.165 HD
BRANCH  19  26
ATOM     26  C   UNL d   1      -1.739   6.278  -2.618  0.00  0.00     0.196 C 
ATOM     27  O   UNL d   1      -1.190   7.251  -3.114  0.00  0.00    -0.645 OA
BRANCH  26  28
ATOM     28  OXT UNL d   1      -1.982   5.188  -3.371  0.00  0.00    -0.772 OA
ATOM     29  HXT UNL d   1      -2.384   4.395  -2.938  0.00  0.00     0.167 HD
ENDBRANCH  26  28
ENDBRANCH  19  26
ENDBRANCH   1  18
TORSDOF 5
