REMARK  6 active torsions:
REMARK  status: ('A' for Active; 'I' for Inactive)
REMARK    1  A    between atoms: S_8  and  C_1 
REMARK    2  A    between atoms: C_16  and  N_4 
REMARK    3  A    between atoms: C_7  and  C_9 
REMARK    4  A    between atoms: C_14  and  S_8 
REMARK    5  A    between atoms: C_12  and  C_14 
REMARK    6  A    between atoms: C_13  and  C_12 
ROOT
ATOM      1  C   UNL d   1       2.284   0.146   0.045  0.00  0.00     0.148 A 
ATOM      2  N   UNL d   1       1.606  -0.978   0.060  0.00  0.00    -0.335 N 
ATOM      3  HN  UNL d   1       1.978  -1.927   0.095  1.00  0.00     0.168 HD
ATOM      4  N   UNL d   1       1.458   1.249  -0.059  0.00  0.00    -0.321 N 
ATOM      5  C   UNL d   1       0.283  -0.598   0.018  0.00  0.00     0.062 A 
ATOM      6  C   UNL d   1       0.154   0.785  -0.041  0.00  0.00     0.063 A 
ATOM      7  C   UNL d   1      -2.143  -0.792  -0.004  0.00  0.00     0.050 A 
ATOM      8  C   UNL d   1      -0.873  -1.400   0.033  0.00  0.00     0.048 A 
ATOM      9  C   UNL d   1      -1.098   1.419  -0.073  0.00  0.00     0.033 A 
ATOM     10  C   UNL d   1      -2.237   0.607  -0.052  0.00  0.00     0.018 A 
ENDROOT
BRANCH   1  11
ATOM     11  S   UNL d   1       4.003   0.289   0.213  0.00  0.00    -0.086 SA
BRANCH  11  12
ATOM     12  C   UNL d   1       4.662  -1.374  -0.130  0.00  0.00     0.161 C 
BRANCH  12  13
ATOM     13  C   UNL d   1       6.160  -1.416   0.219  0.00  0.00     0.144 C 
ATOM     14  O   UNL d   1       6.718  -0.492   0.822  0.00  0.00    -0.296 OA
BRANCH  13  15
ATOM     15  C   UNL d   1       7.011  -2.625  -0.242  0.00  0.00     0.010 C 
ATOM     16  C   UNL d   1       7.539  -2.344  -1.655  0.00  0.00     0.022 C 
ATOM     17  C   UNL d   1       8.212  -2.764   0.719  0.00  0.00     0.022 C 
ATOM     18  C   UNL d   1       6.239  -3.947  -0.230  0.00  0.00     0.022 C 
ENDBRANCH  13  15
ENDBRANCH  12  13
ENDBRANCH  11  12
ENDBRANCH   1  11
BRANCH   4  19
ATOM     19  C   UNL d   1       1.871   2.645  -0.233  0.00  0.00     0.084 C 
ATOM     20  C   UNL d   1       1.408   3.216  -1.576  0.00  0.00     0.032 C 
ATOM     21  C   UNL d   1       1.466   3.546   0.934  0.00  0.00     0.032 C 
ENDBRANCH   4  19
BRANCH   7  22
ATOM     22  C   UNL d   1      -3.403  -1.621   0.008  0.00  0.00     0.417 C 
ATOM     23  F   UNL d   1      -3.179  -2.963   0.045  0.00  0.00    -0.166 F 
ATOM     24  F   UNL d   1      -4.198  -1.345   1.080  0.00  0.00    -0.166 F 
ATOM     25  F   UNL d   1      -4.178  -1.403  -1.092  0.00  0.00    -0.166 F 
ENDBRANCH   7  22
TORSDOF 6
