REMARK  5 active torsions:
REMARK  status: ('A' for Active; 'I' for Inactive)
REMARK    1  A    between atoms: C_9  and  C_1 
REMARK    2  A    between atoms: N_2  and  O_6 
REMARK    3  A    between atoms: C_4  and  C_11 
REMARK    4  A    between atoms: O_6  and  C_4 
REMARK    5  A    between atoms: C_5  and  C_10 
ROOT
ATOM      1  O   UNL d   1      -0.979   1.845  -4.084  0.00  0.00    -0.195 OA
ENDROOT
BRANCH   1   2
ATOM      2  N   UNL d   1      -1.454   1.658  -5.403  0.00  0.00    -0.261 N 
ATOM      3  C   UNL d   1      -1.781   2.752  -6.019  0.00  0.00     0.039 C 
ATOM      4  C   UNL d   1      -1.708   4.122  -5.387  0.00  0.00     0.071 C 
ATOM      5  HN  UNL d   1      -1.533   0.737  -5.835  1.00  0.00     0.194 HD
BRANCH   3   6
ATOM      6  C   UNL d   1      -2.265   2.630  -7.430  0.00  0.00    -0.009 A 
ATOM      7  C   UNL d   1      -2.963   1.472  -7.806  0.00  0.00     0.059 A 
ATOM      8  C   UNL d   1      -3.400   1.323  -9.118  0.00  0.00     0.155 A 
ATOM      9  F   UNL d   1      -4.077   0.221  -9.468  0.00  0.00    -0.203 F 
ATOM     10  C   UNL d   1      -3.139   2.309 -10.064  0.00  0.00     0.154 A 
ATOM     11  C   UNL d   1      -2.433   3.454  -9.707  0.00  0.00     0.046 A 
ATOM     12  F   UNL d   1      -3.557   2.163 -11.328  0.00  0.00    -0.203 F 
ATOM     13  C   UNL d   1      -1.991   3.617  -8.388  0.00  0.00     0.017 A 
ENDBRANCH   3   6
ENDBRANCH   1   2
BRANCH   1  14
ATOM     14  C   UNL d   1      -0.776   0.603  -3.535  0.00  0.00     0.315 C 
ATOM     15  O   UNL d   1      -1.056  -0.475  -4.052  0.00  0.00    -0.257 OA
BRANCH  14  16
ATOM     16  C   UNL d   1      -0.141   0.654  -2.187  0.00  0.00     0.041 A 
ATOM     17  C   UNL d   1       0.152   1.833  -1.494  0.00  0.00     0.018 A 
ATOM     18  C   UNL d   1       0.756   1.770  -0.225  0.00  0.00     0.017 A 
ATOM     19  C   UNL d   1       1.078   0.533   0.366  0.00  0.00     0.048 A 
ATOM     20  C   UNL d   1       0.783  -0.641  -0.336  0.00  0.00     0.017 A 
ATOM     21  C   UNL d   1       0.182  -0.579  -1.594  0.00  0.00     0.018 A 
BRANCH  19  22
ATOM     22  C   UNL d   1       1.729   0.471   1.730  0.00  0.00     0.417 C 
ATOM     23  F   UNL d   1       1.968  -0.800   2.162  0.00  0.00    -0.166 F 
ATOM     24  F   UNL d   1       0.970   1.055   2.697  0.00  0.00    -0.166 F 
ATOM     25  F   UNL d   1       2.933   1.106   1.762  0.00  0.00    -0.166 F 
ENDBRANCH  19  22
ENDBRANCH  14  16
ENDBRANCH   1  14
TORSDOF 5
