REMARK  5 active torsions:
REMARK  status: ('A' for Active; 'I' for Inactive)
REMARK    1  A    between atoms: C_2  and  C_1 
REMARK    2  A    between atoms: C_8  and  C_2 
REMARK    3  A    between atoms: C_10  and  N_3 
REMARK    4  A    between atoms: C_11  and  C_8 
REMARK    5  A    between atoms: N_13  and  C_9 
ROOT
ATOM      1  C   UNL d   1      -0.490  -3.003   0.139  0.00  0.00     0.077 C 
ATOM      2  C   UNL d   1       0.595  -3.810   0.110  0.00  0.00     0.104 C 
ENDROOT
BRANCH   1   3
ATOM      3  C   UNL d   1      -0.214  -1.616   0.261  0.00  0.00     0.154 A 
ATOM      4  N   UNL d   1      -0.131  -0.754  -0.840  0.00  0.00    -0.224 N 
ATOM      5  N   UNL d   1       0.113   0.490  -0.342  0.00  0.00     0.001 NA
ATOM      6  N   UNL d   1       0.236   0.365   0.967  0.00  0.00    -0.007 NA
ATOM      7  N   UNL d   1       0.054  -0.927   1.354  0.00  0.00    -0.269 N 
ATOM      8  HN  UNL d   1       0.112  -1.292   2.305  1.00  0.00     0.185 HD
BRANCH   4   9
ATOM      9  C   UNL d   1      -0.232  -0.942  -2.254  0.00  0.00     0.056 A 
ATOM     10  C   UNL d   1      -0.385  -2.194  -2.856  0.00  0.00     0.033 A 
ATOM     11  C   UNL d   1      -0.498  -2.322  -4.247  0.00  0.00     0.026 A 
ATOM     12  C   UNL d   1      -0.446  -1.194  -5.056  0.00  0.00     0.034 A 
ATOM     13  C   UNL d   1      -0.275   0.062  -4.484  0.00  0.00     0.026 A 
ATOM     14 CL   UNL d   1      -0.599  -1.355  -6.760  0.00  0.00    -0.084 Cl
ATOM     15  C   UNL d   1      -0.164   0.190  -3.094  0.00  0.00     0.033 A 
ENDBRANCH   4   9
ENDBRANCH   1   3
BRANCH   1  16
ATOM     16  C   UNL d   1      -1.914  -3.453  -0.037  0.00  0.00     0.197 C 
ATOM     17  O   UNL d   1      -2.213  -4.398  -0.763  0.00  0.00    -0.286 OA
BRANCH  16  18
ATOM     18  C   UNL d   1      -3.053  -2.718   0.601  0.00  0.00     0.015 A 
ATOM     19  C   UNL d   1      -4.301  -2.803  -0.042  0.00  0.00     0.017 A 
ATOM     20  C   UNL d   1      -5.436  -2.208   0.515  0.00  0.00     0.025 A 
ATOM     21  C   UNL d   1      -5.330  -1.521   1.720  0.00  0.00     0.034 A 
ATOM     22  C   UNL d   1      -4.098  -1.428   2.368  0.00  0.00     0.025 A 
ATOM     23 CL   UNL d   1      -6.729  -0.809   2.422  0.00  0.00    -0.084 Cl
ATOM     24  C   UNL d   1      -2.962  -2.038   1.818  0.00  0.00     0.017 A 
ENDBRANCH  16  18
ENDBRANCH   1  16
BRANCH   2  25
ATOM     25  N   UNL d   1       0.853  -5.143  -0.195  0.00  0.00    -0.398 N 
ATOM     26  C   UNL d   1       0.068  -5.955  -1.125  0.00  0.00     0.148 C 
ATOM     27  C   UNL d   1       2.003  -5.844   0.388  0.00  0.00     0.148 C 
ENDBRANCH   2  25
TORSDOF 5
