REMARK  4 active torsions:
REMARK  status: ('A' for Active; 'I' for Inactive)
REMARK    1  A    between atoms: C_2  and  N_1 
REMARK    2  A    between atoms: N_4  and  C_3 
REMARK    3  A    between atoms: C_11  and  N_4 
REMARK    4  A    between atoms: C_12  and  C_11 
ROOT
ATOM      1  C   UNL d   1      -0.985   2.513  -1.173  0.00  0.00     0.141 A 
ATOM      2  C   UNL d   1      -0.597   1.504  -0.291  0.00  0.00     0.114 A 
ATOM      3  N   UNL d   1       0.100   0.440  -0.769  0.00  0.00    -0.355 N 
ATOM      4  HN  UNL d   1       0.404  -0.303  -0.140  1.00  0.00     0.166 HD
ATOM      5  C   UNL d   1      -0.687   2.443  -2.540  0.00  0.00     0.041 A 
ATOM      6  C   UNL d   1       0.387   0.379  -2.092  0.00  0.00     0.089 A 
ATOM      7  C   UNL d   1       0.019   1.346  -3.010  0.00  0.00     0.020 A 
ENDROOT
BRANCH   2   8
ATOM      8  N   UNL d   1      -0.775   1.603   1.090  0.00  0.00    -0.271 NA
ATOM      9  H   UNL d   1      -1.703   1.927   1.371  0.00  0.00     0.129 HD
BRANCH   8  10
ATOM     10  C   UNL d   1      -0.402   0.415   1.860  0.00  0.00     0.151 C 
BRANCH  10  11
ATOM     11  C   UNL d   1      -0.769   0.551   3.333  0.00  0.00     0.022 A 
ATOM     12  N   UNL d   1      -1.573   1.577   3.721  0.00  0.00    -0.368 N 
ATOM     13  C   UNL d   1      -1.855   1.678   5.041  0.00  0.00     0.088 A 
ATOM     14  HN  UNL d   1      -1.949   2.242   3.045  1.00  0.00     0.165 HD
ATOM     15  C   UNL d   1      -1.398   0.790   6.000  0.00  0.00     0.017 A 
ATOM     16  C   UNL d   1      -0.609  -0.275   5.585  0.00  0.00     0.003 A 
ATOM     17  C   UNL d   1      -0.290  -0.400   4.235  0.00  0.00     0.026 A 
ENDBRANCH  10  11
ENDBRANCH   8  10
ENDBRANCH   2   8
BRANCH   1  18
ATOM     18  N   UNL d   1      -1.720   3.656  -0.694  0.00  0.00    -0.112 N 
ATOM     19  O   UNL d   1      -2.790   3.441  -0.108  0.00  0.00    -0.532 OA
ATOM     20  O   UNL d   1      -1.266   4.777  -0.971  0.00  0.00    -0.532 OA
ENDBRANCH   1  18
TORSDOF 4
