REMARK  18 active torsions:
REMARK  status: ('A' for Active; 'I' for Inactive)
REMARK       I    between atoms: N_2  and  C_1 
REMARK    1  A    between atoms: O_7  and  C_1 
REMARK    2  A    between atoms: C_5  and  N_2 
REMARK       I    between atoms: C_3  and  N_15 
REMARK    3  A    between atoms: O_12  and  C_3 
REMARK    4  A    between atoms: O_8  and  C_4 
REMARK    5  A    between atoms: C_5  and  C_4 
REMARK    6  A    between atoms: C_27  and  C_5 
REMARK    7  A    between atoms: C_6  and  C_16 
REMARK    8  A    between atoms: O_20  and  C_6 
REMARK    9  A    between atoms: C_14  and  O_7 
REMARK   10  A    between atoms: C_17  and  O_8 
REMARK   11  A    between atoms: C_21  and  O_12 
REMARK   12  A    between atoms: N_15  and  C_31 
REMARK   13  A    between atoms: C_16  and  C_18 
REMARK   14  A    between atoms: C_19  and  C_17 
REMARK   15  A    between atoms: C_26  and  C_21 
REMARK   16  A    between atoms: C_34  and  C_27 
REMARK   17  A    between atoms: C_31  and  C_35 
REMARK   18  A    between atoms: C_35  and  C_34 
ROOT
ATOM      1  C   UNL d   1       1.388  -2.911  -1.146  0.00  0.00     0.186 C 
ENDROOT
BRANCH   1   2
ATOM      2  C   UNL d   1       2.006  -3.239   0.223  0.00  0.00     0.035 C 
BRANCH   2   3
ATOM      3  C   UNL d   1       1.167  -4.035   1.230  0.00  0.00     0.004 C 
BRANCH   3   4
ATOM      4  C   UNL d   1       0.630  -5.398   0.778  0.00  0.00     0.020 C 
BRANCH   4   5
ATOM      5  C   UNL d   1       1.700  -6.445   0.466  0.00  0.00     0.125 C 
BRANCH   5   6
ATOM      6  N   UNL d   1       1.096  -7.708   0.090  0.00  0.00    -0.337 N 
ATOM      7  C   UNL d   1       1.733  -8.626  -0.692  0.00  0.00     0.360 C 
ATOM      8  O   UNL d   1       2.825  -8.461  -1.216  0.00  0.00    -0.239 OA
ATOM      9  H   UNL d   1       0.303  -8.071   0.605  0.00  0.00     0.164 HD
BRANCH   7  10
ATOM     10  O   UNL d   1       0.964  -9.731  -0.810  0.00  0.00    -0.299 OA
BRANCH  10  11
ATOM     11  C   UNL d   1       1.455 -10.741  -1.702  0.00  0.00     0.219 C 
BRANCH  11  12
ATOM     12  C   UNL d   1       1.647 -12.030  -0.945  0.00  0.00    -0.034 A 
ATOM     13  C   UNL d   1       0.593 -12.944  -0.812  0.00  0.00     0.009 A 
ATOM     14  C   UNL d   1       0.778 -14.141  -0.117  0.00  0.00     0.001 A 
ATOM     15  C   UNL d   1       2.014 -14.430   0.458  0.00  0.00     0.000 A 
ATOM     16  C   UNL d   1       3.064 -13.521   0.345  0.00  0.00     0.001 A 
ATOM     17  C   UNL d   1       2.881 -12.323  -0.349  0.00  0.00     0.009 A 
ENDBRANCH  11  12
ENDBRANCH  10  11
ENDBRANCH   7  10
ENDBRANCH   5   6
ENDBRANCH   4   5
ENDBRANCH   3   4
ENDBRANCH   2   3
ENDBRANCH   1   2
BRANCH   1  18
ATOM     18  N   UNL d   1       2.540  -2.524  -2.046  0.00  0.00    -0.323 N 
ATOM     19  C   UNL d   1       3.260  -3.323  -2.902  0.00  0.00     0.362 C 
ATOM     20  O   UNL d   1       4.199  -2.882  -3.574  0.00  0.00    -0.238 OA
ATOM     21  H   UNL d   1       2.861  -1.566  -2.023  0.00  0.00     0.165 HD
BRANCH  19  22
ATOM     22  O   UNL d   1       2.816  -4.582  -2.929  0.00  0.00    -0.294 OA
BRANCH  22  23
ATOM     23  C   UNL d   1       3.182  -5.630  -3.883  0.00  0.00     0.061 C 
ATOM     24  C   UNL d   1       4.360  -6.482  -3.385  0.00  0.00     0.046 C 
ATOM     25  C   UNL d   1       1.897  -6.466  -3.874  0.00  0.00     0.046 C 
ATOM     26  C   UNL d   1       3.451  -5.184  -5.330  0.00  0.00     0.046 C 
ENDBRANCH  22  23
ENDBRANCH  19  22
ENDBRANCH   1  18
BRANCH   1  27
ATOM     27  C   UNL d   1       0.267  -1.790  -1.238  0.00  0.00     0.282 C 
ATOM     28  O   UNL d   1       0.083  -1.167  -2.284  0.00  0.00    -0.263 OA
BRANCH  27  29
ATOM     29  O   UNL d   1      -0.521  -1.599  -0.125  0.00  0.00    -0.315 OA
BRANCH  29  30
ATOM     30  C   UNL d   1      -1.445  -0.450  -0.171  0.00  0.00     0.217 C 
BRANCH  30  31
ATOM     31  C   UNL d   1      -2.864  -0.670   0.383  0.00  0.00    -0.034 A 
ATOM     32  C   UNL d   1      -3.501   0.278   1.215  0.00  0.00     0.010 A 
ATOM     33  C   UNL d   1      -4.860   0.152   1.588  0.00  0.00     0.008 A 
ATOM     34  C   UNL d   1      -5.634  -0.916   1.122  0.00  0.00    -0.048 A 
ATOM     35  C   UNL d   1      -5.009  -1.851   0.283  0.00  0.00     0.008 A 
ATOM     36  C   UNL d   1      -3.652  -1.728  -0.081  0.00  0.00     0.010 A 
BRANCH  34  37
ATOM     37  C   UNL d   1      -7.124  -1.023   1.421  0.00  0.00     0.148 C 
BRANCH  37  38
ATOM     38  C   UNL d   1      -7.537  -1.176   2.872  0.00  0.00     0.143 C 
ATOM     39  O   UNL d   1      -8.637  -0.811   3.291  0.00  0.00    -0.650 OA
BRANCH  38  40
ATOM     40  O   UNL d   1      -6.678  -1.856   3.655  0.00  0.00    -0.776 OA
ATOM     41  H   UNL d   1      -5.851  -2.118   3.200  0.00  0.00     0.167 HD
ENDBRANCH  38  40
ENDBRANCH  37  38
ENDBRANCH  34  37
ENDBRANCH  30  31
ENDBRANCH  29  30
ENDBRANCH  27  29
ENDBRANCH   1  27
TORSDOF 18
