REMARK  4 active torsions:
REMARK  status: ('A' for Active; 'I' for Inactive)
REMARK    1  A    between atoms: N_2  and  S_1 
REMARK    2  A    between atoms: C_4  and  S_1 
REMARK    3  A    between atoms: S_6  and  N_2 
REMARK    4  A    between atoms: C_13  and  S_6 
ROOT
ATOM      1  S   UNL d   1       1.103   0.020  -0.040  0.00  0.00     0.271 S 
ATOM      2  O   UNL d   1       0.027   0.074  -1.010  0.00  0.00    -0.200 OA
ATOM      3  O   UNL d   1       2.085  -1.044  -0.123  0.00  0.00    -0.200 OA
ENDROOT
BRANCH   1   4
ATOM      4  N   UNL d   1       0.454   0.118   1.518  0.00  0.00    -0.236 N 
ATOM      5  HN  UNL d   1      -0.222   0.854   1.723  1.00  0.00     0.189 HD
BRANCH   4   6
ATOM      6  S   UNL d   1       0.877  -0.937   2.722  0.00  0.00     0.061 S 
ATOM      7  O   UNL d   1       2.298  -0.980   2.970  0.00  0.00    -0.244 OA
ATOM      8  C   UNL d   1       0.026  -0.369   4.167  0.00  0.00     0.143 C 
BRANCH   6   9
ATOM      9  C   UNL d   1       0.210  -2.498   2.312  0.00  0.00     0.038 A 
ATOM     10  C   UNL d   1       1.054  -3.593   2.167  0.00  0.00     0.022 A 
ATOM     11  C   UNL d   1       0.504  -4.863   1.975  0.00  0.00     0.008 A 
ATOM     12  C   UNL d   1      -0.888  -5.037   1.923  0.00  0.00    -0.062 A 
ATOM     13  C   UNL d   1      -1.721  -3.917   2.033  0.00  0.00     0.008 A 
ATOM     14  C   UNL d   1      -1.464  -6.413   1.783  0.00  0.00     0.048 C 
ATOM     15  C   UNL d   1      -1.177  -2.649   2.224  0.00  0.00     0.022 A 
ENDBRANCH   6   9
ENDBRANCH   4   6
ENDBRANCH   1   4
BRANCH   1  16
ATOM     16  C   UNL d   1       1.979   1.543  -0.145  0.00  0.00     0.109 A 
ATOM     17  C   UNL d   1       1.321   2.793  -0.101  0.00  0.00     0.090 A 
ATOM     18  N   UNL d   1       0.003   3.026   0.011  0.00  0.00    -0.309 N 
ATOM     19  C   UNL d   1       2.126   4.073  -0.161  0.00  0.00     0.068 A 
ATOM     20  S   UNL d   1      -0.205   4.673  -0.019  0.00  0.00     0.068 SA
ATOM     21  HN  UNL d   1      -0.732   2.324   0.098  1.00  0.00     0.176 HD
ATOM     22  N   UNL d   1       1.371   5.180  -0.109  0.00  0.00    -0.310 N 
ATOM     23  HN  UNL d   1       1.702   6.145  -0.123  1.00  0.00     0.176 HD
ATOM     24  C   UNL d   1       3.539   4.045  -0.255  0.00  0.00     0.032 A 
ATOM     25  C   UNL d   1       4.133   2.773  -0.308  0.00  0.00     0.004 A 
ATOM     26  C   UNL d   1       3.388   1.570  -0.259  0.00  0.00     0.028 A 
ENDBRANCH   1  16
TORSDOF 4
