REMARK  3 active torsions:
REMARK  status: ('A' for Active; 'I' for Inactive)
REMARK    1  A    between atoms: C_2  and  C_1 
REMARK    2  A    between atoms: C_4  and  C_2 
REMARK    3  A    between atoms: C_12  and  C_3 
ROOT
ATOM      1  C   UNL d   1       0.988  -0.130   0.157  0.00  0.00     0.091 C 
ATOM      2  C   UNL d   1       0.295  -0.625  -0.887  0.00  0.00     0.038 C 
ATOM      3  C   UNL d   1       0.364   0.452   1.291  0.00  0.00     0.103 C 
ATOM      4  N   UNL d   1      -0.121   0.926   2.234  0.00  0.00    -0.191 NA
ENDROOT
BRANCH   1   5
ATOM      5  C   UNL d   1       2.479  -0.199   0.091  0.00  0.00     0.174 C 
ATOM      6  O   UNL d   1       3.079  -0.306  -0.975  0.00  0.00    -0.291 OA
BRANCH   5   7
ATOM      7  C   UNL d   1       3.231  -0.146   1.387  0.00  0.00     0.061 A 
ATOM      8  C   UNL d   1       4.377   0.821   1.574  0.00  0.00     0.013 A 
ATOM      9  C   UNL d   1       4.658  -0.647   1.444  0.00  0.00     0.013 A 
ENDBRANCH   5   7
ENDBRANCH   1   5
BRANCH   2  10
ATOM     10  C   UNL d   1      -1.171  -0.642  -0.971  0.00  0.00    -0.032 A 
ATOM     11  C   UNL d   1      -1.895  -1.713  -0.427  0.00  0.00     0.051 A 
ATOM     12  C   UNL d   1      -3.273  -1.656  -0.490  0.00  0.00     0.105 A 
ATOM     13  O   UNL d   1      -4.131  -2.594  -0.003  0.00  0.00    -0.323 OA
ATOM     14  C   UNL d   1      -3.932  -0.597  -1.069  0.00  0.00     0.105 A 
ATOM     15  C   UNL d   1      -5.403  -1.975  -0.291  0.00  0.00     0.352 A 
ATOM     16  O   UNL d   1      -5.283  -0.733  -1.016  0.00  0.00    -0.323 OA
ATOM     17  C   UNL d   1      -3.249   0.463  -1.625  0.00  0.00     0.040 A 
ATOM     18  C   UNL d   1      -1.851   0.439  -1.572  0.00  0.00     0.014 A 
ENDBRANCH   2  10
TORSDOF 3
