REMARK  5 active torsions:
REMARK  status: ('A' for Active; 'I' for Inactive)
REMARK    1  A    between atoms: O_8  and  N_1 
REMARK    2  A    between atoms: C_9  and  O_8 
REMARK    3  A    between atoms: C_10  and  C_9 
REMARK    4  A    between atoms: O_15  and  C_12 
REMARK    5  A    between atoms: C_21  and  O_15 
ROOT
ATOM      1  C   UNL d   1      -4.220  -1.196  -0.139  0.00  0.00     0.320 C 
ATOM      2  O   UNL d   1      -4.394  -0.534  -1.146  0.00  0.00    -0.257 OA
ENDROOT
BRANCH   1   3
ATOM      3  O   UNL d   1      -4.295  -0.720   1.139  0.00  0.00    -0.182 OA
BRANCH   3   4
ATOM      4  N   UNL d   1      -3.823   0.592   1.238  0.00  0.00    -0.144 N 
ATOM      5  C   UNL d   1      -2.438   0.756   1.226  0.00  0.00     0.259 C 
ATOM      6  C   UNL d   1      -2.256   1.899   2.148  0.00  0.00     0.129 C 
ATOM      7  O   UNL d   1      -1.568  -0.006   0.842  0.00  0.00    -0.270 OA
ATOM      8  C   UNL d   1      -1.244   2.965   2.426  0.00  0.00     0.159 C 
ATOM      9  C   UNL d   1      -3.534   2.705   1.893  0.00  0.00     0.129 C 
ATOM     10  C   UNL d   1      -1.267   4.183   1.548  0.00  0.00     0.004 C 
ATOM     11  O   UNL d   1      -2.058   3.530   3.536  0.00  0.00    -0.371 OA
ATOM     12  C   UNL d   1      -2.428   4.821   1.788  0.00  0.00     0.004 C 
ATOM     13  C   UNL d   1      -3.213   3.937   2.728  0.00  0.00     0.159 C 
ATOM     14  C   UNL d   1      -4.478   1.548   1.998  0.00  0.00     0.259 C 
ATOM     15  O   UNL d   1      -5.524   1.496   2.613  0.00  0.00    -0.270 OA
ENDBRANCH   3   4
ENDBRANCH   1   3
BRANCH   1  16
ATOM     16  C   UNL d   1      -3.749  -2.600  -0.073  0.00  0.00     0.092 A 
ATOM     17  C   UNL d   1      -3.951  -3.498  -1.112  0.00  0.00     0.164 A 
ATOM     18  N   UNL d   1      -3.470  -4.774  -1.086  0.00  0.00    -0.346 N 
ATOM     19  C   UNL d   1      -2.704  -5.143  -0.040  0.00  0.00     0.090 A 
ATOM     20  HN  UNL d   1      -3.684  -5.431  -1.836  1.00  0.00     0.167 HD
ATOM     21  C   UNL d   1      -2.418  -4.311   1.022  0.00  0.00     0.018 A 
ATOM     22  C   UNL d   1      -2.958  -3.030   1.008  0.00  0.00     0.023 A 
BRANCH  17  23
ATOM     23  O   UNL d   1      -4.701  -3.112  -2.216  0.00  0.00    -0.293 OA
BRANCH  23  24
ATOM     24  C   UNL d   1      -4.431  -3.764  -3.400  0.00  0.00     0.077 A 
ATOM     25  C   UNL d   1      -5.509  -4.290  -4.112  0.00  0.00     0.037 A 
ATOM     26  C   UNL d   1      -5.283  -4.969  -5.312  0.00  0.00     0.003 A 
ATOM     27  C   UNL d   1      -3.985  -5.107  -5.804  0.00  0.00     0.000 A 
ATOM     28  C   UNL d   1      -2.911  -4.550  -5.110  0.00  0.00     0.003 A 
ATOM     29  C   UNL d   1      -3.135  -3.864  -3.917  0.00  0.00     0.037 A 
ENDBRANCH  23  24
ENDBRANCH  17  23
ENDBRANCH   1  16
TORSDOF 5
