REMARK  5 active torsions:
REMARK  status: ('A' for Active; 'I' for Inactive)
REMARK    1  A    between atoms: N_2  and  C_1 
REMARK    2  A    between atoms: N_3  and  C_1 
REMARK    3  A    between atoms: C_11  and  N_3 
REMARK    4  A    between atoms: C_7  and  N_4 
REMARK    5  A    between atoms: C_13  and  C_7 
ROOT
ATOM      1  N   UNL d   1       0.256   1.121  -0.407  0.00  0.00    -0.357 N 
ATOM      2  N   UNL d   1      -1.610   3.578  -1.000  0.00  0.00     0.094 N 
ATOM      3  C   UNL d   1      -0.529   1.858   0.593  0.00  0.00     0.155 C 
ATOM      4  C   UNL d   1      -1.784   2.518   0.005  0.00  0.00     0.292 C 
ATOM      5  C   UNL d   1       0.163   2.450  -2.543  0.00  0.00     0.050 C 
ATOM      6  C   UNL d   1       0.981   1.953  -1.360  0.00  0.00     0.127 C 
ATOM      7  C   UNL d   1      -1.241   3.016  -2.304  0.00  0.00     0.274 C 
ENDROOT
BRANCH   1   8
ATOM      8  C   UNL d   1       0.941  -0.017  -0.010  0.00  0.00     0.170 C 
ATOM      9  S   UNL d   1       2.012  -0.110   1.269  0.00  0.00    -0.041 SA
BRANCH   8  10
ATOM     10  N   UNL d   1       0.766  -1.110  -0.816  0.00  0.00    -0.363 N 
ATOM     11  H   UNL d   1       1.355  -1.892  -0.549  0.00  0.00     0.162 HD
BRANCH  10  12
ATOM     12  C   UNL d   1      -0.483  -1.459  -1.513  0.00  0.00     0.083 C 
ATOM     13  C   UNL d   1      -1.412  -2.228  -0.548  0.00  0.00     0.025 C 
ATOM     14  C   UNL d   1      -1.026  -3.692  -0.299  0.00  0.00     0.002 C 
ATOM     15  C   UNL d   1      -1.869  -4.731  -1.046  0.00  0.00     0.000 C 
ATOM     16  C   UNL d   1      -1.776  -4.763  -2.574  0.00  0.00     0.000 C 
ATOM     17  C   UNL d   1      -2.336  -3.529  -3.279  0.00  0.00     0.000 C 
ATOM     18  C   UNL d   1      -1.297  -2.503  -3.737  0.00  0.00     0.002 C 
ATOM     19  C   UNL d   1      -0.127  -2.202  -2.804  0.00  0.00     0.025 C 
ENDBRANCH  10  12
ENDBRANCH   8  10
ENDBRANCH   1   8
BRANCH   2  20
ATOM     20  C   UNL d   1      -0.767   4.716  -0.611  0.00  0.00     0.311 C 
BRANCH  20  21
ATOM     21  C   UNL d   1      -1.215   5.538   0.583  0.00  0.00    -0.030 A 
ATOM     22  C   UNL d   1      -0.239   6.127   1.411  0.00  0.00     0.009 A 
ATOM     23  C   UNL d   1      -0.607   7.016   2.427  0.00  0.00     0.001 A 
ATOM     24  C   UNL d   1      -1.945   7.330   2.623  0.00  0.00     0.000 A 
ATOM     25  C   UNL d   1      -2.923   6.742   1.822  0.00  0.00     0.001 A 
ATOM     26  C   UNL d   1      -2.561   5.856   0.803  0.00  0.00     0.009 A 
ENDBRANCH  20  21
ENDBRANCH   2  20
TORSDOF 5
