REMARK  5 active torsions:
REMARK  status: ('A' for Active; 'I' for Inactive)
REMARK       I    between atoms: C_6  and  N_1 
REMARK    1  A    between atoms: C_13  and  C_4 
REMARK    2  A    between atoms: C_15  and  C_6 
REMARK    3  A    between atoms: C_10  and  C_16 
REMARK    4  A    between atoms: O_27  and  C_13 
REMARK    5  A    between atoms: C_28  and  O_27 
ROOT
ATOM      1  N   UNL d   1       0.900  -0.713   0.036  0.00  0.00    -0.217 N 
ATOM      2  C   UNL d   1      -0.413  -1.138  -0.114  0.00  0.00     0.097 A 
ATOM      3  C   UNL d   1      -0.821  -2.506  -0.161  0.00  0.00     0.130 A 
ATOM      4  C   UNL d   1      -1.882  -4.446  -0.406  0.00  0.00     0.132 A 
ATOM      5  C   UNL d   1      -1.949  -3.064  -0.719  0.00  0.00     0.079 A 
ATOM      6  C   UNL d   1       2.102  -1.446  -0.085  0.00  0.00     0.277 C 
ATOM      7  N   UNL d   1      -0.776  -4.711   0.305  0.00  0.00    -0.255 N 
ATOM      8  HN  UNL d   1      -0.478  -5.620   0.660  1.00  0.00     0.195 HD
ATOM      9  O   UNL d   1      -0.126  -3.509   0.458  0.00  0.00    -0.235 OA
ATOM     10  N   UNL d   1       0.959   0.635   0.261  0.00  0.00    -0.302 N 
ATOM     11  HN  UNL d   1       1.780   1.194   0.491  1.00  0.00     0.186 HD
ATOM     12  C   UNL d   1      -1.192   0.001  -0.121  0.00  0.00     0.053 A 
ATOM     13  C   UNL d   1      -0.297   1.055   0.110  0.00  0.00     0.110 A 
ATOM     14  O   UNL d   1       2.078  -2.473  -0.762  0.00  0.00    -0.265 OA
ENDROOT
BRANCH   6  15
ATOM     15  C   UNL d   1       3.392  -1.042   0.534  0.00  0.00     0.034 A 
ATOM     16  C   UNL d   1       3.433  -0.336   1.741  0.00  0.00     0.018 A 
ATOM     17  C   UNL d   1       4.662  -0.023   2.328  0.00  0.00     0.017 A 
ATOM     18  C   UNL d   1       5.864  -0.418   1.724  0.00  0.00     0.048 A 
ATOM     19  C   UNL d   1       5.813  -1.145   0.524  0.00  0.00     0.017 A 
ATOM     20  C   UNL d   1       4.586  -1.461  -0.064  0.00  0.00     0.018 A 
BRANCH  18  21
ATOM     21  C   UNL d   1       7.180  -0.068   2.375  0.00  0.00     0.417 C 
ATOM     22  F   UNL d   1       8.267  -0.498   1.677  0.00  0.00    -0.166 F 
ATOM     23  F   UNL d   1       7.342   1.276   2.529  0.00  0.00    -0.166 F 
ATOM     24  F   UNL d   1       7.301  -0.603   3.622  0.00  0.00    -0.166 F 
ENDBRANCH  18  21
ENDBRANCH   6  15
BRANCH   4  25
ATOM     25  C   UNL d   1      -2.879  -5.463  -0.712  0.00  0.00     0.311 C 
ATOM     26  O   UNL d   1      -3.944  -5.202  -1.263  0.00  0.00    -0.258 OA
BRANCH  25  27
ATOM     27  O   UNL d   1      -2.536  -6.698  -0.240  0.00  0.00    -0.317 OA
BRANCH  27  28
ATOM     28  C   UNL d   1      -3.608  -7.636  -0.112  0.00  0.00     0.175 C 
ATOM     29  C   UNL d   1      -4.268  -7.419   1.238  0.00  0.00     0.034 C 
ENDBRANCH  27  28
ENDBRANCH  25  27
ENDBRANCH   4  25
TORSDOF 5
