REMARK  4 active torsions:
REMARK  status: ('A' for Active; 'I' for Inactive)
REMARK       I    between atoms: N_5  and  C_1 
REMARK       I    between atoms: N_7  and  C_1 
REMARK    1  A    between atoms: C_2  and  C_11 
REMARK    2  A    between atoms: C_15  and  N_5 
REMARK    3  A    between atoms: C_11  and  N_7 
REMARK    4  A    between atoms: C_8  and  C_9 
ROOT
ATOM      1  C   UNL d   1      -1.038   0.951   0.512  0.00  0.00     0.321 C 
ATOM      2  N   UNL d   1       0.321   1.006   0.763  0.00  0.00    -0.309 N 
ATOM      3  N   UNL d   1      -1.340  -0.120  -0.297  0.00  0.00    -0.338 N 
ATOM      4  O   UNL d   1      -1.865   1.771   0.876  0.00  0.00    -0.247 OA
ATOM      5  H   UNL d   1       0.882   0.634   0.013  0.00  0.00     0.170 HD
ATOM      6  H   UNL d   1      -0.705  -0.904  -0.295  0.00  0.00     0.164 HD
ENDROOT
BRANCH   2   7
ATOM      7  C   UNL d   1       0.914   2.018   1.543  0.00  0.00     0.036 A 
ATOM      8  C   UNL d   1       0.409   2.396   2.783  0.00  0.00     0.030 A 
ATOM      9  C   UNL d   1       1.074   3.363   3.551  0.00  0.00     0.010 A 
ATOM     10  C   UNL d   1       2.238   4.006   3.084  0.00  0.00    -0.051 A 
ATOM     11  C   UNL d   1       2.707   3.629   1.814  0.00  0.00     0.010 A 
ATOM     12  C   UNL d   1       2.074   2.627   1.068  0.00  0.00     0.030 A 
BRANCH  10  13
ATOM     13  C   UNL d   1       2.949   5.064   3.949  0.00  0.00    -0.024 C 
ATOM     14  C   UNL d   1       4.201   5.670   3.273  0.00  0.00     0.019 C 
ATOM     15  C   UNL d   1       1.988   6.229   4.268  0.00  0.00     0.019 C 
ATOM     16  C   UNL d   1       3.416   4.431   5.278  0.00  0.00     0.019 C 
ENDBRANCH  10  13
ENDBRANCH   2   7
BRANCH   3  17
ATOM     17  C   UNL d   1      -2.671  -0.348  -0.810  0.00  0.00     0.171 C 
BRANCH  17  18
ATOM     18  C   UNL d   1      -3.221  -1.616  -0.220  0.00  0.00     0.006 A 
ATOM     19  C   UNL d   1      -4.038  -1.780   0.894  0.00  0.00    -0.047 A 
ATOM     20  C   UNL d   1      -4.364  -3.169   1.088  0.00  0.00     0.015 A 
ATOM     21  C   UNL d   1      -4.545  -0.702   1.791  0.00  0.00     0.049 C 
ATOM     22  C   UNL d   1      -3.791  -3.990   0.142  0.00  0.00     0.051 A 
ATOM     23  S   UNL d   1      -2.862  -3.112  -0.981  0.00  0.00    -0.104 SA
ENDBRANCH  17  18
ENDBRANCH   3  17
TORSDOF 4
