REMARK  4 active torsions:
REMARK  status: ('A' for Active; 'I' for Inactive)
REMARK    1  A    between atoms: C_6  and  C_1 
REMARK    2  A    between atoms: C_9  and  C_3 
REMARK    3  A    between atoms: S_10  and  C_5 
REMARK    4  A    between atoms: O_14  and  C_6 
ROOT
ATOM      1  C   UNL d   1       1.312  -1.296   0.003  0.00  0.00     0.094 A 
ATOM      2  C   UNL d   1      -0.690  -0.080  -0.072  0.00  0.00     0.081 A 
ATOM      3  C   UNL d   1      -0.080  -1.397  -0.035  0.00  0.00     0.020 A 
ATOM      4  S   UNL d   1       1.831   0.339  -0.054  0.00  0.00    -0.075 SA
ATOM      5  C   UNL d   1       0.237   0.944  -0.057  0.00  0.00     0.063 A 
ATOM      6  C   UNL d   1      -2.103   0.166  -0.099  0.00  0.00     0.102 C 
ATOM      7  N   UNL d   1      -3.248   0.363  -0.117  0.00  0.00    -0.191 NA
ENDROOT
BRANCH   3   8
ATOM      8  C   UNL d   1      -0.788  -2.695  -0.033  0.00  0.00    -0.023 A 
ATOM      9  C   UNL d   1      -0.335  -3.780  -0.806  0.00  0.00     0.015 A 
ATOM     10  C   UNL d   1      -1.003  -5.008  -0.784  0.00  0.00     0.043 A 
ATOM     11  C   UNL d   1      -2.160  -5.147  -0.032  0.00  0.00     0.116 A 
ATOM     12  C   UNL d   1      -2.651  -4.085   0.713  0.00  0.00     0.043 A 
ATOM     13  F   UNL d   1      -2.811  -6.317  -0.028  0.00  0.00    -0.206 F 
ATOM     14  C   UNL d   1      -1.956  -2.871   0.730  0.00  0.00     0.015 A 
ENDBRANCH   3   8
BRANCH   5  15
ATOM     15  S   UNL d   1      -0.032   2.686   0.039  0.00  0.00    -0.126 SA
ATOM     16  C   UNL d   1      -0.921   3.026  -1.496  0.00  0.00     0.096 C 
ENDBRANCH   5  15
BRANCH   1  17
ATOM     17  C   UNL d   1       2.316  -2.341   0.145  0.00  0.00     0.300 C 
ATOM     18  O   UNL d   1       2.190  -3.367   0.800  0.00  0.00    -0.259 OA
BRANCH  17  19
ATOM     19  O   UNL d   1       3.414  -2.063  -0.625  0.00  0.00    -0.322 OA
ATOM     20  C   UNL d   1       4.398  -3.098  -0.633  0.00  0.00     0.213 C 
ENDBRANCH  17  19
ENDBRANCH   1  17
TORSDOF 4
