REMARK  5 active torsions:
REMARK  status: ('A' for Active; 'I' for Inactive)
REMARK    1  A    between atoms: S_4  and  C_1 
REMARK    2  A    between atoms: C_7  and  C_2 
REMARK    3  A    between atoms: C_10  and  S_4 
REMARK    4  A    between atoms: S_12  and  C_5 
REMARK    5  A    between atoms: O_14  and  C_7 
ROOT
ATOM      1  C   UNL d   1      -0.038  -1.264   0.163  0.00  0.00     0.106 C 
ATOM      2  C   UNL d   1       0.442   1.034   0.172  0.00  0.00     0.102 C 
ATOM      3  C   UNL d   1      -0.502   0.061   0.475  0.00  0.00     0.081 C 
ATOM      4  C   UNL d   1       1.330  -1.258  -0.077  0.00  0.00     0.065 C 
ATOM      5  S   UNL d   1       1.945   0.326  -0.224  0.00  0.00    -0.073 SA
ATOM      6 CL   UNL d   1      -2.026   0.450   1.162  0.00  0.00    -0.081 Cl
ENDROOT
BRANCH   1   7
ATOM      7  S   UNL d   1      -0.941  -2.753   0.150  0.00  0.00     0.182 S 
ATOM      8  O   UNL d   1      -0.651  -3.310  -1.157  0.00  0.00    -0.222 OA
ATOM      9  O   UNL d   1      -0.490  -3.398   1.369  0.00  0.00    -0.222 OA
BRANCH   7  10
ATOM     10  C   UNL d   1      -2.702  -2.538   0.266  0.00  0.00     0.105 C 
ATOM     11  C   UNL d   1      -3.299  -1.793  -0.924  0.00  0.00     0.026 C 
ATOM     12  C   UNL d   1      -3.373  -3.915   0.374  0.00  0.00     0.026 C 
ENDBRANCH   7  10
ENDBRANCH   1   7
BRANCH   4  13
ATOM     13  S   UNL d   1       2.446  -2.613  -0.268  0.00  0.00    -0.126 SA
ATOM     14  C   UNL d   1       2.878  -2.919   1.466  0.00  0.00     0.096 C 
ENDBRANCH   4  13
BRANCH   2  15
ATOM     15  C   UNL d   1       0.287   2.483   0.181  0.00  0.00     0.185 C 
ATOM     16  O   UNL d   1      -0.750   3.092   0.397  0.00  0.00    -0.646 OA
BRANCH  15  17
ATOM     17  O   UNL d   1       1.435   3.152  -0.109  0.00  0.00    -0.772 OA
ATOM     18  H   UNL d   1       2.188   2.557  -0.287  0.00  0.00     0.167 HD
ENDBRANCH  15  17
ENDBRANCH   2  15
TORSDOF 5
