REMARK  5 active torsions:
REMARK  status: ('A' for Active; 'I' for Inactive)
REMARK    1  A    between atoms: C_5  and  C_1 
REMARK    2  A    between atoms: C_2  and  C_3 
REMARK    3  A    between atoms: O_10  and  C_4 
REMARK    4  A    between atoms: C_12  and  C_5 
REMARK    5  A    between atoms: C_17  and  O_10 
ROOT
ATOM      1  C   UNL d   1       0.996  -0.807  -0.137  0.00  0.00     0.096 C 
ATOM      2  C   UNL d   1       0.532  -0.499   1.091  0.00  0.00     0.048 C 
ATOM      3  C   UNL d   1       2.144  -1.617  -0.354  0.00  0.00     0.103 C 
ATOM      4  N   UNL d   1       3.087  -2.259  -0.553  0.00  0.00    -0.191 NA
ENDROOT
BRANCH   1   5
ATOM      5  C   UNL d   1       0.187  -0.310  -1.292  0.00  0.00     0.202 C 
ATOM      6  O   UNL d   1      -1.014  -0.074  -1.172  0.00  0.00    -0.286 OA
BRANCH   5   7
ATOM      7  C   UNL d   1       0.822  -0.111  -2.625  0.00  0.00     0.016 A 
ATOM      8  C   UNL d   1       0.021  -0.282  -3.764  0.00  0.00     0.017 A 
ATOM      9  C   UNL d   1       0.546  -0.056  -5.040  0.00  0.00     0.025 A 
ATOM     10  C   UNL d   1       1.873   0.343  -5.181  0.00  0.00     0.034 A 
ATOM     11  C   UNL d   1       2.678   0.519  -4.056  0.00  0.00     0.025 A 
ATOM     12 CL   UNL d   1       2.516   0.643  -6.747  0.00  0.00    -0.084 Cl
ATOM     13  C   UNL d   1       2.151   0.306  -2.777  0.00  0.00     0.017 A 
ENDBRANCH   5   7
ENDBRANCH   1   5
BRANCH   2  14
ATOM     14  C   UNL d   1       1.176  -0.943   2.282  0.00  0.00     0.040 C 
ATOM     15  C   UNL d   1       2.124  -0.349   3.110  0.00  0.00     0.093 C 
ATOM     16  C   UNL d   1       2.603  -1.247   4.111  0.00  0.00     0.046 C 
ATOM     17  C   UNL d   1       1.942  -2.451   4.100  0.00  0.00     0.053 C 
ATOM     18  S   UNL d   1       0.743  -2.505   2.891  0.00  0.00    -0.099 SA
BRANCH  15  19
ATOM     19  O   UNL d   1       2.690   0.881   2.982  0.00  0.00    -0.309 OA
BRANCH  19  20
ATOM     20  C   UNL d   1       2.072   1.967   2.418  0.00  0.00     0.076 A 
ATOM     21  C   UNL d   1       0.724   2.271   2.599  0.00  0.00     0.037 A 
ATOM     22  C   UNL d   1       0.160   3.355   1.924  0.00  0.00     0.003 A 
ATOM     23  C   UNL d   1       0.960   4.173   1.126  0.00  0.00     0.000 A 
ATOM     24  C   UNL d   1       2.328   3.927   1.025  0.00  0.00     0.003 A 
ATOM     25  C   UNL d   1       2.885   2.825   1.675  0.00  0.00     0.037 A 
ENDBRANCH  19  20
ENDBRANCH  15  19
ENDBRANCH   2  14
TORSDOF 5
