REMARK  2 active torsions:
REMARK  status: ('A' for Active; 'I' for Inactive)
REMARK    1  A    between atoms: C_8  and  C_1 
REMARK    2  A    between atoms: C_3  and  C_2 
REMARK       I    between atoms: N_6  and  C_3 
REMARK       I    between atoms: C_7  and  N_6 
REMARK       I    between atoms: N_11  and  C_7 
ROOT
ATOM      1  C   UNL d   1      -0.848  -0.777  -0.319  0.00  0.00     0.088 A 
ATOM      2  C   UNL d   1       0.168  -1.637   0.223  0.00  0.00     0.093 A 
ATOM      3  N   UNL d   1      -0.617   0.503   0.002  0.00  0.00    -0.259 N 
ATOM      4  HN  UNL d   1      -1.183   1.311  -0.258  1.00  0.00     0.195 HD
ATOM      5  O   UNL d   1       0.534   0.512   0.751  0.00  0.00    -0.241 OA
ATOM      6  C   UNL d   1       0.998  -0.754   0.894  0.00  0.00     0.090 A 
ATOM      7  C   UNL d   1       2.213  -0.874   1.725  0.00  0.00     0.080 C 
ENDROOT
BRANCH   2   8
ATOM      8  C   UNL d   1       0.380  -3.084   0.147  0.00  0.00     0.274 C 
ATOM      9  N   UNL d   1      -0.781  -3.825  -0.072  0.00  0.00    -0.156 N 
ATOM     10  C   UNL d   1      -1.056  -5.127  -0.458  0.00  0.00     0.676 C 
ATOM     11  H   UNL d   1      -1.617  -3.278  -0.022  0.00  0.00     0.187 HD
ATOM     12  N   UNL d   1      -0.184  -6.178  -0.510  0.00  0.00    -0.218 N 
ATOM     13  N   UNL d   1      -2.294  -5.321  -0.800  0.00  0.00    -0.234 N 
ATOM     14  C   UNL d   1      -0.587  -7.468  -1.069  0.00  0.00     0.141 C 
ATOM     15  C   UNL d   1       1.159  -6.263   0.038  0.00  0.00     0.141 C 
ATOM     16  C   UNL d   1       0.290  -8.492  -0.373  0.00  0.00     0.022 C 
ATOM     17  C   UNL d   1       1.561  -7.738  -0.041  0.00  0.00     0.022 C 
ATOM     18  H   UNL d   1      -2.865  -4.484  -0.746  0.00  0.00     0.174 HD
ATOM     19  HN  UNL d   1      -2.656  -6.227  -1.095  1.00  0.00     0.174 HD
ATOM     20  O   UNL d   1       1.494  -3.554   0.337  0.00  0.00    -0.267 OA
ENDBRANCH   2   8
BRANCH   1  21
ATOM     21  C   UNL d   1      -2.039  -1.098  -1.096  0.00  0.00     0.054 A 
ATOM     22  C   UNL d   1      -1.990  -1.627  -2.392  0.00  0.00     0.049 A 
ATOM     23 CL   UNL d   1      -0.501  -1.899  -3.223  0.00  0.00    -0.083 Cl
ATOM     24  C   UNL d   1      -3.176  -1.965  -3.059  0.00  0.00     0.025 A 
ATOM     25  C   UNL d   1      -4.416  -1.762  -2.450  0.00  0.00     0.005 A 
ATOM     26  C   UNL d   1      -4.475  -1.215  -1.173  0.00  0.00     0.043 A 
ATOM     27  C   UNL d   1      -3.297  -0.890  -0.508  0.00  0.00     0.130 A 
ATOM     28  F   UNL d   1      -3.390  -0.410   0.741  0.00  0.00    -0.205 F 
ENDBRANCH   1  21
TORSDOF 2
