REMARK  2 active torsions:
REMARK  status: ('A' for Active; 'I' for Inactive)
REMARK    1  A    between atoms: C_3  and  N_1 
REMARK    2  A    between atoms: C_6  and  C_2 
ROOT
ATOM      1  N   UNL d   1      -0.327   1.132  -0.052  0.00  0.00    -0.232 N 
ATOM      2  C   UNL d   1       0.904  -0.569  -0.087  0.00  0.00     0.135 A 
ATOM      3  N   UNL d   1       0.973   0.760  -0.220  0.00  0.00    -0.275 N 
ATOM      4  HN  UNL d   1       1.789   1.345  -0.399  1.00  0.00     0.189 HD
ATOM      5  N   UNL d   1      -0.354  -1.071   0.092  0.00  0.00    -0.335 N 
ATOM      6  HN  UNL d   1      -0.642  -2.045   0.190  1.00  0.00     0.168 HD
ATOM      7  C   UNL d   1      -1.100   0.007   0.109  0.00  0.00     0.210 A 
ENDROOT
BRANCH   1   8
ATOM      8  C   UNL d   1      -0.766   2.477  -0.022  0.00  0.00     0.150 A 
ATOM      9  N   UNL d   1      -2.051   2.747   0.232  0.00  0.00    -0.243 N 
ATOM     10  O   UNL d   1      -2.128   4.133   0.226  0.00  0.00    -0.241 OA
ATOM     11  HN  UNL d   1      -2.807   2.082   0.395  1.00  0.00     0.196 HD
ATOM     12  C   UNL d   1      -0.899   4.655  -0.045  0.00  0.00     0.076 A 
ATOM     13  C   UNL d   1       0.007   3.635  -0.211  0.00  0.00     0.086 A 
ATOM     14  C   UNL d   1      -0.813   6.125  -0.093  0.00  0.00     0.079 C 
ENDBRANCH   1   8
BRANCH   2  15
ATOM     15  C   UNL d   1       2.056  -1.448  -0.073  0.00  0.00     0.058 A 
ATOM     16  C   UNL d   1       2.127  -2.811   0.088  0.00  0.00     0.088 A 
ATOM     17  O   UNL d   1       3.438  -3.190   0.072  0.00  0.00    -0.242 OA
ATOM     18  C   UNL d   1       1.150  -3.900   0.279  0.00  0.00     0.080 C 
ATOM     19  N   UNL d   1       4.241  -2.073  -0.107  0.00  0.00    -0.271 N 
ATOM     20  C   UNL d   1       3.397  -1.043  -0.193  0.00  0.00     0.132 A 
ATOM     21  HN  UNL d   1       5.260  -2.045  -0.162  1.00  0.00     0.194 HD
ENDBRANCH   2  15
TORSDOF 2
