REMARK  6 active torsions:
REMARK  status: ('A' for Active; 'I' for Inactive)
REMARK    1  A    between atoms: S_3  and  N_1 
REMARK    2  A    between atoms: S_5  and  C_2 
REMARK    3  A    between atoms: C_10  and  S_3 
REMARK    4  A    between atoms: C_12  and  C_4 
REMARK    5  A    between atoms: C_11  and  S_5 
REMARK    6  A    between atoms: C_9  and  C_13 
ROOT
ATOM      1  N   UNL d   1       0.958  -0.649   0.216  0.00  0.00    -0.175 N 
ATOM      2  C   UNL d   1      -0.357   1.113   0.077  0.00  0.00     0.111 A 
ATOM      3  C   UNL d   1       0.994   0.757   0.141  0.00  0.00     0.102 A 
ATOM      4  N   UNL d   1      -0.315  -1.149   0.241  0.00  0.00    -0.294 N 
ATOM      5  HN  UNL d   1      -0.602  -2.124   0.333  1.00  0.00     0.187 HD
ATOM      6  C   UNL d   1      -1.092  -0.078   0.119  0.00  0.00     0.134 A 
ENDROOT
BRANCH   1   7
ATOM      7  S   UNL d   1       2.363  -1.677   0.123  0.00  0.00     0.282 S 
ATOM      8  O   UNL d   1       2.689  -1.754  -1.287  0.00  0.00    -0.198 OA
ATOM      9  O   UNL d   1       3.280  -1.149   1.115  0.00  0.00    -0.198 OA
BRANCH   7  10
ATOM     10  C   UNL d   1       1.876  -3.307   0.644  0.00  0.00     0.082 A 
ATOM     11  C   UNL d   1       0.885  -4.015  -0.048  0.00  0.00     0.041 A 
ATOM     12  C   UNL d   1       0.579  -5.337   0.321  0.00  0.00     0.049 A 
ATOM     13  C   UNL d   1       1.299  -5.936   1.369  0.00  0.00     0.016 A 
ATOM     14  C   UNL d   1       2.302  -5.234   2.038  0.00  0.00     0.002 A 
ATOM     15  C   UNL d   1       2.593  -3.920   1.677  0.00  0.00     0.025 A 
BRANCH  12  16
ATOM     16  C   UNL d   1      -0.497  -6.128  -0.386  0.00  0.00     0.417 C 
ATOM     17  F   UNL d   1      -1.095  -5.452  -1.404  0.00  0.00    -0.166 F 
ATOM     18  F   UNL d   1      -0.020  -7.282  -0.931  0.00  0.00    -0.166 F 
ATOM     19  F   UNL d   1      -1.500  -6.502   0.457  0.00  0.00    -0.166 F 
ENDBRANCH  12  16
ENDBRANCH   7  10
ENDBRANCH   1   7
BRANCH   3  20
ATOM     20  C   UNL d   1       2.202   1.605   0.161  0.00  0.00    -0.005 A 
ATOM     21  C   UNL d   1       2.286   2.689   1.051  0.00  0.00     0.015 A 
ATOM     22  C   UNL d   1       3.419   3.512   1.095  0.00  0.00     0.024 A 
ATOM     23  C   UNL d   1       4.510   3.231   0.282  0.00  0.00     0.034 A 
ATOM     24  C   UNL d   1       4.455   2.163  -0.605  0.00  0.00     0.024 A 
ATOM     25 CL   UNL d   1       5.924   4.204   0.375  0.00  0.00    -0.084 Cl
ATOM     26  C   UNL d   1       3.294   1.382  -0.690  0.00  0.00     0.015 A 
ENDBRANCH   3  20
BRANCH   2  27
ATOM     27  S   UNL d   1      -1.114   2.653  -0.097  0.00  0.00     0.210 S 
ATOM     28  O   UNL d   1      -0.201   3.419  -0.917  0.00  0.00    -0.217 OA
ATOM     29  O   UNL d   1      -2.466   2.349  -0.518  0.00  0.00    -0.217 OA
BRANCH  27  30
ATOM     30  C   UNL d   1      -1.224   3.408   1.504  0.00  0.00     0.064 A 
ATOM     31  C   UNL d   1      -0.975   4.779   1.622  0.00  0.00     0.025 A 
ATOM     32  C   UNL d   1      -1.071   5.400   2.873  0.00  0.00     0.025 A 
ATOM     33  C   UNL d   1      -1.413   4.646   3.994  0.00  0.00     0.034 A 
ATOM     34  C   UNL d   1      -1.660   3.277   3.878  0.00  0.00     0.025 A 
ATOM     35 CL   UNL d   1      -1.535   5.410   5.532  0.00  0.00    -0.084 Cl
ATOM     36  C   UNL d   1      -1.570   2.651   2.632  0.00  0.00     0.025 A 
ENDBRANCH  27  30
ENDBRANCH   2  27
TORSDOF 6
