REMARK  3 active torsions:
REMARK  status: ('A' for Active; 'I' for Inactive)
REMARK    1  A    between atoms: C_5  and  N_1 
REMARK    2  A    between atoms: C_7  and  C_5 
REMARK    3  A    between atoms: C_9  and  C_7 
ROOT
ATOM      1  N   UNL d   1       1.456  -1.014  -0.002  0.00  0.00    -0.283 N 
ATOM      2  C   UNL d   1       0.733  -0.467  -1.043  0.00  0.00     0.373 A 
ATOM      3  O   UNL d   1       0.181   0.767  -0.688  0.00  0.00    -0.259 OA
ATOM      4  C   UNL d   1       1.370  -0.148   1.063  0.00  0.00     0.073 A 
ATOM      5  C   UNL d   1       0.603   0.913   0.624  0.00  0.00     0.107 A 
ATOM      6  O   UNL d   1       0.584  -0.972  -2.149  0.00  0.00    -0.237 OA
ATOM      7  C   UNL d   1       1.879  -0.197   2.342  0.00  0.00     0.033 A 
ATOM      8  C   UNL d   1       0.303   1.986   1.438  0.00  0.00     0.040 A 
ATOM      9  C   UNL d   1       1.598   0.885   3.185  0.00  0.00     0.002 A 
ATOM     10  C   UNL d   1       0.815   1.966   2.737  0.00  0.00     0.003 A 
ENDROOT
BRANCH   1  11
ATOM     11  C   UNL d   1       2.083  -2.308  -0.028  0.00  0.00     0.218 C 
BRANCH  11  12
ATOM     12  C   UNL d   1       3.595  -2.293   0.165  0.00  0.00     0.177 C 
ATOM     13  O   UNL d   1       4.127  -2.205   1.270  0.00  0.00    -0.291 OA
BRANCH  12  14
ATOM     14  C   UNL d   1       4.461  -2.421  -1.031  0.00  0.00     0.011 A 
ATOM     15  C   UNL d   1       4.191  -1.714  -2.207  0.00  0.00     0.017 A 
ATOM     16  C   UNL d   1       5.029  -1.867  -3.315  0.00  0.00     0.025 A 
ATOM     17  C   UNL d   1       6.125  -2.728  -3.246  0.00  0.00     0.034 A 
ATOM     18  C   UNL d   1       6.406  -3.424  -2.071  0.00  0.00     0.025 A 
ATOM     19 CL   UNL d   1       7.138  -2.931  -4.621  0.00  0.00    -0.084 Cl
ATOM     20  C   UNL d   1       5.579  -3.262  -0.957  0.00  0.00     0.017 A 
ENDBRANCH  12  14
ENDBRANCH  11  12
ENDBRANCH   1  11
TORSDOF 3
