REMARK  7 active torsions:
REMARK  status: ('A' for Active; 'I' for Inactive)
REMARK    1  A    between atoms: C_5  and  C_1 
REMARK       I    between atoms: C_3  and  N_2 
REMARK    2  A    between atoms: C_6  and  C_3 
REMARK    3  A    between atoms: N_4  and  C_5 
REMARK    4  A    between atoms: C_9  and  C_6 
REMARK    5  A    between atoms: C_15  and  C_9 
REMARK    6  A    between atoms: C_10  and  C_15 
REMARK    7  A    between atoms: O_20  and  C_10 
ROOT
ATOM      1  N   UNL d   1      -3.375   1.519   0.520  0.00  0.00    -0.349 N 
ATOM      2  C   UNL d   1      -4.415   0.598   0.639  0.00  0.00     0.220 C 
ATOM      3  N   UNL d   1      -0.783   2.975   0.309  0.00  0.00     0.096 N 
ATOM      4  O   UNL d   1      -4.518  -0.120   1.637  0.00  0.00    -0.273 OA
ATOM      5  C   UNL d   1      -2.905   2.036  -0.775  0.00  0.00     0.156 C 
ATOM      6  C   UNL d   1      -2.352   1.428   1.569  0.00  0.00     0.156 C 
ATOM      7  C   UNL d   1      -1.885   3.193  -0.653  0.00  0.00     0.292 C 
ATOM      8  C   UNL d   1      -1.391   2.627   1.612  0.00  0.00     0.292 C 
ENDROOT
BRANCH   2   9
ATOM      9  C   UNL d   1      -5.477   0.492  -0.453  0.00  0.00     0.112 C 
BRANCH   9  10
ATOM     10  C   UNL d   1      -6.837   1.164  -0.112  0.00  0.00    -0.030 C 
ATOM     11  C   UNL d   1      -7.870   0.754  -1.187  0.00  0.00     0.016 C 
ATOM     12  C   UNL d   1      -7.387   0.648   1.240  0.00  0.00     0.016 C 
BRANCH  10  13
ATOM     13  C   UNL d   1      -6.736   2.705  -0.001  0.00  0.00     0.119 C 
BRANCH  13  14
ATOM     14  C   UNL d   1      -6.281   3.452  -1.237  0.00  0.00     0.140 C 
ATOM     15  O   UNL d   1      -6.100   2.972  -2.345  0.00  0.00    -0.650 OA
BRANCH  14  16
ATOM     16  O   UNL d   1      -6.072   4.767  -0.987  0.00  0.00    -0.776 OA
ATOM     17  H   UNL d   1      -6.262   5.028  -0.065  0.00  0.00     0.167 HD
ENDBRANCH  14  16
ENDBRANCH  13  14
ENDBRANCH  10  13
ENDBRANCH   9  10
ENDBRANCH   2   9
BRANCH   3  18
ATOM     18  C   UNL d   1       0.162   1.929  -0.120  0.00  0.00     0.316 C 
BRANCH  18  19
ATOM     19  C   UNL d   1       1.163   2.375  -1.161  0.00  0.00     0.030 A 
ATOM     20  C   UNL d   1       0.952   2.035  -2.502  0.00  0.00     0.126 A 
ATOM     21  F   UNL d   1      -0.166   1.385  -2.856  0.00  0.00    -0.205 F 
ATOM     22  C   UNL d   1       1.883   2.334  -3.497  0.00  0.00     0.043 A 
ATOM     23  C   UNL d   1       3.063   2.990  -3.163  0.00  0.00     0.005 A 
ATOM     24  C   UNL d   1       3.288   3.364  -1.838  0.00  0.00     0.024 A 
ATOM     25  C   UNL d   1       2.343   3.067  -0.845  0.00  0.00     0.045 A 
ATOM     26 CL   UNL d   1       2.719   3.552   0.771  0.00  0.00    -0.084 Cl
ENDBRANCH  18  19
ENDBRANCH   3  18
TORSDOF 7
