REMARK  1 active torsions:
REMARK  status: ('A' for Active; 'I' for Inactive)
REMARK    1  A    between atoms: N_2  and  C_1 
ROOT
ATOM      1  C   UNL d   1       0.887  -0.770   0.016  0.00  0.00     0.151 A 
ATOM      2  C   UNL d   1      -0.435  -1.143  -0.350  0.00  0.00     0.074 A 
ATOM      3  N   UNL d   1       0.906   0.534   0.346  0.00  0.00    -0.282 N 
ATOM      4  HN  UNL d   1       1.693   1.070   0.714  1.00  0.00     0.189 HD
ATOM      5  C   UNL d   1      -1.195  -0.003  -0.292  0.00  0.00     0.132 A 
ATOM      6  N   UNL d   1      -0.334   0.978   0.088  0.00  0.00    -0.305 N 
ATOM      7 BR   UNL d   1      -1.116  -2.858  -0.685  0.00  0.00    -0.045 Br
ATOM      8  C   UNL d   1      -0.642   2.380   0.234  0.00  0.00     0.177 C 
ENDROOT
BRANCH   1   9
ATOM      9  N   UNL d   1       2.028  -1.553   0.056  0.00  0.00    -0.227 N 
ATOM     10  C   UNL d   1       3.075  -1.350   0.905  0.00  0.00     0.256 A 
ATOM     11  C   UNL d   1       4.114  -2.323   0.530  0.00  0.00     0.080 A 
ATOM     12  O   UNL d   1       3.224  -0.609   1.859  0.00  0.00    -0.268 OA
ATOM     13  C   UNL d   1       3.676  -3.011  -0.522  0.00  0.00     0.080 A 
ATOM     14  C   UNL d   1       2.349  -2.492  -0.876  0.00  0.00     0.256 A 
ATOM     15  O   UNL d   1       1.788  -2.833  -1.902  0.00  0.00    -0.268 OA
ENDBRANCH   1   9
TORSDOF 1
