REMARK  4 active torsions:
REMARK  status: ('A' for Active; 'I' for Inactive)
REMARK    1  A    between atoms: C_7  and  C_1 
REMARK    2  A    between atoms: C_12  and  C_6 
REMARK    3  A    between atoms: C_9  and  C_13 
REMARK       I    between atoms: N_22  and  C_9 
REMARK    4  A    between atoms: N_10  and  C_12 
ROOT
ATOM      1  C   UNL d   1      -0.729  -3.512  -2.804  0.00  0.00     0.144 A 
ATOM      2  N   UNL d   1       0.011  -2.466  -2.304  0.00  0.00    -0.321 N 
ATOM      3  HN  UNL d   1       0.184  -1.549  -2.716  1.00  0.00     0.169 HD
ATOM      4  N   UNL d   1      -0.709  -4.619  -2.047  0.00  0.00    -0.242 N 
ATOM      5  HN  UNL d   1      -1.154  -5.518  -2.230  1.00  0.00     0.196 HD
ATOM      6  C   UNL d   1       0.440  -2.950  -1.159  0.00  0.00     0.177 A 
ATOM      7  O   UNL d   1       0.067  -4.244  -0.945  0.00  0.00    -0.221 OA
ENDROOT
BRANCH   6   8
ATOM      8  C   UNL d   1       1.109  -2.231  -0.038  0.00  0.00     0.358 C 
BRANCH   8   9
ATOM      9  N   UNL d   1       2.594  -2.259  -0.044  0.00  0.00     0.096 N 
ATOM     10  C   UNL d   1       3.124  -1.593  -1.246  0.00  0.00     0.273 C 
ATOM     11  C   UNL d   1       4.650  -1.470  -1.220  0.00  0.00     0.044 C 
ATOM     12  C   UNL d   1       5.144  -0.753   0.038  0.00  0.00     0.081 C 
ATOM     13  C   UNL d   1       4.580  -1.471   1.265  0.00  0.00     0.044 C 
ATOM     14  C   UNL d   1       3.059  -1.604   1.194  0.00  0.00     0.273 C 
BRANCH  12  15
ATOM     15  C   UNL d   1       4.794   0.735   0.043  0.00  0.00     0.219 C 
ATOM     16  O   UNL d   1       4.148   1.298   0.924  0.00  0.00    -0.273 OA
ATOM     17  N   UNL d   1       5.276   1.456  -1.006  0.00  0.00    -0.370 N 
ATOM     18  H   UNL d   1       6.008   1.108  -1.609  0.00  0.00     0.159 HD
ATOM     19  H   UNL d   1       5.125   2.457  -0.974  0.00  0.00     0.159 HD
ENDBRANCH  12  15
ENDBRANCH   8   9
ENDBRANCH   6   8
BRANCH   1  20
ATOM     20  C   UNL d   1      -1.558  -3.348  -4.036  0.00  0.00     0.050 A 
ATOM     21  S   UNL d   1      -2.620  -4.521  -4.673  0.00  0.00    -0.098 SA
ATOM     22  C   UNL d   1      -3.168  -3.449  -5.892  0.00  0.00     0.050 A 
ATOM     23  C   UNL d   1      -2.524  -2.233  -5.838  0.00  0.00     0.009 A 
ATOM     24  C   UNL d   1      -1.584  -2.179  -4.770  0.00  0.00     0.023 A 
ENDBRANCH   1  20
TORSDOF 4
