REMARK  5 active torsions:
REMARK  status: ('A' for Active; 'I' for Inactive)
REMARK    1  A    between atoms: C_2  and  S_1 
REMARK    2  A    between atoms: N_5  and  S_1 
REMARK    3  A    between atoms: C_8  and  C_4 
REMARK    4  A    between atoms: N_9  and  N_5 
REMARK    5  A    between atoms: O_17  and  C_8 
ROOT
ATOM      1  S   UNL d   1       0.955   0.158  -0.112  0.00  0.00     0.270 S 
ATOM      2  O   UNL d   1       0.397   0.005   1.214  0.00  0.00    -0.203 OA
ATOM      3  O   UNL d   1       2.386   0.103  -0.306  0.00  0.00    -0.203 OA
ENDROOT
BRANCH   1   4
ATOM      4  C   UNL d   1       0.460   1.792  -0.598  0.00  0.00     0.147 C 
ATOM      5  N   UNL d   1       0.890   2.927   0.076  0.00  0.00    -0.336 N 
ATOM      6  C   UNL d   1       0.192   4.047  -0.361  0.00  0.00     0.111 C 
ATOM      7  C   UNL d   1       1.887   2.963   1.132  0.00  0.00     0.157 C 
ATOM      8  C   UNL d   1      -0.562   3.630  -1.447  0.00  0.00     0.039 C 
ATOM      9  C   UNL d   1      -0.398   2.235  -1.592  0.00  0.00     0.046 C 
BRANCH   6  10
ATOM     10  C   UNL d   1       0.263   5.361   0.253  0.00  0.00     0.309 C 
ATOM     11  O   UNL d   1       0.971   5.670   1.202  0.00  0.00    -0.258 OA
BRANCH  10  12
ATOM     12  O   UNL d   1      -0.619   6.209  -0.354  0.00  0.00    -0.321 OA
ATOM     13  C   UNL d   1      -0.699   7.493   0.266  0.00  0.00     0.213 C 
ENDBRANCH  10  12
ENDBRANCH   6  10
ENDBRANCH   1   4
BRANCH   1  14
ATOM     14  N   UNL d   1       0.218  -1.039  -1.081  0.00  0.00    -0.144 NA
ATOM     15  H   UNL d   1       0.421  -1.959  -0.681  0.00  0.00     0.160 HD
BRANCH  14  16
ATOM     16  N   UNL d   1       0.430  -0.929  -2.485  0.00  0.00    -0.234 NA
ATOM     17  C   UNL d   1       1.825  -1.156  -2.947  0.00  0.00     0.135 C 
ATOM     18  C   UNL d   1       2.295  -2.596  -2.731  0.00  0.00     0.183 C 
ATOM     19  O   UNL d   1       1.448  -3.512  -3.438  0.00  0.00    -0.389 OA
ATOM     20  C   UNL d   1       0.080  -3.370  -3.038  0.00  0.00     0.183 C 
ATOM     21  C   UNL d   1      -0.422  -1.922  -3.195  0.00  0.00     0.135 C 
ENDBRANCH  14  16
ENDBRANCH   1  14
TORSDOF 5
