REMARK  4 active torsions:
REMARK  status: ('A' for Active; 'I' for Inactive)
REMARK    1  A    between atoms: C_4  and  C_3 
REMARK    2  A    between atoms: C_12  and  C_5 
REMARK    3  A    between atoms: C_16  and  C_6 
REMARK    4  A    between atoms: C_18  and  C_19 
ROOT
ATOM      1  N   UNL d   1       1.165  -0.505   0.536  0.00  0.00    -0.347 N 
ATOM      2  HN  UNL d   1       1.939  -0.998   0.982  1.00  0.00     0.167 HD
ATOM      3  C   UNL d   1       1.059   0.871   0.430  0.00  0.00     0.076 A 
ATOM      4  C   UNL d   1       0.122  -1.087  -0.021  0.00  0.00     0.084 A 
ATOM      5  S   UNL d   1      -1.046   0.009  -0.674  0.00  0.00    -0.081 SA
ATOM      6  C   UNL d   1      -0.078   1.333  -0.188  0.00  0.00     0.084 A 
ENDROOT
BRANCH   3   7
ATOM      7  C   UNL d   1       2.130   1.767   0.932  0.00  0.00     0.128 A 
ATOM      8  C   UNL d   1       3.313   1.354   1.485  0.00  0.00     0.074 A 
ATOM      9  C   UNL d   1       4.068   2.537   1.686  0.00  0.00     0.069 A 
ATOM     10  N   UNL d   1       3.323   3.612   1.379  0.00  0.00    -0.260 N 
ATOM     11  O   UNL d   1       2.121   3.127   0.893  0.00  0.00    -0.235 OA
ATOM     12  HN  UNL d   1       3.589   4.591   1.484  1.00  0.00     0.195 HD
BRANCH   9  13
ATOM     13  C   UNL d   1       5.446   2.672   2.165  0.00  0.00     0.014 A 
ATOM     14  C   UNL d   1       6.478   1.781   1.813  0.00  0.00     0.048 A 
ATOM     15  C   UNL d   1       7.773   1.952   2.319  0.00  0.00     0.048 A 
ATOM     16 CL   UNL d   1       6.274   0.464   0.706  0.00  0.00    -0.083 Cl
ATOM     17  C   UNL d   1       8.055   3.025   3.158  0.00  0.00     0.035 A 
ATOM     18  C   UNL d   1       7.059   3.932   3.499  0.00  0.00     0.025 A 
ATOM     19 CL   UNL d   1       9.650   3.233   3.765  0.00  0.00    -0.084 Cl
ATOM     20  C   UNL d   1       5.761   3.757   3.007  0.00  0.00     0.017 A 
ENDBRANCH   9  13
ENDBRANCH   3   7
BRANCH   4  21
ATOM     21  C   UNL d   1      -0.096  -2.544  -0.060  0.00  0.00    -0.002 A 
ATOM     22  C   UNL d   1       0.439  -3.356   0.948  0.00  0.00     0.015 A 
ATOM     23  C   UNL d   1       0.236  -4.744   0.945  0.00  0.00     0.009 A 
ATOM     24  C   UNL d   1      -0.496  -5.375  -0.077  0.00  0.00    -0.051 A 
ATOM     25  C   UNL d   1      -1.018  -4.553  -1.087  0.00  0.00     0.009 A 
ATOM     26  C   UNL d   1      -0.819  -3.167  -1.082  0.00  0.00     0.015 A 
BRANCH  24  27
ATOM     27  C   UNL d   1      -0.678  -6.904  -0.089  0.00  0.00    -0.024 C 
ATOM     28  C   UNL d   1      -1.480  -7.414  -1.309  0.00  0.00     0.019 C 
ATOM     29  C   UNL d   1       0.705  -7.589  -0.131  0.00  0.00     0.019 C 
ATOM     30  C   UNL d   1      -1.431  -7.370   1.175  0.00  0.00     0.019 C 
ENDBRANCH  24  27
ENDBRANCH   4  21
TORSDOF 4
