REMARK  5 active torsions:
REMARK  status: ('A' for Active; 'I' for Inactive)
REMARK       I    between atoms: C_2  and  N_1 
REMARK    1  A    between atoms: C_3  and  N_1 
REMARK    2  A    between atoms: C_7  and  N_1 
REMARK    3  A    between atoms: C_4  and  C_2 
REMARK    4  A    between atoms: C_12  and  C_5 
REMARK    5  A    between atoms: C_14  and  C_7 
ROOT
ATOM      1  N   UNL d   1       0.821  -0.216   0.111  0.00  0.00    -0.339 N 
ATOM      2  C   UNL d   1       0.055  -1.407   0.257  0.00  0.00     0.255 C 
ATOM      3  O   UNL d   1       0.621  -2.464   0.554  0.00  0.00    -0.267 OA
ENDROOT
BRANCH   1   4
ATOM      4  C   UNL d   1       0.274   1.161  -0.018  0.00  0.00     0.092 C 
ATOM      5  C   UNL d   1       1.080   2.287  -0.795  0.00  0.00     0.012 C 
ATOM      6  C   UNL d   1       0.321   3.655  -0.671  0.00  0.00     0.007 C 
ATOM      7  C   UNL d   1      -0.147   4.044   0.730  0.00  0.00     0.005 C 
ATOM      8  C   UNL d   1      -0.919   2.894   1.366  0.00  0.00    -0.017 C 
ATOM      9  C   UNL d   1       0.028   1.694   1.422  0.00  0.00     0.030 C 
ATOM     10  C   UNL d   1      -1.477   3.256   2.735  0.00  0.00     0.010 C 
BRANCH   5  11
ATOM     11  C   UNL d   1       1.426   2.102  -2.323  0.00  0.00    -0.017 C 
ATOM     12  C   UNL d   1       2.334   0.932  -2.696  0.00  0.00     0.010 C 
ATOM     13  C   UNL d   1       0.219   2.093  -3.264  0.00  0.00     0.010 C 
ENDBRANCH   5  11
ENDBRANCH   1   4
BRANCH   1  14
ATOM     14  C   UNL d   1       2.279  -0.399   0.209  0.00  0.00     0.165 C 
BRANCH  14  15
ATOM     15  C   UNL d   1       2.985  -0.435   1.546  0.00  0.00    -0.040 A 
ATOM     16  C   UNL d   1       2.441  -0.972   2.713  0.00  0.00     0.009 A 
ATOM     17  C   UNL d   1       3.236  -1.140   3.854  0.00  0.00     0.001 A 
ATOM     18  C   UNL d   1       4.583  -0.777   3.841  0.00  0.00     0.000 A 
ATOM     19  C   UNL d   1       5.141  -0.233   2.690  0.00  0.00     0.001 A 
ATOM     20  C   UNL d   1       4.348  -0.065   1.556  0.00  0.00     0.009 A 
ENDBRANCH  14  15
ENDBRANCH   1  14
BRANCH   2  21
ATOM     21  C   UNL d   1      -1.445  -1.509   0.070  0.00  0.00     0.043 A 
ATOM     22  C   UNL d   1      -2.016  -2.665  -0.572  0.00  0.00    -0.010 A 
ATOM     23  C   UNL d   1      -3.434  -2.806  -0.590  0.00  0.00    -0.025 A 
ATOM     24  C   UNL d   1      -1.281  -3.716  -1.180  0.00  0.00     0.013 A 
ATOM     25  C   UNL d   1      -4.042  -3.941  -1.155  0.00  0.00     0.012 A 
ATOM     26  C   UNL d   1      -4.256  -1.831  -0.021  0.00  0.00     0.012 A 
ATOM     27  C   UNL d   1      -3.279  -4.960  -1.712  0.00  0.00     0.001 A 
ATOM     28  C   UNL d   1      -1.899  -4.847  -1.727  0.00  0.00     0.001 A 
ATOM     29  C   UNL d   1      -3.703  -0.728   0.612  0.00  0.00     0.002 A 
ATOM     30  C   UNL d   1      -2.317  -0.594   0.675  0.00  0.00     0.018 A 
ENDBRANCH   2  21
TORSDOF 5
