REMARK  1 active torsions:
REMARK  status: ('A' for Active; 'I' for Inactive)
REMARK    1  A    between atoms: C_12  and  N_4 
ROOT
ATOM      1  C   UNL d   1      -0.339   0.572   0.086  0.00  0.00     0.139 A 
ATOM      2  C   UNL d   1       0.679   1.607   0.072  0.00  0.00     0.296 A 
ATOM      3  C   UNL d   1      -0.018  -0.790   0.020  0.00  0.00     0.053 A 
ATOM      4  N   UNL d   1       1.994   1.071  -0.026  0.00  0.00    -0.219 N 
ATOM      5  N   UNL d   1       2.287  -0.308  -0.113  0.00  0.00    -0.294 N 
ATOM      6  HN  UNL d   1       3.257  -0.605  -0.212  1.00  0.00     0.187 HD
ATOM      7  N   UNL d   1      -1.661   0.768   0.158  0.00  0.00    -0.255 N 
ATOM      8  HN  UNL d   1      -2.152   1.660   0.217  1.00  0.00     0.195 HD
ATOM      9  C   UNL d   1       1.347  -1.209  -0.068  0.00  0.00     0.037 A 
ATOM     10  O   UNL d   1      -2.217  -0.500   0.137  0.00  0.00    -0.241 OA
ATOM     11  C   UNL d   1      -1.227  -1.438   0.055  0.00  0.00     0.087 A 
ATOM     12  O   UNL d   1       0.387   2.797   0.113  0.00  0.00    -0.264 OA
ATOM     13  C   UNL d   1       1.727  -2.661  -0.091  0.00  0.00     0.070 C 
ATOM     14  C   UNL d   1      -1.699  -2.834   0.022  0.00  0.00     0.080 C 
ENDROOT
BRANCH   4  15
ATOM     15  C   UNL d   1       3.168   1.895   0.008  0.00  0.00     0.060 A 
ATOM     16  C   UNL d   1       3.170   3.162   0.612  0.00  0.00     0.033 A 
ATOM     17  C   UNL d   1       4.329   3.946   0.654  0.00  0.00     0.026 A 
ATOM     18  C   UNL d   1       5.505   3.477   0.080  0.00  0.00     0.034 A 
ATOM     19  C   UNL d   1       5.533   2.226  -0.527  0.00  0.00     0.026 A 
ATOM     20 CL   UNL d   1       6.926   4.444   0.128  0.00  0.00    -0.084 Cl
ATOM     21  C   UNL d   1       4.376   1.436  -0.549  0.00  0.00     0.033 A 
ENDBRANCH   4  15
TORSDOF 1
