REMARK  5 active torsions:
REMARK  status: ('A' for Active; 'I' for Inactive)
REMARK       I    between atoms: N_2  and  C_1 
REMARK    1  A    between atoms: C_3  and  C_1 
REMARK       I    between atoms: C_4  and  N_2 
REMARK       I    between atoms: N_8  and  C_4 
REMARK    2  A    between atoms: C_6  and  C_5 
REMARK       I    between atoms: N_9  and  C_6 
REMARK    3  A    between atoms: C_7  and  N_8 
REMARK    4  A    between atoms: C_18  and  N_9 
REMARK    5  A    between atoms: C_10  and  C_18 
ROOT
ATOM      1  C   UNL d   1       4.172  -5.225   2.147  0.00  0.00     0.263 C 
ATOM      2  N   UNL d   1       3.852  -4.008   1.563  0.00  0.00    -0.275 N 
ATOM      3  C   UNL d   1       2.595  -3.665   1.124  0.00  0.00     0.327 C 
ATOM      4  N   UNL d   1       2.401  -2.342   0.823  0.00  0.00    -0.308 N 
ATOM      5  O   UNL d   1       3.439  -6.207   2.131  0.00  0.00    -0.267 OA
ATOM      6  O   UNL d   1       1.610  -4.395   1.119  0.00  0.00    -0.247 OA
ATOM      7  H   UNL d   1       4.550  -3.284   1.555  0.00  0.00     0.173 HD
ATOM      8  H   UNL d   1       1.420  -2.079   0.897  0.00  0.00     0.170 HD
ENDROOT
BRANCH   4   9
ATOM      9  C   UNL d   1       3.323  -1.308   0.588  0.00  0.00     0.052 A 
ATOM     10  C   UNL d   1       3.137  -0.035   1.152  0.00  0.00     0.058 A 
ATOM     11  C   UNL d   1       3.999   1.012   0.792  0.00  0.00     0.019 A 
ATOM     12  C   UNL d   1       5.030   0.798  -0.125  0.00  0.00     0.001 A 
ATOM     13  C   UNL d   1       5.206  -0.463  -0.690  0.00  0.00     0.002 A 
ATOM     14  C   UNL d   1       4.356  -1.514  -0.337  0.00  0.00     0.030 A 
BRANCH  10  15
ATOM     15  C   UNL d   1       2.091   0.271   2.178  0.00  0.00     0.253 C 
ATOM     16  N   UNL d   1       1.731  -0.764   3.015  0.00  0.00    -0.356 N 
ATOM     17  H   UNL d   1       2.240  -1.636   2.981  0.00  0.00     0.162 HD
ATOM     18  O   UNL d   1       1.623   1.398   2.258  0.00  0.00    -0.268 OA
BRANCH  16  19
ATOM     19  C   UNL d   1       0.721  -0.636   4.037  0.00  0.00     0.127 C 
BRANCH  19  20
ATOM     20  C   UNL d   1       1.356  -0.356   5.364  0.00  0.00     0.003 A 
ATOM     21  C   UNL d   1       2.362  -1.292   5.993  0.00  0.00     0.007 A 
ATOM     22  C   UNL d   1       0.979  -1.186   6.569  0.00  0.00     0.007 A 
ENDBRANCH  19  20
ENDBRANCH  16  19
ENDBRANCH  10  15
ENDBRANCH   4   9
BRANCH   1  23
ATOM     23  C   UNL d   1       5.519  -5.360   2.789  0.00  0.00     0.075 A 
ATOM     24  C   UNL d   1       5.666  -6.170   3.937  0.00  0.00     0.051 A 
ATOM     25 CL   UNL d   1       4.335  -6.819   4.838  0.00  0.00    -0.083 Cl
ATOM     26  C   UNL d   1       6.937  -6.448   4.466  0.00  0.00     0.025 A 
ATOM     27  C   UNL d   1       8.077  -5.902   3.891  0.00  0.00     0.003 A 
ATOM     28  C   UNL d   1       7.947  -5.058   2.795  0.00  0.00     0.025 A 
ATOM     29  C   UNL d   1       6.685  -4.794   2.239  0.00  0.00     0.051 A 
ATOM     30 CL   UNL d   1       6.702  -3.772   0.846  0.00  0.00    -0.083 Cl
ENDBRANCH   1  23
TORSDOF 5
