REMARK  5 active torsions:
REMARK  status: ('A' for Active; 'I' for Inactive)
REMARK    1  A    between atoms: C_16  and  N_3 
REMARK    2  A    between atoms: C_4  and  O_14 
REMARK    3  A    between atoms: C_10  and  C_5 
REMARK    4  A    between atoms: C_17  and  N_6 
REMARK    5  A    between atoms: O_14  and  C_10 
ROOT
ATOM      1  C   UNL d   1      -2.369   0.006  -0.249  0.00  0.00     0.320 C 
ATOM      2  O   UNL d   1      -2.894  -0.942  -0.823  0.00  0.00    -0.257 OA
ENDROOT
BRANCH   1   3
ATOM      3  C   UNL d   1      -0.926   0.096  -0.017  0.00  0.00     0.149 A 
ATOM      4  N   UNL d   1      -0.330   1.069   0.704  0.00  0.00    -0.272 N 
ATOM      5  N   UNL d   1       0.994   0.797   0.544  0.00  0.00    -0.196 N 
ATOM      6  HN  UNL d   1      -0.764   1.823   1.236  1.00  0.00     0.189 HD
ATOM      7  N   UNL d   1       1.286  -0.287  -0.214  0.00  0.00    -0.281 N 
ATOM      8  C   UNL d   1       0.077  -0.754  -0.545  0.00  0.00     0.058 A 
ATOM      9  HN  UNL d   1       2.202  -0.656  -0.470  1.00  0.00     0.189 HD
ATOM     10  C   UNL d   1      -0.032  -1.984  -1.363  0.00  0.00     0.072 C 
BRANCH   5  11
ATOM     11  C   UNL d   1       2.025   1.560   1.150  0.00  0.00     0.074 A 
ATOM     12  C   UNL d   1       1.727   2.565   2.078  0.00  0.00     0.033 A 
ATOM     13  C   UNL d   1       2.770   3.251   2.709  0.00  0.00     0.002 A 
ATOM     14  C   UNL d   1       4.100   2.952   2.403  0.00  0.00     0.000 A 
ATOM     15  C   UNL d   1       4.396   1.973   1.457  0.00  0.00     0.002 A 
ATOM     16  C   UNL d   1       3.364   1.275   0.834  0.00  0.00     0.033 A 
ENDBRANCH   5  11
ENDBRANCH   1   3
BRANCH   1  17
ATOM     17  O   UNL d   1      -3.027   1.117   0.188  0.00  0.00    -0.254 OA
BRANCH  17  18
ATOM     18  C   UNL d   1      -3.964   1.639  -0.599  0.00  0.00     0.175 A 
ATOM     19  N   UNL d   1      -4.718   2.754  -0.220  0.00  0.00    -0.234 N 
ATOM     20  N   UNL d   1      -5.449   3.225  -1.273  0.00  0.00    -0.296 N 
ATOM     21  C   UNL d   1      -5.157   2.428  -2.298  0.00  0.00     0.026 A 
ATOM     22  HN  UNL d   1      -6.086   4.022  -1.273  1.00  0.00     0.187 HD
ATOM     23  C   UNL d   1      -4.324   1.369  -1.907  0.00  0.00     0.084 A 
ATOM     24  C   UNL d   1      -5.634   2.757  -3.662  0.00  0.00     0.070 C 
BRANCH  19  25
ATOM     25  C   UNL d   1      -4.768   3.459   1.026  0.00  0.00     0.059 A 
ATOM     26  C   UNL d   1      -3.977   3.107   2.127  0.00  0.00     0.031 A 
ATOM     27  C   UNL d   1      -4.037   3.857   3.308  0.00  0.00     0.002 A 
ATOM     28  C   UNL d   1      -4.890   4.954   3.407  0.00  0.00     0.000 A 
ATOM     29  C   UNL d   1      -5.694   5.303   2.328  0.00  0.00     0.002 A 
ATOM     30  C   UNL d   1      -5.635   4.562   1.145  0.00  0.00     0.031 A 
ENDBRANCH  19  25
ENDBRANCH  17  18
ENDBRANCH   1  17
TORSDOF 5
