REMARK  3 active torsions:
REMARK  status: ('A' for Active; 'I' for Inactive)
REMARK    1  A    between atoms: C_2  and  S_1 
REMARK    2  A    between atoms: N_5  and  S_1 
REMARK    3  A    between atoms: C_9  and  N_5 
ROOT
ATOM      1  S   UNL d   1       0.922  -0.077   0.059  0.00  0.00     0.264 S 
ATOM      2  O   UNL d   1       0.568  -1.480   0.023  0.00  0.00    -0.200 OA
ATOM      3  O   UNL d   1       0.579   0.705   1.229  0.00  0.00    -0.200 OA
ENDROOT
BRANCH   1   4
ATOM      4  C   UNL d   1       0.301   0.768  -1.440  0.00  0.00     0.092 C 
ATOM      5  C   UNL d   1      -0.433   0.038  -2.423  0.00  0.00    -0.032 C 
ATOM      6  C   UNL d   1      -0.701   0.639  -3.686  0.00  0.00    -0.048 C 
ATOM      7  C   UNL d   1      -0.974  -1.351  -2.173  0.00  0.00     0.050 C 
ATOM      8  C   UNL d   1      -1.333  -0.155  -4.817  0.00  0.00     0.049 C 
ATOM      9  C   UNL d   1      -0.413   2.008  -3.902  0.00  0.00    -0.049 C 
ATOM     10  C   UNL d   1       0.223   2.763  -2.887  0.00  0.00    -0.048 C 
ATOM     11  C   UNL d   1      -0.832   2.645  -5.214  0.00  0.00     0.049 C 
ATOM     12  C   UNL d   1       0.570   2.154  -1.642  0.00  0.00    -0.032 C 
ATOM     13  C   UNL d   1       0.519   4.226  -3.156  0.00  0.00     0.049 C 
ATOM     14  C   UNL d   1       1.160   3.059  -0.585  0.00  0.00     0.050 C 
ENDBRANCH   1   4
BRANCH   1  15
ATOM     15  N   UNL d   1       2.582  -0.132  -0.158  0.00  0.00    -0.279 N 
ATOM     16  H   UNL d   1       2.939  -1.087  -0.200  0.00  0.00     0.179 HD
BRANCH  15  17
ATOM     17  C   UNL d   1       3.487   0.895   0.214  0.00  0.00     0.064 A 
ATOM     18  C   UNL d   1       4.322   1.473  -0.757  0.00  0.00     0.062 A 
ATOM     19  C   UNL d   1       5.334   2.362  -0.389  0.00  0.00     0.050 A 
ATOM     20 CL   UNL d   1       4.128   1.111  -2.437  0.00  0.00    -0.082 Cl
ATOM     21  C   UNL d   1       5.537   2.649   0.958  0.00  0.00     0.035 A 
ATOM     22  C   UNL d   1       4.729   2.068   1.936  0.00  0.00     0.026 A 
ATOM     23 CL   UNL d   1       6.816   3.703   1.419  0.00  0.00    -0.084 Cl
ATOM     24  C   UNL d   1       3.708   1.185   1.563  0.00  0.00     0.033 A 
ENDBRANCH  15  17
ENDBRANCH   1  15
TORSDOF 3
