REMARK  8 active torsions:
REMARK  status: ('A' for Active; 'I' for Inactive)
REMARK       I    between atoms: N_6  and  C_1 
REMARK    1  A    between atoms: O_9  and  C_1 
REMARK    2  A    between atoms: C_2  and  O_8 
REMARK       I    between atoms: N_7  and  C_2 
REMARK    3  A    between atoms: C_4  and  C_13 
REMARK    4  A    between atoms: C_12  and  C_5 
REMARK    5  A    between atoms: C_14  and  N_6 
REMARK    6  A    between atoms: C_15  and  N_7 
REMARK    7  A    between atoms: O_8  and  C_12 
REMARK    8  A    between atoms: C_13  and  O_9 
ROOT
ATOM      1  C   UNL d   1      -1.826   1.676   2.851  0.00  0.00     0.133 A 
ATOM      2  C   UNL d   1      -1.770   0.375   2.343  0.00  0.00     0.005 A 
ATOM      3  C   UNL d   1      -2.264   1.946   4.155  0.00  0.00     0.005 A 
ATOM      4  F   UNL d   1      -1.434   2.695   2.071  0.00  0.00    -0.205 F 
ATOM      5  C   UNL d   1      -2.158  -0.684   3.172  0.00  0.00     0.012 A 
ATOM      6  C   UNL d   1      -2.627   0.869   4.973  0.00  0.00     0.012 A 
ATOM      7  C   UNL d   1      -2.580  -0.438   4.480  0.00  0.00     0.001 A 
ENDROOT
BRANCH   2   8
ATOM      8  C   UNL d   1      -1.298   0.127   0.935  0.00  0.00     0.222 C 
BRANCH   8   9
ATOM      9  O   UNL d   1      -2.166   0.721  -0.042  0.00  0.00    -0.299 OA
BRANCH   9  10
ATOM     10  C   UNL d   1      -3.303   0.024  -0.298  0.00  0.00     0.365 C 
ATOM     11  N   UNL d   1      -4.014   0.690  -1.260  0.00  0.00    -0.303 N 
ATOM     12  H   UNL d   1      -3.523   1.470  -1.667  0.00  0.00     0.171 HD
ATOM     13  O   UNL d   1      -3.589  -1.036   0.237  0.00  0.00    -0.238 OA
BRANCH  11  14
ATOM     14  C   UNL d   1      -5.284   0.353  -1.760  0.00  0.00     0.036 A 
ATOM     15  C   UNL d   1      -6.121  -0.584  -1.148  0.00  0.00     0.031 A 
ATOM     16  C   UNL d   1      -7.377  -0.877  -1.688  0.00  0.00     0.026 A 
ATOM     17  C   UNL d   1      -7.798  -0.235  -2.848  0.00  0.00     0.034 A 
ATOM     18  C   UNL d   1      -6.980   0.709  -3.463  0.00  0.00     0.026 A 
ATOM     19 CL   UNL d   1      -9.336  -0.608  -3.521  0.00  0.00    -0.084 Cl
ATOM     20  C   UNL d   1      -5.729   1.011  -2.913  0.00  0.00     0.031 A 
ENDBRANCH  11  14
ENDBRANCH   9  10
ENDBRANCH   8   9
ENDBRANCH   2   8
BRANCH   3  21
ATOM     21  C   UNL d   1      -2.221   3.366   4.653  0.00  0.00     0.222 C 
BRANCH  21  22
ATOM     22  O   UNL d   1      -3.249   3.645   5.617  0.00  0.00    -0.299 OA
BRANCH  22  23
ATOM     23  C   UNL d   1      -2.825   4.105   6.816  0.00  0.00     0.365 C 
ATOM     24  N   UNL d   1      -3.792   4.606   7.646  0.00  0.00    -0.303 N 
ATOM     25  H   UNL d   1      -3.377   4.944   8.505  0.00  0.00     0.171 HD
ATOM     26  O   UNL d   1      -1.653   4.122   7.182  0.00  0.00    -0.238 OA
BRANCH  24  27
ATOM     27  C   UNL d   1      -5.179   4.780   7.504  0.00  0.00     0.036 A 
ATOM     28  C   UNL d   1      -5.932   4.377   6.400  0.00  0.00     0.031 A 
ATOM     29  C   UNL d   1      -7.316   4.596   6.364  0.00  0.00     0.026 A 
ATOM     30  C   UNL d   1      -7.953   5.221   7.432  0.00  0.00     0.034 A 
ATOM     31  C   UNL d   1      -7.218   5.636   8.537  0.00  0.00     0.026 A 
ATOM     32 CL   UNL d   1      -9.653   5.479   7.389  0.00  0.00    -0.084 Cl
ATOM     33  C   UNL d   1      -5.838   5.414   8.570  0.00  0.00     0.031 A 
ENDBRANCH  24  27
ENDBRANCH  22  23
ENDBRANCH  21  22
ENDBRANCH   3  21
TORSDOF 8
