REMARK  7 active torsions:
REMARK  status: ('A' for Active; 'I' for Inactive)
REMARK    1  A    between atoms: N_5  and  C_1 
REMARK    2  A    between atoms: C_4  and  C_7 
REMARK       I    between atoms: C_8  and  N_6 
REMARK    3  A    between atoms: C_26  and  C_8 
REMARK    4  A    between atoms: C_11  and  C_27 
REMARK    5  A    between atoms: O_25  and  C_11 
REMARK    6  A    between atoms: S_19  and  C_26 
REMARK    7  A    between atoms: C_27  and  S_19 
ROOT
ATOM      1  N   UNL d   1       0.089   2.814   0.168  0.00  0.00    -0.253 NA
ATOM      2  N   UNL d   1      -0.017   5.795   0.243  0.00  0.00    -0.350 N 
ATOM      3  C   UNL d   1      -1.137   6.622   0.194  0.00  0.00     0.229 C 
ATOM      4  C   UNL d   1      -0.232   3.617  -1.033  0.00  0.00     0.118 C 
ATOM      5  C   UNL d   1       0.355   5.039  -0.960  0.00  0.00     0.140 C 
ATOM      6  O   UNL d   1      -1.768   6.770  -0.857  0.00  0.00    -0.273 OA
ATOM      7  C   UNL d   1       0.168   4.231   2.205  0.00  0.00     0.035 C 
ATOM      8  C   UNL d   1      -0.630   3.226   1.384  0.00  0.00     0.100 C 
ATOM      9  C   UNL d   1       0.719   5.439   1.453  0.00  0.00     0.127 C 
ENDROOT
BRANCH   1  10
ATOM     10  C   UNL d   1      -0.077   1.433  -0.035  0.00  0.00     0.160 A 
ATOM     11  N   UNL d   1       0.277   0.611   0.968  0.00  0.00    -0.329 N 
ATOM     12  C   UNL d   1       0.063  -0.723   0.831  0.00  0.00     0.120 A 
ATOM     13  HN  UNL d   1       0.700   0.984   1.818  1.00  0.00     0.168 HD
ATOM     14  C   UNL d   1      -0.500  -1.252  -0.313  0.00  0.00     0.051 A 
ATOM     15  C   UNL d   1      -0.802  -0.350  -1.299  0.00  0.00     0.093 A 
ATOM     16  N   UNL d   1      -0.592   0.973  -1.185  0.00  0.00    -0.343 N 
ATOM     17  HN  UNL d   1      -0.817   1.608  -1.951  1.00  0.00     0.167 HD
BRANCH  12  18
ATOM     18  C   UNL d   1       0.419  -1.654   1.975  0.00  0.00     0.432 C 
ATOM     19  F   UNL d   1       1.030  -1.047   3.031  0.00  0.00    -0.165 F 
ATOM     20  F   UNL d   1      -0.679  -2.281   2.491  0.00  0.00    -0.165 F 
ATOM     21  F   UNL d   1       1.259  -2.659   1.587  0.00  0.00    -0.165 F 
ENDBRANCH  12  18
ENDBRANCH   1  10
BRANCH   3  22
ATOM     22  C   UNL d   1      -1.535   7.321   1.494  0.00  0.00     0.177 C 
BRANCH  22  23
ATOM     23  S   UNL d   1      -2.940   8.488   1.329  0.00  0.00    -0.149 SA
BRANCH  23  24
ATOM     24  C   UNL d   1      -4.268   7.335   0.843  0.00  0.00     0.184 C 
BRANCH  24  25
ATOM     25  C   UNL d   1      -4.516   6.315   1.929  0.00  0.00     0.149 C 
ATOM     26  O   UNL d   1      -4.409   5.107   1.778  0.00  0.00    -0.649 OA
BRANCH  25  27
ATOM     27  O   UNL d   1      -4.850   6.869   3.121  0.00  0.00    -0.776 OA
ATOM     28  H   UNL d   1      -4.814   7.848   3.091  0.00  0.00     0.167 HD
ENDBRANCH  25  27
ENDBRANCH  24  25
ENDBRANCH  23  24
ENDBRANCH  22  23
ENDBRANCH   3  22
TORSDOF 7
