REMARK  3 active torsions:
REMARK  status: ('A' for Active; 'I' for Inactive)
REMARK       I    between atoms: N_2  and  C_1 
REMARK    1  A    between atoms: C_4  and  C_1 
REMARK       I    between atoms: C_3  and  N_2 
REMARK       I    between atoms: N_8  and  C_3 
REMARK    2  A    between atoms: C_7  and  C_12 
REMARK    3  A    between atoms: C_18  and  N_8 
ROOT
ATOM      1  C   UNL d   1       0.847  -0.286  -4.851  0.00  0.00     0.261 C 
ATOM      2  N   UNL d   1       0.318  -0.497  -3.594  0.00  0.00    -0.275 N 
ATOM      3  C   UNL d   1       0.943  -0.523  -2.370  0.00  0.00     0.327 C 
ATOM      4  N   UNL d   1       2.289  -0.277  -2.379  0.00  0.00    -0.309 N 
ATOM      5  O   UNL d   1       2.014   0.056  -5.040  0.00  0.00    -0.267 OA
ATOM      6  O   UNL d   1       0.247  -0.772  -1.390  0.00  0.00    -0.247 OA
ATOM      7  H   UNL d   1      -0.653  -0.767  -3.510  0.00  0.00     0.173 HD
ATOM      8  H   UNL d   1       2.661   0.061  -3.263  0.00  0.00     0.170 HD
ENDROOT
BRANCH   4   9
ATOM      9  C   UNL d   1       3.190  -0.469  -1.318  0.00  0.00     0.036 A 
ATOM     10  C   UNL d   1       2.835  -1.083  -0.117  0.00  0.00     0.030 A 
ATOM     11  C   UNL d   1       3.793  -1.323   0.873  0.00  0.00     0.016 A 
ATOM     12  C   UNL d   1       5.129  -0.946   0.691  0.00  0.00    -0.001 A 
ATOM     13  C   UNL d   1       5.477  -0.310  -0.509  0.00  0.00     0.016 A 
ATOM     14  C   UNL d   1       4.519  -0.077  -1.506  0.00  0.00     0.030 A 
BRANCH  12  15
ATOM     15  C   UNL d   1       6.113  -1.229   1.724  0.00  0.00     0.102 A 
ATOM     16  O   UNL d   1       7.409  -0.843   1.490  0.00  0.00    -0.304 OA
ATOM     17  C   UNL d   1       8.079  -1.238   2.605  0.00  0.00     0.233 A 
ATOM     18  N   UNL d   1       7.350  -1.833   3.519  0.00  0.00    -0.354 N 
ATOM     19  C   UNL d   1       6.093  -1.833   2.965  0.00  0.00     0.127 A 
ATOM     20  HN  UNL d   1       7.645  -2.206   4.422  1.00  0.00     0.166 HD
ENDBRANCH  12  15
ENDBRANCH   4   9
BRANCH   1  21
ATOM     21  C   UNL d   1      -0.104  -0.380  -5.998  0.00  0.00     0.054 A 
ATOM     22  C   UNL d   1      -1.250  -1.192  -6.033  0.00  0.00     0.049 A 
ATOM     23 CL   UNL d   1      -1.661  -2.327  -4.796  0.00  0.00    -0.083 Cl
ATOM     24  C   UNL d   1      -2.118  -1.130  -7.130  0.00  0.00     0.025 A 
ATOM     25  C   UNL d   1      -1.846  -0.284  -8.201  0.00  0.00     0.002 A 
ATOM     26  C   UNL d   1      -0.691   0.494  -8.196  0.00  0.00     0.001 A 
ATOM     27  C   UNL d   1       0.175   0.444  -7.101  0.00  0.00     0.019 A 
ENDBRANCH   1  21
TORSDOF 3
