REMARK  3 active torsions:
REMARK  status: ('A' for Active; 'I' for Inactive)
REMARK    1  A    between atoms: C_2  and  C_1 
REMARK       I    between atoms: N_5  and  C_1 
REMARK    2  A    between atoms: C_8  and  N_5 
REMARK    3  A    between atoms: O_14  and  N_6 
ROOT
ATOM      1  C   UNL d   1       0.982   0.033  -2.153  0.00  0.00     0.263 C 
ATOM      2  N   UNL d   1       0.140   0.432  -1.135  0.00  0.00    -0.322 N 
ATOM      3  O   UNL d   1       0.711  -0.259  -3.307  0.00  0.00    -0.267 OA
ATOM      4  H   UNL d   1       0.574   0.729  -0.269  0.00  0.00     0.169 HD
ENDROOT
BRANCH   2   5
ATOM      5  C   UNL d   1      -1.273   0.468  -1.183  0.00  0.00     0.036 A 
ATOM      6  C   UNL d   1      -2.018   0.023  -2.277  0.00  0.00     0.053 A 
ATOM      7  C   UNL d   1      -3.417   0.048  -2.246  0.00  0.00     0.042 A 
ATOM      8 CL   UNL d   1      -4.265  -0.543  -3.633  0.00  0.00    -0.084 Cl
ATOM      9  C   UNL d   1      -4.103   0.524  -1.121  0.00  0.00    -0.040 A 
ATOM     10  C   UNL d   1      -3.353   0.973  -0.026  0.00  0.00     0.011 A 
ATOM     11  C   UNL d   1      -5.605   0.553  -1.063  0.00  0.00     0.050 C 
ATOM     12  C   UNL d   1      -1.952   0.942  -0.058  0.00  0.00     0.030 A 
ENDBRANCH   2   5
BRANCH   1  13
ATOM     13  C   UNL d   1       2.414  -0.111  -1.713  0.00  0.00     0.188 C 
ATOM     14  N   UNL d   1       3.326   0.695  -2.145  0.00  0.00    -0.275 N 
ATOM     15  HN  UNL d   1       3.172   1.490  -2.766  1.00  0.00     0.193 HD
BRANCH  14  16
ATOM     16  O   UNL d   1       4.561   0.296  -1.619  0.00  0.00    -0.290 OA
ATOM     17  H   UNL d   1       5.195   0.815  -2.152  0.00  0.00     0.244 HD
ENDBRANCH  14  16
ENDBRANCH   1  13
TORSDOF 3
