REMARK  5 active torsions:
REMARK  status: ('A' for Active; 'I' for Inactive)
REMARK    1  A    between atoms: C_5  and  C_1 
REMARK    2  A    between atoms: N_9  and  C_2 
REMARK    3  A    between atoms: C_8  and  C_11 
REMARK       I    between atoms: C_10  and  N_9 
REMARK    4  A    between atoms: O_16  and  C_10 
REMARK    5  A    between atoms: C_11  and  O_16 
ROOT
ATOM      1  C   UNL d   1      -1.605  -0.976   0.210  0.00  0.00     0.098 A 
ATOM      2  C   UNL d   1      -0.196  -1.264   0.160  0.00  0.00     0.098 A 
ATOM      3  N   UNL d   1      -1.811   0.314   0.504  0.00  0.00    -0.258 N 
ATOM      4  HN  UNL d   1      -2.710   0.785   0.597  1.00  0.00     0.195 HD
ATOM      5  C   UNL d   1       0.403  -0.071   0.485  0.00  0.00     0.101 A 
ATOM      6  O   UNL d   1      -0.567   0.873   0.655  0.00  0.00    -0.240 OA
ATOM      7  C   UNL d   1       1.765   0.387   0.817  0.00  0.00     0.081 C 
ENDROOT
BRANCH   2   8
ATOM      8  N   UNL d   1       0.342  -2.526  -0.052  0.00  0.00    -0.298 N 
ATOM      9  C   UNL d   1       1.551  -2.950  -0.510  0.00  0.00     0.365 C 
ATOM     10  O   UNL d   1       1.818  -4.148  -0.477  0.00  0.00    -0.238 OA
ATOM     11  H   UNL d   1      -0.271  -3.309   0.128  0.00  0.00     0.171 HD
BRANCH   9  12
ATOM     12  O   UNL d   1       2.314  -2.013  -1.126  0.00  0.00    -0.299 OA
BRANCH  12  13
ATOM     13  C   UNL d   1       3.384  -2.573  -1.913  0.00  0.00     0.224 C 
BRANCH  13  14
ATOM     14  C   UNL d   1       4.712  -2.721  -1.209  0.00  0.00     0.026 A 
ATOM     15  C   UNL d   1       4.918  -2.273   0.100  0.00  0.00     0.126 A 
ATOM     16  F   UNL d   1       3.918  -1.730   0.802  0.00  0.00    -0.205 F 
ATOM     17  C   UNL d   1       6.156  -2.369   0.732  0.00  0.00     0.043 A 
ATOM     18  C   UNL d   1       7.236  -2.930   0.062  0.00  0.00     0.005 A 
ATOM     19  C   UNL d   1       7.063  -3.402  -1.236  0.00  0.00     0.024 A 
ATOM     20  C   UNL d   1       5.814  -3.301  -1.864  0.00  0.00     0.045 A 
ATOM     21 CL   UNL d   1       5.692  -3.915  -3.478  0.00  0.00    -0.084 Cl
ENDBRANCH  13  14
ENDBRANCH  12  13
ENDBRANCH   9  12
ENDBRANCH   2   8
BRANCH   1  22
ATOM     22  C   UNL d   1      -2.722  -1.888  -0.051  0.00  0.00     0.038 A 
ATOM     23  C   UNL d   1      -2.876  -3.081   0.685  0.00  0.00     0.048 A 
ATOM     24 CL   UNL d   1      -1.866  -3.496   2.032  0.00  0.00    -0.083 Cl
ATOM     25  C   UNL d   1      -3.875  -4.007   0.360  0.00  0.00     0.025 A 
ATOM     26  C   UNL d   1      -4.770  -3.742  -0.669  0.00  0.00     0.003 A 
ATOM     27  C   UNL d   1      -4.666  -2.548  -1.377  0.00  0.00     0.025 A 
ATOM     28  C   UNL d   1      -3.646  -1.632  -1.083  0.00  0.00     0.048 A 
ATOM     29 CL   UNL d   1      -3.576  -0.224  -2.092  0.00  0.00    -0.083 Cl
ENDBRANCH   1  22
TORSDOF 5
