REMARK  5 active torsions:
REMARK  status: ('A' for Active; 'I' for Inactive)
REMARK    1  A    between atoms: N_3  and  S_1 
REMARK    2  A    between atoms: C_12  and  S_1 
REMARK    3  A    between atoms: C_2  and  O_13 
REMARK    4  A    between atoms: C_14  and  N_3 
REMARK    5  A    between atoms: O_13  and  C_15 
ROOT
ATOM      1  C   UNL d   1       2.997   2.315  -6.515  0.00  0.00     0.117 A 
ATOM      2  N   UNL d   1       3.426   0.717  -9.670  0.00  0.00    -0.191 NA
ATOM      3  N   UNL d   1       1.617   3.702  -3.509  0.00  0.00    -0.191 NA
ATOM      4  C   UNL d   1       3.816   2.311  -7.659  0.00  0.00     0.080 A 
ATOM      5  C   UNL d   1       3.193   3.312  -5.535  0.00  0.00     0.080 A 
ATOM      6  C   UNL d   1       3.584   1.407  -8.756  0.00  0.00     0.102 C 
ATOM      7  C   UNL d   1       2.307   3.512  -4.422  0.00  0.00     0.102 C 
ATOM      8  C   UNL d   1       4.882   3.220  -7.761  0.00  0.00     0.026 A 
ATOM      9  C   UNL d   1       4.287   4.183  -5.636  0.00  0.00     0.026 A 
ATOM     10  C   UNL d   1       5.134   4.132  -6.739  0.00  0.00     0.003 A 
ENDROOT
BRANCH   1  11
ATOM     11  O   UNL d   1       2.000   1.356  -6.461  0.00  0.00    -0.308 OA
BRANCH  11  12
ATOM     12  C   UNL d   1       1.727   0.730  -5.263  0.00  0.00     0.076 A 
ATOM     13  C   UNL d   1       0.392   0.386  -5.039  0.00  0.00     0.039 A 
ATOM     14  C   UNL d   1       0.002  -0.150  -3.808  0.00  0.00     0.033 A 
ATOM     15  C   UNL d   1       0.948  -0.332  -2.800  0.00  0.00     0.042 A 
ATOM     16  C   UNL d   1       2.287  -0.022  -3.031  0.00  0.00     0.033 A 
ATOM     17  C   UNL d   1       2.686   0.463  -4.279  0.00  0.00     0.039 A 
BRANCH  15  18
ATOM     18  N   UNL d   1       0.564  -0.870  -1.548  0.00  0.00    -0.281 N 
ATOM     19  H   UNL d   1       0.116  -1.782  -1.516  0.00  0.00     0.179 HD
BRANCH  18  20
ATOM     20  S   UNL d   1       0.210   0.129  -0.243  0.00  0.00     0.263 S 
ATOM     21  O   UNL d   1       1.341   0.994   0.015  0.00  0.00    -0.200 OA
ATOM     22  O   UNL d   1      -0.309  -0.745   0.790  0.00  0.00    -0.200 OA
BRANCH  20  23
ATOM     23  C   UNL d   1      -1.145   1.123  -0.823  0.00  0.00     0.079 A 
ATOM     24  C   UNL d   1      -2.459   0.663  -0.678  0.00  0.00     0.025 A 
ATOM     25  C   UNL d   1      -3.518   1.450  -1.133  0.00  0.00     0.002 A 
ATOM     26  C   UNL d   1      -3.264   2.692  -1.719  0.00  0.00     0.000 A 
ATOM     27  C   UNL d   1      -1.954   3.156  -1.839  0.00  0.00     0.002 A 
ATOM     28  C   UNL d   1      -0.891   2.379  -1.379  0.00  0.00     0.025 A 
ENDBRANCH  20  23
ENDBRANCH  18  20
ENDBRANCH  15  18
ENDBRANCH  11  12
ENDBRANCH   1  11
TORSDOF 5
