REMARK  1 active torsions:
REMARK  status: ('A' for Active; 'I' for Inactive)
REMARK    1  A    between atoms: C_7  and  C_2 
ROOT
ATOM      1  C   UNL d   1      -1.253   1.530  -0.041  0.00  0.00     0.175 C 
ATOM      2  C   UNL d   1      -2.484   0.717  -0.352  0.00  0.00     0.154 C 
ATOM      3  C   UNL d   1       0.013   0.767   0.021  0.00  0.00     0.044 A 
ATOM      4  O   UNL d   1      -1.203  -1.342  -0.083  0.00  0.00    -0.349 OA
ATOM      5  C   UNL d   1      -2.339  -0.604   0.389  0.00  0.00     0.196 C 
ATOM      6  C   UNL d   1      -0.038  -0.626  -0.026  0.00  0.00     0.082 A 
ATOM      7  C   UNL d   1       1.243   1.433   0.071  0.00  0.00     0.024 A 
ATOM      8  O   UNL d   1      -1.254   2.752   0.075  0.00  0.00    -0.291 OA
ATOM      9  C   UNL d   1       1.146  -1.359  -0.055  0.00  0.00     0.038 A 
ATOM     10  C   UNL d   1       2.436   0.700   0.051  0.00  0.00    -0.061 A 
ATOM     11  C   UNL d   1       2.378  -0.699  -0.015  0.00  0.00     0.009 A 
ATOM     12  C   UNL d   1       3.767   1.392   0.077  0.00  0.00     0.048 C 
ENDROOT
BRANCH   2  13
ATOM     13  C   UNL d   1      -3.782   1.401   0.018  0.00  0.00     0.136 C 
ATOM     14  O   UNL d   1      -4.566   0.912   0.835  0.00  0.00    -0.297 OA
ATOM     15  C   UNL d   1      -4.133   2.686  -0.690  0.00  0.00     0.091 C 
ENDBRANCH   2  13
TORSDOF 1
