REMARK  8 active torsions:
REMARK  status: ('A' for Active; 'I' for Inactive)
REMARK    1  A    between atoms: N_2  and  C_1 
REMARK    2  A    between atoms: C_3  and  C_1 
REMARK    3  A    between atoms: C_5  and  C_1 
REMARK    4  A    between atoms: N_6  and  C_1 
REMARK       I    between atoms: C_4  and  N_2 
REMARK    5  A    between atoms: C_7  and  C_4 
REMARK    6  A    between atoms: O_23  and  C_5 
REMARK    7  A    between atoms: C_11  and  N_6 
REMARK    8  A    between atoms: C_26  and  O_23 
ROOT
ATOM      1  C   UNL d   1       0.922   0.028  -0.073  0.00  0.00     0.297 C 
ENDROOT
BRANCH   1   2
ATOM      2  N   UNL d   1       0.537  -0.673   1.137  0.00  0.00    -0.313 N 
ATOM      3  C   UNL d   1      -0.772  -0.895   1.476  0.00  0.00     0.277 C 
ATOM      4  O   UNL d   1      -1.690  -0.500   0.761  0.00  0.00    -0.265 OA
ATOM      5  H   UNL d   1       1.270  -1.071   1.709  0.00  0.00     0.166 HD
BRANCH   3   6
ATOM      6  C   UNL d   1      -0.947  -1.605   2.717  0.00  0.00     0.142 A 
ATOM      7  O   UNL d   1       0.143  -1.833   3.521  0.00  0.00    -0.317 OA
ATOM      8  C   UNL d   1      -0.304  -2.473   4.631  0.00  0.00     0.143 A 
ATOM      9  C   UNL d   1      -1.661  -2.681   4.555  0.00  0.00     0.027 A 
ATOM     10  C   UNL d   1      -2.076  -2.124   3.322  0.00  0.00     0.045 A 
ENDBRANCH   3   6
ENDBRANCH   1   2
BRANCH   1  11
ATOM     11  C   UNL d   1       0.210   1.395  -0.380  0.00  0.00     0.442 C 
ATOM     12  F   UNL d   1      -0.378   1.928   0.722  0.00  0.00    -0.166 F 
ATOM     13  F   UNL d   1       1.109   2.327  -0.806  0.00  0.00    -0.166 F 
ATOM     14  F   UNL d   1      -0.738   1.321  -1.343  0.00  0.00    -0.166 F 
ENDBRANCH   1  11
BRANCH   1  15
ATOM     15  C   UNL d   1       0.610  -0.881  -1.298  0.00  0.00     0.318 C 
ATOM     16  O   UNL d   1       0.028  -1.962  -1.257  0.00  0.00    -0.260 OA
BRANCH  15  17
ATOM     17  O   UNL d   1       1.142  -0.354  -2.447  0.00  0.00    -0.318 OA
BRANCH  17  18
ATOM     18  C   UNL d   1       0.794  -1.056  -3.653  0.00  0.00     0.174 C 
ATOM     19  C   UNL d   1       1.735  -2.222  -3.887  0.00  0.00     0.034 C 
ENDBRANCH  17  18
ENDBRANCH  15  17
ENDBRANCH   1  15
BRANCH   1  20
ATOM     20  N   UNL d   1       2.418   0.104   0.059  0.00  0.00    -0.348 N 
ATOM     21  H   UNL d   1       2.857   0.173  -0.862  0.00  0.00     0.163 HD
BRANCH  20  22
ATOM     22  C   UNL d   1       3.108   0.853   1.009  0.00  0.00     0.032 A 
ATOM     23  C   UNL d   1       2.516   1.513   2.090  0.00  0.00     0.054 A 
ATOM     24  C   UNL d   1       3.288   2.159   3.068  0.00  0.00     0.058 A 
ATOM     25 CL   UNL d   1       2.449   2.964   4.348  0.00  0.00    -0.082 Cl
ATOM     26  C   UNL d   1       4.681   2.125   2.996  0.00  0.00     0.055 A 
ATOM     27  C   UNL d   1       5.292   1.451   1.941  0.00  0.00     0.028 A 
ATOM     28 CL   UNL d   1       5.695   2.876   4.173  0.00  0.00    -0.083 Cl
ATOM     29  C   UNL d   1       4.511   0.821   0.965  0.00  0.00     0.031 A 
ENDBRANCH  20  22
ENDBRANCH   1  20
TORSDOF 8
