REMARK  4 active torsions:
REMARK  status: ('A' for Active; 'I' for Inactive)
REMARK    1  A    between atoms: C_2  and  C_1 
REMARK       I    between atoms: C_7  and  N_3 
REMARK    2  A    between atoms: C_12  and  C_4 
REMARK    3  A    between atoms: C_14  and  C_7 
REMARK    4  A    between atoms: O_20  and  C_12 
ROOT
ATOM      1  C   UNL d   1       0.360  -2.646  -0.041  0.00  0.00     0.076 C 
ATOM      2  N   UNL d   1      -0.055  -3.615  -0.946  0.00  0.00    -0.219 N 
ATOM      3  C   UNL d   1      -0.683  -3.443  -2.197  0.00  0.00     0.277 C 
ATOM      4  N   UNL d   1       0.351  -4.862  -0.563  0.00  0.00    -0.302 N 
ATOM      5  HN  UNL d   1       0.098  -5.759  -0.978  1.00  0.00     0.186 HD
ATOM      6  C   UNL d   1       1.217  -3.282   0.832  0.00  0.00     0.051 C 
ATOM      7  C   UNL d   1       1.153  -4.640   0.477  0.00  0.00     0.110 C 
ATOM      8  O   UNL d   1      -0.535  -2.357  -2.759  0.00  0.00    -0.265 OA
ENDROOT
BRANCH   1   9
ATOM      9  C   UNL d   1      -0.076  -1.219   0.020  0.00  0.00     0.059 A 
ATOM     10  C   UNL d   1      -1.324  -0.626  -0.360  0.00  0.00     0.144 A 
ATOM     11  N   UNL d   1      -1.286   0.705  -0.165  0.00  0.00    -0.254 N 
ATOM     12  O   UNL d   1      -0.046   0.983   0.364  0.00  0.00    -0.241 OA
ATOM     13  HN  UNL d   1      -2.029   1.374  -0.368  1.00  0.00     0.195 HD
ATOM     14  C   UNL d   1       0.675  -0.163   0.484  0.00  0.00     0.087 A 
ATOM     15  C   UNL d   1       2.051   0.005   0.987  0.00  0.00     0.080 C 
BRANCH  10  16
ATOM     16  C   UNL d   1      -2.551  -1.284  -0.804  0.00  0.00     0.312 C 
ATOM     17  O   UNL d   1      -2.812  -2.457  -0.536  0.00  0.00    -0.258 OA
BRANCH  16  18
ATOM     18  O   UNL d   1      -3.361  -0.480  -1.556  0.00  0.00    -0.321 OA
ATOM     19  C   UNL d   1      -4.502  -1.141  -2.098  0.00  0.00     0.213 C 
ENDBRANCH  16  18
ENDBRANCH  10  16
ENDBRANCH   1   9
BRANCH   3  20
ATOM     20  C   UNL d   1      -1.553  -4.459  -2.841  0.00  0.00     0.034 A 
ATOM     21  C   UNL d   1      -2.351  -5.297  -2.057  0.00  0.00     0.017 A 
ATOM     22  C   UNL d   1      -3.284  -6.137  -2.663  0.00  0.00     0.007 A 
ATOM     23  C   UNL d   1      -3.431  -6.146  -4.055  0.00  0.00    -0.062 A 
ATOM     24  C   UNL d   1      -2.624  -5.309  -4.836  0.00  0.00     0.007 A 
ATOM     25  C   UNL d   1      -4.460  -7.038  -4.682  0.00  0.00     0.048 C 
ATOM     26  C   UNL d   1      -1.695  -4.459  -4.232  0.00  0.00     0.017 A 
ENDBRANCH   3  20
TORSDOF 4
