REMARK  5 active torsions:
REMARK  status: ('A' for Active; 'I' for Inactive)
REMARK    1  A    between atoms: C_2  and  S_1 
REMARK    2  A    between atoms: C_5  and  S_1 
REMARK    3  A    between atoms: N_13  and  C_8 
REMARK    4  A    between atoms: C_11  and  C_18 
REMARK    5  A    between atoms: C_18  and  N_13 
ROOT
ATOM      1  C   UNL d   1       0.282  -0.042   1.688  0.00  0.00     0.154 C 
ATOM      2  C   UNL d   1      -0.554   1.050   2.181  0.00  0.00     0.113 C 
ATOM      3  N   UNL d   1      -1.224   1.890   2.604  0.00  0.00    -0.191 NA
ATOM      4  C   UNL d   1       0.621  -1.130   2.403  0.00  0.00     0.092 C 
ENDROOT
BRANCH   1   5
ATOM      5  S   UNL d   1       0.844  -0.032   0.018  0.00  0.00     0.217 S 
ATOM      6  O   UNL d   1      -0.201  -0.549  -0.849  0.00  0.00    -0.216 OA
ATOM      7  O   UNL d   1       2.185  -0.595  -0.083  0.00  0.00    -0.216 OA
BRANCH   5   8
ATOM      8  C   UNL d   1       1.020   1.699  -0.368  0.00  0.00     0.065 A 
ATOM      9  C   UNL d   1       2.255   2.332  -0.187  0.00  0.00     0.025 A 
ATOM     10  C   UNL d   1       2.383   3.684  -0.514  0.00  0.00     0.025 A 
ATOM     11  C   UNL d   1       1.288   4.383  -1.024  0.00  0.00     0.034 A 
ATOM     12  C   UNL d   1       0.066   3.741  -1.224  0.00  0.00     0.025 A 
ATOM     13 CL   UNL d   1       1.449   6.049  -1.423  0.00  0.00    -0.084 Cl
ATOM     14  C   UNL d   1      -0.070   2.391  -0.904  0.00  0.00     0.025 A 
ENDBRANCH   5   8
ENDBRANCH   1   5
BRANCH   4  15
ATOM     15  N   UNL d   1       0.380  -1.434   3.739  0.00  0.00    -0.297 NA
ATOM     16  H   UNL d   1       0.617  -0.650   4.352  0.00  0.00     0.127 HD
BRANCH  15  17
ATOM     17  C   UNL d   1      -0.911  -1.968   4.179  0.00  0.00     0.118 C 
BRANCH  17  18
ATOM     18  C   UNL d   1      -0.608  -3.082   5.128  0.00  0.00    -0.023 C 
ATOM     19  C   UNL d   1      -1.009  -3.150   6.404  0.00  0.00     0.008 C 
ENDBRANCH  17  18
ENDBRANCH  15  17
ENDBRANCH   4  15
TORSDOF 5
