REMARK  4 active torsions:
REMARK  status: ('A' for Active; 'I' for Inactive)
REMARK    1  A    between atoms: C_4  and  N_1 
REMARK    2  A    between atoms: N_14  and  C_5 
REMARK    3  A    between atoms: C_12  and  C_7 
REMARK    4  A    between atoms: O_20  and  C_18 
ROOT
ATOM      1  N   UNL d   1       0.864  -0.735  -0.079  0.00  0.00    -0.237 N 
ATOM      2  N   UNL d   1       0.910   0.620  -0.164  0.00  0.00    -0.291 N 
ATOM      3  HN  UNL d   1       1.744   1.197  -0.273  1.00  0.00     0.187 HD
ATOM      4  C   UNL d   1      -0.465  -1.170   0.060  0.00  0.00     0.123 A 
ATOM      5  C   UNL d   1      -1.247  -0.042   0.005  0.00  0.00     0.081 A 
ATOM      6  C   UNL d   1      -0.354   1.048  -0.076  0.00  0.00     0.062 A 
ENDROOT
BRANCH   1   7
ATOM      7  C   UNL d   1       2.079  -1.486  -0.113  0.00  0.00     0.102 A 
ATOM      8  C   UNL d   1       3.243  -0.987   0.519  0.00  0.00     0.066 A 
ATOM      9  C   UNL d   1       4.441  -1.718   0.496  0.00  0.00     0.050 A 
ATOM     10 CL   UNL d   1       3.322   0.465   1.471  0.00  0.00    -0.082 Cl
ATOM     11  C   UNL d   1       4.492  -2.955  -0.129  0.00  0.00     0.037 A 
ATOM     12  C   UNL d   1       3.368  -3.458  -0.767  0.00  0.00     0.050 A 
ATOM     13 CL   UNL d   1       5.955  -3.857  -0.132  0.00  0.00    -0.084 Cl
ATOM     14  C   UNL d   1       2.175  -2.718  -0.789  0.00  0.00     0.066 A 
ATOM     15 CL   UNL d   1       0.962  -3.366  -1.844  0.00  0.00    -0.082 Cl
ENDBRANCH   1   7
BRANCH   4  16
ATOM     16  N   UNL d   1      -0.875  -2.439   0.306  0.00  0.00    -0.384 N 
ATOM     17  H   UNL d   1      -0.285  -3.233   0.064  0.00  0.00     0.157 HD
ATOM     18  H   UNL d   1      -1.859  -2.665   0.179  0.00  0.00     0.157 HD
ENDBRANCH   4  16
BRANCH   6  19
ATOM     19  C   UNL d   1      -0.677   2.474  -0.023  0.00  0.00    -0.005 A 
ATOM     20  C   UNL d   1       0.197   3.365   0.624  0.00  0.00     0.050 A 
ATOM     21  C   UNL d   1      -0.114   4.722   0.725  0.00  0.00     0.069 A 
ATOM     22  C   UNL d   1      -1.306   5.192   0.170  0.00  0.00     0.037 A 
ATOM     23  C   UNL d   1      -2.181   4.321  -0.478  0.00  0.00     0.004 A 
ATOM     24  C   UNL d   1      -1.869   2.964  -0.572  0.00  0.00     0.014 A 
BRANCH  21  25
ATOM     25  O   UNL d   1       0.650   5.679   1.336  0.00  0.00    -0.356 OA
ATOM     26  C   UNL d   1       1.868   5.242   1.928  0.00  0.00     0.210 C 
ENDBRANCH  21  25
ENDBRANCH   6  19
TORSDOF 4
