REMARK  4 active torsions:
REMARK  status: ('A' for Active; 'I' for Inactive)
REMARK    1  A    between atoms: C_2  and  C_1 
REMARK       I    between atoms: N_3  and  C_1 
REMARK    2  A    between atoms: C_8  and  N_3 
REMARK    3  A    between atoms: C_4  and  C_5 
REMARK    4  A    between atoms: O_11  and  C_4 
ROOT
ATOM      1  C   UNL d   1       0.952   0.402  -0.038  0.00  0.00     0.257 C 
ATOM      2  N   UNL d   1       0.136   0.188  -1.135  0.00  0.00    -0.323 N 
ATOM      3  O   UNL d   1       0.563   0.681   1.092  0.00  0.00    -0.267 OA
ATOM      4  H   UNL d   1       0.564  -0.214  -1.961  0.00  0.00     0.169 HD
ENDROOT
BRANCH   2   5
ATOM      5  C   UNL d   1      -1.271   0.287  -1.148  0.00  0.00     0.035 A 
ATOM      6  C   UNL d   1      -1.988   0.967  -0.163  0.00  0.00     0.047 A 
ATOM      7  C   UNL d   1      -3.389   0.960  -0.163  0.00  0.00     0.041 A 
ATOM      8  C   UNL d   1      -4.073   0.292  -1.184  0.00  0.00     0.018 A 
ATOM      9  C   UNL d   1      -3.362  -0.344  -2.202  0.00  0.00     0.003 A 
ATOM     10  C   UNL d   1      -1.965  -0.338  -2.189  0.00  0.00     0.029 A 
BRANCH   7  11
ATOM     11  C   UNL d   1      -4.169   1.614   0.922  0.00  0.00     0.293 C 
ATOM     12  O   UNL d   1      -5.390   1.621   0.967  0.00  0.00    -0.259 OA
BRANCH  11  13
ATOM     13  O   UNL d   1      -3.337   2.157   1.842  0.00  0.00    -0.323 OA
ATOM     14  C   UNL d   1      -3.983   2.712   2.985  0.00  0.00     0.213 C 
ENDBRANCH  11  13
ENDBRANCH   7  11
ENDBRANCH   2   5
BRANCH   1  15
ATOM     15  C   UNL d   1       2.425   0.301  -0.250  0.00  0.00     0.054 A 
ATOM     16  C   UNL d   1       3.065  -0.469  -1.230  0.00  0.00     0.049 A 
ATOM     17 CL   UNL d   1       2.235  -1.517  -2.329  0.00  0.00    -0.083 Cl
ATOM     18  C   UNL d   1       4.463  -0.444  -1.336  0.00  0.00     0.025 A 
ATOM     19  C   UNL d   1       5.229   0.330  -0.464  0.00  0.00     0.002 A 
ATOM     20  C   UNL d   1       4.607   1.074   0.531  0.00  0.00     0.001 A 
ATOM     21  C   UNL d   1       3.217   1.057   0.638  0.00  0.00     0.019 A 
ENDBRANCH   1  15
TORSDOF 4
