REMARK  5 active torsions:
REMARK  status: ('A' for Active; 'I' for Inactive)
REMARK    1  A    between atoms: C_3  and  C_1 
REMARK    2  A    between atoms: N_4  and  C_2 
REMARK       I    between atoms: C_6  and  N_5 
REMARK    3  A    between atoms: C_7  and  C_6 
REMARK    4  A    between atoms: C_11  and  C_8 
REMARK    5  A    between atoms: O_23  and  C_11 
ROOT
ATOM      1  N   UNL d   1      -1.597   2.367  -0.234  0.00  0.00    -0.267 NA
ATOM      2  N   UNL d   1      -3.738   4.364  -0.825  0.00  0.00    -0.347 N 
ATOM      3  C   UNL d   1      -3.685   5.744  -0.903  0.00  0.00     0.243 C 
ATOM      4  C   UNL d   1      -2.120   3.289   0.811  0.00  0.00     0.117 C 
ATOM      5  C   UNL d   1      -3.568   3.735   0.497  0.00  0.00     0.141 C 
ATOM      6  O   UNL d   1      -3.543   6.453   0.098  0.00  0.00    -0.268 OA
ATOM      7  C   UNL d   1      -2.358   3.090  -2.492  0.00  0.00     0.035 C 
ATOM      8  C   UNL d   1      -1.228   3.109  -1.469  0.00  0.00     0.098 C 
ATOM      9  C   UNL d   1      -3.744   3.426  -1.952  0.00  0.00     0.127 C 
ENDROOT
BRANCH   1  10
ATOM     10  C   UNL d   1      -0.681   1.385   0.169  0.00  0.00     0.097 A 
ATOM     11  C   UNL d   1      -0.892   0.469   1.204  0.00  0.00     0.086 A 
ATOM     12  C   UNL d   1       0.157  -0.420   1.553  0.00  0.00     0.021 A 
ATOM     13  C   UNL d   1       1.331  -0.460   0.825  0.00  0.00     0.018 A 
ATOM     14  C   UNL d   1       1.425   0.396  -0.240  0.00  0.00     0.089 A 
ATOM     15  N   UNL d   1       0.469   1.297  -0.550  0.00  0.00    -0.356 N 
ATOM     16  HN  UNL d   1       0.612   1.924  -1.341  1.00  0.00     0.166 HD
BRANCH  11  17
ATOM     17  C   UNL d   1      -2.164   0.303   1.984  0.00  0.00     0.420 C 
ATOM     18  F   UNL d   1      -3.283   0.871   1.460  0.00  0.00    -0.166 F 
ATOM     19  F   UNL d   1      -2.494  -1.014   2.157  0.00  0.00    -0.166 F 
ATOM     20  F   UNL d   1      -2.051   0.804   3.250  0.00  0.00    -0.166 F 
ENDBRANCH  11  17
ENDBRANCH   1  10
BRANCH   3  21
ATOM     21  C   UNL d   1      -3.806   6.383  -2.236  0.00  0.00     0.081 C 
ATOM     22  C   UNL d   1      -3.900   7.722  -2.308  0.00  0.00     0.086 C 
BRANCH  22  23
ATOM     23  C   UNL d   1      -4.018   8.353  -3.630  0.00  0.00     0.165 C 
ATOM     24  O   UNL d   1      -4.047   7.744  -4.684  0.00  0.00    -0.647 OA
BRANCH  23  25
ATOM     25  O   UNL d   1      -4.099   9.697  -3.551  0.00  0.00    -0.773 OA
ATOM     26  H   UNL d   1      -4.065  10.070  -2.653  0.00  0.00     0.167 HD
ENDBRANCH  23  25
ENDBRANCH  22  23
ENDBRANCH   3  21
TORSDOF 5
