REMARK  8 active torsions:
REMARK  status: ('A' for Active; 'I' for Inactive)
REMARK    1  A    between atoms: C_2  and  C_1 
REMARK    2  A    between atoms: N_3  and  C_1 
REMARK    3  A    between atoms: C_4  and  C_1 
REMARK    4  A    between atoms: N_5  and  C_1 
REMARK       I    between atoms: C_6  and  N_3 
REMARK    5  A    between atoms: O_13  and  C_4 
REMARK    6  A    between atoms: C_12  and  N_5 
REMARK    7  A    between atoms: C_19  and  C_6 
REMARK    8  A    between atoms: C_20  and  O_13 
ROOT
ATOM      1  C   UNL d   1       0.856   0.000  -0.022  0.00  0.00     0.296 C 
ENDROOT
BRANCH   1   2
ATOM      2  C   UNL d   1       0.108   1.336   0.350  0.00  0.00     0.442 C 
ATOM      3  F   UNL d   1      -0.471   1.917  -0.738  0.00  0.00    -0.166 F 
ATOM      4  F   UNL d   1      -0.877   1.180   1.270  0.00  0.00    -0.166 F 
ATOM      5  F   UNL d   1       0.950   2.272   0.863  0.00  0.00    -0.166 F 
ENDBRANCH   1   2
BRANCH   1   6
ATOM      6  N   UNL d   1       0.493  -0.624  -1.290  0.00  0.00    -0.319 N 
ATOM      7  C   UNL d   1      -0.805  -0.899  -1.609  0.00  0.00     0.219 C 
ATOM      8  O   UNL d   1      -1.743  -0.567  -0.887  0.00  0.00    -0.274 OA
ATOM      9  H   UNL d   1       1.262  -0.933  -1.864  0.00  0.00     0.165 HD
BRANCH   7  10
ATOM     10  C   UNL d   1      -0.985  -1.656  -2.902  0.00  0.00     0.098 C 
ATOM     11  C   UNL d   1      -0.641  -0.790  -4.098  0.00  0.00     0.014 C 
ENDBRANCH   7  10
ENDBRANCH   1   6
BRANCH   1  12
ATOM     12  C   UNL d   1       0.539  -0.997   1.130  0.00  0.00     0.318 C 
ATOM     13  O   UNL d   1       0.133  -2.144   0.970  0.00  0.00    -0.260 OA
BRANCH  12  14
ATOM     14  O   UNL d   1       0.886  -0.494   2.359  0.00  0.00    -0.318 OA
BRANCH  14  15
ATOM     15  C   UNL d   1       0.485  -1.295   3.480  0.00  0.00     0.174 C 
ATOM     16  C   UNL d   1       1.452  -2.442   3.706  0.00  0.00     0.034 C 
ENDBRANCH  14  15
ENDBRANCH  12  14
ENDBRANCH   1  12
BRANCH   1  17
ATOM     17  N   UNL d   1       2.336   0.056  -0.168  0.00  0.00    -0.348 N 
ATOM     18  H   UNL d   1       2.845  -0.661   0.336  0.00  0.00     0.163 HD
BRANCH  17  19
ATOM     19  C   UNL d   1       3.082   1.016  -0.814  0.00  0.00     0.030 A 
ATOM     20  C   UNL d   1       2.548   1.963  -1.690  0.00  0.00     0.029 A 
ATOM     21  C   UNL d   1       3.334   2.985  -2.233  0.00  0.00     0.009 A 
ATOM     22  C   UNL d   1       4.690   3.082  -1.915  0.00  0.00    -0.062 A 
ATOM     23  C   UNL d   1       5.254   2.111  -1.087  0.00  0.00     0.009 A 
ATOM     24  C   UNL d   1       5.504   4.219  -2.455  0.00  0.00     0.048 C 
ATOM     25  C   UNL d   1       4.457   1.098  -0.542  0.00  0.00     0.029 A 
ENDBRANCH  17  19
ENDBRANCH   1  17
TORSDOF 8
