REMARK  5 active torsions:
REMARK  status: ('A' for Active; 'I' for Inactive)
REMARK    1  A    between atoms: N_14  and  C_7 
REMARK    2  A    between atoms: C_12  and  C_11 
REMARK    3  A    between atoms: O_20  and  C_12 
REMARK    4  A    between atoms: C_19  and  N_14 
REMARK    5  A    between atoms: O_26  and  C_21 
ROOT
ATOM      1  S   UNL d   1      -2.530   0.836  -0.486  0.00  0.00     0.270 S 
ATOM      2  C   UNL d   1      -2.478  -0.677   0.310  0.00  0.00     0.146 C 
ATOM      3  N   UNL d   1      -1.162   1.549   0.217  0.00  0.00    -0.275 N 
ATOM      4  C   UNL d   1       0.061   0.793   0.065  0.00  0.00     0.059 A 
ATOM      5  C   UNL d   1      -1.212  -1.418   0.185  0.00  0.00     0.209 C 
ATOM      6  C   UNL d   1       0.045  -0.621   0.036  0.00  0.00     0.043 A 
ATOM      7  C   UNL d   1      -3.400  -1.065   1.204  0.00  0.00     0.118 C 
ATOM      8  C   UNL d   1       1.297   1.451   0.053  0.00  0.00     0.049 A 
ATOM      9  O   UNL d   1      -2.247   0.658  -1.895  0.00  0.00    -0.200 OA
ATOM     10  O   UNL d   1      -3.696   1.594  -0.072  0.00  0.00    -0.200 OA
ATOM     11  C   UNL d   1       2.502   0.733  -0.011  0.00  0.00     0.041 A 
ATOM     12  C   UNL d   1       1.252  -1.336  -0.049  0.00  0.00     0.019 A 
ATOM     13  O   UNL d   1      -1.172  -2.641   0.279  0.00  0.00    -0.286 OA
ATOM     14  C   UNL d   1       2.475  -0.662  -0.072  0.00  0.00     0.018 A 
ATOM     15  C   UNL d   1      -1.176   2.998   0.442  0.00  0.00     0.170 C 
ENDROOT
BRANCH   7  16
ATOM     16  N   UNL d   1      -4.530  -0.402   1.619  0.00  0.00    -0.364 N 
ATOM     17  H   UNL d   1      -4.695   0.512   1.184  0.00  0.00     0.165 HD
BRANCH  16  18
ATOM     18  C   UNL d   1      -5.428  -0.727   2.650  0.00  0.00     0.032 A 
ATOM     19  C   UNL d   1      -5.324  -1.875   3.438  0.00  0.00     0.032 A 
ATOM     20  C   UNL d   1      -6.303  -2.184   4.388  0.00  0.00     0.039 A 
ATOM     21  C   UNL d   1      -7.398  -1.345   4.587  0.00  0.00     0.068 A 
ATOM     22  C   UNL d   1      -7.501  -0.180   3.832  0.00  0.00     0.039 A 
ATOM     23  C   UNL d   1      -6.525   0.120   2.873  0.00  0.00     0.032 A 
BRANCH  21  24
ATOM     24  O   UNL d   1      -8.309  -1.796   5.499  0.00  0.00    -0.356 OA
ATOM     25  C   UNL d   1      -9.184  -0.828   6.061  0.00  0.00     0.210 C 
ENDBRANCH  21  24
ENDBRANCH  16  18
ENDBRANCH   7  16
BRANCH  11  26
ATOM     26  C   UNL d   1       3.768   1.512   0.022  0.00  0.00     0.293 C 
ATOM     27  O   UNL d   1       3.797   2.733   0.083  0.00  0.00    -0.259 OA
BRANCH  26  28
ATOM     28  O   UNL d   1       4.844   0.691  -0.001  0.00  0.00    -0.323 OA
ATOM     29  C   UNL d   1       6.094   1.382   0.062  0.00  0.00     0.213 C 
ENDBRANCH  26  28
ENDBRANCH  11  26
TORSDOF 5
