REMARK  6 active torsions:
REMARK  status: ('A' for Active; 'I' for Inactive)
REMARK    1  A    between atoms: N_4  and  S_1 
REMARK    2  A    between atoms: C_5  and  S_1 
REMARK    3  A    between atoms: C_2  and  C_7 
REMARK    4  A    between atoms: C_3  and  C_10 
REMARK    5  A    between atoms: C_17  and  N_4 
REMARK    6  A    between atoms: C_7  and  N_6 
ROOT
ATOM      1  N   UNL d   1       2.936  -1.778   1.986  0.00  0.00     0.092 N 
ATOM      2  C   UNL d   1       1.086   0.471   2.554  0.00  0.00     0.096 C 
ATOM      3  C   UNL d   1       2.588   0.560   2.797  0.00  0.00     0.056 C 
ATOM      4  C   UNL d   1       0.662  -0.985   2.749  0.00  0.00     0.056 C 
ATOM      5  C   UNL d   1       3.361  -0.373   1.875  0.00  0.00     0.275 C 
ATOM      6  C   UNL d   1       1.480  -1.957   1.890  0.00  0.00     0.275 C 
ENDROOT
BRANCH   2   7
ATOM      7  N   UNL d   1       0.695   0.918   1.202  0.00  0.00    -0.311 N 
ATOM      8  H   UNL d   1       0.836   0.292   0.411  0.00  0.00     0.172 HD
BRANCH   7   9
ATOM      9  S   UNL d   1       0.674   2.527   0.746  0.00  0.00     0.259 S 
ATOM     10  O   UNL d   1       0.521   2.519  -0.693  0.00  0.00    -0.201 OA
ATOM     11  O   UNL d   1       1.773   3.223   1.378  0.00  0.00    -0.201 OA
BRANCH   9  12
ATOM     12  C   UNL d   1      -0.839   3.130   1.448  0.00  0.00     0.079 A 
ATOM     13  C   UNL d   1      -0.828   3.661   2.741  0.00  0.00     0.026 A 
ATOM     14  C   UNL d   1      -2.008   4.168   3.287  0.00  0.00     0.018 A 
ATOM     15  C   UNL d   1      -3.200   4.163   2.542  0.00  0.00     0.048 A 
ATOM     16  C   UNL d   1      -3.183   3.660   1.230  0.00  0.00     0.018 A 
ATOM     17  C   UNL d   1      -2.006   3.147   0.681  0.00  0.00     0.026 A 
BRANCH  15  18
ATOM     18  C   UNL d   1      -4.472   4.693   3.163  0.00  0.00     0.417 C 
ATOM     19  F   UNL d   1      -5.551   4.631   2.334  0.00  0.00    -0.166 F 
ATOM     20  F   UNL d   1      -4.822   4.002   4.284  0.00  0.00    -0.166 F 
ATOM     21  F   UNL d   1      -4.365   5.995   3.544  0.00  0.00    -0.166 F 
ENDBRANCH  15  18
ENDBRANCH   9  12
ENDBRANCH   7   9
ENDBRANCH   2   7
BRANCH   1  22
ATOM     22  C   UNL d   1       3.651  -2.561   0.947  0.00  0.00     0.315 C 
BRANCH  22  23
ATOM     23  C   UNL d   1       3.430  -4.050   1.023  0.00  0.00     0.030 A 
ATOM     24  C   UNL d   1       3.967  -4.852   2.038  0.00  0.00     0.045 A 
ATOM     25 CL   UNL d   1       5.001  -4.208   3.264  0.00  0.00    -0.084 Cl
ATOM     26  C   UNL d   1       3.687  -6.224   2.085  0.00  0.00     0.024 A 
ATOM     27  C   UNL d   1       2.880  -6.816   1.113  0.00  0.00     0.005 A 
ATOM     28  C   UNL d   1       2.363  -6.038   0.083  0.00  0.00     0.043 A 
ATOM     29  C   UNL d   1       2.641  -4.674   0.046  0.00  0.00     0.126 A 
ATOM     30  F   UNL d   1       2.121  -3.949  -0.956  0.00  0.00    -0.205 F 
ENDBRANCH  22  23
ENDBRANCH   1  22
TORSDOF 6
