REMARK  4 active torsions:
REMARK  status: ('A' for Active; 'I' for Inactive)
REMARK    1  A    between atoms: O_3  and  C_1 
REMARK    2  A    between atoms: O_11  and  C_2 
REMARK    3  A    between atoms: C_6  and  O_3 
REMARK       I    between atoms: N_12  and  C_6 
REMARK    4  A    between atoms: C_14  and  O_11 
ROOT
ATOM      1  C   UNL d   1      -0.841   0.890   0.573  0.00  0.00     0.190 C 
ATOM      2  C   UNL d   1      -1.455   0.239  -0.483  0.00  0.00     0.149 C 
ATOM      3  N   UNL d   1       0.499   0.906   0.769  0.00  0.00    -0.324 N 
ATOM      4  HN  UNL d   1       0.937   1.499   1.474  1.00  0.00     0.169 HD
ATOM      5  N   UNL d   1       0.664  -0.819  -0.844  0.00  0.00    -0.347 N 
ATOM      6  HN  UNL d   1       1.235  -1.508  -1.335  1.00  0.00     0.167 HD
ATOM      7  C   UNL d   1      -0.683  -0.779  -0.990  0.00  0.00     0.045 C 
ATOM      8  C   UNL d   1       1.213   0.095  -0.021  0.00  0.00     0.079 C 
ATOM      9  C   UNL d   1      -1.330  -2.103  -1.301  0.00  0.00     0.071 C 
ATOM     10  C   UNL d   1       2.707   0.152   0.045  0.00  0.00     0.089 C 
ENDROOT
BRANCH   2  11
ATOM     11  O   UNL d   1      -2.781   0.420  -0.739  0.00  0.00    -0.304 OA
BRANCH  11  12
ATOM     12  C   UNL d   1      -3.230   0.646  -2.021  0.00  0.00     0.076 A 
ATOM     13  C   UNL d   1      -4.616   0.534  -2.164  0.00  0.00     0.038 A 
ATOM     14  C   UNL d   1      -5.233   0.760  -3.396  0.00  0.00     0.009 A 
ATOM     15  C   UNL d   1      -4.474   1.121  -4.512  0.00  0.00    -0.062 A 
ATOM     16  C   UNL d   1      -3.086   1.234  -4.374  0.00  0.00     0.009 A 
ATOM     17  C   UNL d   1      -5.158   1.362  -5.826  0.00  0.00     0.048 C 
ATOM     18  C   UNL d   1      -2.462   1.011  -3.128  0.00  0.00     0.038 A 
ENDBRANCH  11  12
ENDBRANCH   2  11
BRANCH   1  19
ATOM     19  O   UNL d   1      -1.572   1.438   1.643  0.00  0.00    -0.241 OA
BRANCH  19  20
ATOM     20  C   UNL d   1      -2.521   0.588   2.223  0.00  0.00     0.368 C 
ATOM     21  N   UNL d   1      -2.865   0.955   3.523  0.00  0.00    -0.336 N 
ATOM     22  C   UNL d   1      -1.829   1.390   4.439  0.00  0.00     0.154 C 
ATOM     23  C   UNL d   1      -4.004   0.278   4.115  0.00  0.00     0.154 C 
ATOM     24  O   UNL d   1      -3.040  -0.384   1.683  0.00  0.00    -0.238 OA
ENDBRANCH  19  20
ENDBRANCH   1  19
TORSDOF 4
