REMARK  4 active torsions:
REMARK  status: ('A' for Active; 'I' for Inactive)
REMARK    1  A    between atoms: N_2  and  S_1 
REMARK    2  A    between atoms: C_4  and  S_1 
REMARK       I    between atoms: C_3  and  N_5 
REMARK    3  A    between atoms: C_11  and  C_3 
REMARK    4  A    between atoms: N_5  and  C_12 
ROOT
ATOM      1  N   UNL d   1       0.327   1.562  -0.085  0.00  0.00    -0.206 NA
ATOM      2  C   UNL d   1       1.255   2.541   0.562  0.00  0.00     0.109 C 
ATOM      3  C   UNL d   1      -0.093   1.978  -1.458  0.00  0.00     0.109 C 
ATOM      4  C   UNL d   1       0.296   4.406  -0.853  0.00  0.00     0.086 C 
ATOM      5  C   UNL d   1       0.665   3.947   0.559  0.00  0.00     0.041 C 
ATOM      6  C   UNL d   1      -0.656   3.393  -1.481  0.00  0.00     0.041 C 
ENDROOT
BRANCH   1   7
ATOM      7  S   UNL d   1       0.945  -0.057  -0.104  0.00  0.00     0.243 S 
ATOM      8  O   UNL d   1       2.335   0.024  -0.497  0.00  0.00    -0.206 OA
ATOM      9  O   UNL d   1       0.009  -0.884  -0.840  0.00  0.00    -0.206 OA
BRANCH   7  10
ATOM     10  C   UNL d   1       0.859  -0.577   1.590  0.00  0.00     0.074 A 
ATOM     11  C   UNL d   1      -0.398  -0.751   2.179  0.00  0.00     0.026 A 
ATOM     12  C   UNL d   1      -0.487  -1.264   3.475  0.00  0.00     0.025 A 
ATOM     13  C   UNL d   1       0.675  -1.603   4.169  0.00  0.00     0.034 A 
ATOM     14  C   UNL d   1       1.929  -1.432   3.579  0.00  0.00     0.025 A 
ATOM     15 CL   UNL d   1       0.561  -2.252   5.758  0.00  0.00    -0.084 Cl
ATOM     16  C   UNL d   1       2.026  -0.919   2.283  0.00  0.00     0.026 A 
ENDBRANCH   7  10
ENDBRANCH   1   7
BRANCH   4  17
ATOM     17  N   UNL d   1       1.476   4.620  -1.690  0.00  0.00    -0.356 N 
ATOM     18  C   UNL d   1       2.205   5.793  -1.655  0.00  0.00     0.222 C 
ATOM     19  O   UNL d   1       1.850   6.770  -1.005  0.00  0.00    -0.273 OA
ATOM     20  H   UNL d   1       1.863   3.839  -2.204  0.00  0.00     0.162 HD
BRANCH  18  21
ATOM     21  C   UNL d   1       3.479   5.754  -2.512  0.00  0.00     0.078 C 
ATOM     22  C   UNL d   1       4.465   4.686  -2.017  0.00  0.00     0.014 C 
ATOM     23  C   UNL d   1       5.114   5.078  -0.692  0.00  0.00     0.001 C 
ATOM     24  C   UNL d   1       5.823   6.423  -0.798  0.00  0.00     0.000 C 
ATOM     25  C   UNL d   1       4.896   7.521  -1.310  0.00  0.00     0.001 C 
ATOM     26  C   UNL d   1       4.173   7.122  -2.598  0.00  0.00     0.014 C 
ENDBRANCH  18  21
ENDBRANCH   4  17
TORSDOF 4
