REMARK  3 active torsions:
REMARK  status: ('A' for Active; 'I' for Inactive)
REMARK    1  A    between atoms: N_9  and  C_2 
REMARK    2  A    between atoms: C_14  and  C_4 
REMARK    3  A    between atoms: C_13  and  C_10 
ROOT
ATOM      1  C   UNL d   1       0.190  -0.838   0.021  0.00  0.00     0.163 A 
ATOM      2  C   UNL d   1       1.499  -1.272   0.018  0.00  0.00     0.173 A 
ATOM      3  N   UNL d   1       0.261   0.557   0.034  0.00  0.00    -0.242 N 
ATOM      4  C   UNL d   1       2.314  -0.113   0.057  0.00  0.00     0.071 A 
ATOM      5  N   UNL d   1       1.545   0.989   0.064  0.00  0.00    -0.293 N 
ATOM      6  HN  UNL d   1       1.865   1.957   0.088  1.00  0.00     0.187 HD
ATOM      7  N   UNL d   1      -1.003  -1.510   0.015  0.00  0.00    -0.335 N 
ATOM      8  HN  UNL d   1      -1.034  -2.529   0.020  1.00  0.00     0.167 HD
ATOM      9  C   UNL d   1      -2.102  -0.798   0.005  0.00  0.00     0.120 A 
ATOM     10  C   UNL d   1      -0.913   1.328   0.015  0.00  0.00     0.034 A 
ATOM     11  C   UNL d   1      -2.108   0.708  -0.002  0.00  0.00     0.061 A 
ATOM     12  C   UNL d   1      -0.820   2.827   0.011  0.00  0.00     0.070 C 
ENDROOT
BRANCH   4  13
ATOM     13  C   UNL d   1       3.840   0.035   0.038  0.00  0.00    -0.005 C 
ATOM     14  C   UNL d   1       4.425  -0.579  -1.250  0.00  0.00     0.021 C 
ATOM     15  C   UNL d   1       4.266   1.525   0.079  0.00  0.00     0.021 C 
ATOM     16  C   UNL d   1       4.499  -0.637   1.258  0.00  0.00     0.021 C 
ENDBRANCH   4  13
BRANCH   2  17
ATOM     17  N   UNL d   1       1.869  -2.641  -0.029  0.00  0.00    -0.110 N 
ATOM     18  O   UNL d   1       1.615  -3.253  -1.073  0.00  0.00    -0.532 OA
ATOM     19  O   UNL d   1       2.427  -3.102   0.973  0.00  0.00    -0.532 OA
ENDBRANCH   2  17
BRANCH   9  20
ATOM     20  C   UNL d   1      -3.466  -1.497   0.005  0.00  0.00     0.432 C 
ATOM     21  F   UNL d   1      -4.506  -0.615   0.004  0.00  0.00    -0.165 F 
ATOM     22  F   UNL d   1      -3.641  -2.289  -1.085  0.00  0.00    -0.165 F 
ATOM     23  F   UNL d   1      -3.640  -2.285   1.101  0.00  0.00    -0.165 F 
ENDBRANCH   9  20
TORSDOF 3
