REMARK  6 active torsions:
REMARK  status: ('A' for Active; 'I' for Inactive)
REMARK    1  A    between atoms: C_6  and  C_1 
REMARK    2  A    between atoms: C_4  and  O_7 
REMARK       I    between atoms: N_9  and  C_4 
REMARK    3  A    between atoms: O_7  and  C_12 
REMARK    4  A    between atoms: C_17  and  N_9 
REMARK    5  A    between atoms: C_18  and  C_17 
REMARK    6  A    between atoms: C_19  and  C_18 
ROOT
ATOM      1  C   UNL d   1      -0.162  -2.622   0.229  0.00  0.00    -0.003 A 
ATOM      2  C   UNL d   1       0.574  -3.006   1.359  0.00  0.00     0.017 A 
ATOM      3  C   UNL d   1      -0.691  -3.619  -0.602  0.00  0.00     0.017 A 
ATOM      4  C   UNL d   1       0.304  -5.334   0.793  0.00  0.00     0.081 A 
ATOM      5  C   UNL d   1      -0.458  -4.971  -0.320  0.00  0.00     0.038 A 
ATOM      6  C   UNL d   1       0.804  -4.356   1.645  0.00  0.00     0.038 A 
ENDROOT
BRANCH   4   7
ATOM      7  O   UNL d   1       0.522  -6.726   0.947  0.00  0.00    -0.262 OA
BRANCH   7   8
ATOM      8  C   UNL d   1       1.296  -7.318   1.945  0.00  0.00     0.365 C 
ATOM      9  O   UNL d   1       1.895  -6.746   2.843  0.00  0.00    -0.238 OA
ATOM     10  N   UNL d   1       1.351  -8.684   1.845  0.00  0.00    -0.337 N 
ATOM     11  H   UNL d   1       1.951  -9.086   2.555  0.00  0.00     0.164 HD
BRANCH  10  12
ATOM     12  C   UNL d   1       1.152  -9.431   0.627  0.00  0.00     0.125 C 
BRANCH  12  13
ATOM     13  C   UNL d   1       2.346  -9.289  -0.325  0.00  0.00     0.019 C 
BRANCH  13  14
ATOM     14  C   UNL d   1       3.665  -9.739   0.313  0.00  0.00    -0.003 C 
ATOM     15  C   UNL d   1       4.835  -9.574  -0.643  0.00  0.00     0.005 C 
ENDBRANCH  13  14
ENDBRANCH  12  13
ENDBRANCH  10  12
ENDBRANCH   7   8
ENDBRANCH   4   7
BRANCH   1  16
ATOM     16  C   UNL d   1      -0.323  -1.168  -0.034  0.00  0.00     0.076 C 
ATOM     17  N   UNL d   1       0.209  -0.258   0.720  0.00  0.00    -0.383 N 
ATOM     18  C   UNL d   1      -0.157   1.086   0.234  0.00  0.00     0.131 C 
ATOM     19  HN  UNL d   1       0.797  -0.444   1.533  1.00  0.00     0.160 HD
ATOM     20  C   UNL d   1      -0.471   1.029  -1.250  0.00  0.00     0.100 C 
ATOM     21  S   UNL d   1      -1.220  -0.598  -1.427  0.00  0.00    -0.110 SA
ENDBRANCH   1  16
TORSDOF 6
