REMARK  6 active torsions:
REMARK  status: ('A' for Active; 'I' for Inactive)
REMARK    1  A    between atoms: O_12  and  C_9 
REMARK    2  A    between atoms: C_14  and  C_10 
REMARK    3  A    between atoms: C_15  and  C_14 
REMARK    4  A    between atoms: C_18  and  C_15 
REMARK    5  A    between atoms: C_16  and  C_17 
REMARK    6  A    between atoms: C_17  and  C_18 
ROOT
ATOM      1  C   UNL d   1       0.147  -0.580  -0.046  0.00  0.00     0.092 A 
ATOM      2  C   UNL d   1       0.032   0.811  -0.046  0.00  0.00     0.005 A 
ATOM      3  C   UNL d   1      -1.309   1.415  -0.037  0.00  0.00    -0.043 A 
ATOM      4  O   UNL d   1      -0.990  -1.412  -0.045  0.00  0.00    -0.275 OA
ATOM      5  C   UNL d   1      -2.263  -0.875  -0.028  0.00  0.00     0.288 A 
ATOM      6  C   UNL d   1      -2.367   0.591  -0.026  0.00  0.00     0.090 A 
ATOM      7  C   UNL d   1       1.381  -1.234  -0.041  0.00  0.00     0.075 A 
ATOM      8  C   UNL d   1       1.221   1.546  -0.041  0.00  0.00     0.024 A 
ATOM      9  C   UNL d   1       2.546  -0.475  -0.016  0.00  0.00     0.074 A 
ATOM     10  C   UNL d   1       2.485   0.920  -0.003  0.00  0.00    -0.024 A 
ATOM     11  O   UNL d   1      -3.272  -1.574  -0.017  0.00  0.00    -0.260 OA
ATOM     12  C   UNL d   1      -1.534   2.901  -0.030  0.00  0.00     0.049 C 
ENDROOT
BRANCH  10  13
ATOM     13  C   UNL d   1       3.723   1.788   0.074  0.00  0.00     0.041 C 
BRANCH  13  14
ATOM     14  C   UNL d   1       3.728   2.624   1.357  0.00  0.00     0.005 C 
BRANCH  14  15
ATOM     15  C   UNL d   1       4.944   3.542   1.445  0.00  0.00     0.000 C 
BRANCH  15  16
ATOM     16  C   UNL d   1       4.876   4.376   2.725  0.00  0.00    -0.000 C 
BRANCH  16  17
ATOM     17  C   UNL d   1       6.078   5.305   2.858  0.00  0.00    -0.005 C 
ATOM     18  C   UNL d   1       5.997   6.117   4.140  0.00  0.00     0.005 C 
ENDBRANCH  16  17
ENDBRANCH  15  16
ENDBRANCH  14  15
ENDBRANCH  13  14
ENDBRANCH  10  13
BRANCH   9  19
ATOM     19  O   UNL d   1       3.764  -1.090   0.003  0.00  0.00    -0.360 OA
ATOM     20  H   UNL d   1       3.635  -2.053  -0.029  0.00  0.00     0.217 HD
ENDBRANCH   9  19
TORSDOF 6
