REMARK  5 active torsions:
REMARK  status: ('A' for Active; 'I' for Inactive)
REMARK    1  A    between atoms: C_4  and  C_1 
REMARK       I    between atoms: C_2  and  N_3 
REMARK    2  A    between atoms: C_7  and  C_2 
REMARK    3  A    between atoms: N_3  and  C_5 
REMARK       I    between atoms: N_6  and  C_4 
REMARK    4  A    between atoms: C_13  and  N_6 
REMARK    5  A    between atoms: C_12  and  C_13 
ROOT
ATOM      1  C   UNL d   1       1.157  -0.147   0.990  0.00  0.00     0.058 A 
ATOM      2  C   UNL d   1       0.647  -1.353   0.470  0.00  0.00     0.050 A 
ATOM      3  C   UNL d   1       0.386   1.030   0.892  0.00  0.00     0.019 A 
ATOM      4  C   UNL d   1      -0.693  -1.369   0.030  0.00  0.00     0.030 A 
ATOM      5  C   UNL d   1      -0.909   1.006   0.376  0.00  0.00     0.001 A 
ATOM      6  C   UNL d   1      -1.462  -0.203  -0.018  0.00  0.00     0.002 A 
ENDROOT
BRANCH   1   7
ATOM      7  C   UNL d   1       2.410   0.016   1.783  0.00  0.00     0.254 C 
ATOM      8  N   UNL d   1       2.688  -0.984   2.693  0.00  0.00    -0.353 N 
ATOM      9  H   UNL d   1       2.089  -1.794   2.734  0.00  0.00     0.163 HD
ATOM     10  O   UNL d   1       3.063   1.050   1.693  0.00  0.00    -0.268 OA
BRANCH   8  11
ATOM     11  C   UNL d   1       3.919  -0.988   3.452  0.00  0.00     0.162 C 
BRANCH  11  12
ATOM     12  C   UNL d   1       3.727  -0.506   4.862  0.00  0.00    -0.025 A 
ATOM     13  C   UNL d   1       3.929  -1.347   5.951  0.00  0.00     0.096 A 
ATOM     14  N   UNL d   1       3.803  -0.967   7.245  0.00  0.00    -0.375 N 
ATOM     15  C   UNL d   1       3.467   0.322   7.466  0.00  0.00     0.087 A 
ATOM     16  HN  UNL d   1       3.954  -1.622   8.012  1.00  0.00     0.164 HD
ATOM     17  C   UNL d   1       3.247   1.244   6.458  0.00  0.00     0.018 A 
ATOM     18  C   UNL d   1       3.381   0.820   5.139  0.00  0.00     0.011 A 
ENDBRANCH  11  12
ENDBRANCH   8  11
ENDBRANCH   1   7
BRANCH   2  19
ATOM     19  N   UNL d   1       1.344  -2.580   0.283  0.00  0.00    -0.326 N 
ATOM     20  C   UNL d   1       2.711  -2.736   0.086  0.00  0.00     0.229 C 
ATOM     21  O   UNL d   1       3.513  -1.808   0.055  0.00  0.00    -0.272 OA
ATOM     22  H   UNL d   1       0.771  -3.349  -0.045  0.00  0.00     0.169 HD
BRANCH  20  23
ATOM     23  C   UNL d   1       3.160  -4.175  -0.257  0.00  0.00     0.030 C 
ATOM     24  C   UNL d   1       2.938  -4.394  -1.762  0.00  0.00     0.025 C 
ATOM     25  C   UNL d   1       4.663  -4.328   0.044  0.00  0.00     0.025 C 
ATOM     26  C   UNL d   1       2.409  -5.234   0.564  0.00  0.00     0.025 C 
ENDBRANCH  20  23
ENDBRANCH   2  19
TORSDOF 5
