REMARK  2 active torsions:
REMARK  status: ('A' for Active; 'I' for Inactive)
REMARK    1  A    between atoms: O_5  and  C_2 
REMARK    2  A    between atoms: C_10  and  O_5 
ROOT
ATOM      1  C   UNL d   1      -0.776  -0.312   0.918  0.00  0.00     0.165 A 
ATOM      2  C   UNL d   1       0.129  -1.260   0.451  0.00  0.00     0.186 A 
ATOM      3  C   UNL d   1      -2.191  -0.528   0.858  0.00  0.00     0.122 C 
ATOM      4  N   UNL d   1      -3.337  -0.712   0.804  0.00  0.00    -0.190 NA
ATOM      5  N   UNL d   1      -0.372   0.870   1.466  0.00  0.00    -0.353 N 
ATOM      6  HN  UNL d   1      -1.034   1.561   1.820  1.00  0.00     0.166 HD
ATOM      7  N   UNL d   1       1.471  -1.040   0.473  0.00  0.00    -0.343 N 
ATOM      8  HN  UNL d   1       2.137  -1.715   0.099  1.00  0.00     0.167 HD
ATOM      9  C   UNL d   1       0.966   1.064   1.509  0.00  0.00     0.106 A 
ATOM     10  C   UNL d   1       1.867   0.132   1.022  0.00  0.00     0.107 A 
ENDROOT
BRANCH   2  11
ATOM     11  O   UNL d   1      -0.361  -2.425  -0.116  0.00  0.00    -0.291 OA
BRANCH  11  12
ATOM     12  C   UNL d   1       0.352  -3.595   0.019  0.00  0.00     0.077 A 
ATOM     13  C   UNL d   1       1.192  -3.898   1.093  0.00  0.00     0.037 A 
ATOM     14  C   UNL d   1       1.833  -5.138   1.155  0.00  0.00     0.003 A 
ATOM     15  C   UNL d   1       1.611  -6.091   0.163  0.00  0.00     0.000 A 
ATOM     16  C   UNL d   1       0.750  -5.805  -0.895  0.00  0.00     0.003 A 
ATOM     17  C   UNL d   1       0.121  -4.560  -0.966  0.00  0.00     0.037 A 
ENDBRANCH  11  12
ENDBRANCH   2  11
TORSDOF 2
