REMARK  6 active torsions:
REMARK  status: ('A' for Active; 'I' for Inactive)
REMARK    1  A    between atoms: C_4  and  C_1 
REMARK    2  A    between atoms: O_10  and  C_4 
REMARK    3  A    between atoms: N_7  and  O_10 
REMARK    4  A    between atoms: C_11  and  C_9 
REMARK    5  A    between atoms: N_20  and  C_9 
REMARK    6  A    between atoms: C_12  and  C_13 
ROOT
ATOM      1  N   UNL d   1       3.553   0.628  -0.273  0.00  0.00    -0.246 N 
ATOM      2  HN  UNL d   1       3.457  -0.337  -0.590  1.00  0.00     0.196 HD
ATOM      3  C   UNL d   1       4.698   1.205  -0.054  0.00  0.00     0.109 C 
ENDROOT
BRANCH   3   4
ATOM      4  C   UNL d   1       5.943   0.369  -0.174  0.00  0.00     0.004 A 
ATOM      5  C   UNL d   1       6.014  -0.718  -1.047  0.00  0.00     0.015 A 
ATOM      6  C   UNL d   1       7.170  -1.520  -1.090  0.00  0.00     0.009 A 
ATOM      7  C   UNL d   1       8.275  -1.271  -0.250  0.00  0.00    -0.051 A 
ATOM      8  C   UNL d   1       8.182  -0.162   0.610  0.00  0.00     0.009 A 
ATOM      9  C   UNL d   1       7.037   0.646   0.647  0.00  0.00     0.015 A 
BRANCH   7  10
ATOM     10  C   UNL d   1       9.505  -2.204  -0.256  0.00  0.00    -0.024 C 
ATOM     11  C   UNL d   1      10.595  -1.795   0.764  0.00  0.00     0.019 C 
ATOM     12  C   UNL d   1       9.076  -3.644   0.101  0.00  0.00     0.019 C 
ATOM     13  C   UNL d   1      10.171  -2.216  -1.648  0.00  0.00     0.019 C 
ENDBRANCH   7  10
ENDBRANCH   3   4
BRANCH   3  14
ATOM     14  N   UNL d   1       4.832   2.530   0.292  0.00  0.00    -0.286 NA
ATOM     15  H   UNL d   1       3.990   3.067   0.117  0.00  0.00     0.125 HD
ATOM     16  H   UNL d   1       5.664   2.987  -0.067  0.00  0.00     0.125 HD
ENDBRANCH   3  14
BRANCH   1  17
ATOM     17  O   UNL d   1       2.447   1.488  -0.021  0.00  0.00    -0.193 OA
BRANCH  17  18
ATOM     18  C   UNL d   1       1.277   0.807  -0.302  0.00  0.00     0.323 C 
ATOM     19  O   UNL d   1       1.241  -0.293  -0.855  0.00  0.00    -0.257 OA
BRANCH  18  20
ATOM     20  C   UNL d   1       0.087   1.533   0.135  0.00  0.00     0.104 A 
ATOM     21  C   UNL d   1      -0.116   2.738   0.791  0.00  0.00     0.063 A 
ATOM     22  C   UNL d   1      -1.509   2.985   1.104  0.00  0.00    -0.032 A 
ATOM     23 CL   UNL d   1       1.108   3.860   1.239  0.00  0.00    -0.082 Cl
ATOM     24  C   UNL d   1      -2.077   4.137   1.874  0.00  0.00     0.050 C 
ATOM     25  C   UNL d   1      -2.312   1.990   0.582  0.00  0.00     0.059 A 
ATOM     26  S   UNL d   1      -1.428   0.769  -0.193  0.00  0.00    -0.094 SA
ENDBRANCH  18  20
ENDBRANCH  17  18
ENDBRANCH   1  17
TORSDOF 6
