REMARK  3 active torsions:
REMARK  status: ('A' for Active; 'I' for Inactive)
REMARK    1  A    between atoms: C_2  and  C_1 
REMARK    2  A    between atoms: C_5  and  C_1 
REMARK    3  A    between atoms: O_10  and  C_8 
ROOT
ATOM      1  C   UNL d   1       0.925   0.071  -0.176  0.00  0.00     0.194 C 
ATOM      2  N   UNL d   1       3.150  -1.334  -0.356  0.00  0.00    -0.196 NA
ATOM      3  C   UNL d   1       2.159  -0.734  -0.290  0.00  0.00     0.076 C 
ENDROOT
BRANCH   1   4
ATOM      4  C   UNL d   1       0.527   0.279   1.279  0.00  0.00    -0.031 A 
ATOM      5  C   UNL d   1       0.219  -0.821   2.105  0.00  0.00     0.045 A 
ATOM      6  C   UNL d   1      -0.110  -0.635   3.449  0.00  0.00     0.068 A 
ATOM      7  C   UNL d   1      -0.151   0.659   3.970  0.00  0.00     0.037 A 
ATOM      8  C   UNL d   1       0.135   1.759   3.163  0.00  0.00     0.003 A 
ATOM      9  C   UNL d   1       0.476   1.572   1.823  0.00  0.00     0.009 A 
BRANCH   6  10
ATOM     10  O   UNL d   1      -0.401  -1.625   4.347  0.00  0.00    -0.356 OA
ATOM     11  C   UNL d   1      -0.349  -2.964   3.869  0.00  0.00     0.210 C 
ENDBRANCH   6  10
ENDBRANCH   1   4
BRANCH   1  12
ATOM     12  C   UNL d   1      -0.211  -0.542  -0.986  0.00  0.00     0.145 C 
ATOM     13  O   UNL d   1      -0.157  -1.670  -1.480  0.00  0.00    -0.297 OA
ATOM     14  C   UNL d   1      -1.438   0.309  -1.215  0.00  0.00     0.093 C 
ENDBRANCH   1  12
TORSDOF 3
