REMARK  2 active torsions:
REMARK  status: ('A' for Active; 'I' for Inactive)
REMARK    1  A    between atoms: N_2  and  C_1 
REMARK       I    between atoms: C_3  and  N_2 
REMARK    2  A    between atoms: C_6  and  C_3 
ROOT
ATOM      1  C   UNL d   1       0.075   0.407  -0.337  0.00  0.00     0.070 A 
ATOM      2  C   UNL d   1      -1.146  -0.221  -0.040  0.00  0.00     0.039 A 
ATOM      3  C   UNL d   1       1.175  -0.400  -0.673  0.00  0.00     0.039 A 
ATOM      4  C   UNL d   1      -1.234  -1.613   0.052  0.00  0.00     0.028 A 
ATOM      5  C   UNL d   1       1.084  -1.796  -0.582  0.00  0.00     0.028 A 
ATOM      6  C   UNL d   1      -0.106  -2.409  -0.176  0.00  0.00    -0.059 A 
ATOM      7 BR   UNL d   1      -2.720   0.790   0.312  0.00  0.00    -0.049 Br
ATOM      8 BR   UNL d   1       2.768   0.298  -1.454  0.00  0.00    -0.049 Br
ATOM      9  C   UNL d   1      -0.196  -3.900  -0.039  0.00  0.00     0.048 C 
ENDROOT
BRANCH   1  10
ATOM     10  N   UNL d   1       0.132   1.825  -0.289  0.00  0.00    -0.323 N 
ATOM     11  C   UNL d   1       1.070   2.499   0.487  0.00  0.00     0.255 C 
ATOM     12  O   UNL d   1       1.946   1.931   1.141  0.00  0.00    -0.270 OA
ATOM     13  H   UNL d   1      -0.767   2.299  -0.352  0.00  0.00     0.169 HD
BRANCH  11  14
ATOM     14  C   UNL d   1       0.911   4.025   0.555  0.00  0.00     0.270 C 
ATOM     15 CL   UNL d   1      -0.339   4.637  -0.555  0.00  0.00    -0.098 Cl
ATOM     16 CL   UNL d   1       0.486   4.479   2.223  0.00  0.00    -0.098 Cl
ENDBRANCH  11  14
ENDBRANCH   1  10
TORSDOF 2
