REMARK  2 active torsions:
REMARK  status: ('A' for Active; 'I' for Inactive)
REMARK    1  A    between atoms: C_13  and  C_8 
REMARK    2  A    between atoms: C_12  and  C_9 
ROOT
ATOM      1  C   UNL d   1       0.183  -0.798   0.015  0.00  0.00     0.151 A 
ATOM      2  N   UNL d   1       0.247   0.598   0.014  0.00  0.00    -0.242 N 
ATOM      3  C   UNL d   1       1.488  -1.234   0.015  0.00  0.00     0.104 A 
ATOM      4  N   UNL d   1       1.530   1.037   0.015  0.00  0.00    -0.294 N 
ATOM      5  HN  UNL d   1       1.849   2.006   0.016  1.00  0.00     0.187 HD
ATOM      6  N   UNL d   1      -1.004  -1.482   0.012  0.00  0.00    -0.336 N 
ATOM      7  HN  UNL d   1      -1.028  -2.502   0.012  1.00  0.00     0.167 HD
ATOM      8  C   UNL d   1       2.296  -0.068   0.015  0.00  0.00     0.059 A 
ATOM      9  C   UNL d   1      -2.104  -0.775   0.009  0.00  0.00     0.120 A 
ATOM     10  C   UNL d   1      -0.935   1.359   0.011  0.00  0.00     0.034 A 
ATOM     11  C   UNL d   1      -2.125   0.728   0.008  0.00  0.00     0.061 A 
ATOM     12 CL   UNL d   1       1.984  -2.860   0.011  0.00  0.00    -0.078 Cl
ATOM     13  C   UNL d   1      -0.855   2.856   0.009  0.00  0.00     0.070 C 
ENDROOT
BRANCH   8  14
ATOM     14  C   UNL d   1       3.820   0.053   0.005  0.00  0.00    -0.005 C 
ATOM     15  C   UNL d   1       4.409  -0.592  -1.267  0.00  0.00     0.021 C 
ATOM     16  C   UNL d   1       4.281   1.532   0.024  0.00  0.00     0.021 C 
ATOM     17  C   UNL d   1       4.436  -0.624   1.247  0.00  0.00     0.021 C 
ENDBRANCH   8  14
BRANCH   9  18
ATOM     18  C   UNL d   1      -3.461  -1.488   0.006  0.00  0.00     0.432 C 
ATOM     19  F   UNL d   1      -4.511  -0.617   0.002  0.00  0.00    -0.165 F 
ATOM     20  F   UNL d   1      -3.626  -2.282  -1.087  0.00  0.00    -0.165 F 
ATOM     21  F   UNL d   1      -3.632  -2.280   1.098  0.00  0.00    -0.165 F 
ENDBRANCH   9  18
TORSDOF 2
