REMARK  5 active torsions:
REMARK  status: ('A' for Active; 'I' for Inactive)
REMARK    1  A    between atoms: N_2  and  C_1 
REMARK    2  A    between atoms: S_7  and  C_3 
REMARK    3  A    between atoms: C_6  and  C_5 
REMARK    4  A    between atoms: O_14  and  C_6 
REMARK    5  A    between atoms: C_13  and  S_7 
ROOT
ATOM      1  C   UNL d   1       1.387  -0.118  -0.072  0.00  0.00     0.121 A 
ATOM      2  C   UNL d   1       0.620  -1.292  -0.006  0.00  0.00     0.038 A 
ATOM      3  C   UNL d   1       0.806   1.158  -0.009  0.00  0.00     0.055 A 
ATOM      4  C   UNL d   1      -0.581   1.277   0.109  0.00  0.00     0.040 A 
ATOM      5  C   UNL d   1      -0.775  -1.144   0.074  0.00  0.00     0.022 A 
ATOM      6  C   UNL d   1      -1.374   0.124   0.124  0.00  0.00     0.020 A 
ENDROOT
BRANCH   2   7
ATOM      7  S   UNL d   1       1.259  -2.958  -0.147  0.00  0.00    -0.088 SA
BRANCH   7   8
ATOM      8  C   UNL d   1       1.424  -3.428   1.568  0.00  0.00     0.005 A 
ATOM      9  C   UNL d   1       0.339  -3.943   2.287  0.00  0.00     0.020 A 
ATOM     10  C   UNL d   1       0.492  -4.318   3.628  0.00  0.00     0.025 A 
ATOM     11  C   UNL d   1       1.732  -4.181   4.250  0.00  0.00     0.034 A 
ATOM     12  C   UNL d   1       2.824  -3.696   3.537  0.00  0.00     0.025 A 
ATOM     13 CL   UNL d   1       1.916  -4.621   5.902  0.00  0.00    -0.084 Cl
ATOM     14  C   UNL d   1       2.671  -3.332   2.197  0.00  0.00     0.020 A 
ENDBRANCH   7   8
ENDBRANCH   2   7
BRANCH   1  15
ATOM     15  N   UNL d   1       2.821  -0.162  -0.277  0.00  0.00    -0.114 N 
ATOM     16  O   UNL d   1       3.513  -0.667   0.617  0.00  0.00    -0.532 OA
ATOM     17  O   UNL d   1       3.256   0.371  -1.304  0.00  0.00    -0.532 OA
ENDBRANCH   1  15
BRANCH   4  18
ATOM     18  C   UNL d   1      -1.164   2.641   0.137  0.00  0.00     0.176 C 
ATOM     19  O   UNL d   1      -0.628   3.589  -0.408  0.00  0.00    -0.646 OA
BRANCH  18  20
ATOM     20  O   UNL d   1      -2.302   2.743   0.853  0.00  0.00    -0.773 OA
ATOM     21  H   UNL d   1      -2.540   1.968   1.393  0.00  0.00     0.167 HD
ENDBRANCH  18  20
ENDBRANCH   4  18
TORSDOF 5
