REMARK  3 active torsions:
REMARK  status: ('A' for Active; 'I' for Inactive)
REMARK    1  A    between atoms: C_8  and  N_1 
REMARK    2  A    between atoms: C_7  and  C_2 
REMARK    3  A    between atoms: O_11  and  C_7 
ROOT
ATOM      1  N   UNL d   1       0.084  -1.186  -0.009  0.00  0.00    -0.276 N 
ATOM      2  C   UNL d   1       1.359  -0.648   0.080  0.00  0.00     0.144 A 
ATOM      3  N   UNL d   1      -0.874  -0.224  -0.076  0.00  0.00    -0.300 N 
ATOM      4  HN  UNL d   1      -1.883  -0.361  -0.123  1.00  0.00     0.187 HD
ATOM      5  C   UNL d   1       1.165   0.718  -0.011  0.00  0.00     0.069 A 
ATOM      6  C   UNL d   1      -0.218   0.936  -0.069  0.00  0.00     0.042 A 
ATOM      7 BR   UNL d   1       2.445   2.092   0.046  0.00  0.00    -0.046 Br
ATOM      8  C   UNL d   1      -0.970   2.214  -0.088  0.00  0.00     0.071 C 
ENDROOT
BRANCH   1   9
ATOM      9  C   UNL d   1      -0.378  -2.596  -0.012  0.00  0.00     0.043 C 
ATOM     10  C   UNL d   1      -0.555  -3.067   1.442  0.00  0.00     0.039 C 
ATOM     11  C   UNL d   1      -1.757  -2.712  -0.723  0.00  0.00     0.039 C 
ATOM     12  C   UNL d   1       0.553  -3.557  -0.780  0.00  0.00     0.039 C 
ENDBRANCH   1   9
BRANCH   2  13
ATOM     13  C   UNL d   1       2.579  -1.370   0.300  0.00  0.00     0.196 C 
ATOM     14  O   UNL d   1       2.716  -2.330   1.042  0.00  0.00    -0.645 OA
BRANCH  13  15
ATOM     15  O   UNL d   1       3.613  -0.878  -0.422  0.00  0.00    -0.772 OA
ATOM     16  H   UNL d   1       3.380  -0.094  -0.950  0.00  0.00     0.167 HD
ENDBRANCH  13  15
ENDBRANCH   2  13
TORSDOF 3
