REMARK  7 active torsions:
REMARK  status: ('A' for Active; 'I' for Inactive)
REMARK    1  A    between atoms: C_3  and  S_1 
REMARK    2  A    between atoms: O_5  and  S_1 
REMARK    3  A    between atoms: S_2  and  C_4 
REMARK    4  A    between atoms: C_15  and  S_2 
REMARK    5  A    between atoms: C_4  and  C_8 
REMARK    6  A    between atoms: N_6  and  O_5 
REMARK    7  A    between atoms: N_18  and  C_8 
ROOT
ATOM      1  N   UNL d   1       0.907   1.252  -2.302  0.00  0.00    -0.241 N 
ATOM      2  HN  UNL d   1       0.583   0.472  -1.730  1.00  0.00     0.196 HD
ATOM      3  C   UNL d   1       0.521   1.476  -3.522  0.00  0.00     0.090 C 
ENDROOT
BRANCH   1   4
ATOM      4  O   UNL d   1       1.836   2.230  -1.868  0.00  0.00    -0.146 OA
BRANCH   4   5
ATOM      5  S   UNL d   1       1.773   2.585  -0.257  0.00  0.00     0.320 S 
ATOM      6  O   UNL d   1       1.649   4.023  -0.103  0.00  0.00    -0.191 OA
ATOM      7  O   UNL d   1       0.826   1.706   0.409  0.00  0.00    -0.191 OA
BRANCH   5   8
ATOM      8  C   UNL d   1       3.383   2.155   0.366  0.00  0.00     0.111 A 
ATOM      9  C   UNL d   1       3.465   1.218   1.411  0.00  0.00     0.051 A 
ATOM     10  C   UNL d   1       4.697   0.948   2.003  0.00  0.00     0.035 A 
ATOM     11 CL   UNL d   1       4.801  -0.199   3.279  0.00  0.00    -0.084 Cl
ATOM     12  C   UNL d   1       5.844   1.611   1.574  0.00  0.00     0.025 A 
ATOM     13  C   UNL d   1       5.763   2.527   0.522  0.00  0.00     0.027 A 
ATOM     14  C   UNL d   1       4.534   2.796  -0.097  0.00  0.00     0.058 A 
ATOM     15 CL   UNL d   1       4.552   3.903  -1.418  0.00  0.00    -0.083 Cl
ENDBRANCH   5   8
ENDBRANCH   4   5
ENDBRANCH   1   4
BRANCH   3  16
ATOM     16  C   UNL d   1      -0.471   0.492  -4.108  0.00  0.00     0.212 C 
BRANCH  16  17
ATOM     17  S   UNL d   1      -1.965   1.339  -4.565  0.00  0.00     0.154 S 
ATOM     18  O   UNL d   1      -2.563   1.905  -3.370  0.00  0.00    -0.227 OA
ATOM     19  O   UNL d   1      -1.621   2.203  -5.683  0.00  0.00    -0.227 OA
BRANCH  17  20
ATOM     20  C   UNL d   1      -3.070   0.053  -5.187  0.00  0.00     0.100 C 
ATOM     21  C   UNL d   1      -3.381  -0.998  -4.127  0.00  0.00     0.026 C 
ATOM     22  C   UNL d   1      -4.365   0.689  -5.691  0.00  0.00     0.026 C 
ENDBRANCH  17  20
ENDBRANCH  16  17
ENDBRANCH   3  16
BRANCH   3  23
ATOM     23  N   UNL d   1       0.977   2.513  -4.304  0.00  0.00    -0.290 NA
ATOM     24  H   UNL d   1       0.343   2.842  -5.037  0.00  0.00     0.125 HD
ATOM     25  H   UNL d   1       1.370   3.285  -3.774  0.00  0.00     0.125 HD
ENDBRANCH   3  23
TORSDOF 7
