REMARK  3 active torsions:
REMARK  status: ('A' for Active; 'I' for Inactive)
REMARK    1  A    between atoms: C_8  and  C_3 
REMARK    2  A    between atoms: S_7  and  C_8 
REMARK    3  A    between atoms: C_9  and  S_7 
ROOT
ATOM      1  S   UNL d   1       0.972  -4.034  -0.082  0.00  0.00    -0.124 SA
ENDROOT
BRANCH   1   2
ATOM      2  C   UNL d   1       1.986  -2.514  -0.036  0.00  0.00     0.137 C 
BRANCH   2   3
ATOM      3  C   UNL d   1       1.126  -1.288  -0.003  0.00  0.00     0.026 A 
ATOM      4  N   UNL d   1       1.240  -0.360  -1.032  0.00  0.00    -0.356 N 
ATOM      5  C   UNL d   1       0.418   0.647  -0.831  0.00  0.00     0.047 A 
ATOM      6  HN  UNL d   1       1.871  -0.448  -1.828  1.00  0.00     0.166 HD
ATOM      7  S   UNL d   1      -0.522   0.559   0.604  0.00  0.00    -0.087 SA
ATOM      8  C   UNL d   1       0.273   1.814  -1.743  0.00  0.00     0.076 C 
ATOM      9  C   UNL d   1       0.222  -0.934   0.984  0.00  0.00     0.077 A 
ENDBRANCH   2   3
ENDBRANCH   1   2
BRANCH   1  10
ATOM     10  C   UNL d   1       2.175  -5.357  -0.075  0.00  0.00     0.001 A 
ATOM     11  C   UNL d   1       3.564  -5.189  -0.076  0.00  0.00     0.020 A 
ATOM     12  C   UNL d   1       4.417  -6.300  -0.073  0.00  0.00     0.025 A 
ATOM     13  C   UNL d   1       3.886  -7.588  -0.069  0.00  0.00     0.034 A 
ATOM     14  C   UNL d   1       2.509  -7.775  -0.069  0.00  0.00     0.025 A 
ATOM     15 CL   UNL d   1       4.937  -8.949  -0.068  0.00  0.00    -0.084 Cl
ATOM     16  C   UNL d   1       1.660  -6.663  -0.071  0.00  0.00     0.020 A 
ENDBRANCH   1  10
TORSDOF 3
