REMARK  2 active torsions:
REMARK  status: ('A' for Active; 'I' for Inactive)
REMARK    1  A    between atoms: N_3  and  C_8 
REMARK    2  A    between atoms: C_12  and  C_7 
ROOT
ATOM      1  C   UNL d   1      -1.104  -0.860   0.033  0.00  0.00     0.045 A 
ATOM      2  C   UNL d   1       0.398  -0.974  -0.026  0.00  0.00     0.257 A 
ATOM      3  N   UNL d   1       0.849   0.328  -0.187  0.00  0.00    -0.322 N 
ATOM      4  C   UNL d   1      -1.434   0.569  -0.038  0.00  0.00     0.006 A 
ATOM      5  C   UNL d   1      -0.212   1.234  -0.200  0.00  0.00     0.046 A 
ATOM      6  C   UNL d   1      -1.865  -1.965   0.063  0.00  0.00     0.029 C 
ATOM      7  O   UNL d   1       1.066  -1.985   0.035  0.00  0.00    -0.267 OA
ATOM      8  C   UNL d   1      -2.609   1.297   0.037  0.00  0.00     0.015 A 
ATOM      9  C   UNL d   1      -0.121   2.605  -0.339  0.00  0.00     0.030 A 
ATOM     10  C   UNL d   1      -2.543   2.688  -0.105  0.00  0.00     0.001 A 
ATOM     11  C   UNL d   1      -1.311   3.335  -0.301  0.00  0.00     0.002 A 
ATOM     12  H   UNL d   1       1.825   0.559  -0.269  0.00  0.00     0.169 HD
ENDROOT
BRANCH   6  13
ATOM     13  C   UNL d   1      -3.325  -1.957  -0.001  0.00  0.00    -0.033 A 
ATOM     14  C   UNL d   1      -3.967  -1.989  -1.245  0.00  0.00     0.047 A 
ATOM     15  C   UNL d   1      -5.358  -1.829  -1.306  0.00  0.00     0.103 A 
ATOM     16  C   UNL d   1      -6.114  -1.689  -0.134  0.00  0.00     0.036 A 
ATOM     17  C   UNL d   1      -5.470  -1.698   1.104  0.00  0.00     0.003 A 
ATOM     18  C   UNL d   1      -4.080  -1.825   1.170  0.00  0.00     0.011 A 
BRANCH  15  19
ATOM     19  N   UNL d   1      -6.019  -1.738  -2.614  0.00  0.00    -0.116 N 
ATOM     20  O   UNL d   1      -5.305  -1.782  -3.626  0.00  0.00    -0.532 OA
ATOM     21  O   UNL d   1      -7.251  -1.602  -2.629  0.00  0.00    -0.532 OA
ENDBRANCH  15  19
ENDBRANCH   6  13
TORSDOF 2
