REMARK  4 active torsions:
REMARK  status: ('A' for Active; 'I' for Inactive)
REMARK    1  A    between atoms: S_2  and  N_10 
REMARK    2  A    between atoms: C_14  and  S_2 
REMARK    3  A    between atoms: N_10  and  N_13 
REMARK    4  A    between atoms: N_13  and  C_12 
ROOT
ATOM      1  C   UNL d   1       0.193  -0.599   0.025  0.00  0.00     0.136 A 
ATOM      2  C   UNL d   1       0.242   0.796   0.015  0.00  0.00     0.039 A 
ATOM      3  N   UNL d   1       1.495  -1.020   0.002  0.00  0.00    -0.280 N 
ATOM      4  N   UNL d   1       2.392  -0.015  -0.013  0.00  0.00    -0.301 N 
ATOM      5  HN  UNL d   1       3.410  -0.083  -0.027  1.00  0.00     0.187 HD
ATOM      6  C   UNL d   1       1.640   1.095  -0.006  0.00  0.00     0.036 A 
ATOM      7  N   UNL d   1      -0.905  -1.389   0.051  0.00  0.00    -0.326 N 
ATOM      8  HN  UNL d   1      -0.851  -2.408   0.056  1.00  0.00     0.169 HD
ATOM      9  C   UNL d   1      -0.990   1.481   0.029  0.00  0.00    -0.042 A 
ATOM     10  C   UNL d   1      -2.073  -0.722   0.072  0.00  0.00     0.122 A 
ATOM     11  C   UNL d   1      -2.144   0.671   0.058  0.00  0.00     0.057 A 
ATOM     12  C   UNL d   1       1.976  -2.378  -0.001  0.00  0.00     0.179 C 
ATOM     13  C   UNL d   1       2.350   2.399  -0.011  0.00  0.00     0.070 C 
ATOM     14  C   UNL d   1      -1.205   2.967   0.011  0.00  0.00     0.049 C 
ENDROOT
BRANCH  10  15
ATOM     15  N   UNL d   1      -3.250  -1.487   0.115  0.00  0.00    -0.276 N 
ATOM     16  H   UNL d   1      -3.087  -2.492   0.063  0.00  0.00     0.189 HD
BRANCH  15  17
ATOM     17  N   UNL d   1      -4.620  -0.992   0.212  0.00  0.00    -0.221 N 
ATOM     18  H   UNL d   1      -4.843   0.001   0.273  0.00  0.00     0.200 HD
BRANCH  17  19
ATOM     19  S   UNL d   1      -5.979  -1.996   0.218  0.00  0.00     0.276 S 
ATOM     20  O   UNL d   1      -7.133  -1.138   0.367  0.00  0.00    -0.199 OA
ATOM     21  O   UNL d   1      -5.847  -2.929  -0.883  0.00  0.00    -0.199 OA
BRANCH  19  22
ATOM     22  C   UNL d   1      -5.781  -2.894   1.734  0.00  0.00     0.081 A 
ATOM     23  C   UNL d   1      -5.737  -2.188   2.940  0.00  0.00     0.027 A 
ATOM     24  C   UNL d   1      -5.505  -2.878   4.130  0.00  0.00     0.025 A 
ATOM     25  C   UNL d   1      -5.325  -4.262   4.107  0.00  0.00     0.034 A 
ATOM     26  C   UNL d   1      -5.406  -4.969   2.907  0.00  0.00     0.025 A 
ATOM     27 CL   UNL d   1      -4.987  -5.100   5.571  0.00  0.00    -0.084 Cl
ATOM     28  C   UNL d   1      -5.644  -4.286   1.712  0.00  0.00     0.027 A 
ENDBRANCH  19  22
ENDBRANCH  17  19
ENDBRANCH  15  17
ENDBRANCH  10  15
TORSDOF 4
