REMARK  5 active torsions:
REMARK  status: ('A' for Active; 'I' for Inactive)
REMARK    1  A    between atoms: C_6  and  C_1 
REMARK       I    between atoms: C_2  and  N_5 
REMARK    2  A    between atoms: C_11  and  C_2 
REMARK    3  A    between atoms: N_5  and  C_12 
REMARK    4  A    between atoms: S_7  and  C_11 
REMARK    5  A    between atoms: C_13  and  S_7 
ROOT
ATOM      1  C   UNL d   1       0.057  -6.550   3.962  0.00  0.00     0.231 C 
ATOM      2  N   UNL d   1      -0.200  -5.193   4.029  0.00  0.00    -0.327 N 
ATOM      3  O   UNL d   1       0.499  -7.146   2.979  0.00  0.00    -0.272 OA
ATOM      4  H   UNL d   1      -0.439  -4.827   4.944  0.00  0.00     0.169 HD
ENDROOT
BRANCH   2   5
ATOM      5  C   UNL d   1      -0.160  -4.268   2.967  0.00  0.00     0.034 A 
ATOM      6  C   UNL d   1      -0.067  -4.644   1.627  0.00  0.00     0.030 A 
ATOM      7  C   UNL d   1      -0.023  -3.678   0.617  0.00  0.00     0.011 A 
ATOM      8  C   UNL d   1      -0.063  -2.311   0.922  0.00  0.00    -0.035 A 
ATOM      9  C   UNL d   1      -0.176  -1.940   2.273  0.00  0.00     0.011 A 
ATOM     10  C   UNL d   1      -0.236  -2.909   3.282  0.00  0.00     0.030 A 
BRANCH   8  11
ATOM     11  C   UNL d   1       0.024  -1.295  -0.199  0.00  0.00     0.141 C 
ATOM     12  S   UNL d   1       1.504  -0.238  -0.053  0.00  0.00    -0.148 SA
ATOM     13  C   UNL d   1       0.686   1.328  -0.439  0.00  0.00     0.085 C 
ATOM     14  C   UNL d   1      -0.697   1.291   0.175  0.00  0.00     0.085 C 
ATOM     15  S   UNL d   1      -1.475  -0.264  -0.321  0.00  0.00    -0.148 SA
ENDBRANCH   8  11
ENDBRANCH   2   5
BRANCH   1  16
ATOM     16  C   UNL d   1      -0.124  -7.303   5.270  0.00  0.00     0.182 C 
BRANCH  16  17
ATOM     17  S   UNL d   1      -1.563  -6.713   6.223  0.00  0.00    -0.121 SA
BRANCH  17  18
ATOM     18  C   UNL d   1      -1.496  -7.850   7.595  0.00  0.00     0.001 A 
ATOM     19  C   UNL d   1      -1.399  -7.340   8.895  0.00  0.00     0.021 A 
ATOM     20  C   UNL d   1      -1.351  -8.207   9.988  0.00  0.00     0.043 A 
ATOM     21  C   UNL d   1      -1.410  -9.580   9.777  0.00  0.00     0.116 A 
ATOM     22  C   UNL d   1      -1.524 -10.102   8.495  0.00  0.00     0.043 A 
ATOM     23  F   UNL d   1      -1.363 -10.411  10.826  0.00  0.00    -0.206 F 
ATOM     24  C   UNL d   1      -1.575  -9.235   7.401  0.00  0.00     0.021 A 
ENDBRANCH  17  18
ENDBRANCH  16  17
ENDBRANCH   1  16
TORSDOF 5
