REMARK  4 active torsions:
REMARK  status: ('A' for Active; 'I' for Inactive)
REMARK       I    between atoms: N_2  and  C_1 
REMARK    1  A    between atoms: C_3  and  C_1 
REMARK    2  A    between atoms: C_4  and  N_2 
REMARK    3  A    between atoms: O_7  and  C_6 
REMARK    4  A    between atoms: C_12  and  O_7 
ROOT
ATOM      1  C   UNL d   1       0.692  -2.066   1.506  0.00  0.00     0.069 A 
ATOM      2  C   UNL d   1       1.893  -1.659   2.110  0.00  0.00     0.102 A 
ATOM      3  C   UNL d   1       0.079  -3.255   1.927  0.00  0.00     0.032 A 
ATOM      4  C   UNL d   1       2.512  -2.495   3.047  0.00  0.00     0.039 A 
ATOM      5  C   UNL d   1       1.927  -3.706   3.415  0.00  0.00     0.003 A 
ATOM      6  C   UNL d   1       0.706  -4.082   2.860  0.00  0.00     0.002 A 
ENDROOT
BRANCH   1   7
ATOM      7  N   UNL d   1       0.023  -1.332   0.512  0.00  0.00    -0.320 N 
ATOM      8  C   UNL d   1       0.640  -0.825  -0.624  0.00  0.00     0.263 C 
ATOM      9  O   UNL d   1       1.775  -1.132  -0.967  0.00  0.00    -0.267 OA
ATOM     10  H   UNL d   1      -0.983  -1.411   0.455  0.00  0.00     0.169 HD
BRANCH   8  11
ATOM     11  C   UNL d   1      -0.226   0.002  -1.455  0.00  0.00     0.072 A 
ATOM     12  S   UNL d   1      -1.541   0.884  -0.793  0.00  0.00    -0.097 SA
ATOM     13  C   UNL d   1      -1.892   1.622  -2.295  0.00  0.00     0.050 A 
ATOM     14  C   UNL d   1      -1.065   1.171  -3.296  0.00  0.00     0.009 A 
ATOM     15  C   UNL d   1      -0.102   0.237  -2.812  0.00  0.00     0.025 A 
ENDBRANCH   8  11
ENDBRANCH   1   7
BRANCH   2  16
ATOM     16  O   UNL d   1       2.578  -0.497   1.840  0.00  0.00    -0.309 OA
BRANCH  16  17
ATOM     17  C   UNL d   1       1.967   0.735   1.925  0.00  0.00     0.076 A 
ATOM     18  C   UNL d   1       0.732   1.011   2.516  0.00  0.00     0.037 A 
ATOM     19  C   UNL d   1       0.202   2.305   2.456  0.00  0.00     0.003 A 
ATOM     20  C   UNL d   1       0.923   3.335   1.853  0.00  0.00     0.000 A 
ATOM     21  C   UNL d   1       2.183   3.078   1.320  0.00  0.00     0.003 A 
ATOM     22  C   UNL d   1       2.701   1.782   1.357  0.00  0.00     0.037 A 
ENDBRANCH  16  17
ENDBRANCH   2  16
TORSDOF 4
