REMARK  2 active torsions:
REMARK  status: ('A' for Active; 'I' for Inactive)
REMARK    1  A    between atoms: N_7  and  C_1 
REMARK       I    between atoms: C_9  and  N_7 
REMARK    2  A    between atoms: C_11  and  C_9 
ROOT
ATOM      1  N   UNL d   1       0.462   5.499   1.109  0.00  0.00    -0.197 NA
ATOM      2  C   UNL d   1      -0.585   5.037   0.943  0.00  0.00     0.068 C 
ATOM      3  C   UNL d   1      -1.885   4.421   0.660  0.00  0.00     0.226 C 
ENDROOT
BRANCH   3   4
ATOM      4  C   UNL d   1      -1.786   2.910   0.589  0.00  0.00     0.235 C 
ATOM      5  N   UNL d   1      -0.827   2.446  -0.300  0.00  0.00    -0.323 N 
ATOM      6  H   UNL d   1      -0.059   3.073  -0.509  0.00  0.00     0.169 HD
ATOM      7  O   UNL d   1      -2.530   2.204   1.266  0.00  0.00    -0.272 OA
BRANCH   5   8
ATOM      8  C   UNL d   1      -0.496   1.101  -0.368  0.00  0.00     0.082 A 
ATOM      9  C   UNL d   1       0.805   0.650  -0.297  0.00  0.00     0.053 A 
ATOM     10  N   UNL d   1       0.715  -0.720  -0.336  0.00  0.00    -0.299 N 
ATOM     11  C   UNL d   1       2.086   1.374  -0.097  0.00  0.00     0.072 C 
ATOM     12  C   UNL d   1       1.769  -1.690  -0.163  0.00  0.00     0.177 C 
ATOM     13  N   UNL d   1      -0.538  -1.169  -0.525  0.00  0.00    -0.301 N 
ATOM     14  C   UNL d   1      -1.292  -0.064  -0.537  0.00  0.00     0.051 A 
ATOM     15  HN  UNL d   1      -0.845  -2.135  -0.635  1.00  0.00     0.187 HD
ATOM     16  C   UNL d   1      -2.745  -0.180  -0.818  0.00  0.00     0.072 C 
ENDBRANCH   5   8
ENDBRANCH   3   4
TORSDOF 2
