REMARK  4 active torsions:
REMARK  status: ('A' for Active; 'I' for Inactive)
REMARK    1  A    between atoms: C_13  and  C_4 
REMARK       I    between atoms: C_8  and  N_7 
REMARK       I    between atoms: N_11  and  C_8 
REMARK    2  A    between atoms: C_10  and  O_14 
REMARK    3  A    between atoms: N_12  and  N_11 
REMARK    4  A    between atoms: O_14  and  C_21 
ROOT
ATOM      1  N   UNL d   1      -0.918  -0.425   0.472  0.00  0.00    -0.304 N 
ATOM      2  HN  UNL d   1      -1.715  -1.027   0.265  1.00  0.00     0.171 HD
ATOM      3  C   UNL d   1       0.353  -0.740   0.520  0.00  0.00     0.253 A 
ATOM      4  C   UNL d   1      -0.913   0.923   0.771  0.00  0.00     0.139 A 
ATOM      5  N   UNL d   1       0.314   1.413   1.020  0.00  0.00    -0.240 N 
ATOM      6  HN  UNL d   1       0.571   2.366   1.275  1.00  0.00     0.196 HD
ATOM      7  N   UNL d   1       0.875  -1.975   0.291  0.00  0.00    -0.272 N 
ATOM      8  C   UNL d   1       2.176  -2.371   0.230  0.00  0.00     0.337 C 
ATOM      9  O   UNL d   1       1.152   0.313   0.847  0.00  0.00    -0.199 OA
ATOM     10  N   UNL d   1       3.157  -1.415   0.373  0.00  0.00    -0.271 N 
ATOM     11  O   UNL d   1       2.399  -3.565   0.019  0.00  0.00    -0.246 OA
ATOM     12  H   UNL d   1       0.203  -2.707   0.112  0.00  0.00     0.174 HD
ATOM     13  H   UNL d   1       2.903  -0.454   0.575  0.00  0.00     0.185 HD
ENDROOT
BRANCH   4  14
ATOM     14  C   UNL d   1      -2.135   1.726   0.796  0.00  0.00     0.010 A 
ATOM     15  C   UNL d   1      -3.356   1.190   0.357  0.00  0.00     0.018 A 
ATOM     16  C   UNL d   1      -4.536   1.955   0.378  0.00  0.00     0.038 A 
ATOM     17  C   UNL d   1      -4.516   3.258   0.867  0.00  0.00     0.078 A 
ATOM     18  C   UNL d   1      -3.298   3.806   1.279  0.00  0.00     0.038 A 
ATOM     19  C   UNL d   1      -2.120   3.050   1.248  0.00  0.00     0.018 A 
BRANCH  17  20
ATOM     20  O   UNL d   1      -5.579   4.104   1.005  0.00  0.00    -0.255 OA
BRANCH  20  21
ATOM     21  C   UNL d   1      -6.898   3.599   0.852  0.00  0.00     0.530 C 
ATOM     22  F   UNL d   1      -7.048   2.383   1.415  0.00  0.00    -0.144 F 
ATOM     23  F   UNL d   1      -7.751   4.449   1.465  0.00  0.00    -0.144 F 
ATOM     24  F   UNL d   1      -7.222   3.534  -0.456  0.00  0.00    -0.144 F 
ENDBRANCH  20  21
ENDBRANCH  17  20
ENDBRANCH   4  14
BRANCH  10  25
ATOM     25  N   UNL d   1       4.542  -1.673   0.243  0.00  0.00    -0.227 NA
ATOM     26  C   UNL d   1       5.072  -2.545   1.300  0.00  0.00     0.113 C 
ATOM     27  C   UNL d   1       6.602  -2.557   1.247  0.00  0.00     0.016 C 
ATOM     28  C   UNL d   1       7.113  -2.980  -0.127  0.00  0.00     0.002 C 
ATOM     29  C   UNL d   1       6.447  -2.169  -1.236  0.00  0.00     0.016 C 
ATOM     30  C   UNL d   1       4.923  -2.156  -1.093  0.00  0.00     0.113 C 
ENDBRANCH  10  25
TORSDOF 4
