REMARK  6 active torsions:
REMARK  status: ('A' for Active; 'I' for Inactive)
REMARK    1  A    between atoms: N_3  and  C_1 
REMARK    2  A    between atoms: C_8  and  C_2 
REMARK       I    between atoms: C_5  and  N_3 
REMARK    3  A    between atoms: C_6  and  C_5 
REMARK    4  A    between atoms: O_15  and  C_8 
REMARK    5  A    between atoms: C_16  and  C_9 
REMARK    6  A    between atoms: C_17  and  O_15 
ROOT
ATOM      1  C   UNL d   1       0.444   1.113   0.456  0.00  0.00     0.093 C 
ATOM      2  C   UNL d   1       1.730   0.665   0.237  0.00  0.00     0.074 C 
ATOM      3  S   UNL d   1      -0.671  -0.141   0.755  0.00  0.00    -0.076 SA
ATOM      4  C   UNL d   1       1.712  -0.779   0.127  0.00  0.00     0.035 C 
ATOM      5  C   UNL d   1       0.462  -1.333   0.310  0.00  0.00    -0.015 C 
ENDROOT
BRANCH   1   6
ATOM      6  N   UNL d   1      -0.199   2.332   0.457  0.00  0.00    -0.317 N 
ATOM      7  C   UNL d   1      -0.037   3.209  -0.618  0.00  0.00     0.277 C 
ATOM      8  O   UNL d   1       0.893   3.126  -1.424  0.00  0.00    -0.268 OA
ATOM      9  H   UNL d   1      -1.133   2.301   0.860  0.00  0.00     0.169 HD
BRANCH   7  10
ATOM     10  C   UNL d   1      -1.193   4.233  -0.798  0.00  0.00     0.269 C 
ATOM     11 CL   UNL d   1      -2.354   4.179   0.566  0.00  0.00    -0.073 Cl
ATOM     12 CL   UNL d   1      -0.513   5.869  -0.924  0.00  0.00    -0.073 Cl
ATOM     13 CL   UNL d   1      -2.071   3.796  -2.293  0.00  0.00    -0.073 Cl
ENDBRANCH   7  10
ENDBRANCH   1   6
BRANCH   2  14
ATOM     14  C   UNL d   1       2.966   1.441   0.128  0.00  0.00     0.296 C 
ATOM     15  O   UNL d   1       4.022   0.927  -0.222  0.00  0.00    -0.259 OA
BRANCH  14  16
ATOM     16  O   UNL d   1       2.854   2.736   0.550  0.00  0.00    -0.318 OA
BRANCH  16  17
ATOM     17  C   UNL d   1       4.055   3.520   0.454  0.00  0.00     0.174 C 
ATOM     18  C   UNL d   1       4.768   3.527   1.794  0.00  0.00     0.034 C 
ENDBRANCH  16  17
ENDBRANCH  14  16
ENDBRANCH   2  14
BRANCH   5  19
ATOM     19  C   UNL d   1       0.043  -2.764   0.162  0.00  0.00     0.042 C 
ATOM     20  C   UNL d   1      -0.018  -3.490   1.493  0.00  0.00     0.010 C 
ENDBRANCH   5  19
TORSDOF 6
