REMARK  7 active torsions:
REMARK  status: ('A' for Active; 'I' for Inactive)
REMARK    1  A    between atoms: C_2  and  N_1 
REMARK    2  A    between atoms: N_3  and  C_6 
REMARK    3  A    between atoms: C_6  and  C_11 
REMARK    4  A    between atoms: O_10  and  C_12 
REMARK    5  A    between atoms: C_13  and  O_10 
REMARK    6  A    between atoms: C_11  and  C_13 
REMARK    7  A    between atoms: O_16  and  C_11 
ROOT
ATOM      1  C   UNL d   1      -1.384  -2.125  -5.402  0.00  0.00     0.209 C 
ENDROOT
BRANCH   1   2
ATOM      2  C   UNL d   1      -2.219  -2.143  -6.689  0.00  0.00     0.170 C 
BRANCH   2   3
ATOM      3  C   UNL d   1      -2.174  -0.771  -7.415  0.00  0.00     0.306 C 
BRANCH   3   4
ATOM      4  N   UNL d   1      -2.971  -0.706  -8.658  0.00  0.00     0.095 N 
ATOM      5  C   UNL d   1      -2.860   0.620  -9.310  0.00  0.00     0.298 C 
ATOM      6  C   UNL d   1      -3.630   1.741  -8.586  0.00  0.00     0.198 C 
ATOM      7  O   UNL d   1      -5.007   1.399  -8.379  0.00  0.00    -0.388 OA
ATOM      8  C   UNL d   1      -5.135   0.149  -7.692  0.00  0.00     0.198 C 
ATOM      9  C   UNL d   1      -4.412  -0.974  -8.449  0.00  0.00     0.298 C 
ENDBRANCH   3   4
ENDBRANCH   2   3
BRANCH   2  10
ATOM     10  O   UNL d   1      -1.758  -3.196  -7.541  0.00  0.00    -0.392 OA
ATOM     11  H   UNL d   1      -0.929  -2.883  -7.946  0.00  0.00     0.210 HD
ENDBRANCH   2  10
ENDBRANCH   1   2
BRANCH   1  12
ATOM     12  O   UNL d   1      -0.015  -1.869  -5.730  0.00  0.00    -0.349 OA
BRANCH  12  13
ATOM     13  C   UNL d   1       0.855  -1.868  -4.675  0.00  0.00     0.069 A 
ATOM     14  C   UNL d   1       2.164  -2.251  -4.983  0.00  0.00     0.039 A 
ATOM     15  C   UNL d   1       3.157  -2.236  -4.003  0.00  0.00     0.039 A 
ATOM     16  C   UNL d   1       2.836  -1.817  -2.707  0.00  0.00     0.103 A 
ATOM     17  C   UNL d   1       1.526  -1.431  -2.390  0.00  0.00     0.039 A 
ATOM     18  C   UNL d   1       0.538  -1.458  -3.379  0.00  0.00     0.039 A 
BRANCH  16  19
ATOM     19  N   UNL d   1       3.879  -1.763  -1.673  0.00  0.00    -0.116 N 
ATOM     20  O   UNL d   1       3.556  -1.354  -0.551  0.00  0.00    -0.532 OA
ATOM     21  O   UNL d   1       5.022  -2.122  -1.992  0.00  0.00    -0.532 OA
ENDBRANCH  16  19
ENDBRANCH  12  13
ENDBRANCH   1  12
TORSDOF 7
