REMARK  0 active torsions:
REMARK  status: ('A' for Active; 'I' for Inactive)
ROOT
ATOM      1  O   UNL d   1      -1.236   1.474   0.025  0.00  0.00    -0.327 OA
ATOM      2  O   UNL d   1      -1.238  -1.427  -0.018  0.00  0.00    -0.345 OA
ATOM      3  N   UNL d   1      -4.620   1.976   0.189  0.00  0.00    -0.194 NA
ATOM      4  C   UNL d   1      -0.088   0.721   0.018  0.00  0.00     0.104 A 
ATOM      5  C   UNL d   1      -3.623   1.426  -0.045  0.00  0.00     0.094 C 
ATOM      6  C   UNL d   1      -2.385   0.692  -0.355  0.00  0.00     0.259 C 
ATOM      7  C   UNL d   1      -0.089  -0.677  -0.020  0.00  0.00     0.102 A 
ATOM      8  C   UNL d   1      -2.369  -0.641   0.386  0.00  0.00     0.223 C 
ATOM      9  C   UNL d   1       1.120   1.415   0.061  0.00  0.00     0.040 A 
ATOM     10  C   UNL d   1       1.115  -1.377  -0.067  0.00  0.00     0.039 A 
ATOM     11  C   UNL d   1       2.327   0.712   0.032  0.00  0.00     0.003 A 
ATOM     12  C   UNL d   1       2.324  -0.682  -0.040  0.00  0.00     0.003 A 
ENDROOT
TORSDOF 0
