REMARK  6 active torsions:
REMARK  status: ('A' for Active; 'I' for Inactive)
REMARK    1  A    between atoms: S_9  and  C_20 
REMARK    2  A    between atoms: C_12  and  S_9 
REMARK    3  A    between atoms: S_10  and  C_19 
REMARK    4  A    between atoms: C_11  and  S_10 
REMARK    5  A    between atoms: C_20  and  C_15 
REMARK    6  A    between atoms: C_19  and  C_16 
ROOT
ATOM      1  N   UNL d   1      -1.259  -0.114  -0.251  0.00  0.00    -0.362 N 
ATOM      2  HN  UNL d   1      -2.272  -0.220  -0.293  1.00  0.00     0.165 HD
ATOM      3  C   UNL d   1      -0.472  -1.185   0.028  0.00  0.00     0.019 A 
ATOM      4  C   UNL d   1      -0.689   1.097  -0.473  0.00  0.00     0.019 A 
ATOM      5  C   UNL d   1       1.500   0.159  -0.190  0.00  0.00     0.004 A 
ATOM      6  C   UNL d   1       0.692   1.266  -0.430  0.00  0.00     0.026 A 
ATOM      7  C   UNL d   1       0.916  -1.081   0.042  0.00  0.00     0.026 A 
ENDROOT
BRANCH   3   8
ATOM      8  C   UNL d   1      -1.113  -2.530   0.301  0.00  0.00     0.136 C 
BRANCH   8   9
ATOM      9  S   UNL d   1      -2.875  -2.511   0.790  0.00  0.00    -0.124 SA
BRANCH   9  10
ATOM     10  C   UNL d   1      -3.700  -1.931  -0.686  0.00  0.00     0.002 A 
ATOM     11  C   UNL d   1      -3.327  -2.313  -1.978  0.00  0.00     0.044 A 
ATOM     12  C   UNL d   1      -4.062  -1.881  -3.089  0.00  0.00     0.057 A 
ATOM     13 CL   UNL d   1      -3.537  -2.416  -4.646  0.00  0.00    -0.083 Cl
ATOM     14  C   UNL d   1      -5.186  -1.068  -2.912  0.00  0.00     0.055 A 
ATOM     15  C   UNL d   1      -5.553  -0.668  -1.627  0.00  0.00     0.027 A 
ATOM     16 CL   UNL d   1      -6.193  -0.564  -4.221  0.00  0.00    -0.083 Cl
ATOM     17  C   UNL d   1      -4.816  -1.102  -0.522  0.00  0.00     0.020 A 
ENDBRANCH   9  10
ENDBRANCH   8   9
ENDBRANCH   3   8
BRANCH   4  18
ATOM     18  C   UNL d   1      -1.661   2.242  -0.618  0.00  0.00     0.136 C 
BRANCH  18  19
ATOM     19  S   UNL d   1      -1.168   3.628  -1.691  0.00  0.00    -0.124 SA
BRANCH  19  20
ATOM     20  C   UNL d   1      -1.111   2.876  -3.307  0.00  0.00     0.002 A 
ATOM     21  C   UNL d   1      -2.204   2.230  -3.887  0.00  0.00     0.044 A 
ATOM     22  C   UNL d   1      -2.140   1.795  -5.220  0.00  0.00     0.057 A 
ATOM     23 CL   UNL d   1      -3.553   1.092  -5.914  0.00  0.00    -0.083 Cl
ATOM     24  C   UNL d   1      -0.973   1.983  -5.968  0.00  0.00     0.055 A 
ATOM     25  C   UNL d   1       0.123   2.619  -5.387  0.00  0.00     0.027 A 
ATOM     26 CL   UNL d   1      -0.829   1.486  -7.615  0.00  0.00    -0.083 Cl
ATOM     27  C   UNL d   1       0.046   3.071  -4.067  0.00  0.00     0.020 A 
ENDBRANCH  19  20
ENDBRANCH  18  19
ENDBRANCH   4  18
TORSDOF 6
