REMARK  6 active torsions:
REMARK  status: ('A' for Active; 'I' for Inactive)
REMARK    1  A    between atoms: C_3  and  N_1 
REMARK    2  A    between atoms: S_10  and  C_2 
REMARK    3  A    between atoms: O_24  and  C_6 
REMARK    4  A    between atoms: C_11  and  C_7 
REMARK    5  A    between atoms: C_13  and  S_10 
REMARK    6  A    between atoms: C_12  and  C_14 
ROOT
ATOM      1  N   UNL d   1       0.000  -1.326   0.024  0.00  0.00    -0.254 N 
ATOM      2  C   UNL d   1       1.247  -0.826  -0.320  0.00  0.00     0.175 A 
ATOM      3  N   UNL d   1       1.189   0.478  -0.476  0.00  0.00    -0.276 N 
ATOM      4  HN  UNL d   1       1.973   1.090  -0.705  1.00  0.00     0.189 HD
ATOM      5  C   UNL d   1      -0.809  -0.196   0.021  0.00  0.00     0.245 A 
ATOM      6  N   UNL d   1      -0.111   0.872  -0.278  0.00  0.00    -0.263 N 
ATOM      7  HN  UNL d   1      -0.469   1.824  -0.350  1.00  0.00     0.190 HD
ENDROOT
BRANCH   2   8
ATOM      8  S   UNL d   1       2.660  -1.789  -0.576  0.00  0.00    -0.034 SA
BRANCH   8   9
ATOM      9  C   UNL d   1       3.209  -1.108  -2.118  0.00  0.00     0.078 A 
ATOM     10  N   UNL d   1       2.527  -1.484  -3.223  0.00  0.00    -0.360 N 
ATOM     11  C   UNL d   1       3.009  -1.077  -4.414  0.00  0.00     0.089 A 
ATOM     12  HN  UNL d   1       1.682  -2.052  -3.158  1.00  0.00     0.166 HD
ATOM     13  C   UNL d   1       4.162  -0.327  -4.563  0.00  0.00     0.033 A 
ATOM     14  C   UNL d   1       4.868   0.050  -3.415  0.00  0.00     0.051 A 
ATOM     15  C   UNL d   1       4.372  -0.349  -2.170  0.00  0.00     0.053 A 
BRANCH  14  16
ATOM     16  C   UNL d   1       6.148   0.831  -3.538  0.00  0.00     0.417 C 
ATOM     17  F   UNL d   1       6.700   1.168  -2.340  0.00  0.00    -0.166 F 
ATOM     18  F   UNL d   1       7.109   0.138  -4.209  0.00  0.00    -0.166 F 
ATOM     19  F   UNL d   1       5.986   1.998  -4.220  0.00  0.00    -0.166 F 
ENDBRANCH  14  16
ENDBRANCH   8   9
ENDBRANCH   2   8
BRANCH   1  20
ATOM     20  C   UNL d   1      -0.444  -2.672   0.182  0.00  0.00     0.060 A 
ATOM     21  C   UNL d   1       0.179  -3.615   1.029  0.00  0.00     0.075 A 
ATOM     22  C   UNL d   1      -0.319  -4.938   1.028  0.00  0.00     0.018 A 
ATOM     23  C   UNL d   1      -1.433  -5.301   0.273  0.00  0.00     0.001 A 
ATOM     24  C   UNL d   1      -2.075  -4.352  -0.509  0.00  0.00     0.002 A 
ATOM     25  C   UNL d   1      -1.581  -3.049  -0.564  0.00  0.00     0.031 A 
BRANCH  21  26
ATOM     26  C   UNL d   1       1.272  -3.322   2.035  0.00  0.00     0.419 C 
ATOM     27  F   UNL d   1       1.427  -2.002   2.315  0.00  0.00    -0.166 F 
ATOM     28  F   UNL d   1       1.024  -3.911   3.242  0.00  0.00    -0.166 F 
ATOM     29  F   UNL d   1       2.487  -3.794   1.651  0.00  0.00    -0.166 F 
ENDBRANCH  21  26
ENDBRANCH   1  20
BRANCH   5  30
ATOM     30  O   UNL d   1      -2.099  -0.143   0.337  0.00  0.00    -0.331 OA
ATOM     31  H   UNL d   1      -2.353  -0.969   0.778  0.00  0.00     0.221 HD
ENDBRANCH   5  30
TORSDOF 6
