REMARK  5 active torsions:
REMARK  status: ('A' for Active; 'I' for Inactive)
REMARK    1  A    between atoms: C_5  and  C_1 
REMARK    2  A    between atoms: C_6  and  C_2 
REMARK    3  A    between atoms: C_4  and  C_6 
REMARK    4  A    between atoms: N_15  and  C_7 
REMARK    5  A    between atoms: S_16  and  C_8 
ROOT
ATOM      1  C   UNL d   1      -0.418   0.530  -3.592  0.00  0.00     0.032 A 
ATOM      2  C   UNL d   1      -0.148   0.783  -2.236  0.00  0.00     0.033 A 
ATOM      3  C   UNL d   1       0.520  -0.164  -1.447  0.00  0.00     0.048 A 
ATOM      4  C   UNL d   1       0.026  -0.657  -4.198  0.00  0.00     0.014 A 
ATOM      5  C   UNL d   1       0.899  -1.377  -2.036  0.00  0.00     0.017 A 
ATOM      6  C   UNL d   1       0.659  -1.616  -3.393  0.00  0.00     0.020 A 
ENDROOT
BRANCH   1   7
ATOM      7  C   UNL d   1      -1.185   1.576  -4.302  0.00  0.00     0.184 C 
ATOM      8  O   UNL d   1      -0.778   2.732  -4.300  0.00  0.00    -0.287 OA
BRANCH   7   9
ATOM      9  C   UNL d   1      -2.470   1.155  -4.921  0.00  0.00     0.072 C 
ATOM     10  C   UNL d   1      -3.187   2.022  -5.646  0.00  0.00     0.088 C 
BRANCH  10  11
ATOM     11  N   UNL d   1      -4.379   1.825  -6.332  0.00  0.00    -0.398 N 
ATOM     12  C   UNL d   1      -5.250   0.665  -6.146  0.00  0.00     0.148 C 
ATOM     13  C   UNL d   1      -4.994   2.911  -7.098  0.00  0.00     0.148 C 
ENDBRANCH  10  11
ENDBRANCH   7   9
ENDBRANCH   1   7
BRANCH   4  14
ATOM     14  S   UNL d   1      -0.115  -1.064  -5.937  0.00  0.00    -0.133 SA
ATOM     15  C   UNL d   1       0.727   0.365  -6.679  0.00  0.00     0.095 C 
ENDBRANCH   4  14
BRANCH   3  16
ATOM     16  C   UNL d   1       0.815   0.096   0.011  0.00  0.00     0.417 C 
ATOM     17  F   UNL d   1       0.550   1.372   0.402  0.00  0.00    -0.166 F 
ATOM     18  F   UNL d   1       2.121  -0.129   0.325  0.00  0.00    -0.166 F 
ATOM     19  F   UNL d   1       0.088  -0.708   0.834  0.00  0.00    -0.166 F 
ENDBRANCH   3  16
TORSDOF 5
