REMARK  5 active torsions:
REMARK  status: ('A' for Active; 'I' for Inactive)
REMARK    1  A    between atoms: C_15  and  C_5 
REMARK    2  A    between atoms: C_12  and  C_20 
REMARK    3  A    between atoms: O_19  and  N_16 
REMARK    4  A    between atoms: C_18  and  O_19 
REMARK    5  A    between atoms: C_21  and  C_18 
ROOT
ATOM      1  C   UNL d   1       2.495   1.702  -0.006  0.00  0.00     0.056 C 
ATOM      2  N   UNL d   1       2.412   3.001  -0.007  0.00  0.00    -0.260 N 
ATOM      3  HN  UNL d   1       3.226   3.615   0.002  1.00  0.00     0.194 HD
ATOM      4  C   UNL d   1       1.291   0.796  -0.013  0.00  0.00     0.072 C 
ENDROOT
BRANCH   1   5
ATOM      5  C   UNL d   1       3.845   1.119   0.003  0.00  0.00     0.064 A 
ATOM      6  N   UNL d   1       4.048  -0.265  -0.004  0.00  0.00    -0.347 N 
ATOM      7  C   UNL d   1       5.335  -0.556   0.030  0.00  0.00     0.095 A 
ATOM      8  HN  UNL d   1       3.300  -0.958  -0.032  1.00  0.00     0.167 HD
ATOM      9  C   UNL d   1       5.819  -1.909   0.032  0.00  0.00     0.080 A 
ATOM     10  S   UNL d   1       6.379   0.812   0.042  0.00  0.00    -0.080 SA
ATOM     11  C   UNL d   1       5.270  -3.056  -0.532  0.00  0.00     0.043 A 
ATOM     12  S   UNL d   1       7.271  -2.397   0.818  0.00  0.00     0.006 SA
ATOM     13  N   UNL d   1       6.009  -4.221  -0.323  0.00  0.00    -0.298 N 
ATOM     14  C   UNL d   1       4.031  -3.198  -1.339  0.00  0.00     0.071 C 
ATOM     15  N   UNL d   1       7.101  -3.997   0.384  0.00  0.00    -0.269 N 
ATOM     16  HN  UNL d   1       5.738  -5.138  -0.677  1.00  0.00     0.187 HD
ATOM     17  HN  UNL d   1       7.768  -4.726   0.638  1.00  0.00     0.195 HD
ATOM     18  C   UNL d   1       5.020   1.851   0.016  0.00  0.00     0.083 A 
ENDBRANCH   1   5
BRANCH   2  19
ATOM     19  O   UNL d   1       1.075   3.478  -0.020  0.00  0.00    -0.195 OA
BRANCH  19  20
ATOM     20  C   UNL d   1       1.095   4.849  -0.001  0.00  0.00     0.315 C 
ATOM     21  O   UNL d   1       2.092   5.562   0.040  0.00  0.00    -0.257 OA
BRANCH  20  22
ATOM     22  C   UNL d   1      -0.278   5.441  -0.047  0.00  0.00     0.041 A 
ATOM     23  C   UNL d   1      -0.369   6.843  -0.070  0.00  0.00     0.018 A 
ATOM     24  C   UNL d   1      -1.608   7.487  -0.122  0.00  0.00     0.017 A 
ATOM     25  C   UNL d   1      -2.793   6.743  -0.156  0.00  0.00     0.048 A 
ATOM     26  C   UNL d   1      -2.706   5.339  -0.126  0.00  0.00     0.017 A 
ATOM     27  C   UNL d   1      -1.459   4.690  -0.070  0.00  0.00     0.018 A 
BRANCH  25  28
ATOM     28  C   UNL d   1      -4.137   7.435  -0.232  0.00  0.00     0.417 C 
ATOM     29  F   UNL d   1      -4.049   8.795  -0.246  0.00  0.00    -0.166 F 
ATOM     30  F   UNL d   1      -4.834   7.096  -1.351  0.00  0.00    -0.166 F 
ATOM     31  F   UNL d   1      -4.943   7.126   0.821  0.00  0.00    -0.166 F 
ENDBRANCH  25  28
ENDBRANCH  20  22
ENDBRANCH  19  20
ENDBRANCH   2  19
TORSDOF 5
