REMARK  7 active torsions:
REMARK  status: ('A' for Active; 'I' for Inactive)
REMARK    1  A    between atoms: C_3  and  C_1 
REMARK    2  A    between atoms: C_4  and  CA_2 
REMARK       I    between atoms: N_5  and  C_3 
REMARK    3  A    between atoms: OXT_23  and  C_4 
REMARK    4  A    between atoms: C_18  and  N_5 
REMARK    5  A    between atoms: O_17  and  C_12 
REMARK    6  A    between atoms: C_14  and  C_15 
REMARK    7  A    between atoms: C_22  and  O_17 
ROOT
ATOM      1  N   UNL d   1       2.365  -5.081  -0.539  0.00  0.00    -0.344 N 
ATOM      2  HN  UNL d   1       2.806  -5.731  -1.189  1.00  0.00     0.167 HD
ATOM      3  C   UNL d   1       3.095  -4.298   0.280  0.00  0.00     0.148 A 
ATOM      4  C   UNL d   1       0.351  -4.073   0.383  0.00  0.00     0.050 A 
ATOM      5  C   UNL d   1       1.014  -4.964  -0.459  0.00  0.00     0.119 A 
ATOM      6  C   UNL d   1       2.533  -3.405   1.180  0.00  0.00     0.059 A 
ATOM      7  C   UNL d   1       1.141  -3.296   1.232  0.00  0.00     0.035 A 
ENDROOT
BRANCH   4   8
ATOM      8  N   UNL d   1      -1.044  -3.855   0.386  0.00  0.00    -0.320 N 
ATOM      9  C   UNL d   1      -1.981  -4.539  -0.371  0.00  0.00     0.275 C 
ATOM     10  O   UNL d   1      -1.776  -5.534  -1.052  0.00  0.00    -0.266 OA
ATOM     11  H   UNL d   1      -1.390  -3.056   0.907  0.00  0.00     0.169 HD
BRANCH   9  12
ATOM     12  C   UNL d   1      -3.331  -3.909  -0.394  0.00  0.00     0.134 A 
ATOM     13  CA  UNL d   1      -4.474  -4.641  -0.678  0.00  0.00     0.139 A 
ATOM     14  N   UNL d   1      -5.674  -4.035  -0.943  0.00  0.00    -0.357 N 
ATOM     15  C   UNL d   1      -5.667  -2.684  -0.904  0.00  0.00     0.105 A 
ATOM     16  HN  UNL d   1      -6.517  -4.569  -1.156  1.00  0.00     0.165 HD
ATOM     17  C   UNL d   1      -4.536  -1.955  -0.569  0.00  0.00     0.105 A 
ATOM     18  N   UNL d   1      -3.344  -2.539  -0.297  0.00  0.00    -0.358 N 
ATOM     19  HN  UNL d   1      -2.516  -2.001  -0.041  1.00  0.00     0.165 HD
BRANCH  13  20
ATOM     20  C   UNL d   1      -4.495  -6.107  -0.497  0.00  0.00     0.196 C 
ATOM     21  O   UNL d   1      -3.966  -6.711   0.421  0.00  0.00    -0.645 OA
BRANCH  20  22
ATOM     22  OXT UNL d   1      -5.249  -6.735  -1.419  0.00  0.00    -0.772 OA
ATOM     23  HXT UNL d   1      -5.211  -7.679  -1.161  0.00  0.00     0.167 HD
ENDBRANCH  20  22
ENDBRANCH  13  20
ENDBRANCH   9  12
ENDBRANCH   4   8
BRANCH   3  24
ATOM     24  O   UNL d   1       4.481  -4.285   0.177  0.00  0.00    -0.294 OA
BRANCH  24  25
ATOM     25  C   UNL d   1       5.113  -5.432  -0.246  0.00  0.00     0.077 A 
ATOM     26  C   UNL d   1       6.196  -5.287  -1.109  0.00  0.00     0.038 A 
ATOM     27  C   UNL d   1       6.942  -6.408  -1.499  0.00  0.00     0.011 A 
ATOM     28  C   UNL d   1       6.634  -7.697  -1.024  0.00  0.00    -0.050 A 
ATOM     29  C   UNL d   1       5.536  -7.813  -0.154  0.00  0.00     0.011 A 
ATOM     30  C   UNL d   1       4.792  -6.696   0.240  0.00  0.00     0.038 A 
BRANCH  28  31
ATOM     31  C   UNL d   1       7.491  -8.910  -1.430  0.00  0.00    -0.024 C 
ATOM     32  C   UNL d   1       7.022 -10.239  -0.791  0.00  0.00     0.019 C 
ATOM     33  C   UNL d   1       7.454  -9.101  -2.961  0.00  0.00     0.019 C 
ATOM     34  C   UNL d   1       8.952  -8.684  -0.984  0.00  0.00     0.019 C 
ENDBRANCH  28  31
ENDBRANCH  24  25
ENDBRANCH   3  24
TORSDOF 7
