REMARK  4 active torsions:
REMARK  status: ('A' for Active; 'I' for Inactive)
REMARK    1  A    between atoms: N_7  and  C_1 
REMARK    2  A    between atoms: S_17  and  C_1 
REMARK    3  A    between atoms: C_2  and  N_8 
REMARK    4  A    between atoms: S_18  and  C_2 
ROOT
ATOM      1  C   UNL d   1       1.398   5.085  -8.493  0.00  0.00     0.151 C 
ATOM      2  N   UNL d   1       1.128   6.157  -9.182  0.00  0.00    -0.274 N 
ATOM      3  HN  UNL d   1       0.621   6.920  -8.733  1.00  0.00     0.180 HD
ATOM      4  C   UNL d   1       1.496   6.285 -10.458  0.00  0.00     0.183 C 
ATOM      5  N   UNL d   1       1.817   6.425 -11.564  0.00  0.00    -0.172 NA
ENDROOT
BRANCH   1   6
ATOM      6  N   UNL d   1       0.890   4.932  -7.208  0.00  0.00    -0.358 N 
ATOM      7  C   UNL d   1       1.544   4.190  -6.115  0.00  0.00     0.145 C 
ATOM      8  C   UNL d   1       0.511   3.340  -5.332  0.00  0.00     0.145 C 
ATOM      9  N   UNL d   1      -0.619   4.167  -4.878  0.00  0.00    -0.358 N 
ATOM     10  C   UNL d   1      -1.236   4.994  -5.921  0.00  0.00     0.145 C 
ATOM     11  C   UNL d   1      -0.193   5.811  -6.713  0.00  0.00     0.145 C 
BRANCH   9  12
ATOM     12  C   UNL d   1      -1.059   4.205  -3.569  0.00  0.00     0.151 C 
ATOM     13  N   UNL d   1      -1.145   5.334  -2.934  0.00  0.00    -0.274 N 
ATOM     14  C   UNL d   1      -1.465   5.365  -1.639  0.00  0.00     0.183 C 
ATOM     15  HN  UNL d   1      -0.967   6.206  -3.431  1.00  0.00     0.180 HD
ATOM     16  N   UNL d   1      -1.750   5.414  -0.512  0.00  0.00    -0.172 NA
BRANCH  12  17
ATOM     17  S   UNL d   1      -1.465   2.625  -2.881  0.00  0.00    -0.098 SA
ATOM     18  C   UNL d   1      -3.249   2.822  -2.610  0.00  0.00     0.099 C 
ENDBRANCH  12  17
ENDBRANCH   9  12
ENDBRANCH   1   6
BRANCH   1  19
ATOM     19  S   UNL d   1       2.268   3.690  -9.156  0.00  0.00    -0.098 SA
ATOM     20  C   UNL d   1       3.925   4.364  -9.414  0.00  0.00     0.099 C 
ENDBRANCH   1  19
TORSDOF 4
