REMARK  8 active torsions:
REMARK  status: ('A' for Active; 'I' for Inactive)
REMARK       I    between atoms: N_8  and  C_1 
REMARK       I    between atoms: N_14  and  C_1 
REMARK    1  A    between atoms: C_13  and  C_2 
REMARK    2  A    between atoms: C_5  and  C_21 
REMARK    3  A    between atoms: C_10  and  N_8 
REMARK    4  A    between atoms: N_16  and  C_13 
REMARK    5  A    between atoms: C_22  and  N_14 
REMARK    6  A    between atoms: S_20  and  C_23 
REMARK    7  A    between atoms: C_21  and  S_20 
REMARK    8  A    between atoms: C_23  and  C_22 
ROOT
ATOM      1  C   UNL d   1       2.436   0.792  -1.518  0.00  0.00     0.320 C 
ATOM      2  N   UNL d   1       3.276   0.487  -2.555  0.00  0.00    -0.309 N 
ATOM      3  O   UNL d   1       1.544   1.634  -1.531  0.00  0.00    -0.247 OA
ATOM      4  N   UNL d   1       2.626   0.104  -0.360  0.00  0.00    -0.342 N 
ATOM      5  H   UNL d   1       3.971  -0.216  -2.371  0.00  0.00     0.170 HD
ATOM      6  H   UNL d   1       1.923   0.363   0.323  0.00  0.00     0.164 HD
ENDROOT
BRANCH   4   7
ATOM      7  C   UNL d   1       3.401  -1.095  -0.076  0.00  0.00     0.134 C 
BRANCH   7   8
ATOM      8  C   UNL d   1       4.905  -0.854   0.075  0.00  0.00     0.094 C 
BRANCH   8   9
ATOM      9  S   UNL d   1       5.700  -2.442   0.515  0.00  0.00    -0.161 SA
BRANCH   9  10
ATOM     10  C   UNL d   1       7.432  -1.901   0.666  0.00  0.00     0.139 C 
BRANCH  10  11
ATOM     11  C   UNL d   1       7.605  -0.885   1.727  0.00  0.00     0.062 A 
ATOM     12  O   UNL d   1       7.713   0.410   1.312  0.00  0.00    -0.317 OA
ATOM     13  C   UNL d   1       7.853   1.178   2.431  0.00  0.00     0.081 A 
ATOM     14  C   UNL d   1       7.829   0.381   3.557  0.00  0.00     0.037 A 
ATOM     15  C   UNL d   1       7.685  -0.950   3.103  0.00  0.00     0.036 A 
BRANCH  13  16
ATOM     16  C   UNL d   1       8.031   2.643   2.220  0.00  0.00     0.335 C 
BRANCH  16  17
ATOM     17  N   UNL d   1       9.262   3.146   2.859  0.00  0.00     0.086 N 
ATOM     18  C   UNL d   1      10.460   2.583   2.228  0.00  0.00     0.309 C 
ATOM     19  C   UNL d   1       9.305   4.607   2.784  0.00  0.00     0.309 C 
ENDBRANCH  16  17
ENDBRANCH  13  16
ENDBRANCH  10  11
ENDBRANCH   9  10
ENDBRANCH   8   9
ENDBRANCH   7   8
ENDBRANCH   4   7
BRANCH   2  20
ATOM     20  C   UNL d   1       3.292   1.060  -3.843  0.00  0.00     0.038 A 
ATOM     21  C   UNL d   1       2.345   1.978  -4.305  0.00  0.00     0.055 A 
ATOM     22  C   UNL d   1       2.399   2.465  -5.616  0.00  0.00     0.058 A 
ATOM     23 CL   UNL d   1       1.172   3.575  -6.117  0.00  0.00    -0.082 Cl
ATOM     24  C   UNL d   1       3.420   2.047  -6.477  0.00  0.00     0.055 A 
ATOM     25  C   UNL d   1       4.386   1.153  -6.014  0.00  0.00     0.028 A 
ATOM     26 CL   UNL d   1       3.534   2.582  -8.115  0.00  0.00    -0.083 Cl
ATOM     27  C   UNL d   1       4.321   0.661  -4.708  0.00  0.00     0.031 A 
ENDBRANCH   2  20
TORSDOF 8
