REMARK  6 active torsions:
REMARK  status: ('A' for Active; 'I' for Inactive)
REMARK       I    between atoms: N_2  and  C_1 
REMARK    1  A    between atoms: O_6  and  C_1 
REMARK       I    between atoms: C_3  and  N_8 
REMARK       I    between atoms: N_5  and  C_3 
REMARK    2  A    between atoms: C_4  and  N_5 
REMARK    3  A    between atoms: C_14  and  O_6 
REMARK    4  A    between atoms: N_8  and  C_17 
REMARK    5  A    between atoms: O_23  and  C_10 
REMARK    6  A    between atoms: C_17  and  C_22 
ROOT
ATOM      1  C   UNL d   1      -0.824  -1.767   6.149  0.00  0.00     0.320 C 
ATOM      2  N   UNL d   1      -1.043  -1.385   7.460  0.00  0.00    -0.306 N 
ATOM      3  N   UNL d   1      -1.861  -1.418   5.318  0.00  0.00    -0.342 N 
ATOM      4  O   UNL d   1       0.158  -2.362   5.725  0.00  0.00    -0.247 OA
ATOM      5  H   UNL d   1      -2.006  -1.239   7.708  0.00  0.00     0.171 HD
ATOM      6  H   UNL d   1      -2.608  -0.836   5.665  0.00  0.00     0.164 HD
ENDROOT
BRANCH   3   7
ATOM      7  C   UNL d   1      -1.867  -1.821   3.919  0.00  0.00     0.129 C 
BRANCH   7   8
ATOM      8  C   UNL d   1      -1.841  -0.629   2.947  0.00  0.00     0.006 C 
ATOM      9  C   UNL d   1      -0.593   0.265   3.112  0.00  0.00     0.026 C 
ATOM     10  C   UNL d   1       0.652  -0.325   2.455  0.00  0.00     0.128 C 
ATOM     11  N   UNL d   1       0.373  -0.618   1.055  0.00  0.00    -0.328 N 
ATOM     12  C   UNL d   1       0.988   0.135   0.065  0.00  0.00     0.363 C 
ATOM     13  C   UNL d   1      -0.686  -1.592   0.841  0.00  0.00     0.128 C 
ATOM     14  O   UNL d   1       1.838   0.984   0.321  0.00  0.00    -0.238 OA
ATOM     15  C   UNL d   1      -1.992  -1.104   1.478  0.00  0.00     0.026 C 
BRANCH  12  16
ATOM     16  O   UNL d   1       0.560  -0.143  -1.196  0.00  0.00    -0.294 OA
BRANCH  16  17
ATOM     17  C   UNL d   1       1.170   0.531  -2.338  0.00  0.00     0.061 C 
ATOM     18  C   UNL d   1       2.650   0.145  -2.477  0.00  0.00     0.046 C 
ATOM     19  C   UNL d   1       0.428   0.024  -3.588  0.00  0.00     0.046 C 
ATOM     20  C   UNL d   1       0.987   2.055  -2.279  0.00  0.00     0.046 C 
ENDBRANCH  16  17
ENDBRANCH  12  16
ENDBRANCH   7   8
ENDBRANCH   3   7
BRANCH   2  21
ATOM     21  C   UNL d   1      -0.144  -1.586   8.543  0.00  0.00     0.071 A 
ATOM     22  C   UNL d   1       1.200  -1.914   8.309  0.00  0.00     0.056 A 
ATOM     23  C   UNL d   1       2.044  -2.295   9.353  0.00  0.00     0.036 A 
ATOM     24 CL   UNL d   1       3.649  -2.815   9.006  0.00  0.00    -0.084 Cl
ATOM     25  C   UNL d   1       1.583  -2.297  10.662  0.00  0.00     0.026 A 
ATOM     26  C   UNL d   1       0.272  -1.899  10.924  0.00  0.00     0.041 A 
ATOM     27  C   UNL d   1      -0.594  -1.533   9.878  0.00  0.00     0.095 A 
BRANCH  27  28
ATOM     28  O   UNL d   1      -1.890  -1.317  10.275  0.00  0.00    -0.354 OA
ATOM     29  C   UNL d   1      -2.478  -0.085   9.873  0.00  0.00     0.210 C 
ENDBRANCH  27  28
ENDBRANCH   2  21
TORSDOF 6
