REMARK  5 active torsions:
REMARK  status: ('A' for Active; 'I' for Inactive)
REMARK    1  A    between atoms: C_2  and  C_1 
REMARK    2  A    between atoms: C_19  and  C_9 
REMARK    3  A    between atoms: C_21  and  C_10 
REMARK    4  A    between atoms: C_13  and  O_20 
REMARK    5  A    between atoms: O_20  and  C_21 
ROOT
ATOM      1  C   UNL d   1      -1.516   2.245  -0.028  0.00  0.00     0.075 A 
ATOM      2  N   UNL d   1      -2.412   2.526   0.986  0.00  0.00    -0.349 N 
ATOM      3  HN  UNL d   1      -2.609   1.914   1.778  1.00  0.00     0.166 HD
ATOM      4  C   UNL d   1      -2.973   3.700   0.780  0.00  0.00     0.075 A 
ATOM      5  C   UNL d   1      -1.359   3.247  -0.964  0.00  0.00     0.084 A 
ATOM      6  S   UNL d   1      -2.393   4.561  -0.595  0.00  0.00    -0.084 SA
ENDROOT
BRANCH   1   7
ATOM      7  C   UNL d   1      -0.770   0.959  -0.065  0.00  0.00     0.128 A 
ATOM      8  C   UNL d   1      -0.069   0.439  -1.128  0.00  0.00     0.074 A 
ATOM      9  C   UNL d   1       0.484  -0.778  -0.653  0.00  0.00     0.068 A 
ATOM     10  N   UNL d   1       0.135  -0.977   0.627  0.00  0.00    -0.260 N 
ATOM     11  O   UNL d   1      -0.679   0.086   0.976  0.00  0.00    -0.235 OA
ATOM     12  HN  UNL d   1       0.414  -1.757   1.223  1.00  0.00     0.195 HD
BRANCH   9  13
ATOM     13  C   UNL d   1       1.329  -1.716  -1.386  0.00  0.00    -0.007 A 
ATOM     14  C   UNL d   1       2.307  -2.463  -0.715  0.00  0.00     0.014 A 
ATOM     15  C   UNL d   1       3.136  -3.341  -1.417  0.00  0.00     0.001 A 
ATOM     16  C   UNL d   1       2.990  -3.486  -2.796  0.00  0.00     0.000 A 
ATOM     17  C   UNL d   1       2.014  -2.758  -3.473  0.00  0.00     0.001 A 
ATOM     18  C   UNL d   1       1.187  -1.875  -2.773  0.00  0.00     0.014 A 
ENDBRANCH   9  13
ENDBRANCH   1   7
BRANCH   4  19
ATOM     19  C   UNL d   1      -3.995   4.324   1.679  0.00  0.00     0.240 C 
BRANCH  19  20
ATOM     20  O   UNL d   1      -5.281   4.122   1.087  0.00  0.00    -0.345 OA
BRANCH  20  21
ATOM     21  C   UNL d   1      -6.349   4.662   1.749  0.00  0.00     0.072 A 
ATOM     22  C   UNL d   1      -6.285   5.366   2.957  0.00  0.00     0.060 A 
ATOM     23  C   UNL d   1      -7.454   5.885   3.520  0.00  0.00     0.038 A 
ATOM     24 CL   UNL d   1      -7.357   6.759   5.001  0.00  0.00    -0.084 Cl
ATOM     25  C   UNL d   1      -8.686   5.712   2.903  0.00  0.00     0.048 A 
ATOM     26  C   UNL d   1      -8.747   5.005   1.707  0.00  0.00     0.038 A 
ATOM     27  C   UNL d   1      -7.589   4.481   1.128  0.00  0.00     0.060 A 
ATOM     28 CL   UNL d   1     -10.265   4.780   0.927  0.00  0.00    -0.084 Cl
ENDBRANCH  20  21
ENDBRANCH  19  20
ENDBRANCH   4  19
TORSDOF 5
