REMARK  2 active torsions:
REMARK  status: ('A' for Active; 'I' for Inactive)
REMARK    1  A    between atoms: N_4  and  C_2 
REMARK    2  A    between atoms: C_7  and  N_4 
ROOT
ATOM      1  C   UNL d   1       2.152   0.710  -1.161  0.00  0.00     0.087 A 
ATOM      2  C   UNL d   1       1.082   1.413  -0.557  0.00  0.00     0.031 A 
ATOM      3  C   UNL d   1       3.373   1.397  -1.493  0.00  0.00     0.103 C 
ATOM      4  N   UNL d   1       4.367   1.928  -1.770  0.00  0.00    -0.191 NA
ATOM      5  C   UNL d   1       2.010  -0.656  -1.469  0.00  0.00     0.056 A 
ATOM      6 CL   UNL d   1       3.272  -1.573  -2.221  0.00  0.00    -0.083 Cl
ATOM      7  C   UNL d   1      -0.071   0.682  -0.216  0.00  0.00     0.025 A 
ATOM      8  C   UNL d   1      -0.212  -0.667  -0.540  0.00  0.00     0.003 A 
ATOM      9  C   UNL d   1       0.827  -1.336  -1.171  0.00  0.00     0.025 A 
ENDROOT
BRANCH   2  10
ATOM     10  N   UNL d   1       1.245   2.770  -0.192  0.00  0.00    -0.278 NA
ATOM     11  H   UNL d   1       1.695   2.777   0.734  0.00  0.00     0.128 HD
BRANCH  10  12
ATOM     12  C   UNL d   1       0.074   3.708  -0.120  0.00  0.00     0.152 C 
ATOM     13  C   UNL d   1      -0.658   3.532   1.236  0.00  0.00     0.235 C 
ATOM     14  N   UNL d   1      -1.842   4.159   1.472  0.00  0.00    -0.360 N 
ATOM     15  O   UNL d   1      -0.174   2.868   2.158  0.00  0.00    -0.272 OA
ATOM     16  C   UNL d   1      -2.431   5.234   0.712  0.00  0.00     0.122 C 
ATOM     17  H   UNL d   1      -2.179   4.008   2.416  0.00  0.00     0.162 HD
ATOM     18  C   UNL d   1      -2.902   4.786  -0.659  0.00  0.00     0.020 C 
ATOM     19  C   UNL d   1      -1.763   4.721  -1.667  0.00  0.00     0.004 C 
ATOM     20  C   UNL d   1      -0.763   3.600  -1.405  0.00  0.00     0.029 C 
ENDBRANCH  10  12
ENDBRANCH   2  10
TORSDOF 2
