REMARK  6 active torsions:
REMARK  status: ('A' for Active; 'I' for Inactive)
REMARK    1  A    between atoms: C_2  and  C_1 
REMARK       I    between atoms: N_5  and  C_2 
REMARK    2  A    between atoms: S_6  and  C_3 
REMARK    3  A    between atoms: C_4  and  O_11 
REMARK    4  A    between atoms: C_12  and  N_5 
REMARK    5  A    between atoms: C_13  and  S_6 
REMARK    6  A    between atoms: O_11  and  C_17 
ROOT
ATOM      1  C   UNL d   1       1.751   1.795  -0.238  0.00  0.00     0.258 C 
ATOM      2  N   UNL d   1       2.757   1.889   0.730  0.00  0.00    -0.323 N 
ATOM      3  O   UNL d   1       1.711   2.503  -1.243  0.00  0.00    -0.267 OA
ATOM      4  H   UNL d   1       2.562   1.474   1.629  0.00  0.00     0.169 HD
ENDROOT
BRANCH   1   5
ATOM      5  C   UNL d   1       0.722   0.743   0.010  0.00  0.00     0.056 C 
ATOM      6  C   UNL d   1      -0.585   0.541  -0.642  0.00  0.00     0.028 C 
ATOM      7  C   UNL d   1      -1.094  -0.711  -0.357  0.00  0.00     0.069 C 
ATOM      8  S   UNL d   1      -0.248  -1.514   0.880  0.00  0.00    -0.111 SA
ATOM      9  C   UNL d   1       0.941  -0.296   0.912  0.00  0.00     0.068 C 
BRANCH   6  10
ATOM     10  S   UNL d   1      -1.385   1.698  -1.729  0.00  0.00    -0.089 SA
BRANCH  10  11
ATOM     11  C   UNL d   1      -3.088   1.196  -2.081  0.00  0.00     0.005 A 
ATOM     12  C   UNL d   1      -3.929   0.503  -1.200  0.00  0.00     0.020 A 
ATOM     13  C   UNL d   1      -5.236   0.145  -1.565  0.00  0.00     0.025 A 
ATOM     14  C   UNL d   1      -5.752   0.534  -2.802  0.00  0.00     0.034 A 
ATOM     15  C   UNL d   1      -4.961   1.275  -3.670  0.00  0.00     0.025 A 
ATOM     16 CL   UNL d   1      -7.361   0.116  -3.239  0.00  0.00    -0.084 Cl
ATOM     17  C   UNL d   1      -3.641   1.597  -3.314  0.00  0.00     0.020 A 
ENDBRANCH  10  11
ENDBRANCH   6  10
ENDBRANCH   1   5
BRANCH   2  18
ATOM     18  C   UNL d   1       3.962   2.638   0.668  0.00  0.00     0.035 A 
ATOM     19  C   UNL d   1       4.636   2.888   1.868  0.00  0.00     0.032 A 
ATOM     20  C   UNL d   1       5.793   3.686   1.892  0.00  0.00     0.039 A 
ATOM     21  C   UNL d   1       6.311   4.228   0.715  0.00  0.00     0.078 A 
ATOM     22  C   UNL d   1       5.714   3.877  -0.496  0.00  0.00     0.039 A 
ATOM     23  C   UNL d   1       4.533   3.106  -0.517  0.00  0.00     0.032 A 
BRANCH  21  24
ATOM     24  O   UNL d   1       7.411   5.012   0.868  0.00  0.00    -0.255 OA
BRANCH  24  25
ATOM     25  C   UNL d   1       7.598   6.112  -0.016  0.00  0.00     0.530 C 
ATOM     26  F   UNL d   1       6.536   6.380  -0.802  0.00  0.00    -0.144 F 
ATOM     27  F   UNL d   1       7.853   7.217   0.724  0.00  0.00    -0.144 F 
ATOM     28  F   UNL d   1       8.674   5.878  -0.799  0.00  0.00    -0.144 F 
ENDBRANCH  24  25
ENDBRANCH  21  24
ENDBRANCH   2  18
TORSDOF 6
