REMARK  6 active torsions:
REMARK  status: ('A' for Active; 'I' for Inactive)
REMARK    1  A    between atoms: N_2  and  C_1 
REMARK    2  A    between atoms: C_7  and  C_4 
REMARK    3  A    between atoms: C_5  and  C_9 
REMARK    4  A    between atoms: O_12  and  C_7 
REMARK    5  A    between atoms: C_19  and  O_12 
REMARK    6  A    between atoms: C_20  and  C_19 
ROOT
ATOM      1  O   UNL d   1      -2.225  -2.725   0.062  0.00  0.00    -0.311 OA
ENDROOT
BRANCH   1   2
ATOM      2  C   UNL d   1      -1.304  -2.756  -0.942  0.00  0.00     0.317 C 
ATOM      3  O   UNL d   1      -1.242  -1.944  -1.857  0.00  0.00    -0.257 OA
BRANCH   2   4
ATOM      4  C   UNL d   1      -0.392  -3.868  -0.786  0.00  0.00     0.153 A 
ATOM      5  O   UNL d   1      -0.492  -4.742   0.272  0.00  0.00    -0.282 OA
ATOM      6  C   UNL d   1       0.511  -5.653   0.114  0.00  0.00     0.215 A 
ATOM      7  C   UNL d   1       1.259  -5.396  -1.010  0.00  0.00     0.066 A 
ATOM      8  C   UNL d   1       0.679  -4.243  -1.588  0.00  0.00     0.048 A 
BRANCH   6   9
ATOM      9  N   UNL d   1       0.618  -6.682   1.101  0.00  0.00    -0.090 N 
ATOM     10  O   UNL d   1       1.530  -7.506   0.931  0.00  0.00    -0.530 OA
ATOM     11  O   UNL d   1      -0.187  -6.674   2.039  0.00  0.00    -0.530 OA
ENDBRANCH   6   9
ENDBRANCH   2   4
ENDBRANCH   1   2
BRANCH   1  12
ATOM     12  C   UNL d   1      -3.138  -1.620   0.030  0.00  0.00     0.217 C 
BRANCH  12  13
ATOM     13  C   UNL d   1      -4.551  -2.133  -0.082  0.00  0.00    -0.034 A 
ATOM     14  C   UNL d   1      -5.298  -2.422   1.067  0.00  0.00     0.010 A 
ATOM     15  C   UNL d   1      -6.605  -2.908   0.963  0.00  0.00     0.017 A 
ATOM     16  C   UNL d   1      -7.188  -3.122  -0.294  0.00  0.00     0.047 A 
ATOM     17  C   UNL d   1      -6.439  -2.832  -1.444  0.00  0.00     0.017 A 
ATOM     18  C   UNL d   1      -5.132  -2.345  -1.339  0.00  0.00     0.010 A 
BRANCH  16  19
ATOM     19  C   UNL d   1      -8.589  -3.666  -0.424  0.00  0.00     0.417 C 
ATOM     20  F   UNL d   1      -9.197  -3.906   0.772  0.00  0.00    -0.166 F 
ATOM     21  F   UNL d   1      -9.418  -2.821  -1.098  0.00  0.00    -0.166 F 
ATOM     22  F   UNL d   1      -8.629  -4.846  -1.103  0.00  0.00    -0.166 F 
ENDBRANCH  16  19
ENDBRANCH  12  13
ENDBRANCH   1  12
TORSDOF 6
