REMARK  5 active torsions:
REMARK  status: ('A' for Active; 'I' for Inactive)
REMARK    1  A    between atoms: C_12  and  C_1 
REMARK       I    between atoms: N_13  and  C_2 
REMARK       I    between atoms: N_14  and  C_2 
REMARK    2  A    between atoms: O_15  and  C_4 
REMARK    3  A    between atoms: O_16  and  C_5 
REMARK    4  A    between atoms: N_7  and  N_10 
REMARK    5  A    between atoms: O_17  and  C_9 
ROOT
ATOM      1  C   UNL d   1       1.375  -0.331   0.041  0.00  0.00     0.017 A 
ATOM      2  C   UNL d   1      -0.903  -1.122  -0.128  0.00  0.00     0.077 A 
ATOM      3  C   UNL d   1       0.479  -1.399  -0.086  0.00  0.00     0.082 A 
ATOM      4  C   UNL d   1      -1.425   0.173  -0.048  0.00  0.00     0.104 A 
ATOM      5  C   UNL d   1       0.852   0.975   0.128  0.00  0.00     0.055 A 
ATOM      6  C   UNL d   1      -0.529   1.236   0.104  0.00  0.00     0.102 A 
ENDROOT
BRANCH   1   7
ATOM      7  C   UNL d   1       2.848  -0.444   0.184  0.00  0.00     0.121 C 
ATOM      8  N   UNL d   1       3.644   0.506  -0.196  0.00  0.00    -0.309 N 
ATOM      9  HN  UNL d   1       3.331   1.355  -0.667  1.00  0.00     0.186 HD
BRANCH   8  10
ATOM     10  N   UNL d   1       4.990   0.234   0.115  0.00  0.00    -0.281 N 
ATOM     11  C   UNL d   1       5.790   1.187  -0.246  0.00  0.00     0.141 C 
ATOM     12  N   UNL d   1       5.445   2.325  -0.897  0.00  0.00    -0.278 NA
ATOM     13  N   UNL d   1       7.128   1.182  -0.021  0.00  0.00    -0.278 NA
ATOM     14  H   UNL d   1       4.521   2.188  -1.303  0.00  0.00     0.126 HD
ATOM     15  H   UNL d   1       6.125   2.602  -1.595  0.00  0.00     0.126 HD
ATOM     16  H   UNL d   1       7.397   0.462   0.637  0.00  0.00     0.126 HD
ATOM     17  H   UNL d   1       7.478   2.087   0.258  0.00  0.00     0.126 HD
ATOM     18  HN  UNL d   1       5.302  -0.622   0.574  1.00  0.00     0.189 HD
ENDBRANCH   8  10
ENDBRANCH   1   7
BRANCH   3  19
ATOM     19  O   UNL d   1       0.676  -2.745  -0.178  0.00  0.00    -0.355 OA
ATOM     20  C   UNL d   1       1.944  -3.288  -0.486  0.00  0.00     0.210 C 
ENDBRANCH   3  19
BRANCH   6  21
ATOM     21  O   UNL d   1      -0.832   2.570   0.200  0.00  0.00    -0.353 OA
ATOM     22  C   UNL d   1      -2.087   2.909   0.779  0.00  0.00     0.210 C 
ENDBRANCH   6  21
BRANCH   4  23
ATOM     23  O   UNL d   1      -2.763   0.447  -0.135  0.00  0.00    -0.353 OA
ATOM     24  C   UNL d   1      -3.658  -0.640  -0.344  0.00  0.00     0.210 C 
ENDBRANCH   4  23
TORSDOF 5
