REMARK  5 active torsions:
REMARK  status: ('A' for Active; 'I' for Inactive)
REMARK    1  A    between atoms: N_5  and  C_1 
REMARK    2  A    between atoms: C_2  and  N_5 
REMARK    3  A    between atoms: N_11  and  C_2 
REMARK       I    between atoms: C_6  and  N_8 
REMARK    4  A    between atoms: C_7  and  C_6 
REMARK    5  A    between atoms: N_8  and  N_11 
ROOT
ATOM      1  C   UNL d   1      -0.288   3.489  -0.172  0.00  0.00     0.191 C 
ATOM      2  S   UNL d   1       0.685   2.164   0.174  0.00  0.00    -0.039 SA
ENDROOT
BRANCH   1   3
ATOM      3  N   UNL d   1       0.324   4.704  -0.252  0.00  0.00    -0.329 N 
ATOM      4  H   UNL d   1       1.254   4.682   0.163  0.00  0.00     0.168 HD
BRANCH   3   5
ATOM      5  C   UNL d   1      -0.093   5.996  -0.674  0.00  0.00     0.078 C 
ATOM      6  C   UNL d   1      -1.123   6.289  -1.587  0.00  0.00     0.064 C 
ATOM      7  C   UNL d   1      -1.505   7.615  -1.838  0.00  0.00     0.050 C 
ATOM      8 CL   UNL d   1      -1.848   5.116  -2.629  0.00  0.00    -0.082 Cl
ATOM      9  C   UNL d   1      -0.814   8.667  -1.250  0.00  0.00     0.037 C 
ATOM     10  C   UNL d   1       0.285   8.414  -0.441  0.00  0.00     0.050 C 
ATOM     11 CL   UNL d   1      -1.289  10.288  -1.569  0.00  0.00    -0.084 Cl
ATOM     12  C   UNL d   1       0.641   7.092  -0.164  0.00  0.00     0.064 C 
ATOM     13 CL   UNL d   1       2.033   6.842   0.842  0.00  0.00    -0.082 Cl
ENDBRANCH   3   5
ENDBRANCH   1   3
BRANCH   1  14
ATOM     14  N   UNL d   1      -1.648   3.420  -0.258  0.00  0.00    -0.273 N 
ATOM     15  H   UNL d   1      -2.196   4.237  -0.518  0.00  0.00     0.189 HD
BRANCH  14  16
ATOM     16  N   UNL d   1      -2.277   2.202  -0.575  0.00  0.00    -0.264 N 
ATOM     17  C   UNL d   1      -3.602   2.232  -0.963  0.00  0.00     0.271 C 
ATOM     18  O   UNL d   1      -4.314   3.227  -0.863  0.00  0.00    -0.266 OA
ATOM     19  H   UNL d   1      -1.687   1.374  -0.617  0.00  0.00     0.190 HD
BRANCH  17  20
ATOM     20  C   UNL d   1      -4.142   0.977  -1.525  0.00  0.00     0.049 A 
ATOM     21  C   UNL d   1      -5.464   0.641  -1.270  0.00  0.00     0.104 A 
ATOM     22  N   UNL d   1      -6.058  -0.481  -1.750  0.00  0.00    -0.374 N 
ATOM     23  C   UNL d   1      -5.303  -1.280  -2.533  0.00  0.00     0.087 A 
ATOM     24  HN  UNL d   1      -7.027  -0.710  -1.529  1.00  0.00     0.164 HD
ATOM     25  C   UNL d   1      -3.986  -1.013  -2.867  0.00  0.00     0.018 A 
ATOM     26  C   UNL d   1      -3.391   0.137  -2.351  0.00  0.00     0.020 A 
ENDBRANCH  17  20
ENDBRANCH  14  16
ENDBRANCH   1  14
TORSDOF 5
