REMARK  4 active torsions:
REMARK  status: ('A' for Active; 'I' for Inactive)
REMARK    1  A    between atoms: S_8  and  C_2 
REMARK    2  A    between atoms: C_6  and  C_4 
REMARK       I    between atoms: N_10  and  C_6 
REMARK    3  A    between atoms: O_13  and  C_7 
REMARK    4  A    between atoms: N_12  and  N_10 
ROOT
ATOM      1  C   UNL d   1       0.118  -0.758  -0.027  0.00  0.00     0.002 A 
ATOM      2  C   UNL d   1       1.229  -1.583   0.061  0.00  0.00     0.051 A 
ATOM      3  C   UNL d   1       0.503   0.648  -0.009  0.00  0.00    -0.025 A 
ATOM      4  C   UNL d   1       1.879   0.823  -0.028  0.00  0.00     0.082 A 
ATOM      5  S   UNL d   1       2.683  -0.678   0.101  0.00  0.00    -0.076 SA
ATOM      6  C   UNL d   1      -1.335  -1.162  -0.120  0.00  0.00     0.153 C 
ATOM      7  C   UNL d   1      -0.517   1.757  -0.043  0.00  0.00     0.041 C 
ATOM      8  C   UNL d   1      -1.909   1.268   0.353  0.00  0.00     0.007 C 
ATOM      9  C   UNL d   1      -2.275   0.012  -0.431  0.00  0.00     0.037 C 
ENDROOT
BRANCH   4  10
ATOM     10  C   UNL d   1       2.632   2.071  -0.164  0.00  0.00     0.273 C 
ATOM     11  O   UNL d   1       2.103   3.175  -0.325  0.00  0.00    -0.266 OA
ATOM     12  N   UNL d   1       4.023   1.952  -0.127  0.00  0.00    -0.289 N 
ATOM     13  H   UNL d   1       4.438   1.045   0.073  0.00  0.00     0.183 HD
BRANCH  12  14
ATOM     14  N   UNL d   1       4.854   3.091  -0.247  0.00  0.00    -0.247 NA
ATOM     15  H   UNL d   1       4.235   3.914  -0.232  0.00  0.00     0.143 HD
ATOM     16  H   UNL d   1       5.252   3.093  -1.189  0.00  0.00     0.143 HD
ENDBRANCH  12  14
ENDBRANCH   4  10
BRANCH   2  17
ATOM     17  S   UNL d   1       1.379  -3.340   0.044  0.00  0.00    -0.126 SA
ATOM     18  C   UNL d   1      -0.005  -3.940   1.024  0.00  0.00     0.096 C 
ENDBRANCH   2  17
BRANCH   6  19
ATOM     19  O   UNL d   1      -1.553  -2.143  -1.133  0.00  0.00    -0.391 OA
ATOM     20  H   UNL d   1      -1.022  -1.876  -1.903  0.00  0.00     0.210 HD
ENDBRANCH   6  19
TORSDOF 4
