REMARK  8 active torsions:
REMARK  status: ('A' for Active; 'I' for Inactive)
REMARK    1  A    between atoms: C_12  and  C_1 
REMARK    2  A    between atoms: C_11  and  C_2 
REMARK    3  A    between atoms: C_6  and  C_10 
REMARK    4  A    between atoms: C_7  and  C_9 
REMARK    5  A    between atoms: O_27  and  C_12 
REMARK    6  A    between atoms: N_16  and  N_13 
REMARK    7  A    between atoms: C_17  and  N_16 
REMARK    8  A    between atoms: C_29  and  O_27 
ROOT
ATOM      1  N   UNL d   1       0.512   3.379   0.076  0.00  0.00    -0.301 N 
ATOM      2  H   UNL d   1       0.968   2.779  -0.611  0.00  0.00     0.187 HD
ENDROOT
BRANCH   1   3
ATOM      3  N   UNL d   1      -0.855   3.346   0.110  0.00  0.00    -0.302 N 
ATOM      4  C   UNL d   1      -1.420   2.171   0.049  0.00  0.00     0.058 C 
ATOM      5  C   UNL d   1      -0.639   0.872   0.019  0.00  0.00     0.072 C 
ATOM      6  HN  UNL d   1      -1.407   4.201   0.180  1.00  0.00     0.186 HD
BRANCH   4   7
ATOM      7  C   UNL d   1      -2.860   2.105  -0.004  0.00  0.00     0.124 A 
ATOM      8  C   UNL d   1      -3.845   3.067   0.015  0.00  0.00     0.079 A 
ATOM      9  C   UNL d   1      -5.066   2.345  -0.042  0.00  0.00     0.132 A 
ATOM     10  N   UNL d   1      -4.824   1.025  -0.123  0.00  0.00    -0.255 N 
ATOM     11  O   UNL d   1      -3.456   0.885  -0.097  0.00  0.00    -0.235 OA
ATOM     12  HN  UNL d   1      -5.515   0.278  -0.191  1.00  0.00     0.195 HD
BRANCH   9  13
ATOM     13  C   UNL d   1      -6.420   2.883   0.043  0.00  0.00     0.311 C 
ATOM     14  O   UNL d   1      -6.651   4.081   0.181  0.00  0.00    -0.258 OA
BRANCH  13  15
ATOM     15  O   UNL d   1      -7.376   1.908   0.051  0.00  0.00    -0.317 OA
BRANCH  15  16
ATOM     16  C   UNL d   1      -8.650   2.285   0.586  0.00  0.00     0.175 C 
ATOM     17  C   UNL d   1      -8.603   2.092   2.092  0.00  0.00     0.034 C 
ENDBRANCH  15  16
ENDBRANCH  13  15
ENDBRANCH   9  13
ENDBRANCH   4   7
ENDBRANCH   1   3
BRANCH   1  18
ATOM     18  C   UNL d   1       1.131   4.648   0.152  0.00  0.00     0.049 A 
ATOM     19  C   UNL d   1       0.560   5.714   0.858  0.00  0.00     0.047 A 
ATOM     20  C   UNL d   1       1.225   6.946   0.986  0.00  0.00     0.050 A 
ATOM     21  C   UNL d   1       2.481   7.109   0.380  0.00  0.00     0.032 A 
ATOM     22  C   UNL d   1       3.087   6.050  -0.310  0.00  0.00     0.050 A 
ATOM     23  C   UNL d   1       2.409   4.822  -0.399  0.00  0.00     0.047 A 
BRANCH  20  24
ATOM     24  C   UNL d   1       0.600   8.056   1.795  0.00  0.00     0.417 C 
ATOM     25  F   UNL d   1       1.374   9.177   1.859  0.00  0.00    -0.166 F 
ATOM     26  F   UNL d   1      -0.600   8.461   1.299  0.00  0.00    -0.166 F 
ATOM     27  F   UNL d   1       0.372   7.692   3.087  0.00  0.00    -0.166 F 
ENDBRANCH  20  24
BRANCH  22  28
ATOM     28  C   UNL d   1       4.453   6.201  -0.935  0.00  0.00     0.417 C 
ATOM     29  F   UNL d   1       4.981   7.448  -0.795  0.00  0.00    -0.166 F 
ATOM     30  F   UNL d   1       5.365   5.345  -0.398  0.00  0.00    -0.166 F 
ATOM     31  F   UNL d   1       4.444   5.946  -2.273  0.00  0.00    -0.166 F 
ENDBRANCH  22  28
ENDBRANCH   1  18
TORSDOF 8
