REMARK  5 active torsions:
REMARK  status: ('A' for Active; 'I' for Inactive)
REMARK    1  A    between atoms: S_2  and  C_1 
REMARK    2  A    between atoms: N_3  and  C_1 
REMARK    3  A    between atoms: C_6  and  S_2 
REMARK    4  A    between atoms: N_9  and  N_4 
REMARK    5  A    between atoms: C_12  and  N_9 
ROOT
ATOM      1  C   UNL d   1       0.983   0.009   0.071  0.00  0.00     0.288 C 
ATOM      2  N   UNL d   1       2.285  -0.030   0.159  0.00  0.00    -0.270 N 
ATOM      3  HN  UNL d   1       2.812  -0.496  -0.579  1.00  0.00     0.189 HD
ENDROOT
BRANCH   1   4
ATOM      4  S   UNL d   1       0.054  -0.637  -1.225  0.00  0.00     0.245 S 
ATOM      5  O   UNL d   1      -0.667  -1.799  -0.741  0.00  0.00    -0.214 OA
ATOM      6  O   UNL d   1      -0.631   0.478  -1.859  0.00  0.00    -0.214 OA
BRANCH   4   7
ATOM      7  C   UNL d   1       1.252  -1.247  -2.396  0.00  0.00     0.067 A 
ATOM      8  C   UNL d   1       1.646  -2.588  -2.339  0.00  0.00     0.024 A 
ATOM      9  C   UNL d   1       2.538  -3.085  -3.290  0.00  0.00     0.008 A 
ATOM     10  C   UNL d   1       3.030  -2.255  -4.306  0.00  0.00    -0.062 A 
ATOM     11  C   UNL d   1       2.626  -0.914  -4.352  0.00  0.00     0.008 A 
ATOM     12  C   UNL d   1       3.969  -2.814  -5.336  0.00  0.00     0.048 C 
ATOM     13  C   UNL d   1       1.732  -0.408  -3.404  0.00  0.00     0.024 A 
ENDBRANCH   4   7
ENDBRANCH   1   4
BRANCH   1  14
ATOM     14  N   UNL d   1       0.188   0.626   1.111  0.00  0.00    -0.084 N 
ATOM     15  O   UNL d   1      -0.906   0.118   1.381  0.00  0.00    -0.530 OA
ATOM     16  O   UNL d   1       0.669   1.611   1.700  0.00  0.00    -0.530 OA
ENDBRANCH   1  14
BRANCH   2  17
ATOM     17  N   UNL d   1       2.963   0.525   1.193  0.00  0.00    -0.299 N 
ATOM     18  H   UNL d   1       2.534   1.182   1.856  0.00  0.00     0.187 HD
BRANCH  17  19
ATOM     19  C   UNL d   1       4.262   0.076   1.481  0.00  0.00     0.051 A 
ATOM     20  C   UNL d   1       4.902  -0.895   0.698  0.00  0.00     0.054 A 
ATOM     21  C   UNL d   1       6.181  -1.344   1.025  0.00  0.00     0.037 A 
ATOM     22 CL   UNL d   1       6.928  -2.556   0.059  0.00  0.00    -0.084 Cl
ATOM     23  C   UNL d   1       6.851  -0.828   2.128  0.00  0.00     0.048 A 
ATOM     24  C   UNL d   1       6.233   0.154   2.896  0.00  0.00     0.037 A 
ATOM     25  C   UNL d   1       4.952   0.610   2.576  0.00  0.00     0.054 A 
ATOM     26 CL   UNL d   1       7.051   0.807   4.261  0.00  0.00    -0.084 Cl
ENDBRANCH  17  19
ENDBRANCH   2  17
TORSDOF 5
