REMARK  5 active torsions:
REMARK  status: ('A' for Active; 'I' for Inactive)
REMARK    1  A    between atoms: C_2  and  C_1 
REMARK    2  A    between atoms: C_13  and  C_8 
REMARK       I    between atoms: C_12  and  N_16 
REMARK    3  A    between atoms: C_18  and  C_12 
REMARK    4  A    between atoms: C_15  and  C_13 
REMARK       I    between atoms: N_17  and  C_15 
REMARK    5  A    between atoms: N_16  and  N_17 
ROOT
ATOM      1  C   UNL d   1       2.042  -5.473  -2.853  0.00  0.00     0.241 C 
ATOM      2  N   UNL d   1       1.247  -4.389  -3.131  0.00  0.00    -0.267 N 
ATOM      3  O   UNL d   1       2.072  -6.448  -3.614  0.00  0.00    -0.271 OA
ATOM      4  H   UNL d   1       1.029  -3.683  -2.421  0.00  0.00     0.190 HD
ENDROOT
BRANCH   1   5
ATOM      5  C   UNL d   1       3.007  -5.385  -1.691  0.00  0.00     0.162 C 
BRANCH   5   6
ATOM      6  C   UNL d   1       2.681  -4.534  -0.503  0.00  0.00     0.025 A 
ATOM      7  N   UNL d   1       1.595  -3.667  -0.478  0.00  0.00    -0.351 N 
ATOM      8  C   UNL d   1       1.582  -2.985   0.657  0.00  0.00     0.101 A 
ATOM      9  HN  UNL d   1       0.907  -3.571  -1.226  1.00  0.00     0.166 HD
ATOM     10  S   UNL d   1       2.846  -3.366   1.758  0.00  0.00    -0.080 SA
ATOM     11  C   UNL d   1       3.455  -4.508   0.646  0.00  0.00     0.077 A 
BRANCH   8  12
ATOM     12  C   UNL d   1       0.555  -1.930   0.970  0.00  0.00     0.073 A 
ATOM     13  N   UNL d   1       0.632  -1.122   2.099  0.00  0.00    -0.352 N 
ATOM     14  C   UNL d   1      -0.357  -0.254   2.095  0.00  0.00     0.047 A 
ATOM     15  HN  UNL d   1       1.348  -1.192   2.823  1.00  0.00     0.166 HD
ATOM     16  C   UNL d   1      -0.551   0.811   3.117  0.00  0.00     0.076 C 
ATOM     17  S   UNL d   1      -1.461  -0.398   0.784  0.00  0.00    -0.087 SA
ATOM     18  C   UNL d   1      -0.524  -1.682   0.146  0.00  0.00     0.083 A 
ENDBRANCH   8  12
ENDBRANCH   5   6
ENDBRANCH   1   5
BRANCH   2  19
ATOM     19  N   UNL d   1       0.422  -4.465  -4.270  0.00  0.00    -0.263 N 
ATOM     20  C   UNL d   1      -0.478  -3.451  -4.524  0.00  0.00     0.270 C 
ATOM     21  O   UNL d   1      -0.653  -2.526  -3.733  0.00  0.00    -0.266 OA
ATOM     22  H   UNL d   1       0.634  -5.232  -4.903  0.00  0.00     0.190 HD
BRANCH  20  23
ATOM     23  C   UNL d   1      -1.243  -3.501  -5.818  0.00  0.00     0.033 A 
ATOM     24  C   UNL d   1      -1.162  -4.553  -6.740  0.00  0.00     0.017 A 
ATOM     25  C   UNL d   1      -1.912  -4.518  -7.927  0.00  0.00     0.007 A 
ATOM     26  C   UNL d   1      -2.756  -3.438  -8.213  0.00  0.00    -0.062 A 
ATOM     27  C   UNL d   1      -2.835  -2.387  -7.297  0.00  0.00     0.007 A 
ATOM     28  C   UNL d   1      -3.543  -3.405  -9.492  0.00  0.00     0.048 C 
ATOM     29  C   UNL d   1      -2.088  -2.419  -6.113  0.00  0.00     0.017 A 
ENDBRANCH  20  23
ENDBRANCH   2  19
TORSDOF 5
