REMARK  6 active torsions:
REMARK  status: ('A' for Active; 'I' for Inactive)
REMARK    1  A    between atoms: C_8  and  N_1 
REMARK    2  A    between atoms: C_13  and  C_2 
REMARK    3  A    between atoms: S_15  and  C_5 
REMARK    4  A    between atoms: C_9  and  C_11 
REMARK    5  A    between atoms: C_10  and  O_14 
REMARK    6  A    between atoms: O_14  and  C_24 
ROOT
ATOM      1  N   UNL d   1      -0.265  -1.275  -0.049  0.00  0.00    -0.275 N 
ATOM      2  C   UNL d   1       0.996  -0.664  -0.051  0.00  0.00     0.139 A 
ATOM      3  N   UNL d   1       0.834   0.648  -0.019  0.00  0.00    -0.282 N 
ATOM      4  HN  UNL d   1       1.584   1.337   0.039  1.00  0.00     0.188 HD
ATOM      5  C   UNL d   1      -1.151  -0.209  -0.099  0.00  0.00     0.165 A 
ATOM      6  N   UNL d   1      -0.500   0.929  -0.077  0.00  0.00    -0.278 N 
ATOM      7  HN  UNL d   1      -0.916   1.860  -0.099  1.00  0.00     0.189 HD
ENDROOT
BRANCH   2   8
ATOM      8  C   UNL d   1       2.313  -1.306  -0.131  0.00  0.00     0.010 A 
ATOM      9  C   UNL d   1       2.583  -2.383  -0.988  0.00  0.00     0.018 A 
ATOM     10  C   UNL d   1       3.844  -3.002  -0.996  0.00  0.00     0.038 A 
ATOM     11  C   UNL d   1       4.851  -2.540  -0.152  0.00  0.00     0.078 A 
ATOM     12  C   UNL d   1       4.617  -1.411   0.635  0.00  0.00     0.038 A 
ATOM     13  C   UNL d   1       3.362  -0.802   0.650  0.00  0.00     0.018 A 
BRANCH  11  14
ATOM     14  O   UNL d   1       6.098  -3.071  -0.023  0.00  0.00    -0.255 OA
BRANCH  14  15
ATOM     15  C   UNL d   1       6.266  -4.455  -0.291  0.00  0.00     0.530 C 
ATOM     16  F   UNL d   1       5.153  -5.178  -0.044  0.00  0.00    -0.144 F 
ATOM     17  F   UNL d   1       6.638  -4.635  -1.576  0.00  0.00    -0.144 F 
ATOM     18  F   UNL d   1       7.251  -4.927   0.506  0.00  0.00    -0.144 F 
ENDBRANCH  14  15
ENDBRANCH  11  14
ENDBRANCH   2   8
BRANCH   1  19
ATOM     19  C   UNL d   1      -0.549  -2.674   0.008  0.00  0.00     0.044 A 
ATOM     20  C   UNL d   1       0.215  -3.510   0.833  0.00  0.00     0.046 A 
ATOM     21  C   UNL d   1      -0.001  -4.901   0.840  0.00  0.00     0.050 A 
ATOM     22  C   UNL d   1      -1.023  -5.433   0.043  0.00  0.00     0.016 A 
ATOM     23  C   UNL d   1      -1.797  -4.599  -0.763  0.00  0.00     0.003 A 
ATOM     24  C   UNL d   1      -1.555  -3.225  -0.791  0.00  0.00     0.030 A 
BRANCH  21  25
ATOM     25  C   UNL d   1       0.858  -5.824   1.677  0.00  0.00     0.417 C 
ATOM     26  F   UNL d   1       1.852  -5.182   2.349  0.00  0.00    -0.166 F 
ATOM     27  F   UNL d   1       0.138  -6.492   2.619  0.00  0.00    -0.166 F 
ATOM     28  F   UNL d   1       1.470  -6.778   0.923  0.00  0.00    -0.166 F 
ENDBRANCH  21  25
ENDBRANCH   1  19
BRANCH   5  29
ATOM     29  S   UNL d   1      -2.883  -0.282  -0.005  0.00  0.00    -0.105 SA
ATOM     30  H   UNL d   1      -3.031  -1.494   0.545  0.00  0.00     0.110 HD
ENDBRANCH   5  29
TORSDOF 6
