REMARK  6 active torsions:
REMARK  status: ('A' for Active; 'I' for Inactive)
REMARK       I    between atoms: N_3  and  C_1 
REMARK       I    between atoms: N_6  and  C_1 
REMARK    1  A    between atoms: C_12  and  N_3 
REMARK    2  A    between atoms: C_16  and  N_6 
REMARK    3  A    between atoms: O_13  and  C_15 
REMARK    4  A    between atoms: C_18  and  O_13 
REMARK    5  A    between atoms: C_14  and  C_16 
REMARK    6  A    between atoms: C_23  and  C_18 
ROOT
ATOM      1  C   UNL d   1       0.793   0.367   0.249  0.00  0.00     0.320 C 
ATOM      2  N   UNL d   1       0.407  -0.816   0.842  0.00  0.00    -0.309 N 
ATOM      3  N   UNL d   1       0.030   0.648  -0.861  0.00  0.00    -0.339 N 
ATOM      4  O   UNL d   1       1.695   1.107   0.619  0.00  0.00    -0.247 OA
ATOM      5  H   UNL d   1      -0.390  -1.277   0.436  0.00  0.00     0.170 HD
ATOM      6  H   UNL d   1      -0.742   0.057  -1.114  0.00  0.00     0.164 HD
ENDROOT
BRANCH   2   7
ATOM      7  C   UNL d   1       0.976  -1.426   1.978  0.00  0.00     0.036 A 
ATOM      8  C   UNL d   1       2.088  -0.929   2.659  0.00  0.00     0.032 A 
ATOM      9  C   UNL d   1       2.574  -1.584   3.796  0.00  0.00     0.039 A 
ATOM     10  C   UNL d   1       1.951  -2.734   4.274  0.00  0.00     0.069 A 
ATOM     11  C   UNL d   1       0.866  -3.260   3.575  0.00  0.00     0.039 A 
ATOM     12  C   UNL d   1       0.378  -2.605   2.439  0.00  0.00     0.032 A 
BRANCH  10  13
ATOM     13  O   UNL d   1       2.487  -3.257   5.417  0.00  0.00    -0.347 OA
BRANCH  13  14
ATOM     14  C   UNL d   1       1.611  -4.082   6.186  0.00  0.00     0.214 C 
BRANCH  14  15
ATOM     15  C   UNL d   1       2.093  -4.138   7.615  0.00  0.00    -0.034 A 
ATOM     16  C   UNL d   1       2.279  -2.954   8.344  0.00  0.00     0.009 A 
ATOM     17  C   UNL d   1       2.656  -3.000   9.687  0.00  0.00     0.001 A 
ATOM     18  C   UNL d   1       2.849  -4.229  10.313  0.00  0.00     0.000 A 
ATOM     19  C   UNL d   1       2.672  -5.412   9.597  0.00  0.00     0.001 A 
ATOM     20  C   UNL d   1       2.294  -5.368   8.254  0.00  0.00     0.009 A 
ENDBRANCH  14  15
ENDBRANCH  13  14
ENDBRANCH  10  13
ENDBRANCH   2   7
BRANCH   3  21
ATOM     21  C   UNL d   1       0.257   1.837  -1.651  0.00  0.00     0.163 C 
BRANCH  21  22
ATOM     22  C   UNL d   1      -0.939   2.755  -1.620  0.00  0.00    -0.038 A 
ATOM     23  C   UNL d   1      -1.657   3.025  -2.796  0.00  0.00     0.048 A 
ATOM     24  C   UNL d   1      -2.723   3.897  -2.721  0.00  0.00     0.105 A 
ATOM     25  O   UNL d   1      -3.514   4.271  -3.762  0.00  0.00    -0.323 OA
ATOM     26  C   UNL d   1      -3.091   4.495  -1.540  0.00  0.00     0.105 A 
ATOM     27  C   UNL d   1      -4.426   5.170  -3.099  0.00  0.00     0.352 A 
ATOM     28  O   UNL d   1      -4.161   5.322  -1.689  0.00  0.00    -0.323 OA
ATOM     29  C   UNL d   1      -2.415   4.255  -0.365  0.00  0.00     0.040 A 
ATOM     30  C   UNL d   1      -1.328   3.376  -0.409  0.00  0.00     0.012 A 
ENDBRANCH  21  22
ENDBRANCH   3  21
TORSDOF 6
