REMARK  6 active torsions:
REMARK  status: ('A' for Active; 'I' for Inactive)
REMARK    1  A    between atoms: C_3  and  C_1 
REMARK    2  A    between atoms: C_12  and  C_2 
REMARK    3  A    between atoms: O_21  and  C_12 
REMARK    4  A    between atoms: N_14  and  N_17 
REMARK    5  A    between atoms: C_16  and  C_20 
REMARK    6  A    between atoms: C_26  and  O_21 
ROOT
ATOM      1  C   UNL d   1       0.378  -2.739  -0.058  0.00  0.00     0.056 A 
ATOM      2  N   UNL d   1       1.174  -3.180   0.978  0.00  0.00    -0.334 N 
ATOM      3  HN  UNL d   1       1.522  -2.588   1.732  1.00  0.00     0.168 HD
ATOM      4  C   UNL d   1       1.424  -4.466   0.864  0.00  0.00     0.163 A 
ATOM      5  C   UNL d   1       0.037  -3.704  -0.979  0.00  0.00     0.083 A 
ATOM      6  S   UNL d   1       0.687  -5.218  -0.502  0.00  0.00    -0.062 SA
ATOM      7  N   UNL d   1       2.194  -5.198   1.713  0.00  0.00    -0.280 N 
ATOM      8  H   UNL d   1       2.256  -6.194   1.526  0.00  0.00     0.189 HD
ENDROOT
BRANCH   1   9
ATOM      9  C   UNL d   1      -0.065  -1.349  -0.010  0.00  0.00     0.057 A 
ATOM     10  C   UNL d   1      -0.430  -0.496  -1.081  0.00  0.00     0.144 A 
ATOM     11  N   UNL d   1      -0.852   0.694  -0.604  0.00  0.00    -0.254 N 
ATOM     12  O   UNL d   1      -0.725   0.633   0.764  0.00  0.00    -0.241 OA
ATOM     13  HN  UNL d   1      -1.198   1.483  -1.150  1.00  0.00     0.195 HD
ATOM     14  C   UNL d   1      -0.254  -0.587   1.123  0.00  0.00     0.087 A 
ATOM     15  C   UNL d   1      -0.100  -0.825   2.570  0.00  0.00     0.080 C 
BRANCH  10  16
ATOM     16  C   UNL d   1      -0.362  -0.718  -2.521  0.00  0.00     0.312 C 
ATOM     17  O   UNL d   1       0.397  -1.513  -3.056  0.00  0.00    -0.258 OA
BRANCH  16  18
ATOM     18  O   UNL d   1      -1.218   0.105  -3.202  0.00  0.00    -0.317 OA
BRANCH  18  19
ATOM     19  C   UNL d   1      -0.927   0.315  -4.586  0.00  0.00     0.175 C 
ATOM     20  C   UNL d   1       0.015   1.500  -4.681  0.00  0.00     0.034 C 
ENDBRANCH  18  19
ENDBRANCH  16  18
ENDBRANCH  10  16
ENDBRANCH   1   9
BRANCH   7  21
ATOM     21  N   UNL d   1       3.142  -4.600   2.483  0.00  0.00    -0.309 N 
ATOM     22  C   UNL d   1       3.906  -5.378   3.180  0.00  0.00     0.120 C 
ATOM     23  HN  UNL d   1       3.246  -3.585   2.509  1.00  0.00     0.186 HD
BRANCH  22  24
ATOM     24  C   UNL d   1       4.998  -4.806   3.999  0.00  0.00     0.002 A 
ATOM     25  C   UNL d   1       5.791  -5.594   4.840  0.00  0.00     0.045 A 
ATOM     26 CL   UNL d   1       5.595  -7.304   4.984  0.00  0.00    -0.083 Cl
ATOM     27  C   UNL d   1       6.795  -4.994   5.610  0.00  0.00     0.024 A 
ATOM     28  C   UNL d   1       7.016  -3.617   5.537  0.00  0.00     0.002 A 
ATOM     29  C   UNL d   1       6.242  -2.833   4.687  0.00  0.00     0.001 A 
ATOM     30  C   UNL d   1       5.237  -3.424   3.921  0.00  0.00     0.014 A 
ENDBRANCH  22  24
ENDBRANCH   7  21
TORSDOF 6
