REMARK  5 active torsions:
REMARK  status: ('A' for Active; 'I' for Inactive)
REMARK    1  A    between atoms: C_14  and  N_2 
REMARK    2  A    between atoms: C_6  and  O_16 
REMARK       I    between atoms: N_7  and  C_6 
REMARK    3  A    between atoms: C_8  and  N_7 
REMARK    4  A    between atoms: C_17  and  C_14 
REMARK    5  A    between atoms: O_16  and  C_17 
ROOT
ATOM      1  O   UNL d   1       6.174  -1.029  -0.573  0.00  0.00    -0.302 OA
ENDROOT
BRANCH   1   2
ATOM      2  C   UNL d   1       7.041  -0.143  -0.024  0.00  0.00     0.365 C 
ATOM      3  N   UNL d   1       8.362  -0.477  -0.081  0.00  0.00    -0.302 N 
ATOM      4  H   UNL d   1       8.866   0.022   0.640  0.00  0.00     0.171 HD
ATOM      5  O   UNL d   1       6.704   0.857   0.604  0.00  0.00    -0.238 OA
BRANCH   3   6
ATOM      6  C   UNL d   1       9.145  -1.337  -0.883  0.00  0.00     0.048 A 
ATOM      7  C   UNL d   1       8.910  -1.703  -2.245  0.00  0.00     0.001 A 
ATOM      8  C   UNL d   1       9.908  -2.478  -2.908  0.00  0.00    -0.024 A 
ATOM      9  C   UNL d   1       7.811  -1.302  -3.044  0.00  0.00     0.014 A 
ATOM     10  C   UNL d   1       9.766  -2.835  -4.260  0.00  0.00     0.012 A 
ATOM     11  C   UNL d   1      11.075  -2.868  -2.239  0.00  0.00     0.012 A 
ATOM     12  C   UNL d   1       8.650  -2.448  -4.993  0.00  0.00     0.001 A 
ATOM     13  C   UNL d   1       7.670  -1.683  -4.383  0.00  0.00     0.001 A 
ATOM     14  C   UNL d   1      11.293  -2.504  -0.918  0.00  0.00     0.003 A 
ATOM     15  C   UNL d   1      10.341  -1.739  -0.255  0.00  0.00     0.030 A 
ENDBRANCH   3   6
ENDBRANCH   1   2
BRANCH   1  16
ATOM     16  C   UNL d   1       4.772  -0.703  -0.428  0.00  0.00     0.202 C 
BRANCH  16  17
ATOM     17  C   UNL d   1       4.242  -0.123  -1.736  0.00  0.00     0.179 C 
BRANCH  17  18
ATOM     18  N   UNL d   1       2.865   0.353  -1.642  0.00  0.00    -0.255 N 
ATOM     19  C   UNL d   1       1.807  -0.545  -1.782  0.00  0.00     0.273 A 
ATOM     20  C   UNL d   1       0.449   0.028  -1.739  0.00  0.00     0.045 A 
ATOM     21  O   UNL d   1       1.949  -1.755  -1.945  0.00  0.00    -0.266 OA
ATOM     22  C   UNL d   1       0.301   1.391  -1.526  0.00  0.00    -0.004 A 
ATOM     23  C   UNL d   1      -0.688  -0.766  -1.924  0.00  0.00     0.018 A 
ATOM     24  C   UNL d   1       1.510   2.183  -1.342  0.00  0.00     0.119 A 
ATOM     25  C   UNL d   1      -0.959   1.988  -1.498  0.00  0.00     0.014 A 
ATOM     26  N   UNL d   1       2.711   1.700  -1.397  0.00  0.00    -0.306 N 
ATOM     27  HN  UNL d   1       3.523   2.303  -1.262  1.00  0.00     0.186 HD
ATOM     28  C   UNL d   1      -2.093   1.194  -1.687  0.00  0.00     0.001 A 
ATOM     29  C   UNL d   1      -1.957  -0.181  -1.899  0.00  0.00     0.001 A 
ENDBRANCH  17  18
ENDBRANCH  16  17
ENDBRANCH   1  16
TORSDOF 5
