REMARK  4 active torsions:
REMARK  status: ('A' for Active; 'I' for Inactive)
REMARK    1  A    between atoms: C_9  and  N_2 
REMARK    2  A    between atoms: O_14  and  C_6 
REMARK    3  A    between atoms: O_15  and  C_8 
REMARK    4  A    between atoms: C_13  and  C_9 
ROOT
ATOM      1  C   UNL d   1      -1.341   0.767   0.332  0.00  0.00     0.254 C 
ATOM      2  N   UNL d   1      -2.251  -0.277   0.178  0.00  0.00    -0.343 N 
ATOM      3  C   UNL d   1       0.102   0.436   0.147  0.00  0.00     0.041 A 
ATOM      4  C   UNL d   1       0.525  -0.895   0.130  0.00  0.00    -0.038 A 
ATOM      5  C   UNL d   1       1.033   1.475   0.009  0.00  0.00     0.057 A 
ATOM      6  C   UNL d   1       2.402   1.206  -0.133  0.00  0.00     0.102 A 
ATOM      7  C   UNL d   1       1.893  -1.166   0.032  0.00  0.00     0.047 A 
ATOM      8  C   UNL d   1       2.837  -0.133  -0.101  0.00  0.00     0.102 A 
ATOM      9  C   UNL d   1      -1.809  -1.559  -0.358  0.00  0.00     0.131 C 
ATOM     10  O   UNL d   1      -1.662   1.916   0.625  0.00  0.00    -0.267 OA
ATOM     11  C   UNL d   1      -0.487  -1.996   0.272  0.00  0.00     0.059 C 
ENDROOT
BRANCH   2  12
ATOM     12  C   UNL d   1      -3.680   0.018   0.210  0.00  0.00     0.164 C 
BRANCH  12  13
ATOM     13  C   UNL d   1      -4.229   0.487  -1.117  0.00  0.00    -0.040 A 
ATOM     14  C   UNL d   1      -4.781  -0.415  -2.036  0.00  0.00     0.009 A 
ATOM     15  C   UNL d   1      -5.285   0.038  -3.260  0.00  0.00     0.007 A 
ATOM     16  C   UNL d   1      -5.245   1.399  -3.589  0.00  0.00    -0.062 A 
ATOM     17  C   UNL d   1      -4.694   2.300  -2.675  0.00  0.00     0.007 A 
ATOM     18  C   UNL d   1      -5.768   1.871  -4.913  0.00  0.00     0.048 C 
ATOM     19  C   UNL d   1      -4.191   1.848  -1.453  0.00  0.00     0.009 A 
ENDBRANCH  12  13
ENDBRANCH   2  12
BRANCH   6  20
ATOM     20  O   UNL d   1       3.337   2.193  -0.300  0.00  0.00    -0.353 OA
ATOM     21  C   UNL d   1       2.890   3.539  -0.392  0.00  0.00     0.210 C 
ENDBRANCH   6  20
BRANCH   8  22
ATOM     22  O   UNL d   1       4.116  -0.621  -0.186  0.00  0.00    -0.353 OA
ATOM     23  C   UNL d   1       5.199   0.292  -0.285  0.00  0.00     0.210 C 
ENDBRANCH   8  22
TORSDOF 4
