REMARK  6 active torsions:
REMARK  status: ('A' for Active; 'I' for Inactive)
REMARK    1  A    between atoms: C_8  and  C_1 
REMARK    2  A    between atoms: C_9  and  C_1 
REMARK    3  A    between atoms: C_6  and  N_2 
REMARK    4  A    between atoms: C_12  and  C_8 
REMARK    5  A    between atoms: O_22  and  C_9 
REMARK    6  A    between atoms: O_26  and  C_12 
ROOT
ATOM      1  C   UNL d   1      -2.370   0.501  -0.361  0.00  0.00     0.247 C 
ATOM      2  N   UNL d   1      -2.425  -0.810   0.318  0.00  0.00    -0.271 N 
ATOM      3  C   UNL d   1      -1.261  -1.574   0.406  0.00  0.00     0.264 C 
ATOM      4  C   UNL d   1      -0.004  -0.822   0.218  0.00  0.00     0.067 A 
ATOM      5  O   UNL d   1      -1.254   1.252   0.183  0.00  0.00    -0.308 OA
ATOM      6  C   UNL d   1      -0.070   0.570   0.183  0.00  0.00     0.088 A 
ATOM      7  O   UNL d   1      -1.219  -2.755   0.726  0.00  0.00    -0.267 OA
ATOM      8  C   UNL d   1       1.232  -1.472   0.212  0.00  0.00     0.039 A 
ATOM      9  C   UNL d   1       1.097   1.329   0.178  0.00  0.00     0.039 A 
ATOM     10  C   UNL d   1       2.398  -0.708   0.181  0.00  0.00     0.012 A 
ATOM     11  C   UNL d   1       2.337   0.688   0.172  0.00  0.00     0.022 A 
ATOM     12 BR   UNL d   1       4.081  -1.567   0.180  0.00  0.00    -0.051 Br
ENDROOT
BRANCH   1  13
ATOM     13  C   UNL d   1      -2.171   0.363  -1.887  0.00  0.00     0.184 C 
BRANCH  13  14
ATOM     14  C   UNL d   1      -3.371  -0.198  -2.596  0.00  0.00     0.263 C 
ATOM     15  O   UNL d   1      -4.061   0.459  -3.362  0.00  0.00    -0.265 OA
BRANCH  14  16
ATOM     16  O   UNL d   1      -3.515  -1.519  -2.327  0.00  0.00    -0.326 OA
ATOM     17  C   UNL d   1      -4.584  -2.195  -2.998  0.00  0.00     0.213 C 
ENDBRANCH  14  16
ENDBRANCH  13  14
ENDBRANCH   1  13
BRANCH   1  18
ATOM     18  C   UNL d   1      -3.642   1.411  -0.198  0.00  0.00     0.316 C 
ATOM     19  O   UNL d   1      -4.798   1.009  -0.139  0.00  0.00    -0.260 OA
BRANCH  18  20
ATOM     20  O   UNL d   1      -3.294   2.735  -0.195  0.00  0.00    -0.323 OA
ATOM     21  C   UNL d   1      -4.379   3.652  -0.037  0.00  0.00     0.213 C 
ENDBRANCH  18  20
ENDBRANCH   1  18
BRANCH   2  22
ATOM     22  C   UNL d   1      -3.391  -1.050   1.328  0.00  0.00     0.044 A 
ATOM     23  C   UNL d   1      -3.358  -0.317   2.520  0.00  0.00     0.053 A 
ATOM     24  C   UNL d   1      -4.301  -0.579   3.512  0.00  0.00     0.037 A 
ATOM     25 CL   UNL d   1      -4.248   0.308   4.986  0.00  0.00    -0.084 Cl
ATOM     26  C   UNL d   1      -5.279  -1.552   3.324  0.00  0.00     0.048 A 
ATOM     27  C   UNL d   1      -5.296  -2.282   2.136  0.00  0.00     0.037 A 
ATOM     28  C   UNL d   1      -4.348  -2.048   1.143  0.00  0.00     0.053 A 
ATOM     29 CL   UNL d   1      -6.507  -3.481   1.894  0.00  0.00    -0.084 Cl
ENDBRANCH   2  22
TORSDOF 6
