REMARK  7 active torsions:
REMARK  status: ('A' for Active; 'I' for Inactive)
REMARK    1  A    between atoms: N_7  and  S_1 
REMARK    2  A    between atoms: C_12  and  S_1 
REMARK    3  A    between atoms: C_2  and  C_8 
REMARK    4  A    between atoms: C_10  and  N_7 
REMARK    5  A    between atoms: C_22  and  N_7 
REMARK    6  A    between atoms: C_15  and  C_11 
REMARK    7  A    between atoms: C_20  and  C_22 
ROOT
ATOM      1  C   UNL d   1      -1.577  -1.417  -0.698  0.00  0.00     0.043 A 
ATOM      2  C   UNL d   1      -2.555  -2.164  -0.023  0.00  0.00     0.060 A 
ATOM      3  C   UNL d   1      -0.707  -2.062  -1.596  0.00  0.00     0.018 A 
ATOM      4  C   UNL d   1      -2.638  -3.545  -0.256  0.00  0.00     0.031 A 
ATOM      5  C   UNL d   1      -0.804  -3.434  -1.820  0.00  0.00     0.001 A 
ATOM      6  C   UNL d   1      -1.772  -4.176  -1.151  0.00  0.00     0.002 A 
ENDROOT
BRANCH   1   7
ATOM      7  C   UNL d   1      -1.425   0.039  -0.595  0.00  0.00     0.165 A 
ATOM      8  N   UNL d   1      -1.048   0.822  -1.555  0.00  0.00    -0.331 N 
ATOM      9  C   UNL d   1      -1.075   2.059  -0.973  0.00  0.00     0.111 A 
ATOM     10  HN  UNL d   1      -0.793   0.577  -2.512  1.00  0.00     0.168 HD
ATOM     11  C   UNL d   1      -0.873   3.253  -1.549  0.00  0.00     0.049 C 
ATOM     12  C   UNL d   1      -1.430   1.934   0.470  0.00  0.00     0.316 A 
ATOM     13  O   UNL d   1      -1.652   0.596   0.615  0.00  0.00    -0.255 OA
ATOM     14  O   UNL d   1      -1.507   2.792   1.326  0.00  0.00    -0.257 OA
BRANCH  11  15
ATOM     15  C   UNL d   1      -0.531   3.552  -2.962  0.00  0.00    -0.012 A 
ATOM     16  C   UNL d   1       0.098   4.762  -3.327  0.00  0.00     0.044 A 
ATOM     17 CL   UNL d   1       0.583   5.949  -2.160  0.00  0.00    -0.083 Cl
ATOM     18  C   UNL d   1       0.374   5.060  -4.669  0.00  0.00     0.024 A 
ATOM     19  C   UNL d   1       0.033   4.160  -5.675  0.00  0.00     0.002 A 
ATOM     20  C   UNL d   1      -0.587   2.963  -5.340  0.00  0.00     0.001 A 
ATOM     21  C   UNL d   1      -0.874   2.668  -4.001  0.00  0.00     0.013 A 
ENDBRANCH  11  15
ENDBRANCH   1   7
BRANCH   2  22
ATOM     22  N   UNL d   1      -3.521  -1.597   0.873  0.00  0.00    -0.267 N 
BRANCH  22  23
ATOM     23  S   UNL d   1      -5.055  -1.199   0.276  0.00  0.00     0.265 S 
ATOM     24  O   UNL d   1      -6.056  -1.703   1.194  0.00  0.00    -0.200 OA
ATOM     25  O   UNL d   1      -5.121  -1.514  -1.139  0.00  0.00    -0.200 OA
BRANCH  23  26
ATOM     26  C   UNL d   1      -5.067   0.573   0.414  0.00  0.00     0.080 A 
ATOM     27  C   UNL d   1      -4.681   1.359  -0.674  0.00  0.00     0.026 A 
ATOM     28  C   UNL d   1      -4.610   2.745  -0.526  0.00  0.00     0.008 A 
ATOM     29  C   UNL d   1      -4.937   3.348   0.697  0.00  0.00    -0.062 A 
ATOM     30  C   UNL d   1      -5.388   2.551   1.757  0.00  0.00     0.008 A 
ATOM     31  C   UNL d   1      -4.715   4.819   0.896  0.00  0.00     0.048 C 
ATOM     32  C   UNL d   1      -5.474   1.168   1.612  0.00  0.00     0.026 A 
ENDBRANCH  23  26
ENDBRANCH  22  23
BRANCH  22  33
ATOM     33  C   UNL d   1      -3.219  -1.495   2.307  0.00  0.00     0.168 C 
BRANCH  33  34
ATOM     34  C   UNL d   1      -3.623  -2.748   3.026  0.00  0.00    -0.016 C 
ATOM     35  C   UNL d   1      -2.810  -3.493   3.788  0.00  0.00     0.008 C 
ENDBRANCH  33  34
ENDBRANCH  22  33
ENDBRANCH   2  22
TORSDOF 7
