REMARK  4 active torsions:
REMARK  status: ('A' for Active; 'I' for Inactive)
REMARK    1  A    between atoms: C_14  and  N_3 
REMARK    2  A    between atoms: C_8  and  C_4 
REMARK    3  A    between atoms: C_20  and  C_14 
REMARK    4  A    between atoms: O_18  and  C_20 
ROOT
ATOM      1  N   UNL d   1       2.325  -0.725   0.046  0.00  0.00    -0.294 N 
ATOM      2  HN  UNL d   1       3.210  -1.231   0.048  1.00  0.00     0.187 HD
ATOM      3  N   UNL d   1       2.322   0.647   0.050  0.00  0.00    -0.254 N 
ATOM      4  C   UNL d   1       1.201  -1.386   0.039  0.00  0.00     0.070 C 
ATOM      5  C   UNL d   1       1.172   1.421  -0.048  0.00  0.00     0.273 C 
ATOM      6  C   UNL d   1      -0.109   0.695  -0.017  0.00  0.00     0.046 A 
ATOM      7  C   UNL d   1      -0.117  -0.691   0.098  0.00  0.00     0.009 A 
ATOM      8  O   UNL d   1       1.169   2.644  -0.136  0.00  0.00    -0.266 OA
ATOM      9  C   UNL d   1      -1.311   1.420  -0.074  0.00  0.00     0.018 A 
ATOM     10  C   UNL d   1      -1.352  -1.338   0.261  0.00  0.00     0.015 A 
ATOM     11  C   UNL d   1      -2.532   0.754  -0.012  0.00  0.00     0.001 A 
ATOM     12  C   UNL d   1      -2.551  -0.624   0.170  0.00  0.00     0.001 A 
ENDROOT
BRANCH   4  13
ATOM     13  C   UNL d   1       1.310  -2.883  -0.075  0.00  0.00    -0.007 A 
ATOM     14  C   UNL d   1       2.404  -3.536   0.513  0.00  0.00     0.021 A 
ATOM     15  C   UNL d   1       2.563  -4.932   0.412  0.00  0.00    -0.055 A 
ATOM     16  C   UNL d   1       3.795  -5.580   0.985  0.00  0.00     0.049 C 
ATOM     17  C   UNL d   1       1.584  -5.692  -0.258  0.00  0.00    -0.056 A 
ATOM     18  C   UNL d   1       0.517  -5.031  -0.880  0.00  0.00     0.008 A 
ATOM     19  C   UNL d   1       1.685  -7.189  -0.372  0.00  0.00     0.049 C 
ATOM     20  C   UNL d   1       0.406  -3.640  -0.824  0.00  0.00     0.014 A 
ENDBRANCH   4  13
BRANCH   3  21
ATOM     21  C   UNL d   1       3.627   1.296  -0.076  0.00  0.00     0.178 C 
BRANCH  21  22
ATOM     22  C   UNL d   1       3.980   2.200   1.105  0.00  0.00     0.186 C 
BRANCH  22  23
ATOM     23  O   UNL d   1       5.275   2.770   0.910  0.00  0.00    -0.399 OA
ATOM     24  H   UNL d   1       5.401   3.426   1.617  0.00  0.00     0.209 HD
ENDBRANCH  22  23
ENDBRANCH  21  22
ENDBRANCH   3  21
TORSDOF 4
