REMARK  1 active torsions:
REMARK  status: ('A' for Active; 'I' for Inactive)
REMARK    1  A    between atoms: S_12  and  C_5 
ROOT
ATOM      1  N   UNL d   1       0.835   0.010   0.004  0.00  0.00    -0.315 N 
ATOM      2  C   UNL d   1       0.004   1.103  -0.087  0.00  0.00     0.141 A 
ATOM      3  N   UNL d   1      -1.246   0.679  -0.116  0.00  0.00    -0.282 N 
ATOM      4  HN  UNL d   1      -2.076   1.271  -0.154  1.00  0.00     0.188 HD
ATOM      5  C   UNL d   1       0.009  -1.083  -0.022  0.00  0.00     0.162 A 
ATOM      6  N   UNL d   1      -1.241  -0.695  -0.087  0.00  0.00    -0.278 N 
ATOM      7  HN  UNL d   1      -2.060  -1.303  -0.112  1.00  0.00     0.189 HD
ATOM      8  C   UNL d   1       0.384   2.488  -0.133  0.00  0.00     0.050 A 
ATOM      9  S   UNL d   1      -0.556   3.677   0.676  0.00  0.00    -0.098 SA
ATOM     10  C   UNL d   1       1.452   3.068  -0.793  0.00  0.00     0.023 A 
ATOM     11  C   UNL d   1       0.490   4.939   0.191  0.00  0.00     0.050 A 
ATOM     12  C   UNL d   1       1.525   4.478  -0.590  0.00  0.00     0.009 A 
ATOM     13  C   UNL d   1       2.267  -0.009   0.156  0.00  0.00     0.160 C 
ENDROOT
BRANCH   5  14
ATOM     14  S   UNL d   1       0.582  -2.714   0.024  0.00  0.00    -0.097 SA
ATOM     15  C   UNL d   1      -0.982  -3.619   0.007  0.00  0.00     0.099 C 
ENDBRANCH   5  14
TORSDOF 1
