REMARK  5 active torsions:
REMARK  status: ('A' for Active; 'I' for Inactive)
REMARK    1  A    between atoms: C_2  and  S_1 
REMARK    2  A    between atoms: C_5  and  S_1 
REMARK    3  A    between atoms: N_17  and  N_3 
REMARK    4  A    between atoms: C_9  and  C_14 
REMARK    5  A    between atoms: C_21  and  N_17 
ROOT
ATOM      1  C   UNL d   1       1.527   0.000  -1.917  0.00  0.00     0.230 C 
ATOM      2  N   UNL d   1       0.461  -0.211  -2.642  0.00  0.00    -0.281 N 
ATOM      3  HN  UNL d   1       0.318   0.289  -3.519  1.00  0.00     0.188 HD
ATOM      4  C   UNL d   1       1.723  -0.744  -0.705  0.00  0.00     0.132 C 
ATOM      5  N   UNL d   1       1.842  -1.367   0.272  0.00  0.00    -0.189 NA
ENDROOT
BRANCH   1   6
ATOM      6  S   UNL d   1       2.821   1.055  -2.411  0.00  0.00     0.249 S 
ATOM      7  O   UNL d   1       3.611   0.295  -3.369  0.00  0.00    -0.214 OA
ATOM      8  O   UNL d   1       3.440   1.596  -1.213  0.00  0.00    -0.214 OA
BRANCH   6   9
ATOM      9  C   UNL d   1       2.045   2.390  -3.280  0.00  0.00     0.135 A 
ATOM     10  N   UNL d   1       1.149   3.092  -2.536  0.00  0.00    -0.356 N 
ATOM     11  C   UNL d   1       0.586   4.155  -3.150  0.00  0.00     0.089 A 
ATOM     12  HN  UNL d   1       0.918   2.832  -1.577  1.00  0.00     0.166 HD
ATOM     13  C   UNL d   1       0.866   4.530  -4.458  0.00  0.00     0.017 A 
ATOM     14  C   UNL d   1       1.784   3.779  -5.187  0.00  0.00     0.004 A 
ATOM     15  C   UNL d   1       2.398   2.684  -4.589  0.00  0.00     0.042 A 
ENDBRANCH   6   9
ENDBRANCH   1   6
BRANCH   2  16
ATOM     16  N   UNL d   1      -0.459  -1.123  -2.194  0.00  0.00    -0.299 N 
ATOM     17  H   UNL d   1      -0.884  -1.000  -1.271  0.00  0.00     0.187 HD
BRANCH  16  18
ATOM     18  C   UNL d   1      -1.369  -1.672  -3.131  0.00  0.00     0.049 A 
ATOM     19  C   UNL d   1      -1.227  -1.461  -4.509  0.00  0.00     0.044 A 
ATOM     20  C   UNL d   1      -2.059  -2.083  -5.461  0.00  0.00    -0.007 A 
ATOM     21  C   UNL d   1      -3.041  -2.963  -4.978  0.00  0.00     0.014 A 
ATOM     22  C   UNL d   1      -3.185  -3.208  -3.610  0.00  0.00     0.003 A 
ATOM     23  C   UNL d   1      -2.348  -2.571  -2.694  0.00  0.00     0.031 A 
BRANCH  20  24
ATOM     24  C   UNL d   1      -1.917  -1.803  -6.907  0.00  0.00     0.045 A 
ATOM     25  N   UNL d   1      -3.048  -1.906  -7.642  0.00  0.00    -0.345 N 
ATOM     26  C   UNL d   1      -2.968  -1.598  -8.950  0.00  0.00     0.077 A 
ATOM     27  HN  UNL d   1      -3.927  -2.207  -7.222  1.00  0.00     0.167 HD
ATOM     28  C   UNL d   1      -4.217  -1.687  -9.769  0.00  0.00     0.089 C 
ATOM     29  N   UNL d   1      -1.848  -1.201  -9.578  0.00  0.00    -0.356 N 
ATOM     30  C   UNL d   1      -0.741  -1.128  -8.823  0.00  0.00     0.091 A 
ATOM     31  HN  UNL d   1      -1.840  -0.968 -10.571  1.00  0.00     0.166 HD
ATOM     32  C   UNL d   1      -0.717  -1.423  -7.481  0.00  0.00     0.047 A 
ENDBRANCH  20  24
ENDBRANCH  16  18
ENDBRANCH   2  16
TORSDOF 5
