REMARK  4 active torsions:
REMARK  status: ('A' for Active; 'I' for Inactive)
REMARK       I    between atoms: N_2  and  C_1 
REMARK    1  A    between atoms: C_3  and  C_1 
REMARK       I    between atoms: C_5  and  N_2 
REMARK    2  A    between atoms: C_4  and  N_6 
REMARK       I    between atoms: N_6  and  C_5 
REMARK    3  A    between atoms: O_20  and  C_13 
REMARK    4  A    between atoms: O_19  and  C_14 
ROOT
ATOM      1  C   UNL d   1       0.750   0.075  -0.389  0.00  0.00     0.265 C 
ATOM      2  N   UNL d   1       2.124   0.078  -0.179  0.00  0.00    -0.275 N 
ATOM      3  C   UNL d   1       3.123  -0.616  -0.821  0.00  0.00     0.327 C 
ATOM      4  N   UNL d   1       2.718  -1.546  -1.750  0.00  0.00    -0.305 N 
ATOM      5  O   UNL d   1       0.207  -0.548  -1.295  0.00  0.00    -0.267 OA
ATOM      6  O   UNL d   1       4.293  -0.346  -0.555  0.00  0.00    -0.247 OA
ATOM      7  H   UNL d   1       2.491   0.748   0.484  0.00  0.00     0.173 HD
ATOM      8  H   UNL d   1       1.851  -1.276  -2.216  0.00  0.00     0.171 HD
ENDROOT
BRANCH   1   9
ATOM      9  C   UNL d   1      -0.036   0.920   0.568  0.00  0.00     0.099 A 
ATOM     10  C   UNL d   1       0.351   2.251   0.839  0.00  0.00     0.086 A 
ATOM     11  C   UNL d   1      -0.380   3.012   1.760  0.00  0.00     0.038 A 
ATOM     12  C   UNL d   1      -1.498   2.474   2.391  0.00  0.00     0.005 A 
ATOM     13  C   UNL d   1      -1.898   1.170   2.107  0.00  0.00     0.038 A 
ATOM     14  C   UNL d   1      -1.187   0.390   1.185  0.00  0.00     0.086 A 
BRANCH  10  15
ATOM     15  O   UNL d   1       1.464   2.737   0.197  0.00  0.00    -0.355 OA
ATOM     16  C   UNL d   1       1.531   4.155   0.047  0.00  0.00     0.210 C 
ENDBRANCH  10  15
BRANCH  14  17
ATOM     17  O   UNL d   1      -1.530  -0.908   0.907  0.00  0.00    -0.355 OA
ATOM     18  C   UNL d   1      -2.907  -1.242   1.080  0.00  0.00     0.210 C 
ENDBRANCH  14  17
ENDBRANCH   1   9
BRANCH   4  19
ATOM     19  C   UNL d   1       3.666  -2.281  -2.519  0.00  0.00     0.080 A 
ATOM     20  C   UNL d   1       4.683  -3.061  -1.933  0.00  0.00     0.064 A 
ATOM     21  C   UNL d   1       5.646  -3.699  -2.728  0.00  0.00     0.050 A 
ATOM     22 CL   UNL d   1       4.727  -3.410  -0.236  0.00  0.00    -0.082 Cl
ATOM     23  C   UNL d   1       5.585  -3.582  -4.112  0.00  0.00     0.037 A 
ATOM     24  C   UNL d   1       4.554  -2.868  -4.717  0.00  0.00     0.050 A 
ATOM     25 CL   UNL d   1       6.783  -4.341  -5.085  0.00  0.00    -0.084 Cl
ATOM     26  C   UNL d   1       3.591  -2.237  -3.922  0.00  0.00     0.064 A 
ATOM     27 CL   UNL d   1       2.345  -1.343  -4.725  0.00  0.00    -0.082 Cl
ENDBRANCH   4  19
TORSDOF 4
