REMARK  4 active torsions:
REMARK  status: ('A' for Active; 'I' for Inactive)
REMARK    1  A    between atoms: C_8  and  C_1 
REMARK    2  A    between atoms: O_12  and  C_3 
REMARK    3  A    between atoms: C_7  and  C_8 
REMARK    4  A    between atoms: N_13  and  C_9 
ROOT
ATOM      1  C   UNL d   1      -0.460  -1.244   0.083  0.00  0.00     0.122 C 
ATOM      2  C   UNL d   1       0.977  -0.874   0.159  0.00  0.00     0.305 C 
ATOM      3  C   UNL d   1      -1.362  -0.240   0.103  0.00  0.00     0.088 C 
ATOM      4  C   UNL d   1      -0.963   1.138   0.119  0.00  0.00     0.070 C 
ATOM      5  O   UNL d   1       1.311   0.443  -0.022  0.00  0.00    -0.280 OA
ATOM      6  C   UNL d   1       0.328   1.450   0.010  0.00  0.00     0.056 C 
ATOM      7  O   UNL d   1       1.864  -1.694   0.372  0.00  0.00    -0.259 OA
ATOM      8  C   UNL d   1       0.876   2.838  -0.048  0.00  0.00     0.077 C 
ENDROOT
BRANCH   1   9
ATOM      9  C   UNL d   1      -0.975  -2.650  -0.003  0.00  0.00     0.192 C 
ATOM     10  O   UNL d   1      -2.189  -2.865   0.085  0.00  0.00    -0.287 OA
BRANCH   9  11
ATOM     11  C   UNL d   1      -0.027  -3.770  -0.248  0.00  0.00     0.072 C 
ATOM     12  C   UNL d   1      -0.460  -5.033  -0.371  0.00  0.00     0.088 C 
BRANCH  12  13
ATOM     13  N   UNL d   1       0.270  -6.193  -0.604  0.00  0.00    -0.398 N 
ATOM     14  C   UNL d   1       1.730  -6.261  -0.678  0.00  0.00     0.148 C 
ATOM     15  C   UNL d   1      -0.388  -7.490  -0.776  0.00  0.00     0.148 C 
ENDBRANCH  12  13
ENDBRANCH   9  11
ENDBRANCH   1   9
BRANCH   3  16
ATOM     16  O   UNL d   1      -2.733  -0.385   0.076  0.00  0.00    -0.359 OA
ATOM     17  H   UNL d   1      -2.945  -1.345   0.085  0.00  0.00     0.217 HD
ENDBRANCH   3  16
TORSDOF 4
