REMARK  2 active torsions:
REMARK  status: ('A' for Active; 'I' for Inactive)
REMARK    1  A    between atoms: O_11  and  C_9 
REMARK    2  A    between atoms: O_12  and  C_10 
ROOT
ATOM      1  N   UNL d   1       1.581  -0.991  -0.007  0.00  0.00    -0.353 N 
ATOM      2  HN  UNL d   1       1.852  -1.974  -0.012  1.00  0.00     0.166 HD
ATOM      3  C   UNL d   1       0.273  -0.526  -0.004  0.00  0.00     0.052 A 
ATOM      4  S   UNL d   1       1.704   1.581   0.004  0.00  0.00    -0.075 SA
ATOM      5  C   UNL d   1       0.139   0.867   0.003  0.00  0.00     0.036 A 
ATOM      6  C   UNL d   1       2.419   0.023  -0.005  0.00  0.00     0.048 A 
ATOM      7  C   UNL d   1      -0.890  -1.328  -0.005  0.00  0.00     0.070 A 
ATOM      8  C   UNL d   1      -1.114   1.499   0.006  0.00  0.00     0.060 A 
ATOM      9  C   UNL d   1      -2.135  -0.704  -0.001  0.00  0.00     0.101 A 
ATOM     10  C   UNL d   1      -2.237   0.682   0.004  0.00  0.00     0.100 A 
ATOM     11  C   UNL d   1       3.902  -0.116  -0.009  0.00  0.00     0.076 C 
ENDROOT
BRANCH   9  12
ATOM     12  O   UNL d   1      -3.302  -1.421  -0.003  0.00  0.00    -0.358 OA
ATOM     13  H   UNL d   1      -3.078  -2.369  -0.003  0.00  0.00     0.217 HD
ENDBRANCH   9  12
BRANCH  10  14
ATOM     14  O   UNL d   1      -3.471   1.272   0.008  0.00  0.00    -0.358 OA
ATOM     15  H   UNL d   1      -4.103   0.526   0.004  0.00  0.00     0.217 HD
ENDBRANCH  10  14
TORSDOF 2
