REMARK  5 active torsions:
REMARK  status: ('A' for Active; 'I' for Inactive)
REMARK       I    between atoms: N_4  and  C_1 
REMARK    1  A    between atoms: C_8  and  C_1 
REMARK       I    between atoms: C_2  and  N_3 
REMARK    2  A    between atoms: C_7  and  C_2 
REMARK    3  A    between atoms: N_3  and  N_4 
REMARK    4  A    between atoms: C_10  and  C_7 
REMARK    5  A    between atoms: C_9  and  C_8 
ROOT
ATOM      1  C   UNL d   1       0.018   1.759  -3.192  0.00  0.00     0.240 C 
ATOM      2  N   UNL d   1       0.654   0.743  -2.510  0.00  0.00    -0.267 N 
ATOM      3  O   UNL d   1      -1.006   2.293  -2.776  0.00  0.00    -0.272 OA
ATOM      4  H   UNL d   1       1.567   0.376  -2.765  0.00  0.00     0.190 HD
ENDROOT
BRANCH   2   5
ATOM      5  N   UNL d   1       0.124   0.336  -1.271  0.00  0.00    -0.267 N 
ATOM      6  C   UNL d   1       0.773  -0.670  -0.572  0.00  0.00     0.240 C 
ATOM      7  O   UNL d   1       1.786  -1.228  -1.001  0.00  0.00    -0.272 OA
ATOM      8  H   UNL d   1      -0.624   0.899  -0.890  0.00  0.00     0.190 HD
BRANCH   6   9
ATOM      9  C   UNL d   1       0.128  -1.042   0.761  0.00  0.00     0.143 C 
BRANCH   9  10
ATOM     10  C   UNL d   1       0.733  -0.287   1.918  0.00  0.00    -0.049 A 
ATOM     11  C   UNL d   1       0.141   0.896   2.382  0.00  0.00     0.007 A 
ATOM     12  C   UNL d   1       0.778   1.673   3.350  0.00  0.00     0.001 A 
ATOM     13  C   UNL d   1       2.002   1.268   3.877  0.00  0.00     0.000 A 
ATOM     14  C   UNL d   1       2.570   0.062   3.469  0.00  0.00     0.001 A 
ATOM     15  C   UNL d   1       1.936  -0.717   2.499  0.00  0.00     0.007 A 
ENDBRANCH   9  10
ENDBRANCH   6   9
ENDBRANCH   2   5
BRANCH   1  16
ATOM     16  C   UNL d   1       0.667   2.147  -4.514  0.00  0.00     0.143 C 
BRANCH  16  17
ATOM     17  C   UNL d   1       1.673   3.264  -4.390  0.00  0.00    -0.049 A 
ATOM     18  C   UNL d   1       3.005   3.069  -4.785  0.00  0.00     0.007 A 
ATOM     19  C   UNL d   1       3.922   4.119  -4.732  0.00  0.00     0.001 A 
ATOM     20  C   UNL d   1       3.523   5.376  -4.286  0.00  0.00     0.000 A 
ATOM     21  C   UNL d   1       2.204   5.585  -3.888  0.00  0.00     0.001 A 
ATOM     22  C   UNL d   1       1.283   4.533  -3.939  0.00  0.00     0.007 A 
ENDBRANCH  16  17
ENDBRANCH   1  16
TORSDOF 5
