REMARK  7 active torsions:
REMARK  status: ('A' for Active; 'I' for Inactive)
REMARK    1  A    between atoms: C_15  and  N_4 
REMARK    2  A    between atoms: S_14  and  C_10 
REMARK    3  A    between atoms: C_16  and  C_13 
REMARK    4  A    between atoms: C_18  and  S_14 
REMARK    5  A    between atoms: C_22  and  C_15 
REMARK    6  A    between atoms: C_17  and  C_18 
REMARK    7  A    between atoms: C_20  and  C_17 
ROOT
ATOM      1  C   UNL d   1      -0.555  -1.196   0.174  0.00  0.00     0.098 A 
ATOM      2  C   UNL d   1      -1.024  -2.543   0.272  0.00  0.00     0.152 A 
ATOM      3  N   UNL d   1      -2.176  -2.963   0.896  0.00  0.00    -0.314 N 
ATOM      4  N   UNL d   1       0.755  -0.782   0.090  0.00  0.00    -0.284 N 
ATOM      5  N   UNL d   1      -0.446  -3.588  -0.290  0.00  0.00    -0.281 N 
ATOM      6  HN  UNL d   1       0.451  -3.585  -0.775  1.00  0.00     0.188 HD
ATOM      7  N   UNL d   1       0.879   0.573   0.050  0.00  0.00    -0.301 N 
ATOM      8  HN  UNL d   1       1.741   1.119   0.025  1.00  0.00     0.187 HD
ATOM      9  C   UNL d   1      -1.300  -0.038   0.094  0.00  0.00     0.062 A 
ATOM     10  C   UNL d   1      -2.312  -4.282   0.566  0.00  0.00     0.163 A 
ATOM     11  N   UNL d   1      -1.262  -4.685  -0.108  0.00  0.00    -0.278 N 
ATOM     12  HN  UNL d   1      -1.082  -5.634  -0.437  1.00  0.00     0.189 HD
ATOM     13  C   UNL d   1      -0.378   1.033   0.052  0.00  0.00     0.036 A 
ATOM     14  C   UNL d   1      -3.046  -2.218   1.771  0.00  0.00     0.160 C 
ENDROOT
BRANCH   4  15
ATOM     15  C   UNL d   1       1.969  -1.586  -0.005  0.00  0.00     0.187 C 
BRANCH  15  16
ATOM     16  C   UNL d   1       2.589  -1.849   1.347  0.00  0.00    -0.038 A 
ATOM     17  C   UNL d   1       2.306  -3.034   2.044  0.00  0.00     0.012 A 
ATOM     18  C   UNL d   1       2.873  -3.269   3.298  0.00  0.00     0.043 A 
ATOM     19  C   UNL d   1       3.725  -2.322   3.856  0.00  0.00     0.116 A 
ATOM     20  C   UNL d   1       4.023  -1.144   3.181  0.00  0.00     0.043 A 
ATOM     21  F   UNL d   1       4.266  -2.549   5.060  0.00  0.00    -0.206 F 
ATOM     22  C   UNL d   1       3.454  -0.905   1.930  0.00  0.00     0.012 A 
ENDBRANCH  15  16
ENDBRANCH   4  15
BRANCH  13  23
ATOM     23  C   UNL d   1      -0.712   2.514   0.010  0.00  0.00    -0.007 C 
ATOM     24  C   UNL d   1      -1.400   2.928   1.328  0.00  0.00     0.021 C 
ATOM     25  C   UNL d   1       0.537   3.396  -0.179  0.00  0.00     0.021 C 
ATOM     26  C   UNL d   1      -1.679   2.797  -1.160  0.00  0.00     0.021 C 
ENDBRANCH  13  23
BRANCH  10  27
ATOM     27  S   UNL d   1      -3.718  -5.210   0.948  0.00  0.00    -0.085 SA
BRANCH  27  28
ATOM     28  C   UNL d   1      -2.972  -6.654   1.746  0.00  0.00     0.166 C 
BRANCH  28  29
ATOM     29  C   UNL d   1      -2.327  -6.327   3.085  0.00  0.00     0.169 C 
ATOM     30  O   UNL d   1      -2.221  -5.184   3.533  0.00  0.00    -0.291 OA
BRANCH  29  31
ATOM     31  C   UNL d   1      -1.801  -7.466   3.903  0.00  0.00     0.010 A 
ATOM     32  C   UNL d   1      -1.945  -8.804   3.511  0.00  0.00     0.015 A 
ATOM     33  C   UNL d   1      -1.454  -9.832   4.321  0.00  0.00     0.001 A 
ATOM     34  C   UNL d   1      -0.813  -9.533   5.522  0.00  0.00     0.000 A 
ATOM     35  C   UNL d   1      -0.661  -8.206   5.918  0.00  0.00     0.001 A 
ATOM     36  C   UNL d   1      -1.154  -7.177   5.113  0.00  0.00     0.015 A 
ENDBRANCH  29  31
ENDBRANCH  28  29
ENDBRANCH  27  28
ENDBRANCH  10  27
TORSDOF 7
