REMARK  10 active torsions:
REMARK  status: ('A' for Active; 'I' for Inactive)
REMARK    1  A    between atoms: C_3  and  C_1 
REMARK    2  A    between atoms: N_4  and  C_2 
REMARK    3  A    between atoms: O_18  and  C_3 
REMARK       I    between atoms: C_5  and  N_8 
REMARK    4  A    between atoms: C_14  and  C_5 
REMARK    5  A    between atoms: N_8  and  C_11 
REMARK    6  A    between atoms: C_9  and  C_16 
REMARK    7  A    between atoms: O_19  and  C_9 
REMARK    8  A    between atoms: C_10  and  C_14 
REMARK    9  A    between atoms: C_16  and  C_10 
REMARK   10  A    between atoms: C_24  and  O_18 
ROOT
ATOM      1  C   UNL d   1       1.491  -0.270   0.051  0.00  0.00     0.068 A 
ATOM      2  C   UNL d   1       0.640  -1.393   0.038  0.00  0.00     0.046 A 
ATOM      3  C   UNL d   1       0.953   1.039   0.040  0.00  0.00     0.049 A 
ATOM      4  C   UNL d   1      -0.743  -1.130  -0.076  0.00  0.00     0.032 A 
ATOM      5  C   UNL d   1      -0.421   1.269   0.017  0.00  0.00     0.035 A 
ATOM      6  C   UNL d   1      -1.268   0.170  -0.074  0.00  0.00     0.032 A 
ENDROOT
BRANCH   5   7
ATOM      7  N   UNL d   1      -1.002   2.553   0.112  0.00  0.00    -0.327 N 
ATOM      8  C   UNL d   1      -0.330   3.760   0.129  0.00  0.00     0.222 C 
ATOM      9  O   UNL d   1       0.878   3.926  -0.039  0.00  0.00    -0.273 OA
ATOM     10  H   UNL d   1      -2.018   2.577   0.216  0.00  0.00     0.169 HD
BRANCH   8  11
ATOM     11  C   UNL d   1      -1.220   4.973   0.333  0.00  0.00     0.112 C 
BRANCH  11  12
ATOM     12  C   UNL d   1      -1.818   5.568  -0.969  0.00  0.00    -0.030 C 
ATOM     13  C   UNL d   1      -2.504   6.902  -0.606  0.00  0.00     0.016 C 
ATOM     14  C   UNL d   1      -0.698   5.885  -1.982  0.00  0.00     0.016 C 
BRANCH  12  15
ATOM     15  C   UNL d   1      -2.827   4.625  -1.660  0.00  0.00     0.119 C 
BRANCH  15  16
ATOM     16  C   UNL d   1      -3.943   4.163  -0.758  0.00  0.00     0.140 C 
ATOM     17  O   UNL d   1      -3.825   3.215   0.007  0.00  0.00    -0.650 OA
BRANCH  16  18
ATOM     18  O   UNL d   1      -5.058   4.916  -0.830  0.00  0.00    -0.776 OA
ATOM     19  H   UNL d   1      -5.008   5.657  -1.465  0.00  0.00     0.167 HD
ENDBRANCH  16  18
ENDBRANCH  15  16
ENDBRANCH  12  15
ENDBRANCH  11  12
ENDBRANCH   8  11
ENDBRANCH   5   7
BRANCH   1  20
ATOM     20  C   UNL d   1       2.978  -0.366   0.002  0.00  0.00     0.295 C 
ATOM     21  O   UNL d   1       3.611  -1.173  -0.655  0.00  0.00    -0.259 OA
BRANCH  20  22
ATOM     22  O   UNL d   1       3.510   0.604   0.795  0.00  0.00    -0.318 OA
BRANCH  22  23
ATOM     23  C   UNL d   1       4.941   0.678   0.871  0.00  0.00     0.174 C 
ATOM     24  C   UNL d   1       5.559   1.227  -0.404  0.00  0.00     0.034 C 
ENDBRANCH  22  23
ENDBRANCH  20  22
ENDBRANCH   1  20
BRANCH   2  25
ATOM     25  N   UNL d   1       1.000  -2.725   0.241  0.00  0.00    -0.380 N 
ATOM     26  C   UNL d   1       2.111  -3.069   1.132  0.00  0.00     0.123 C 
ATOM     27  C   UNL d   1       1.828  -4.433   1.763  0.00  0.00     0.020 C 
ATOM     28  C   UNL d   1       1.604  -5.492   0.685  0.00  0.00     0.003 C 
ATOM     29  C   UNL d   1       0.507  -5.057  -0.288  0.00  0.00     0.020 C 
ATOM     30  C   UNL d   1       0.782  -3.664  -0.866  0.00  0.00     0.123 C 
ENDBRANCH   2  25
TORSDOF 10
