REMARK  2 active torsions:
REMARK  status: ('A' for Active; 'I' for Inactive)
REMARK    1  A    between atoms: N_4  and  N_1 
REMARK    2  A    between atoms: C_18  and  C_13 
ROOT
ATOM      1  N   UNL d   1       3.313   0.009  -0.257  0.00  0.00    -0.299 N 
ATOM      2  HN  UNL d   1       3.763  -0.884  -0.458  1.00  0.00     0.186 HD
ATOM      3  C   UNL d   1       4.028   1.076  -0.112  0.00  0.00     0.119 C 
ENDROOT
BRANCH   1   4
ATOM      4  N   UNL d   1       1.948   0.083  -0.140  0.00  0.00    -0.182 N 
ATOM      5  C   UNL d   1       1.187  -1.062  -0.274  0.00  0.00     0.280 A 
ATOM      6  C   UNL d   1      -0.208  -0.639  -0.156  0.00  0.00     0.050 A 
ATOM      7  O   UNL d   1       1.510  -2.223  -0.461  0.00  0.00    -0.265 OA
ATOM      8  C   UNL d   1      -1.375  -1.375  -0.232  0.00  0.00     0.018 A 
ATOM      9  C   UNL d   1      -0.222   0.728   0.040  0.00  0.00     0.050 A 
ATOM     10  C   UNL d   1      -2.582  -0.679  -0.104  0.00  0.00     0.001 A 
ATOM     11  C   UNL d   1      -2.595   0.717   0.096  0.00  0.00     0.001 A 
ATOM     12  C   UNL d   1      -1.400   1.438   0.172  0.00  0.00     0.018 A 
ATOM     13  C   UNL d   1       1.161   1.200   0.052  0.00  0.00     0.280 A 
ATOM     14  O   UNL d   1       1.432   2.379   0.200  0.00  0.00    -0.265 OA
ENDBRANCH   1   4
BRANCH   3  15
ATOM     15  C   UNL d   1       5.499   1.052  -0.257  0.00  0.00    -0.017 A 
ATOM     16  C   UNL d   1       6.196   2.252  -0.073  0.00  0.00     0.052 A 
ATOM     17  C   UNL d   1       7.567   2.215  -0.203  0.00  0.00     0.105 A 
ATOM     18  O   UNL d   1       8.405   3.275  -0.049  0.00  0.00    -0.323 OA
ATOM     19  C   UNL d   1       8.238   1.054  -0.510  0.00  0.00     0.105 A 
ATOM     20  C   UNL d   1       9.685   2.640  -0.250  0.00  0.00     0.352 A 
ATOM     21  O   UNL d   1       9.583   1.240  -0.586  0.00  0.00    -0.323 OA
ATOM     22  C   UNL d   1       7.575  -0.139  -0.705  0.00  0.00     0.040 A 
ATOM     23  C   UNL d   1       6.182  -0.140  -0.574  0.00  0.00     0.016 A 
ENDBRANCH   3  15
TORSDOF 2
