REMARK  7 active torsions:
REMARK  status: ('A' for Active; 'I' for Inactive)
REMARK    1  A    between atoms: S_3  and  N_10 
REMARK    2  A    between atoms: C_18  and  S_3 
REMARK    3  A    between atoms: C_7  and  C_4 
REMARK    4  A    between atoms: N_10  and  N_12 
REMARK    5  A    between atoms: O_19  and  C_11 
REMARK       I    between atoms: N_12  and  C_13 
REMARK    6  A    between atoms: C_13  and  C_24 
REMARK    7  A    between atoms: C_24  and  O_19 
ROOT
ATOM      1  C   UNL d   1       1.351  -2.868  -0.115  0.00  0.00    -0.006 C 
ATOM      2  C   UNL d   1       1.437  -5.723  -0.094  0.00  0.00     0.081 C 
ATOM      3  C   UNL d   1       2.053  -4.984   0.944  0.00  0.00    -0.027 C 
ATOM      4  C   UNL d   1       0.850  -5.010  -1.168  0.00  0.00    -0.027 C 
ATOM      5  C   UNL d   1       1.968  -3.567   0.925  0.00  0.00     0.023 C 
ATOM      6  C   UNL d   1       0.878  -3.602  -1.196  0.00  0.00     0.023 C 
ATOM      7  C   UNL d   1       0.099  -5.684  -2.290  0.00  0.00     0.051 C 
ATOM      8  C   UNL d   1       2.825  -5.551   2.108  0.00  0.00     0.051 C 
ENDROOT
BRANCH   2   9
ATOM      9  O   UNL d   1       1.319  -7.088  -0.233  0.00  0.00    -0.341 OA
BRANCH   9  10
ATOM     10  C   UNL d   1       1.875  -7.952   0.734  0.00  0.00     0.280 C 
BRANCH  10  11
ATOM     11  C   UNL d   1       1.710  -9.450   0.500  0.00  0.00     0.260 C 
ATOM     12  N   UNL d   1       0.982  -9.840  -0.601  0.00  0.00    -0.259 N 
ATOM     13  H   UNL d   1       0.560  -9.187  -1.258  0.00  0.00     0.190 HD
ATOM     14  O   UNL d   1       2.205 -10.278   1.272  0.00  0.00    -0.269 OA
BRANCH  12  15
ATOM     15  N   UNL d   1       0.841 -11.267  -0.803  0.00  0.00    -0.220 N 
ATOM     16  H   UNL d   1       1.288 -11.890  -0.118  0.00  0.00     0.200 HD
BRANCH  15  17
ATOM     17  S   UNL d   1      -0.018 -11.921  -2.087  0.00  0.00     0.276 S 
ATOM     18  O   UNL d   1      -1.415 -11.598  -1.898  0.00  0.00    -0.199 OA
ATOM     19  O   UNL d   1       0.675 -11.576  -3.310  0.00  0.00    -0.199 OA
BRANCH  17  20
ATOM     20  C   UNL d   1       0.210 -13.660  -1.784  0.00  0.00     0.081 A 
ATOM     21  C   UNL d   1      -0.750 -14.372  -1.056  0.00  0.00     0.028 A 
ATOM     22  C   UNL d   1      -0.537 -15.724  -0.779  0.00  0.00     0.044 A 
ATOM     23  C   UNL d   1       0.620 -16.348  -1.238  0.00  0.00     0.116 A 
ATOM     24  C   UNL d   1       1.566 -15.650  -1.985  0.00  0.00     0.044 A 
ATOM     25  F   UNL d   1       0.829 -17.640  -0.954  0.00  0.00    -0.206 F 
ATOM     26  C   UNL d   1       1.361 -14.297  -2.267  0.00  0.00     0.028 A 
ENDBRANCH  17  20
ENDBRANCH  15  17
ENDBRANCH  12  15
ENDBRANCH  10  11
ENDBRANCH   9  10
ENDBRANCH   2   9
BRANCH   1  27
ATOM     27  C   UNL d   1       1.256  -1.368  -0.044  0.00  0.00     0.070 A 
ATOM     28  N   UNL d   1       2.255  -0.751   0.525  0.00  0.00    -0.294 N 
ATOM     29  N   UNL d   1       2.265   0.618   0.591  0.00  0.00    -0.261 N 
ATOM     30  HN  UNL d   1       3.027  -1.287   0.921  1.00  0.00     0.187 HD
ATOM     31  C   UNL d   1       1.295   1.440   0.036  0.00  0.00     0.272 A 
ATOM     32  C   UNL d   1       3.418   1.235   1.218  0.00  0.00     0.181 C 
ATOM     33  C   UNL d   1       0.167   0.765  -0.624  0.00  0.00     0.046 A 
ATOM     34  O   UNL d   1       1.326   2.669   0.082  0.00  0.00    -0.266 OA
ATOM     35  C   UNL d   1      -0.833   1.533  -1.240  0.00  0.00     0.018 C 
ATOM     36  C   UNL d   1       0.087  -0.625  -0.601  0.00  0.00     0.009 A 
ATOM     37  C   UNL d   1      -1.926   0.910  -1.836  0.00  0.00     0.001 C 
ATOM     38  C   UNL d   1      -2.055  -0.472  -1.752  0.00  0.00     0.001 C 
ATOM     39  C   UNL d   1      -1.075  -1.229  -1.103  0.00  0.00     0.015 C 
ENDBRANCH   1  27
TORSDOF 7
