REMARK  2 active torsions:
REMARK  status: ('A' for Active; 'I' for Inactive)
REMARK    1  A    between atoms: C_12  and  C_6 
REMARK    2  A    between atoms: C_13  and  C_7 
ROOT
ATOM      1  N   UNL d   1       0.306   0.621   0.035  0.00  0.00    -0.239 N 
ATOM      2  N   UNL d   1       1.615   0.970   0.060  0.00  0.00    -0.291 N 
ATOM      3  HN  UNL d   1       1.999   1.914   0.100  1.00  0.00     0.187 HD
ATOM      4  C   UNL d   1       0.151  -0.768   0.019  0.00  0.00     0.129 A 
ATOM      5  C   UNL d   1       1.422  -1.288   0.001  0.00  0.00     0.082 A 
ATOM      6  C   UNL d   1      -0.818   1.463   0.013  0.00  0.00     0.070 A 
ATOM      7  C   UNL d   1       2.303  -0.180   0.020  0.00  0.00     0.062 A 
ATOM      8  N   UNL d   1      -1.074  -1.372   0.007  0.00  0.00    -0.351 N 
ATOM      9  HN  UNL d   1      -1.180  -2.386   0.011  1.00  0.00     0.166 HD
ATOM     10  C   UNL d   1      -2.048   0.919  -0.017  0.00  0.00     0.049 A 
ATOM     11  C   UNL d   1      -2.095  -0.568  -0.009  0.00  0.00     0.092 A 
ENDROOT
BRANCH   6  12
ATOM     12  C   UNL d   1      -0.666   2.926   0.001  0.00  0.00    -0.007 A 
ATOM     13  C   UNL d   1      -0.640   3.646   1.202  0.00  0.00     0.014 A 
ATOM     14  C   UNL d   1      -0.446   5.029   1.189  0.00  0.00     0.001 A 
ATOM     15  C   UNL d   1      -0.280   5.700  -0.022  0.00  0.00     0.000 A 
ATOM     16  C   UNL d   1      -0.316   4.992  -1.222  0.00  0.00     0.001 A 
ATOM     17  C   UNL d   1      -0.510   3.609  -1.212  0.00  0.00     0.014 A 
ENDBRANCH   6  12
BRANCH   7  18
ATOM     18  C   UNL d   1       3.768  -0.187  -0.001  0.00  0.00    -0.008 A 
ATOM     19  C   UNL d   1       4.487   1.020   0.019  0.00  0.00     0.014 A 
ATOM     20  C   UNL d   1       5.883   1.022  -0.001  0.00  0.00     0.001 A 
ATOM     21  C   UNL d   1       6.578  -0.184  -0.044  0.00  0.00     0.000 A 
ATOM     22  C   UNL d   1       5.882  -1.389  -0.068  0.00  0.00     0.001 A 
ATOM     23  C   UNL d   1       4.486  -1.391  -0.047  0.00  0.00     0.014 A 
ENDBRANCH   7  18
TORSDOF 2
