REMARK  3 active torsions:
REMARK  status: ('A' for Active; 'I' for Inactive)
REMARK    1  A    between atoms: C_7  and  C_3 
REMARK    2  A    between atoms: O_15  and  C_8 
REMARK    3  A    between atoms: O_16  and  C_10 
ROOT
ATOM      1  N   UNL d   1       2.218  -0.222   0.270  0.00  0.00    -0.336 N 
ATOM      2  C   UNL d   1       1.344   0.813   0.078  0.00  0.00     0.255 C 
ATOM      3  C   UNL d   1       1.873  -1.563  -0.091  0.00  0.00     0.196 C 
ATOM      4  N   UNL d   1       0.541  -1.871   0.392  0.00  0.00    -0.267 NA
ATOM      5  C   UNL d   1      -0.086   0.455  -0.002  0.00  0.00     0.053 A 
ATOM      6  C   UNL d   1      -0.432  -0.897   0.129  0.00  0.00     0.026 A 
ATOM      7  O   UNL d   1       1.736   1.975  -0.001  0.00  0.00    -0.268 OA
ATOM      8  C   UNL d   1      -1.061   1.445  -0.161  0.00  0.00     0.019 A 
ATOM      9  C   UNL d   1      -1.789  -1.233   0.159  0.00  0.00     0.024 A 
ATOM     10  C   UNL d   1      -2.408   1.087  -0.166  0.00  0.00     0.001 A 
ATOM     11  C   UNL d   1      -2.771  -0.249  -0.003  0.00  0.00     0.002 A 
ATOM     12  H   UNL d   1       3.188   0.049   0.222  0.00  0.00     0.164 HD
ATOM     13  H   UNL d   1       0.243  -2.808   0.138  0.00  0.00     0.130 HD
ENDROOT
BRANCH   3  14
ATOM     14  C   UNL d   1       2.851  -2.550   0.508  0.00  0.00    -0.017 A 
ATOM     15  C   UNL d   1       3.014  -2.649   1.898  0.00  0.00     0.032 A 
ATOM     16  C   UNL d   1       3.889  -3.590   2.442  0.00  0.00     0.047 A 
ATOM     17 BR   UNL d   1       4.062  -3.639   4.335  0.00  0.00    -0.048 Br
ATOM     18  C   UNL d   1       4.629  -4.449   1.613  0.00  0.00     0.116 A 
ATOM     19  C   UNL d   1       4.497  -4.354   0.223  0.00  0.00     0.103 A 
ATOM     20  C   UNL d   1       3.605  -3.404  -0.309  0.00  0.00     0.050 A 
BRANCH  18  21
ATOM     21  O   UNL d   1       5.445  -5.363   2.220  0.00  0.00    -0.357 OA
ATOM     22  H   UNL d   1       6.319  -5.304   1.805  0.00  0.00     0.218 HD
ENDBRANCH  18  21
BRANCH  19  23
ATOM     23  O   UNL d   1       5.108  -5.072  -0.767  0.00  0.00    -0.353 OA
ATOM     24  C   UNL d   1       6.004  -6.124  -0.461  0.00  0.00     0.210 C 
ENDBRANCH  19  23
ENDBRANCH   3  14
TORSDOF 3
