REMARK  4 active torsions:
REMARK  status: ('A' for Active; 'I' for Inactive)
REMARK       I    between atoms: N_6  and  C_1 
REMARK       I    between atoms: N_7  and  C_1 
REMARK    1  A    between atoms: C_2  and  C_12 
REMARK    2  A    between atoms: C_5  and  C_8 
REMARK    3  A    between atoms: C_9  and  N_7 
REMARK    4  A    between atoms: C_12  and  N_11 
ROOT
ATOM      1  C   UNL d   1       0.599   0.449   0.227  0.00  0.00     0.323 C 
ATOM      2  N   UNL d   1       0.249  -0.681   0.970  0.00  0.00    -0.332 N 
ATOM      3  N   UNL d   1       1.653   1.179   0.738  0.00  0.00    -0.307 N 
ATOM      4  N   UNL d   1      -2.115  -2.086   2.448  0.00  0.00     0.094 N 
ATOM      5  O   UNL d   1       0.049   0.709  -0.841  0.00  0.00    -0.247 OA
ATOM      6  C   UNL d   1      -0.670  -1.647   0.349  0.00  0.00     0.157 C 
ATOM      7  C   UNL d   1      -2.050  -1.750   1.018  0.00  0.00     0.292 C 
ATOM      8  C   UNL d   1      -0.160  -0.710   3.443  0.00  0.00     0.050 C 
ATOM      9  C   UNL d   1       0.756  -1.077   2.281  0.00  0.00     0.129 C 
ATOM     10  C   UNL d   1      -1.662  -0.981   3.292  0.00  0.00     0.274 C 
ATOM     11  H   UNL d   1       2.142   0.763   1.504  0.00  0.00     0.170 HD
ENDROOT
BRANCH   3  12
ATOM     12  C   UNL d   1       2.406   2.132   0.008  0.00  0.00     0.058 A 
ATOM     13  C   UNL d   1       3.786   2.249   0.234  0.00  0.00     0.032 A 
ATOM     14  N   UNL d   1       4.588   3.063  -0.501  0.00  0.00    -0.354 N 
ATOM     15  C   UNL d   1       4.502   1.400   1.248  0.00  0.00     0.070 C 
ATOM     16  C   UNL d   1       4.026   3.803  -1.499  0.00  0.00     0.117 A 
ATOM     17  HN  UNL d   1       5.589   3.119  -0.311  1.00  0.00     0.166 HD
ATOM     18  C   UNL d   1       2.654   3.788  -1.731  0.00  0.00     0.036 A 
ATOM     19  C   UNL d   1       1.841   2.942  -0.972  0.00  0.00     0.034 A 
BRANCH  16  20
ATOM     20  C   UNL d   1       4.919   4.646  -2.400  0.00  0.00     0.432 C 
ATOM     21  F   UNL d   1       6.255   4.439  -2.221  0.00  0.00    -0.165 F 
ATOM     22  F   UNL d   1       4.688   4.408  -3.726  0.00  0.00    -0.165 F 
ATOM     23  F   UNL d   1       4.722   5.985  -2.232  0.00  0.00    -0.165 F 
ENDBRANCH  16  20
ENDBRANCH   3  12
BRANCH   4  24
ATOM     24  C   UNL d   1      -1.603  -3.398   2.853  0.00  0.00     0.316 C 
BRANCH  24  25
ATOM     25  C   UNL d   1      -2.256  -4.585   2.184  0.00  0.00     0.030 A 
ATOM     26  C   UNL d   1      -3.590  -4.954   2.400  0.00  0.00     0.045 A 
ATOM     27 CL   UNL d   1      -4.630  -4.063   3.455  0.00  0.00    -0.084 Cl
ATOM     28  C   UNL d   1      -4.126  -6.091   1.781  0.00  0.00     0.024 A 
ATOM     29  C   UNL d   1      -3.338  -6.883   0.945  0.00  0.00     0.005 A 
ATOM     30  C   UNL d   1      -2.011  -6.532   0.724  0.00  0.00     0.043 A 
ATOM     31  C   UNL d   1      -1.486  -5.396   1.338  0.00  0.00     0.126 A 
ATOM     32  F   UNL d   1      -0.199  -5.096   1.111  0.00  0.00    -0.205 F 
ENDBRANCH  24  25
ENDBRANCH   4  24
TORSDOF 4
