REMARK  4 active torsions:
REMARK  status: ('A' for Active; 'I' for Inactive)
REMARK       I    between atoms: C_3  and  N_1 
REMARK    1  A    between atoms: C_6  and  C_2 
REMARK    2  A    between atoms: C_10  and  C_3 
REMARK    3  A    between atoms: C_11  and  C_6 
REMARK    4  A    between atoms: C_12  and  C_6 
ROOT
ATOM      1  N   UNL d   1       0.294  -0.601  -0.915  0.00  0.00    -0.223 N 
ATOM      2  C   UNL d   1      -0.391  -1.150   0.168  0.00  0.00     0.052 A 
ATOM      3  C   UNL d   1       0.766  -1.196  -2.112  0.00  0.00     0.276 C 
ATOM      4  N   UNL d   1       0.544   0.728  -0.711  0.00  0.00    -0.302 N 
ATOM      5  HN  UNL d   1       0.960   1.389  -1.368  1.00  0.00     0.186 HD
ATOM      6  C   UNL d   1      -0.460  -0.145   1.121  0.00  0.00     0.047 A 
ATOM      7  C   UNL d   1       0.128   0.974   0.527  0.00  0.00     0.110 A 
ATOM      8  O   UNL d   1       0.899  -2.419  -2.140  0.00  0.00    -0.265 OA
ENDROOT
BRANCH   2   9
ATOM      9  C   UNL d   1      -0.968  -2.548   0.194  0.00  0.00     0.103 C 
BRANCH   9  10
ATOM     10  C   UNL d   1      -0.495  -3.307   1.442  0.00  0.00    -0.044 A 
ATOM     11  C   UNL d   1      -1.168  -3.209   2.672  0.00  0.00     0.008 A 
ATOM     12  C   UNL d   1      -0.739  -3.943   3.779  0.00  0.00     0.001 A 
ATOM     13  C   UNL d   1       0.374  -4.774   3.676  0.00  0.00     0.000 A 
ATOM     14  C   UNL d   1       1.067  -4.863   2.471  0.00  0.00     0.001 A 
ATOM     15  C   UNL d   1       0.641  -4.131   1.362  0.00  0.00     0.008 A 
ENDBRANCH   9  10
BRANCH   9  16
ATOM     16  C   UNL d   1      -2.497  -2.616  -0.008  0.00  0.00    -0.044 A 
ATOM     17  C   UNL d   1      -3.310  -1.489  -0.211  0.00  0.00     0.008 A 
ATOM     18  C   UNL d   1      -4.693  -1.619  -0.376  0.00  0.00     0.001 A 
ATOM     19  C   UNL d   1      -5.288  -2.878  -0.352  0.00  0.00     0.000 A 
ATOM     20  C   UNL d   1      -4.501  -4.011  -0.176  0.00  0.00     0.001 A 
ATOM     21  C   UNL d   1      -3.120  -3.882  -0.016  0.00  0.00     0.008 A 
ENDBRANCH   9  16
ENDBRANCH   2   9
BRANCH   3  22
ATOM     22  C   UNL d   1       1.122  -0.422  -3.334  0.00  0.00     0.034 A 
ATOM     23  C   UNL d   1       2.162  -0.872  -4.155  0.00  0.00     0.017 A 
ATOM     24  C   UNL d   1       2.479  -0.176  -5.325  0.00  0.00     0.001 A 
ATOM     25  C   UNL d   1       1.748   0.957  -5.684  0.00  0.00     0.000 A 
ATOM     26  C   UNL d   1       0.697   1.395  -4.880  0.00  0.00     0.001 A 
ATOM     27  C   UNL d   1       0.378   0.706  -3.711  0.00  0.00     0.017 A 
ENDBRANCH   3  22
TORSDOF 4
