REMARK  4 active torsions:
REMARK  status: ('A' for Active; 'I' for Inactive)
REMARK    1  A    between atoms: N_9  and  C_3 
REMARK    2  A    between atoms: N_14  and  C_4 
REMARK    3  A    between atoms: C_16  and  C_8 
REMARK    4  A    between atoms: C_11  and  N_9 
ROOT
ATOM      1  N   UNL d   1       1.414   1.258   0.028  0.00  0.00    -0.327 N 
ATOM      2  HN  UNL d   1       1.937   2.130  -0.041  1.00  0.00     0.169 HD
ATOM      3  C   UNL d   1       0.094  -1.113   0.177  0.00  0.00     0.132 A 
ATOM      4  C   UNL d   1       0.071   1.273   0.172  0.00  0.00     0.129 A 
ATOM      5  C   UNL d   1      -0.630   0.072   0.262  0.00  0.00     0.132 A 
ATOM      6  N   UNL d   1       1.429  -1.113   0.039  0.00  0.00    -0.327 N 
ATOM      7  HN  UNL d   1       1.953  -1.986  -0.015  1.00  0.00     0.169 HD
ATOM      8  C   UNL d   1       2.050   0.073  -0.024  0.00  0.00     0.118 A 
ATOM      9  C   UNL d   1      -2.025   0.022   0.550  0.00  0.00     0.107 C 
ATOM     10  N   UNL d   1      -3.170  -0.040   0.746  0.00  0.00    -0.191 NA
ENDROOT
BRANCH   4  11
ATOM     11  N   UNL d   1      -0.551   2.516   0.320  0.00  0.00    -0.375 N 
ATOM     12  C   UNL d   1       0.320   3.655   0.601  0.00  0.00     0.150 C 
ATOM     13  C   UNL d   1      -1.706   2.823  -0.527  0.00  0.00     0.150 C 
ENDBRANCH   4  11
BRANCH   3  14
ATOM     14  N   UNL d   1      -0.570  -2.358   0.259  0.00  0.00    -0.340 N 
ATOM     15  H   UNL d   1      -1.256  -2.477  -0.484  0.00  0.00     0.167 HD
BRANCH  14  16
ATOM     16  C   UNL d   1      -0.037  -3.592   0.697  0.00  0.00     0.055 A 
ATOM     17  C   UNL d   1      -0.483  -4.810   0.146  0.00  0.00     0.062 A 
ATOM     18  C   UNL d   1      -0.034  -6.037   0.638  0.00  0.00     0.050 A 
ATOM     19 CL   UNL d   1      -1.604  -4.815  -1.173  0.00  0.00    -0.082 Cl
ATOM     20  C   UNL d   1       0.864  -6.058   1.701  0.00  0.00     0.035 A 
ATOM     21  C   UNL d   1       1.330  -4.869   2.257  0.00  0.00     0.026 A 
ATOM     22 CL   UNL d   1       1.391  -7.563   2.345  0.00  0.00    -0.084 Cl
ATOM     23  C   UNL d   1       0.884  -3.645   1.753  0.00  0.00     0.033 A 
ENDBRANCH  14  16
ENDBRANCH   3  14
BRANCH   8  24
ATOM     24  C   UNL d   1       3.526   0.066  -0.087  0.00  0.00     0.008 A 
ATOM     25  C   UNL d   1       4.252  -1.143  -0.084  0.00  0.00     0.015 A 
ATOM     26  C   UNL d   1       5.651  -1.160  -0.096  0.00  0.00     0.001 A 
ATOM     27  C   UNL d   1       6.360   0.036  -0.116  0.00  0.00     0.000 A 
ATOM     28  C   UNL d   1       5.671   1.246  -0.136  0.00  0.00     0.001 A 
ATOM     29  C   UNL d   1       4.273   1.259  -0.123  0.00  0.00     0.015 A 
ENDBRANCH   8  24
TORSDOF 4
