REMARK  3 active torsions:
REMARK  status: ('A' for Active; 'I' for Inactive)
REMARK    1  A    between atoms: C_3  and  C_1 
REMARK    2  A    between atoms: C_6  and  C_3 
REMARK    3  A    between atoms: O_9  and  C_3 
ROOT
ATOM      1  C   UNL d   1       2.410  -0.630  -0.003  0.00  0.00    -0.024 A 
ATOM      2  C   UNL d   1       1.198  -1.341  -0.022  0.00  0.00     0.022 A 
ATOM      3  C   UNL d   1      -0.040  -0.674   0.005  0.00  0.00    -0.025 A 
ATOM      4  C   UNL d   1       2.362   0.770   0.051  0.00  0.00     0.011 A 
ATOM      5  C   UNL d   1      -0.067   0.737   0.040  0.00  0.00    -0.026 A 
ATOM      6  C   UNL d   1       1.141   1.446   0.067  0.00  0.00     0.013 A 
ATOM      7  C   UNL d   1      -1.256  -1.379  -0.004  0.00  0.00     0.012 A 
ATOM      8  C   UNL d   1      -1.299   1.407   0.047  0.00  0.00     0.012 A 
ATOM      9  C   UNL d   1      -2.476  -0.700   0.007  0.00  0.00     0.001 A 
ATOM     10  C   UNL d   1      -2.497   0.692   0.027  0.00  0.00     0.001 A 
ENDROOT
BRANCH   1  11
ATOM     11  C   UNL d   1       3.733  -1.369  -0.082  0.00  0.00     0.184 C 
BRANCH  11  12
ATOM     12  C   UNL d   1       4.188  -1.659  -1.504  0.00  0.00    -0.025 A 
ATOM     13  C   UNL d   1       4.457  -0.618  -2.411  0.00  0.00     0.010 A 
ATOM     14  C   UNL d   1       4.890  -0.895  -3.709  0.00  0.00     0.001 A 
ATOM     15  C   UNL d   1       5.061  -2.213  -4.122  0.00  0.00     0.000 A 
ATOM     16  C   UNL d   1       4.799  -3.256  -3.239  0.00  0.00     0.001 A 
ATOM     17  C   UNL d   1       4.367  -2.983  -1.938  0.00  0.00     0.010 A 
ENDBRANCH  11  12
BRANCH  11  18
ATOM     18  O   UNL d   1       4.737  -0.632   0.622  0.00  0.00    -0.386 OA
ATOM     19  H   UNL d   1       5.490  -0.517   0.022  0.00  0.00     0.210 HD
ENDBRANCH  11  18
ENDBRANCH   1  11
TORSDOF 3
