REMARK  4 active torsions:
REMARK  status: ('A' for Active; 'I' for Inactive)
REMARK    1  A    between atoms: S_3  and  C_1 
REMARK    2  A    between atoms: C_12  and  S_3 
REMARK    3  A    between atoms: C_11  and  C_4 
REMARK    4  A    between atoms: C_19  and  C_12 
ROOT
ATOM      1  C   UNL d   1       0.103   1.019  -0.300  0.00  0.00     0.121 C 
ATOM      2  C   UNL d   1      -0.693  -0.067  -0.623  0.00  0.00     0.084 C 
ATOM      3  C   UNL d   1      -0.068  -1.327  -0.286  0.00  0.00     0.003 C 
ATOM      4  S   UNL d   1       1.675   0.528   0.162  0.00  0.00    -0.088 SA
ATOM      5  C   UNL d   1       1.243  -1.124   0.111  0.00  0.00     0.065 C 
ATOM      6  C   UNL d   1      -2.016   0.075  -1.157  0.00  0.00     0.102 C 
ATOM      7  N   UNL d   1      -3.083   0.130  -1.612  0.00  0.00    -0.191 NA
ENDROOT
BRANCH   1   8
ATOM      8  S   UNL d   1      -0.233   2.764  -0.171  0.00  0.00     0.187 S 
ATOM      9  O   UNL d   1      -1.567   2.927  -0.714  0.00  0.00    -0.222 OA
ATOM     10  O   UNL d   1       0.054   3.078   1.214  0.00  0.00    -0.222 OA
BRANCH   8  11
ATOM     11  C   UNL d   1       0.937   3.627  -1.232  0.00  0.00     0.110 C 
ATOM     12  C   UNL d   1       0.735   5.134  -1.039  0.00  0.00     0.026 C 
BRANCH  11  13
ATOM     13  C   UNL d   1       0.774   3.203  -2.699  0.00  0.00     0.015 C 
ATOM     14  C   UNL d   1       1.757   3.884  -3.642  0.00  0.00     0.006 C 
ENDBRANCH  11  13
ENDBRANCH   8  11
ENDBRANCH   1   8
BRANCH   3  15
ATOM     15  C   UNL d   1      -0.669  -2.668  -0.232  0.00  0.00    -0.024 A 
ATOM     16  C   UNL d   1       0.071  -3.819  -0.547  0.00  0.00     0.014 A 
ATOM     17  C   UNL d   1      -0.488  -5.094  -0.392  0.00  0.00     0.024 A 
ATOM     18  C   UNL d   1      -1.797  -5.231   0.064  0.00  0.00     0.034 A 
ATOM     19  C   UNL d   1      -2.553  -4.103   0.363  0.00  0.00     0.024 A 
ATOM     20 CL   UNL d   1      -2.475  -6.796   0.277  0.00  0.00    -0.084 Cl
ATOM     21  C   UNL d   1      -1.988  -2.831   0.225  0.00  0.00     0.014 A 
ENDBRANCH   3  15
TORSDOF 4
