REMARK  5 active torsions:
REMARK  status: ('A' for Active; 'I' for Inactive)
REMARK    1  A    between atoms: C_7  and  N_1 
REMARK    2  A    between atoms: C_6  and  C_2 
REMARK    3  A    between atoms: O_9  and  C_2 
REMARK    4  A    between atoms: C_10  and  C_6 
REMARK    5  A    between atoms: C_12  and  C_7 
ROOT
ATOM      1  N   UNL d   1      -1.152  -1.352  -0.149  0.00  0.00    -0.310 N 
ATOM      2  C   UNL d   1      -1.878   0.913  -0.005  0.00  0.00     0.174 A 
ATOM      3  C   UNL d   1      -2.312  -0.584   0.013  0.00  0.00     0.264 A 
ATOM      4  C   UNL d   1      -0.380   0.807  -0.063  0.00  0.00     0.013 A 
ATOM      5  C   UNL d   1      -0.013  -0.533  -0.217  0.00  0.00     0.047 A 
ATOM      6  O   UNL d   1      -3.453  -0.972   0.213  0.00  0.00    -0.269 OA
ATOM      7  C   UNL d   1       0.578   1.806   0.020  0.00  0.00     0.013 A 
ATOM      8  C   UNL d   1       1.310  -0.895  -0.389  0.00  0.00     0.030 A 
ATOM      9  C   UNL d   1       1.920   1.445  -0.108  0.00  0.00     0.001 A 
ATOM     10  C   UNL d   1       2.282   0.108  -0.333  0.00  0.00     0.002 A 
ENDROOT
BRANCH   1  11
ATOM     11  C   UNL d   1      -1.133  -2.791  -0.010  0.00  0.00     0.170 C 
BRANCH  11  12
ATOM     12  C   UNL d   1      -0.924  -3.208   1.433  0.00  0.00    -0.040 A 
ATOM     13  C   UNL d   1      -2.023  -3.380   2.288  0.00  0.00     0.009 A 
ATOM     14  C   UNL d   1      -1.832  -3.643   3.646  0.00  0.00     0.001 A 
ATOM     15  C   UNL d   1      -0.543  -3.730   4.167  0.00  0.00     0.000 A 
ATOM     16  C   UNL d   1       0.557  -3.585   3.326  0.00  0.00     0.001 A 
ATOM     17  C   UNL d   1       0.367  -3.337   1.966  0.00  0.00     0.009 A 
ENDBRANCH  11  12
ENDBRANCH   1  11
BRANCH   2  18
ATOM     18  C   UNL d   1      -2.493   1.698  -1.161  0.00  0.00     0.131 C 
BRANCH  18  19
ATOM     19  C   UNL d   1      -2.134   1.199  -2.547  0.00  0.00     0.126 C 
ATOM     20  O   UNL d   1      -1.950   0.010  -2.800  0.00  0.00    -0.298 OA
ATOM     21  C   UNL d   1      -2.069   2.224  -3.650  0.00  0.00     0.091 C 
ENDBRANCH  18  19
ENDBRANCH   2  18
BRANCH   2  22
ATOM     22  O   UNL d   1      -2.248   1.562   1.214  0.00  0.00    -0.375 OA
ATOM     23  H   UNL d   1      -3.163   1.279   1.400  0.00  0.00     0.211 HD
ENDBRANCH   2  22
TORSDOF 5
