REMARK  2 active torsions:
REMARK  status: ('A' for Active; 'I' for Inactive)
REMARK    1  A    between atoms: N_3  and  C_9 
REMARK    2  A    between atoms: C_10  and  C_4 
ROOT
ATOM      1  C   UNL d   1       4.471   2.380  -1.065  0.00  0.00     0.103 A 
ATOM      2  C   UNL d   1       2.435   1.531  -0.043  0.00  0.00     0.019 A 
ATOM      3  C   UNL d   1       3.385   1.493  -1.075  0.00  0.00     0.052 A 
ATOM      4  C   UNL d   1       4.621   3.317  -0.035  0.00  0.00     0.036 A 
ATOM      5  C   UNL d   1       2.587   2.484   0.978  0.00  0.00     0.016 A 
ATOM      6  C   UNL d   1       3.671   3.368   0.984  0.00  0.00     0.003 A 
ENDROOT
BRANCH   2   7
ATOM      7  C   UNL d   1       1.321   0.593   0.003  0.00  0.00     0.174 A 
ATOM      8  N   UNL d   1       0.300   0.519   0.834  0.00  0.00    -0.277 N 
ATOM      9  N   UNL d   1      -0.425  -0.598   0.468  0.00  0.00    -0.281 N 
ATOM     10  HN  UNL d   1       0.088   1.161   1.597  1.00  0.00     0.189 HD
ATOM     11  C   UNL d   1       0.207  -1.128  -0.556  0.00  0.00     0.136 A 
ATOM     12  HN  UNL d   1      -1.279  -0.943   0.905  1.00  0.00     0.189 HD
ATOM     13  C   UNL d   1      -0.092  -2.346  -1.327  0.00  0.00     0.099 C 
ATOM     14  O   UNL d   1       1.322  -0.424  -0.918  0.00  0.00    -0.278 OA
ENDBRANCH   2   7
BRANCH   1  15
ATOM     15  N   UNL d   1       5.466   2.318  -2.143  0.00  0.00    -0.116 N 
ATOM     16  O   UNL d   1       5.292   1.481  -3.040  0.00  0.00    -0.532 OA
ATOM     17  O   UNL d   1       6.422   3.105  -2.091  0.00  0.00    -0.532 OA
ENDBRANCH   1  15
TORSDOF 2
