REMARK  4 active torsions:
REMARK  status: ('A' for Active; 'I' for Inactive)
REMARK    1  A    between atoms: C_2  and  C_1 
REMARK       I    between atoms: N_3  and  C_1 
REMARK    2  A    between atoms: C_8  and  N_3 
REMARK    3  A    between atoms: C_4  and  C_7 
REMARK    4  A    between atoms: O_12  and  C_4 
ROOT
ATOM      1  C   UNL d   1      -3.421  -0.059  -1.117  0.00  0.00     0.041 A 
ATOM      2  C   UNL d   1      -1.254  -1.082  -0.679  0.00  0.00     0.035 A 
ATOM      3  C   UNL d   1      -2.027  -0.068  -1.245  0.00  0.00     0.047 A 
ATOM      4  C   UNL d   1      -4.059  -1.130  -0.484  0.00  0.00     0.018 A 
ATOM      5  C   UNL d   1      -3.300  -2.189   0.020  0.00  0.00     0.003 A 
ATOM      6  C   UNL d   1      -1.902  -2.164  -0.075  0.00  0.00     0.029 A 
ENDROOT
BRANCH   2   7
ATOM      7  N   UNL d   1       0.159  -1.040  -0.684  0.00  0.00    -0.327 N 
ATOM      8  C   UNL d   1       0.919   0.088  -0.952  0.00  0.00     0.226 C 
ATOM      9  O   UNL d   1       0.494   1.229  -1.107  0.00  0.00    -0.273 OA
ATOM     10  H   UNL d   1       0.646  -1.860  -0.358  0.00  0.00     0.169 HD
BRANCH   8  11
ATOM     11  C   UNL d   1       2.394  -0.088  -1.035  0.00  0.00     0.078 A 
ATOM     12  C   UNL d   1       3.061  -1.394  -1.385  0.00  0.00     0.015 A 
ATOM     13  C   UNL d   1       3.189  -0.835   0.005  0.00  0.00     0.015 A 
ENDBRANCH   8  11
ENDBRANCH   2   7
BRANCH   1  14
ATOM     14  C   UNL d   1      -4.222   1.107  -1.576  0.00  0.00     0.293 C 
ATOM     15  O   UNL d   1      -5.439   1.160  -1.525  0.00  0.00    -0.259 OA
BRANCH  14  16
ATOM     16  O   UNL d   1      -3.396   2.102  -1.978  0.00  0.00    -0.323 OA
ATOM     17  C   UNL d   1      -4.023   3.352  -2.251  0.00  0.00     0.213 C 
ENDBRANCH  14  16
ENDBRANCH   1  14
TORSDOF 4
