REMARK  4 active torsions:
REMARK  status: ('A' for Active; 'I' for Inactive)
REMARK    1  A    between atoms: N_5  and  S_1 
REMARK    2  A    between atoms: C_8  and  S_1 
REMARK       I    between atoms: C_7  and  N_2 
REMARK    3  A    between atoms: C_3  and  C_4 
REMARK       I    between atoms: C_4  and  N_6 
REMARK    4  A    between atoms: N_6  and  N_5 
ROOT
ATOM      1  N   UNL d   1       1.681  -2.062   1.458  0.00  0.00    -0.220 N 
ATOM      2  H   UNL d   1       2.094  -2.827   1.999  0.00  0.00     0.200 HD
ENDROOT
BRANCH   1   3
ATOM      3  S   UNL d   1       1.909  -1.938  -0.204  0.00  0.00     0.276 S 
ATOM      4  O   UNL d   1       2.690  -0.742  -0.452  0.00  0.00    -0.199 OA
ATOM      5  O   UNL d   1       0.633  -2.140  -0.847  0.00  0.00    -0.199 OA
BRANCH   3   6
ATOM      6  C   UNL d   1       2.938  -3.345  -0.554  0.00  0.00     0.081 A 
ATOM      7  C   UNL d   1       2.359  -4.533  -1.010  0.00  0.00     0.027 A 
ATOM      8  C   UNL d   1       3.176  -5.620  -1.333  0.00  0.00     0.025 A 
ATOM      9  C   UNL d   1       4.561  -5.509  -1.208  0.00  0.00     0.034 A 
ATOM     10  C   UNL d   1       5.141  -4.317  -0.772  0.00  0.00     0.025 A 
ATOM     11 CL   UNL d   1       5.564  -6.851  -1.603  0.00  0.00    -0.084 Cl
ATOM     12  C   UNL d   1       4.329  -3.226  -0.448  0.00  0.00     0.027 A 
ENDBRANCH   3   6
ENDBRANCH   1   3
BRANCH   1  13
ATOM     13  N   UNL d   1       0.877  -1.071   2.154  0.00  0.00    -0.259 N 
ATOM     14  C   UNL d   1       0.706  -1.193   3.514  0.00  0.00     0.260 C 
ATOM     15  O   UNL d   1       1.196  -2.149   4.125  0.00  0.00    -0.269 OA
ATOM     16  H   UNL d   1       0.338  -0.411   1.590  0.00  0.00     0.190 HD
BRANCH  14  17
ATOM     17  C   UNL d   1      -0.283  -0.198   4.187  0.00  0.00     0.191 C 
ATOM     18  N   UNL d   1      -0.439   1.148   3.583  0.00  0.00    -0.329 N 
ATOM     19  C   UNL d   1      -1.105   1.298   2.382  0.00  0.00     0.217 C 
ATOM     20  C   UNL d   1      -0.331   2.246   4.520  0.00  0.00     0.200 C 
ATOM     21  O   UNL d   1      -1.455   0.316   1.728  0.00  0.00    -0.274 OA
ATOM     22  C   UNL d   1      -1.261   2.692   1.825  0.00  0.00     0.117 C 
ATOM     23  S   UNL d   1       0.630   1.655   5.906  0.00  0.00    -0.147 SA
ATOM     24  C   UNL d   1       0.092  -0.054   5.673  0.00  0.00     0.110 C 
ENDBRANCH  14  17
ENDBRANCH   1  13
TORSDOF 4
