REMARK  6 active torsions:
REMARK  status: ('A' for Active; 'I' for Inactive)
REMARK    1  A    between atoms: C_4  and  N_1 
REMARK    2  A    between atoms: C_2  and  N_10 
REMARK    3  A    between atoms: N_11  and  C_2 
REMARK    4  A    between atoms: C_3  and  C_6 
REMARK       I    between atoms: N_5  and  C_3 
REMARK    5  A    between atoms: N_10  and  N_5 
REMARK    6  A    between atoms: C_15  and  N_11 
ROOT
ATOM      1  N   UNL d   1      -1.938   3.217   4.925  0.00  0.00    -0.273 N 
ATOM      2  H   UNL d   1      -2.421   2.471   4.419  0.00  0.00     0.189 HD
ENDROOT
BRANCH   1   3
ATOM      3  C   UNL d   1      -2.493   3.617   6.119  0.00  0.00     0.191 C 
ATOM      4  S   UNL d   1      -1.649   4.366   7.359  0.00  0.00    -0.039 SA
BRANCH   3   5
ATOM      5  N   UNL d   1      -3.811   3.311   6.324  0.00  0.00    -0.332 N 
ATOM      6  H   UNL d   1      -4.074   3.310   7.306  0.00  0.00     0.168 HD
BRANCH   5   7
ATOM      7  C   UNL d   1      -4.876   3.195   5.411  0.00  0.00     0.036 A 
ATOM      8  C   UNL d   1      -4.867   3.789   4.146  0.00  0.00     0.055 A 
ATOM      9  C   UNL d   1      -6.022   3.770   3.351  0.00  0.00     0.058 A 
ATOM     10 CL   UNL d   1      -5.971   4.607   1.839  0.00  0.00    -0.082 Cl
ATOM     11  C   UNL d   1      -7.181   3.127   3.805  0.00  0.00     0.055 A 
ATOM     12  C   UNL d   1      -7.181   2.510   5.056  0.00  0.00     0.028 A 
ATOM     13 CL   UNL d   1      -8.645   3.085   2.889  0.00  0.00    -0.083 Cl
ATOM     14  C   UNL d   1      -6.040   2.562   5.862  0.00  0.00     0.031 A 
ENDBRANCH   5   7
ENDBRANCH   3   5
ENDBRANCH   1   3
BRANCH   1  15
ATOM     15  N   UNL d   1      -0.529   3.136   4.810  0.00  0.00    -0.264 N 
ATOM     16  C   UNL d   1       0.007   2.052   4.141  0.00  0.00     0.270 C 
ATOM     17  O   UNL d   1      -0.678   1.232   3.543  0.00  0.00    -0.266 OA
ATOM     18  H   UNL d   1       0.014   3.825   5.323  0.00  0.00     0.190 HD
BRANCH  16  19
ATOM     19  C   UNL d   1       1.490   1.928   4.156  0.00  0.00     0.036 A 
ATOM     20  C   UNL d   1       2.120   1.416   3.014  0.00  0.00     0.053 A 
ATOM     21  C   UNL d   1       3.514   1.272   3.001  0.00  0.00     0.103 A 
ATOM     22  C   UNL d   1       4.278   1.610   4.125  0.00  0.00     0.036 A 
ATOM     23  C   UNL d   1       3.641   2.097   5.267  0.00  0.00     0.003 A 
ATOM     24  C   UNL d   1       2.252   2.257   5.285  0.00  0.00     0.017 A 
BRANCH  21  25
ATOM     25  N   UNL d   1       4.185   0.771   1.793  0.00  0.00    -0.116 N 
ATOM     26  O   UNL d   1       3.483   0.522   0.804  0.00  0.00    -0.532 OA
ATOM     27  O   UNL d   1       5.417   0.631   1.834  0.00  0.00    -0.532 OA
ENDBRANCH  21  25
ENDBRANCH  16  19
ENDBRANCH   1  15
TORSDOF 6
