REMARK  3 active torsions:
REMARK  status: ('A' for Active; 'I' for Inactive)
REMARK    1  A    between atoms: C_2  and  S_1 
REMARK    2  A    between atoms: O_7  and  S_1 
REMARK    3  A    between atoms: C_12  and  O_7 
ROOT
ATOM      1  S   UNL d   1       1.133   0.117  -0.083  0.00  0.00     0.309 S 
ATOM      2  O   UNL d   1       2.511   0.547  -0.215  0.00  0.00    -0.192 OA
ATOM      3  O   UNL d   1       0.725  -1.258  -0.277  0.00  0.00    -0.192 OA
ENDROOT
BRANCH   1   4
ATOM      4  C   UNL d   1       0.252   1.064  -1.306  0.00  0.00     0.130 A 
ATOM      5  S   UNL d   1      -1.456   0.920  -1.295  0.00  0.00    -0.067 SA
ATOM      6  C   UNL d   1      -1.615   2.004  -2.594  0.00  0.00     0.070 A 
ATOM      7 BR   UNL d   1      -3.291   2.477  -3.292  0.00  0.00    -0.042 Br
ATOM      8  C   UNL d   1      -0.404   2.468  -3.039  0.00  0.00     0.037 A 
ATOM      9  C   UNL d   1       0.683   1.926  -2.301  0.00  0.00     0.054 A 
ATOM     10 BR   UNL d   1      -0.092   3.687  -4.449  0.00  0.00    -0.049 Br
ENDBRANCH   1   4
BRANCH   1  11
ATOM     11  O   UNL d   1       0.494   0.715   1.288  0.00  0.00    -0.227 OA
BRANCH  11  12
ATOM     12  C   UNL d   1       0.915   0.318   2.527  0.00  0.00     0.105 A 
ATOM     13  C   UNL d   1       0.281   0.917   3.610  0.00  0.00     0.125 A 
ATOM     14  N   UNL d   1       0.568   0.655   4.907  0.00  0.00    -0.373 N 
ATOM     15  C   UNL d   1       1.538  -0.253   5.138  0.00  0.00     0.088 A 
ATOM     16  HN  UNL d   1       0.077   1.121   5.670  1.00  0.00     0.164 HD
ATOM     17  C   UNL d   1       2.228  -0.908   4.131  0.00  0.00     0.020 A 
ATOM     18  C   UNL d   1       1.909  -0.617   2.803  0.00  0.00     0.041 A 
ENDBRANCH  11  12
ENDBRANCH   1  11
TORSDOF 3
