REMARK  8 active torsions:
REMARK  status: ('A' for Active; 'I' for Inactive)
REMARK    1  A    between atoms: O_13  and  C_1 
REMARK    2  A    between atoms: C_3  and  C_2 
REMARK       I    between atoms: N_8  and  C_3 
REMARK    3  A    between atoms: O_15  and  C_4 
REMARK    4  A    between atoms: O_14  and  C_5 
REMARK    5  A    between atoms: C_12  and  N_8 
REMARK    6  A    between atoms: C_9  and  C_12 
REMARK    7  A    between atoms: O_16  and  C_9 
REMARK    8  A    between atoms: C_17  and  O_16 
ROOT
ATOM      1  C   UNL d   1       1.415  -0.419  -0.088  0.00  0.00     0.135 A 
ATOM      2  C   UNL d   1      -1.317   0.281  -0.002  0.00  0.00     0.037 A 
ATOM      3  C   UNL d   1       0.425  -1.421   0.017  0.00  0.00     0.105 A 
ATOM      4  C   UNL d   1       1.034   0.935  -0.079  0.00  0.00     0.105 A 
ATOM      5  C   UNL d   1      -0.330   1.269  -0.033  0.00  0.00     0.057 A 
ATOM      6  C   UNL d   1      -0.926  -1.063   0.021  0.00  0.00     0.057 A 
ENDROOT
BRANCH   2   7
ATOM      7  C   UNL d   1      -2.784   0.563   0.006  0.00  0.00     0.252 C 
ATOM      8  N   UNL d   1      -3.194   1.872  -0.018  0.00  0.00    -0.348 N 
ATOM      9  H   UNL d   1      -2.546   2.647  -0.048  0.00  0.00     0.163 HD
ATOM     10  O   UNL d   1      -3.588  -0.364   0.016  0.00  0.00    -0.268 OA
BRANCH   8  11
ATOM     11  C   UNL d   1      -4.608   2.206  -0.136  0.00  0.00     0.233 C 
BRANCH  11  12
ATOM     12  C   UNL d   1      -4.837   3.696  -0.361  0.00  0.00     0.276 C 
ATOM     13  O   UNL d   1      -5.937   4.198  -0.569  0.00  0.00    -0.263 OA
BRANCH  12  14
ATOM     14  O   UNL d   1      -3.652   4.375  -0.351  0.00  0.00    -0.321 OA
BRANCH  14  15
ATOM     15  C   UNL d   1      -3.695   5.708  -0.872  0.00  0.00     0.174 C 
ATOM     16  C   UNL d   1      -3.460   5.634  -2.370  0.00  0.00     0.034 C 
ENDBRANCH  14  15
ENDBRANCH  12  14
ENDBRANCH  11  12
ENDBRANCH   8  11
ENDBRANCH   2   7
BRANCH   4  17
ATOM     17  O   UNL d   1       1.825   2.054  -0.121  0.00  0.00    -0.353 OA
ATOM     18  C   UNL d   1       3.237   1.906  -0.139  0.00  0.00     0.210 C 
ENDBRANCH   4  17
BRANCH   3  19
ATOM     19  O   UNL d   1       0.854  -2.724   0.111  0.00  0.00    -0.353 OA
ATOM     20  C   UNL d   1      -0.093  -3.680   0.579  0.00  0.00     0.210 C 
ENDBRANCH   3  19
BRANCH   1  21
ATOM     21  O   UNL d   1       2.748  -0.740  -0.097  0.00  0.00    -0.351 OA
ATOM     22  C   UNL d   1       3.134  -1.643  -1.135  0.00  0.00     0.210 C 
ENDBRANCH   1  21
TORSDOF 8
