REMARK  15 active torsions:
REMARK  status: ('A' for Active; 'I' for Inactive)
REMARK    1  A    between atoms: C_13  and  C_1 
REMARK    2  A    between atoms: C_14  and  C_2 
REMARK    3  A    between atoms: C_15  and  C_3 
REMARK    4  A    between atoms: C_16  and  C_5 
REMARK    5  A    between atoms: C_6  and  C_12 
REMARK    6  A    between atoms: O_23  and  C_9 
REMARK    7  A    between atoms: O_24  and  C_10 
REMARK    8  A    between atoms: O_26  and  C_13 
REMARK    9  A    between atoms: O_25  and  C_14 
REMARK   10  A    between atoms: C_17  and  C_15 
REMARK   11  A    between atoms: C_18  and  C_16 
REMARK   12  A    between atoms: O_28  and  C_17 
REMARK   13  A    between atoms: O_27  and  C_18 
REMARK   14  A    between atoms: C_29  and  O_23 
REMARK   15  A    between atoms: C_30  and  O_24 
ROOT
ATOM      1  C   UNL d   1      -0.067  -1.148  -0.043  0.00  0.00     0.077 A 
ATOM      2  C   UNL d   1       0.750   0.061  -0.026  0.00  0.00     0.053 A 
ATOM      3  C   UNL d   1      -1.350  -0.849   0.227  0.00  0.00     0.021 A 
ATOM      4  N   UNL d   1      -0.101   1.132   0.188  0.00  0.00    -0.336 N 
ATOM      5  HN  UNL d   1       0.134   2.124   0.203  1.00  0.00     0.168 HD
ATOM      6  C   UNL d   1      -1.262   0.590   0.366  0.00  0.00     0.150 A 
ATOM      7  C   UNL d   1       2.088   0.196  -0.131  0.00  0.00     0.061 C 
ENDROOT
BRANCH   7   8
ATOM      8  C   UNL d   1       2.763   1.445   0.023  0.00  0.00     0.053 A 
ATOM      9  C   UNL d   1       4.017   1.843   0.473  0.00  0.00     0.077 A 
ATOM     10  C   UNL d   1       4.013   3.298   0.479  0.00  0.00     0.021 A 
ATOM     11  C   UNL d   1       2.774   3.715   0.010  0.00  0.00     0.150 A 
ATOM     12  N   UNL d   1       2.074   2.582  -0.295  0.00  0.00    -0.336 N 
ATOM     13  H   UNL d   1       1.109   2.552  -0.593  0.00  0.00     0.168 HD
BRANCH   9  14
ATOM     14  C   UNL d   1       5.093   0.956   0.922  0.00  0.00     0.295 C 
ATOM     15  O   UNL d   1       5.957   1.298   1.721  0.00  0.00    -0.259 OA
BRANCH  14  16
ATOM     16  O   UNL d   1       5.018  -0.282   0.351  0.00  0.00    -0.322 OA
ATOM     17  C   UNL d   1       6.024  -1.214   0.739  0.00  0.00     0.213 C 
ENDBRANCH  14  16
ENDBRANCH   9  14
BRANCH  10  18
ATOM     18  C   UNL d   1       5.121   4.195   0.955  0.00  0.00     0.155 C 
BRANCH  18  19
ATOM     19  C   UNL d   1       6.414   4.052   0.174  0.00  0.00     0.262 C 
ATOM     20  O   UNL d   1       6.645   3.239  -0.712  0.00  0.00    -0.265 OA
BRANCH  19  21
ATOM     21  O   UNL d   1       7.307   4.989   0.621  0.00  0.00    -0.326 OA
ATOM     22  C   UNL d   1       8.582   4.994  -0.025  0.00  0.00     0.213 C 
ENDBRANCH  19  21
ENDBRANCH  18  19
ENDBRANCH  10  18
BRANCH  11  23
ATOM     23  O   UNL d   1       2.258   4.947  -0.138  0.00  0.00    -0.336 OA
BRANCH  23  24
ATOM     24  C   UNL d   1       0.891   5.001  -0.570  0.00  0.00     0.173 C 
ATOM     25  C   UNL d   1       0.402   6.429  -0.680  0.00  0.00     0.034 C 
ENDBRANCH  23  24
ENDBRANCH  11  23
ENDBRANCH   7   8
BRANCH   1  26
ATOM     26  C   UNL d   1       0.364  -2.543  -0.274  0.00  0.00     0.295 C 
ATOM     27  O   UNL d   1      -0.408  -3.451  -0.539  0.00  0.00    -0.259 OA
BRANCH  26  28
ATOM     28  O   UNL d   1       1.703  -2.682  -0.141  0.00  0.00    -0.322 OA
ATOM     29  C   UNL d   1       2.217  -3.994  -0.383  0.00  0.00     0.213 C 
ENDBRANCH  26  28
ENDBRANCH   1  26
BRANCH   3  30
ATOM     30  C   UNL d   1      -2.604  -1.619   0.392  0.00  0.00     0.155 C 
BRANCH  30  31
ATOM     31  C   UNL d   1      -2.829  -1.993   1.848  0.00  0.00     0.262 C 
ATOM     32  O   UNL d   1      -2.063  -1.771   2.770  0.00  0.00    -0.265 OA
BRANCH  31  33
ATOM     33  O   UNL d   1      -4.031  -2.635   1.951  0.00  0.00    -0.326 OA
ATOM     34  C   UNL d   1      -4.408  -3.076   3.258  0.00  0.00     0.213 C 
ENDBRANCH  31  33
ENDBRANCH  30  31
ENDBRANCH   3  30
BRANCH   6  35
ATOM     35  O   UNL d   1      -2.399   1.238   0.663  0.00  0.00    -0.336 OA
BRANCH  35  36
ATOM     36  C   UNL d   1      -2.267   2.615   1.057  0.00  0.00     0.173 C 
ATOM     37  C   UNL d   1      -1.760   2.702   2.486  0.00  0.00     0.034 C 
ENDBRANCH  35  36
ENDBRANCH   6  35
TORSDOF 15
