REMARK  6 active torsions:
REMARK  status: ('A' for Active; 'I' for Inactive)
REMARK    1  A    between atoms: C_2  and  N_1 
REMARK    2  A    between atoms: N_14  and  C_3 
REMARK    3  A    between atoms: N_6  and  C_16 
REMARK    4  A    between atoms: C_19  and  N_14 
REMARK    5  A    between atoms: C_16  and  C_17 
REMARK    6  A    between atoms: C_17  and  C_19 
ROOT
ATOM      1  N   UNL d   1      -1.238  -1.051   0.998  0.00  0.00    -0.277 NA
ATOM      2  H   UNL d   1      -1.540  -1.499   1.867  0.00  0.00     0.129 HD
ENDROOT
BRANCH   1   3
ATOM      3  C   UNL d   1      -0.748   0.234   1.266  0.00  0.00     0.113 A 
ATOM      4  C   UNL d   1      -1.395   1.113   2.146  0.00  0.00     0.141 A 
ATOM      5  C   UNL d   1      -0.923   2.429   2.294  0.00  0.00     0.041 A 
ATOM      6  C   UNL d   1       0.185   2.838   1.565  0.00  0.00     0.020 A 
ATOM      7  C   UNL d   1       0.775   1.919   0.722  0.00  0.00     0.089 A 
ATOM      8  N   UNL d   1       0.330   0.653   0.558  0.00  0.00    -0.355 N 
ATOM      9  HN  UNL d   1       0.800   0.020  -0.089  1.00  0.00     0.166 HD
BRANCH   4  10
ATOM     10  N   UNL d   1      -2.541   0.692   2.948  0.00  0.00    -0.112 N 
ATOM     11  O   UNL d   1      -2.757  -0.522   3.085  0.00  0.00    -0.532 OA
ATOM     12  O   UNL d   1      -3.215   1.581   3.494  0.00  0.00    -0.532 OA
ENDBRANCH   4  10
ENDBRANCH   1   3
BRANCH   1  13
ATOM     13  C   UNL d   1      -0.405  -1.913   0.166  0.00  0.00     0.095 C 
BRANCH  13  14
ATOM     14  C   UNL d   1      -1.070  -3.281   0.020  0.00  0.00     0.035 C 
BRANCH  14  15
ATOM     15  C   UNL d   1      -2.461  -3.178  -0.601  0.00  0.00     0.130 C 
BRANCH  15  16
ATOM     16  N   UNL d   1      -3.088  -4.475  -0.756  0.00  0.00    -0.352 N 
ATOM     17  C   UNL d   1      -3.073  -5.244  -1.883  0.00  0.00     0.182 A 
ATOM     18  N   UNL d   1      -3.761  -6.351  -1.717  0.00  0.00    -0.361 N 
ATOM     19  C   UNL d   1      -4.247  -6.285  -0.436  0.00  0.00     0.106 A 
ATOM     20  HN  UNL d   1      -3.903  -7.099  -2.395  1.00  0.00     0.166 HD
ATOM     21  C   UNL d   1      -3.839  -5.126   0.182  0.00  0.00     0.108 A 
ENDBRANCH  15  16
ENDBRANCH  14  15
ENDBRANCH  13  14
ENDBRANCH   1  13
TORSDOF 6
