REMARK  4 active torsions:
REMARK  status: ('A' for Active; 'I' for Inactive)
REMARK    1  A    between atoms: C_7  and  C_1 
REMARK    2  A    between atoms: C_8  and  C_2 
REMARK    3  A    between atoms: C_6  and  C_10 
REMARK       I    between atoms: N_11  and  C_7 
REMARK       I    between atoms: C_10  and  N_12 
REMARK    4  A    between atoms: N_12  and  N_11 
ROOT
ATOM      1  C   UNL d   1       0.338  -2.676   0.016  0.00  0.00     0.275 C 
ATOM      2  N   UNL d   1      -0.601  -3.685  -0.081  0.00  0.00    -0.263 N 
ATOM      3  O   UNL d   1       1.544  -2.917   0.031  0.00  0.00    -0.266 OA
ATOM      4  H   UNL d   1      -1.593  -3.556   0.111  0.00  0.00     0.190 HD
ENDROOT
BRANCH   1   5
ATOM      5  C   UNL d   1      -0.173  -1.330   0.140  0.00  0.00     0.095 A 
ATOM      6  C   UNL d   1      -1.222  -0.711  -0.530  0.00  0.00     0.133 A 
ATOM      7  O   UNL d   1      -1.302   0.578  -0.062  0.00  0.00    -0.235 OA
ATOM      8  N   UNL d   1      -0.318   0.829   0.861  0.00  0.00    -0.264 N 
ATOM      9  C   UNL d   1       0.368  -0.309   0.975  0.00  0.00     0.047 A 
ATOM     10  HN  UNL d   1      -0.146   1.704   1.357  1.00  0.00     0.194 HD
ATOM     11  C   UNL d   1       1.509  -0.388   1.918  0.00  0.00     0.071 C 
BRANCH   6  12
ATOM     12  C   UNL d   1      -2.113  -1.161  -1.569  0.00  0.00     0.041 A 
ATOM     13  S   UNL d   1      -3.652  -0.413  -1.756  0.00  0.00    -0.099 SA
ATOM     14  C   UNL d   1      -4.041  -1.374  -3.113  0.00  0.00     0.050 A 
ATOM     15  C   UNL d   1      -3.033  -2.253  -3.424  0.00  0.00     0.008 A 
ATOM     16  C   UNL d   1      -1.918  -2.127  -2.539  0.00  0.00     0.022 A 
ENDBRANCH   6  12
ENDBRANCH   1   5
BRANCH   2  17
ATOM     17  N   UNL d   1      -0.141  -5.007  -0.170  0.00  0.00    -0.263 N 
ATOM     18  C   UNL d   1      -0.950  -6.037   0.268  0.00  0.00     0.276 C 
ATOM     19  O   UNL d   1      -2.068  -5.836   0.731  0.00  0.00    -0.266 OA
ATOM     20  H   UNL d   1       0.817  -5.138  -0.497  0.00  0.00     0.190 HD
BRANCH  18  21
ATOM     21  C   UNL d   1      -0.397  -7.407   0.137  0.00  0.00     0.110 A 
ATOM     22  C   UNL d   1      -0.811  -8.419   1.006  0.00  0.00     0.135 A 
ATOM     23  F   UNL d   1      -1.656  -8.166   2.015  0.00  0.00    -0.205 F 
ATOM     24  C   UNL d   1      -0.329  -9.724   0.870  0.00  0.00     0.043 A 
ATOM     25  C   UNL d   1       0.572 -10.035  -0.147  0.00  0.00     0.006 A 
ATOM     26  C   UNL d   1       0.995  -9.034  -1.019  0.00  0.00     0.043 A 
ATOM     27  C   UNL d   1       0.511  -7.732  -0.870  0.00  0.00     0.135 A 
ATOM     28  F   UNL d   1       0.943  -6.803  -1.736  0.00  0.00    -0.205 F 
ENDBRANCH  18  21
ENDBRANCH   2  17
TORSDOF 4
