REMARK  4 active torsions:
REMARK  status: ('A' for Active; 'I' for Inactive)
REMARK    1  A    between atoms: O_6  and  C_1 
REMARK       I    between atoms: N_9  and  C_1 
REMARK    2  A    between atoms: N_2  and  O_6 
REMARK    3  A    between atoms: C_4  and  C_8 
REMARK    4  A    between atoms: C_10  and  C_5 
ROOT
ATOM      1  N   UNL d   1       0.878  -1.350  -1.955  0.00  0.00    -0.261 N 
ATOM      2  HN  UNL d   1       0.392  -0.789  -1.256  1.00  0.00     0.194 HD
ATOM      3  C   UNL d   1       0.287  -2.071  -2.865  0.00  0.00     0.029 C 
ATOM      4  C   UNL d   1       1.046  -2.888  -3.892  0.00  0.00     0.070 C 
ENDROOT
BRANCH   3   5
ATOM      5  C   UNL d   1      -1.205  -2.144  -2.934  0.00  0.00     0.027 C 
ATOM      6  C   UNL d   1      -1.969  -1.483  -2.051  0.00  0.00     0.013 C 
BRANCH   6   7
ATOM      7  C   UNL d   1      -3.439  -1.532  -2.006  0.00  0.00    -0.036 A 
ATOM      8  C   UNL d   1      -4.172  -2.659  -2.400  0.00  0.00     0.011 A 
ATOM      9  C   UNL d   1      -5.563  -2.686  -2.270  0.00  0.00     0.001 A 
ATOM     10  C   UNL d   1      -6.236  -1.590  -1.736  0.00  0.00     0.000 A 
ATOM     11  C   UNL d   1      -5.520  -0.465  -1.334  0.00  0.00     0.001 A 
ATOM     12  C   UNL d   1      -4.130  -0.438  -1.465  0.00  0.00     0.011 A 
ENDBRANCH   6   7
ENDBRANCH   3   5
BRANCH   1  13
ATOM     13  O   UNL d   1       2.288  -1.452  -2.066  0.00  0.00    -0.181 OA
BRANCH  13  14
ATOM     14  C   UNL d   1       2.948  -0.723  -1.094  0.00  0.00     0.382 C 
ATOM     15  O   UNL d   1       4.173  -0.703  -1.029  0.00  0.00    -0.236 OA
ATOM     16  N   UNL d   1       2.120  -0.044  -0.241  0.00  0.00    -0.340 N 
ATOM     17  C   UNL d   1       2.574   0.787   0.838  0.00  0.00     0.151 C 
ATOM     18  H   UNL d   1       1.136  -0.175  -0.445  0.00  0.00     0.164 HD
ENDBRANCH  13  14
ENDBRANCH   1  13
TORSDOF 4
