REMARK  2 active torsions:
REMARK  status: ('A' for Active; 'I' for Inactive)
REMARK    1  A    between atoms: N_7  and  C_1 
REMARK    2  A    between atoms: C_8  and  C_3 
ROOT
ATOM      1  C   UNL d   1      -1.427  -0.446   0.057  0.00  0.00     0.010 C 
ATOM      2  C   UNL d   1      -0.476  -1.393   0.008  0.00  0.00     0.055 C 
ATOM      3  C   UNL d   1       0.342   1.501   0.051  0.00  0.00     0.093 C 
ATOM      4  C   UNL d   1       0.990  -1.220   0.126  0.00  0.00     0.070 C 
ATOM      5  S   UNL d   1       1.612   0.338   0.608  0.00  0.00    -0.108 SA
ATOM      6  C   UNL d   1      -1.114   1.028   0.197  0.00  0.00     0.077 C 
ATOM      7  S   UNL d   1       2.051  -2.512  -0.081  0.00  0.00    -0.072 SA
ENDROOT
BRANCH   3   8
ATOM      8  C   UNL d   1       0.679   2.144  -1.291  0.00  0.00    -0.022 A 
ATOM      9  C   UNL d   1       1.142   3.476  -1.391  0.00  0.00     0.041 A 
ATOM     10 CL   UNL d   1       1.345   4.507  -0.015  0.00  0.00    -0.084 Cl
ATOM     11  C   UNL d   1       1.449   4.043  -2.635  0.00  0.00     0.024 A 
ATOM     12  C   UNL d   1       1.304   3.306  -3.801  0.00  0.00     0.002 A 
ATOM     13  C   UNL d   1       0.846   1.990  -3.727  0.00  0.00     0.001 A 
ATOM     14  C   UNL d   1       0.536   1.415  -2.487  0.00  0.00     0.010 A 
ENDBRANCH   3   8
BRANCH   1  15
ATOM     15  N   UNL d   1      -2.790  -0.773  -0.032  0.00  0.00    -0.384 N 
ATOM     16  C   UNL d   1      -3.776  -0.345   0.974  0.00  0.00     0.122 C 
ATOM     17  C   UNL d   1      -4.350  -1.573   1.686  0.00  0.00     0.020 C 
ATOM     18  C   UNL d   1      -4.930  -2.575   0.690  0.00  0.00     0.003 C 
ATOM     19  C   UNL d   1      -3.900  -2.942  -0.376  0.00  0.00     0.020 C 
ATOM     20  C   UNL d   1      -3.332  -1.693  -1.044  0.00  0.00     0.122 C 
ENDBRANCH   1  15
TORSDOF 2
