REMARK  3 active torsions:
REMARK  status: ('A' for Active; 'I' for Inactive)
REMARK    1  A    between atoms: C_14  and  C_3 
REMARK    2  A    between atoms: C_7  and  S_13 
REMARK    3  A    between atoms: S_13  and  C_14 
ROOT
ATOM      1  C   UNL d   1      -6.185  -4.489   0.134  0.00  0.00     0.049 A 
ATOM      2  C   UNL d   1      -3.767  -4.246   0.105  0.00  0.00     0.023 A 
ATOM      3  C   UNL d   1      -5.047  -3.674   0.095  0.00  0.00     0.052 A 
ATOM      4  C   UNL d   1      -6.063  -5.880   0.157  0.00  0.00     0.041 A 
ATOM      5  C   UNL d   1      -3.664  -5.648   0.121  0.00  0.00     0.028 A 
ATOM      6  C   UNL d   1      -4.799  -6.481   0.144  0.00  0.00    -0.039 A 
ATOM      7 CL   UNL d   1      -5.315  -1.970  -0.032  0.00  0.00    -0.083 Cl
ATOM      8 CL   UNL d   1      -7.523  -6.804   0.174  0.00  0.00    -0.084 Cl
ATOM      9  C   UNL d   1      -4.573  -7.967   0.140  0.00  0.00     0.050 C 
ENDROOT
BRANCH   2  10
ATOM     10  S   UNL d   1      -2.217  -3.348   0.005  0.00  0.00    -0.122 SA
BRANCH  10  11
ATOM     11  C   UNL d   1      -2.237  -2.375   1.552  0.00  0.00     0.138 C 
BRANCH  11  12
ATOM     12  C   UNL d   1      -2.325  -3.211   2.779  0.00  0.00     0.044 A 
ATOM     13  N   UNL d   1      -3.510  -3.427   3.370  0.00  0.00    -0.264 N 
ATOM     14  O   UNL d   1      -3.241  -4.188   4.491  0.00  0.00    -0.243 OA
ATOM     15  HN  UNL d   1      -4.423  -3.097   3.055  1.00  0.00     0.194 HD
ATOM     16  C   UNL d   1      -1.904  -4.413   4.577  0.00  0.00     0.074 A 
ATOM     17  C   UNL d   1      -1.439  -5.188   5.740  0.00  0.00     0.079 C 
ATOM     18  C   UNL d   1      -1.276  -3.821   3.508  0.00  0.00     0.062 A 
ENDBRANCH  11  12
ENDBRANCH  10  11
ENDBRANCH   2  10
TORSDOF 3
