REMARK  4 active torsions:
REMARK  status: ('A' for Active; 'I' for Inactive)
REMARK       I    between atoms: N_2  and  C_1 
REMARK    1  A    between atoms: C_3  and  C_1 
REMARK       I    between atoms: C_4  and  N_2 
REMARK       I    between atoms: N_5  and  C_4 
REMARK    2  A    between atoms: C_6  and  N_5 
REMARK    3  A    between atoms: O_13  and  C_8 
REMARK    4  A    between atoms: O_14  and  C_9 
ROOT
ATOM      1  C   UNL d   1       0.866  -0.038   0.691  0.00  0.00     0.265 C 
ATOM      2  N   UNL d   1       0.310   1.228   0.751  0.00  0.00    -0.275 N 
ATOM      3  C   UNL d   1       0.955   2.430   0.954  0.00  0.00     0.327 C 
ATOM      4  N   UNL d   1       2.248   2.329   1.403  0.00  0.00    -0.308 N 
ATOM      5  O   UNL d   1       2.058  -0.267   0.884  0.00  0.00    -0.267 OA
ATOM      6  O   UNL d   1       0.352   3.472   0.708  0.00  0.00    -0.247 OA
ATOM      7  H   UNL d   1      -0.636   1.348   0.413  0.00  0.00     0.173 HD
ATOM      8  H   UNL d   1       2.697   1.454   1.148  0.00  0.00     0.170 HD
ENDROOT
BRANCH   1   9
ATOM      9  C   UNL d   1      -0.061  -1.136   0.292  0.00  0.00     0.099 A 
ATOM     10  C   UNL d   1      -0.935  -0.967  -0.791  0.00  0.00     0.086 A 
ATOM     11  C   UNL d   1      -1.762  -2.014  -1.203  0.00  0.00     0.038 A 
ATOM     12  C   UNL d   1      -1.690  -3.248  -0.560  0.00  0.00     0.005 A 
ATOM     13  C   UNL d   1      -0.823  -3.427   0.521  0.00  0.00     0.038 A 
ATOM     14  C   UNL d   1      -0.029  -2.368   0.980  0.00  0.00     0.086 A 
BRANCH  10  15
ATOM     15  O   UNL d   1      -1.101   0.242  -1.424  0.00  0.00    -0.355 OA
ATOM     16  C   UNL d   1      -0.083   0.473  -2.403  0.00  0.00     0.210 C 
ENDBRANCH  10  15
BRANCH  14  17
ATOM     17  O   UNL d   1       0.810  -2.477   2.054  0.00  0.00    -0.355 OA
ATOM     18  C   UNL d   1       0.431  -3.320   3.138  0.00  0.00     0.210 C 
ENDBRANCH  14  17
ENDBRANCH   1   9
BRANCH   4  19
ATOM     19  C   UNL d   1       3.072   3.408   1.783  0.00  0.00     0.048 A 
ATOM     20  C   UNL d   1       2.628   4.393   2.695  0.00  0.00    -0.035 A 
ATOM     21  C   UNL d   1       3.507   5.423   3.079  0.00  0.00     0.009 A 
ATOM     22  C   UNL d   1       1.276   4.397   3.358  0.00  0.00     0.050 C 
ATOM     23  C   UNL d   1       4.815   5.463   2.611  0.00  0.00     0.001 A 
ATOM     24  C   UNL d   1       5.262   4.478   1.738  0.00  0.00     0.009 A 
ATOM     25  C   UNL d   1       4.406   3.445   1.313  0.00  0.00    -0.035 A 
ATOM     26  C   UNL d   1       4.977   2.481   0.304  0.00  0.00     0.050 C 
ENDBRANCH   4  19
TORSDOF 4
