REMARK  3 active torsions:
REMARK  status: ('A' for Active; 'I' for Inactive)
REMARK    1  A    between atoms: C_4  and  C_3 
REMARK    2  A    between atoms: C_15  and  C_5 
REMARK    3  A    between atoms: C_12  and  C_16 
ROOT
ATOM      1  N   UNL d   1       1.167   0.104   0.268  0.00  0.00    -0.317 N 
ATOM      2  HN  UNL d   1       2.130   0.216   0.587  1.00  0.00     0.169 HD
ATOM      3  C   UNL d   1       0.509  -1.011   0.017  0.00  0.00     0.200 A 
ATOM      4  C   UNL d   1       0.235   1.082  -0.006  0.00  0.00     0.138 A 
ATOM      5  N   UNL d   1      -0.967   0.603  -0.363  0.00  0.00    -0.242 N 
ATOM      6  HN  UNL d   1      -1.813   1.126  -0.584  1.00  0.00     0.196 HD
ATOM      7  O   UNL d   1      -0.786  -0.777  -0.359  0.00  0.00    -0.215 OA
ENDROOT
BRANCH   4   8
ATOM      8  C   UNL d   1       0.560   2.504   0.024  0.00  0.00     0.010 A 
ATOM      9  C   UNL d   1       1.858   2.929   0.337  0.00  0.00     0.016 A 
ATOM     10  C   UNL d   1       2.194   4.287   0.298  0.00  0.00     0.017 A 
ATOM     11  C   UNL d   1       1.235   5.249  -0.051  0.00  0.00     0.048 A 
ATOM     12  C   UNL d   1      -0.069   4.826  -0.345  0.00  0.00     0.017 A 
ATOM     13  C   UNL d   1      -0.403   3.469  -0.306  0.00  0.00     0.016 A 
BRANCH  11  14
ATOM     14  C   UNL d   1       1.585   6.715  -0.126  0.00  0.00     0.417 C 
ATOM     15  F   UNL d   1       2.886   6.982   0.179  0.00  0.00    -0.166 F 
ATOM     16  F   UNL d   1       1.380   7.236  -1.368  0.00  0.00    -0.166 F 
ATOM     17  F   UNL d   1       0.839   7.473   0.725  0.00  0.00    -0.166 F 
ENDBRANCH  11  14
ENDBRANCH   4   8
BRANCH   3  18
ATOM     18  C   UNL d   1       1.101  -2.376   0.109  0.00  0.00     0.110 A 
ATOM     19  N   UNL d   1       0.424  -3.478  -0.235  0.00  0.00    -0.257 N 
ATOM     20  O   UNL d   1       1.295  -4.532  -0.019  0.00  0.00    -0.242 OA
ATOM     21  HN  UNL d   1      -0.533  -3.531  -0.584  1.00  0.00     0.195 HD
ATOM     22  C   UNL d   1       2.474  -4.055   0.463  0.00  0.00     0.075 A 
ATOM     23  C   UNL d   1       2.408  -2.686   0.547  0.00  0.00     0.070 A 
ATOM     24  C   UNL d   1       3.504  -5.061   0.774  0.00  0.00     0.079 C 
ENDBRANCH   3  18
TORSDOF 3
