REMARK  5 active torsions:
REMARK  status: ('A' for Active; 'I' for Inactive)
REMARK    1  A    between atoms: C_7  and  S_1 
REMARK    2  A    between atoms: O_9  and  S_1 
REMARK    3  A    between atoms: C_4  and  C_8 
REMARK    4  A    between atoms: C_8  and  C_19 
REMARK    5  A    between atoms: C_20  and  O_9 
ROOT
ATOM      1  C   UNL d   1       1.158   0.586  -7.565  0.00  0.00    -0.034 A 
ATOM      2  C   UNL d   1      -0.292   2.466  -9.052  0.00  0.00     0.089 A 
ATOM      3  C   UNL d   1       1.083   1.914  -7.139  0.00  0.00     0.014 A 
ATOM      4  C   UNL d   1       0.476   0.192  -8.720  0.00  0.00     0.014 A 
ATOM      5  C   UNL d   1       0.346   2.848  -7.871  0.00  0.00     0.039 A 
ATOM      6  C   UNL d   1      -0.253   1.131  -9.457  0.00  0.00     0.039 A 
ENDROOT
BRANCH   2   7
ATOM      7  O   UNL d   1      -0.977   3.328  -9.871  0.00  0.00    -0.229 OA
BRANCH   7   8
ATOM      8  S   UNL d   1      -0.639   4.927  -9.881  0.00  0.00     0.303 S 
ATOM      9  O   UNL d   1      -1.460   5.583  -8.883  0.00  0.00    -0.193 OA
ATOM     10  O   UNL d   1       0.799   5.125  -9.907  0.00  0.00    -0.193 OA
BRANCH   8  11
ATOM     11  C   UNL d   1      -1.232   5.449 -11.473  0.00  0.00     0.090 A 
ATOM     12  C   UNL d   1      -2.502   6.018 -11.592  0.00  0.00     0.049 A 
ATOM     13  C   UNL d   1      -2.926   6.461 -12.843  0.00  0.00     0.037 A 
ATOM     14 CL   UNL d   1      -4.490   7.157 -13.011  0.00  0.00    -0.084 Cl
ATOM     15  C   UNL d   1      -2.097   6.349 -13.959  0.00  0.00     0.047 A 
ATOM     16  C   UNL d   1      -0.827   5.791 -13.819  0.00  0.00     0.037 A 
ATOM     17  C   UNL d   1      -0.383   5.340 -12.580  0.00  0.00     0.049 A 
ATOM     18 CL   UNL d   1       0.204   5.662 -15.189  0.00  0.00    -0.084 Cl
ENDBRANCH   8  11
ENDBRANCH   7   8
ENDBRANCH   2   7
BRANCH   1  19
ATOM     19  C   UNL d   1       1.950  -0.376  -6.800  0.00  0.00     0.046 C 
BRANCH  19  20
ATOM     20  C   UNL d   1       3.242  -0.625  -7.024  0.00  0.00     0.105 A 
ATOM     21  C   UNL d   1       4.075  -1.588  -6.242  0.00  0.00     0.276 A 
ATOM     22  N   UNL d   1       5.313  -1.512  -6.816  0.00  0.00    -0.274 N 
ATOM     23  O   UNL d   1       3.722  -2.276  -5.305  0.00  0.00    -0.266 OA
ATOM     24  C   UNL d   1       5.332  -0.616  -7.854  0.00  0.00     0.327 A 
ATOM     25  H   UNL d   1       6.112  -2.043  -6.517  0.00  0.00     0.173 HD
ATOM     26  N   UNL d   1       4.060  -0.079  -7.969  0.00  0.00    -0.304 N 
ATOM     27  O   UNL d   1       6.292  -0.342  -8.550  0.00  0.00    -0.247 OA
ATOM     28  H   UNL d   1       3.804   0.615  -8.656  0.00  0.00     0.171 HD
ENDBRANCH  19  20
ENDBRANCH   1  19
TORSDOF 5
