REMARK  6 active torsions:
REMARK  status: ('A' for Active; 'I' for Inactive)
REMARK    1  A    between atoms: C_2  and  N_1 
REMARK    2  A    between atoms: C_3  and  C_5 
REMARK    3  A    between atoms: S_9  and  C_6 
REMARK    4  A    between atoms: C_8  and  C_18 
REMARK       I    between atoms: N_11  and  C_8 
REMARK    5  A    between atoms: C_18  and  S_9 
REMARK    6  A    between atoms: C_19  and  N_11 
ROOT
ATOM      1  C   UNL d   1       1.144  -2.515   0.725  0.00  0.00     0.120 A 
ATOM      2  C   UNL d   1       1.167  -2.599   2.128  0.00  0.00     0.053 A 
ATOM      3  C   UNL d   1       0.161  -1.975   2.877  0.00  0.00     0.050 A 
ATOM      4  C   UNL d   1       0.122  -1.855   0.030  0.00  0.00     0.034 A 
ATOM      5  C   UNL d   1      -0.786  -1.188   2.194  0.00  0.00     0.017 A 
ATOM      6  C   UNL d   1      -0.816  -1.142   0.790  0.00  0.00     0.022 A 
ENDROOT
BRANCH   4   7
ATOM      7  S   UNL d   1      -0.258  -2.259  -1.677  0.00  0.00    -0.118 SA
BRANCH   7   8
ATOM      8  C   UNL d   1      -0.065  -0.674  -2.568  0.00  0.00     0.182 C 
BRANCH   8   9
ATOM      9  C   UNL d   1      -0.715  -0.820  -3.953  0.00  0.00     0.231 C 
ATOM     10  N   UNL d   1       0.066  -0.341  -4.999  0.00  0.00    -0.327 N 
ATOM     11  H   UNL d   1       0.995  -0.008  -4.774  0.00  0.00     0.169 HD
ATOM     12  O   UNL d   1      -1.833  -1.313  -4.077  0.00  0.00    -0.272 OA
BRANCH  10  13
ATOM     13  C   UNL d   1      -0.246  -0.407  -6.380  0.00  0.00     0.034 A 
ATOM     14  C   UNL d   1      -1.488  -0.811  -6.883  0.00  0.00     0.032 A 
ATOM     15  C   UNL d   1      -1.700  -0.929  -8.261  0.00  0.00     0.044 A 
ATOM     16  C   UNL d   1      -0.671  -0.633  -9.141  0.00  0.00     0.116 A 
ATOM     17  C   UNL d   1       0.560  -0.192  -8.669  0.00  0.00     0.044 A 
ATOM     18  F   UNL d   1      -0.863  -0.775 -10.459  0.00  0.00    -0.206 F 
ATOM     19  C   UNL d   1       0.768  -0.072  -7.291  0.00  0.00     0.032 A 
ENDBRANCH  10  13
ENDBRANCH   8   9
ENDBRANCH   7   8
ENDBRANCH   4   7
BRANCH   1  20
ATOM     20  N   UNL d   1       2.239  -3.129  -0.001  0.00  0.00    -0.114 N 
ATOM     21  O   UNL d   1       2.497  -4.316   0.259  0.00  0.00    -0.532 OA
ATOM     22  O   UNL d   1       2.883  -2.405  -0.774  0.00  0.00    -0.532 OA
ENDBRANCH   1  20
BRANCH   3  23
ATOM     23  C   UNL d   1       0.052  -2.181   4.369  0.00  0.00     0.417 C 
ATOM     24  F   UNL d   1       0.954  -3.082   4.855  0.00  0.00    -0.166 F 
ATOM     25  F   UNL d   1       0.245  -1.037   5.075  0.00  0.00    -0.166 F 
ATOM     26  F   UNL d   1      -1.172  -2.651   4.738  0.00  0.00    -0.166 F 
ENDBRANCH   3  23
TORSDOF 6
