REMARK  2 active torsions:
REMARK  status: ('A' for Active; 'I' for Inactive)
REMARK    1  A    between atoms: C_8  and  C_3 
REMARK    2  A    between atoms: C_11  and  C_4 
ROOT
ATOM      1  N   UNL d   1       1.187   0.381   0.074  0.00  0.00    -0.324 N 
ATOM      2  HN  UNL d   1       2.142   0.731   0.147  1.00  0.00     0.169 HD
ATOM      3  C   UNL d   1       0.786  -0.874   0.023  0.00  0.00     0.148 A 
ATOM      4  C   UNL d   1       0.019   1.110   0.009  0.00  0.00     0.132 A 
ATOM      5  N   UNL d   1      -1.088   0.356  -0.073  0.00  0.00    -0.283 N 
ATOM      6  HN  UNL d   1      -2.064   0.649  -0.125  1.00  0.00     0.188 HD
ATOM      7  N   UNL d   1      -0.576  -0.886  -0.069  0.00  0.00    -0.282 N 
ATOM      8  H   UNL d   1      -1.180  -1.698  -0.130  0.00  0.00     0.188 HD
ENDROOT
BRANCH   3   9
ATOM      9  C   UNL d   1       1.587  -2.085   0.051  0.00  0.00     0.078 A 
ATOM     10  N   UNL d   1       0.892  -3.244  -0.078  0.00  0.00    -0.363 N 
ATOM     11  C   UNL d   1       1.618  -4.385  -0.064  0.00  0.00     0.088 A 
ATOM     12  HN  UNL d   1      -0.123  -3.254  -0.180  1.00  0.00     0.165 HD
ATOM     13  C   UNL d   1       2.997  -4.425   0.077  0.00  0.00     0.017 A 
ATOM     14  C   UNL d   1       3.682  -3.223   0.212  0.00  0.00     0.004 A 
ATOM     15  C   UNL d   1       2.968  -2.030   0.198  0.00  0.00     0.033 A 
ENDBRANCH   3   9
BRANCH   4  16
ATOM     16  C   UNL d   1       0.024   2.566   0.022  0.00  0.00     0.012 A 
ATOM     17  C   UNL d   1       1.233   3.265   0.055  0.00  0.00     0.032 A 
ATOM     18  C   UNL d   1       1.198   4.648   0.061  0.00  0.00     0.088 A 
ATOM     19  N   UNL d   1       0.057   5.369   0.038  0.00  0.00    -0.375 N 
ATOM     20  C   UNL d   1      -1.100   4.674   0.007  0.00  0.00     0.088 A 
ATOM     21  HN  UNL d   1       0.069   6.389   0.044  1.00  0.00     0.164 HD
ATOM     22  C   UNL d   1      -1.169   3.291  -0.002  0.00  0.00     0.032 A 
ENDBRANCH   4  16
TORSDOF 2
