REMARK  8 active torsions:
REMARK  status: ('A' for Active; 'I' for Inactive)
REMARK    1  A    between atoms: C_6  and  C_1 
REMARK    2  A    between atoms: N_5  and  C_2 
REMARK    3  A    between atoms: C_3  and  C_7 
REMARK       I    between atoms: C_4  and  N_5 
REMARK    4  A    between atoms: C_8  and  C_4 
REMARK       I    between atoms: N_16  and  C_6 
REMARK    5  A    between atoms: C_26  and  N_16 
REMARK    6  A    between atoms: N_17  and  C_27 
REMARK    7  A    between atoms: C_20  and  C_26 
REMARK    8  A    between atoms: C_27  and  C_20 
ROOT
ATOM      1  C   UNL d   1       0.370  -0.977  -0.805  0.00  0.00     0.097 A 
ATOM      2  C   UNL d   1      -1.018  -1.125  -0.620  0.00  0.00     0.053 A 
ATOM      3  C   UNL d   1       0.954   0.275  -0.565  0.00  0.00     0.134 A 
ATOM      4  F   UNL d   1       2.274   0.467  -0.710  0.00  0.00    -0.205 F 
ATOM      5  C   UNL d   1      -1.783  -0.008  -0.243  0.00  0.00     0.031 A 
ATOM      6  C   UNL d   1      -1.183   1.234  -0.022  0.00  0.00     0.005 A 
ATOM      7  C   UNL d   1       0.189   1.373  -0.171  0.00  0.00     0.043 A 
ENDROOT
BRANCH   2   8
ATOM      8  N   UNL d   1      -1.629  -2.393  -0.740  0.00  0.00    -0.322 N 
ATOM      9  C   UNL d   1      -2.951  -2.617  -1.065  0.00  0.00     0.256 C 
ATOM     10  O   UNL d   1      -3.734  -1.812  -1.548  0.00  0.00    -0.267 OA
ATOM     11  H   UNL d   1      -0.995  -3.196  -0.740  0.00  0.00     0.169 HD
BRANCH   9  12
ATOM     12  C   UNL d   1      -3.407  -4.000  -0.811  0.00  0.00     0.033 A 
ATOM     13  C   UNL d   1      -3.311  -4.522   0.484  0.00  0.00     0.033 A 
ATOM     14  C   UNL d   1      -3.735  -5.832   0.747  0.00  0.00     0.048 A 
ATOM     15  C   UNL d   1      -4.272  -6.594  -0.304  0.00  0.00     0.016 A 
ATOM     16  C   UNL d   1      -4.386  -6.058  -1.591  0.00  0.00     0.002 A 
ATOM     17  C   UNL d   1      -3.958  -4.755  -1.847  0.00  0.00     0.017 A 
BRANCH  14  18
ATOM     18  C   UNL d   1      -3.601  -6.428   2.127  0.00  0.00     0.417 C 
ATOM     19  F   UNL d   1      -3.034  -5.580   3.031  0.00  0.00    -0.166 F 
ATOM     20  F   UNL d   1      -4.798  -6.795   2.661  0.00  0.00    -0.166 F 
ATOM     21  F   UNL d   1      -2.827  -7.548   2.132  0.00  0.00    -0.166 F 
ENDBRANCH  14  18
ENDBRANCH   9  12
ENDBRANCH   2   8
BRANCH   1  22
ATOM     22  C   UNL d   1       1.208  -2.091  -1.338  0.00  0.00     0.257 C 
ATOM     23  O   UNL d   1       0.866  -3.260  -1.149  0.00  0.00    -0.267 OA
ATOM     24  N   UNL d   1       2.317  -1.737  -2.074  0.00  0.00    -0.357 N 
ATOM     25  H   UNL d   1       2.533  -0.749  -2.185  0.00  0.00     0.162 HD
BRANCH  24  26
ATOM     26  C   UNL d   1       3.254  -2.661  -2.672  0.00  0.00     0.124 C 
BRANCH  26  27
ATOM     27  C   UNL d   1       2.917  -3.021  -4.118  0.00  0.00     0.050 C 
BRANCH  27  28
ATOM     28  C   UNL d   1       2.901  -1.841  -5.106  0.00  0.00     0.273 C 
BRANCH  28  29
ATOM     29  N   UNL d   1       4.147  -1.057  -5.201  0.00  0.00     0.080 N 
ATOM     30  C   UNL d   1       5.263  -1.847  -5.730  0.00  0.00     0.309 C 
ATOM     31  C   UNL d   1       3.933   0.105  -6.075  0.00  0.00     0.309 C 
ENDBRANCH  28  29
ENDBRANCH  27  28
ENDBRANCH  26  27
ENDBRANCH  24  26
ENDBRANCH   1  22
TORSDOF 8
