REMARK  5 active torsions:
REMARK  status: ('A' for Active; 'I' for Inactive)
REMARK    1  A    between atoms: C_3  and  C_1 
REMARK    2  A    between atoms: C_4  and  C_1 
REMARK    3  A    between atoms: C_5  and  C_2 
REMARK    4  A    between atoms: C_11  and  C_3 
REMARK    5  A    between atoms: N_6  and  C_4 
ROOT
ATOM      1  C   UNL d   1       1.032   0.073  -0.061  0.00  0.00     0.074 C 
ATOM      2  C   UNL d   1       0.331  -1.077  -0.044  0.00  0.00     0.038 C 
ENDROOT
BRANCH   1   3
ATOM      3  C   UNL d   1       0.286   1.373   0.015  0.00  0.00     0.176 C 
ATOM      4  O   UNL d   1      -0.836   1.367   0.533  0.00  0.00    -0.291 OA
BRANCH   3   5
ATOM      5  C   UNL d   1       0.886   2.692  -0.554  0.00  0.00     0.015 C 
ATOM      6  C   UNL d   1       1.274   2.519  -2.027  0.00  0.00     0.023 C 
ATOM      7  C   UNL d   1      -0.198   3.793  -0.479  0.00  0.00     0.023 C 
ATOM      8  C   UNL d   1       2.078   3.196   0.273  0.00  0.00     0.023 C 
ENDBRANCH   3   5
ENDBRANCH   1   3
BRANCH   1   9
ATOM      9  C   UNL d   1       2.552   0.073  -0.061  0.00  0.00    -0.033 C 
BRANCH   9  10
ATOM     10  N   UNL d   1       3.813   0.073  -0.061  0.00  0.00    -0.365 N 
ATOM     11  HN2 UNL d   1       2.793   0.073  -0.061  1.00  0.00     0.165 HD
ATOM     12  HN1 UNL d   1       4.833   0.073  -0.061  1.00  0.00     0.165 HD
ENDBRANCH   9  10
ENDBRANCH   1   9
BRANCH   2  13
ATOM     13  C   UNL d   1       0.934  -2.418  -0.035  0.00  0.00    -0.013 A 
ATOM     14  C   UNL d   1       1.241  -3.126  -1.210  0.00  0.00     0.045 A 
ATOM     15  C   UNL d   1       1.806  -4.402  -1.145  0.00  0.00     0.048 A 
ATOM     16 CL   UNL d   1       0.936  -2.452  -2.773  0.00  0.00    -0.083 Cl
ATOM     17  C   UNL d   1       2.072  -4.975   0.096  0.00  0.00     0.035 A 
ATOM     18  C   UNL d   1       1.785  -4.283   1.271  0.00  0.00     0.024 A 
ATOM     19 CL   UNL d   1       2.753  -6.553   0.181  0.00  0.00    -0.084 Cl
ATOM     20  C   UNL d   1       1.218  -3.008   1.206  0.00  0.00     0.015 A 
ENDBRANCH   2  13
TORSDOF 5
