REMARK  3 active torsions:
REMARK  status: ('A' for Active; 'I' for Inactive)
REMARK    1  A    between atoms: N_15  and  C_3 
REMARK    2  A    between atoms: S_16  and  C_9 
REMARK    3  A    between atoms: C_14  and  C_11 
ROOT
ATOM      1  N   UNL d   1      -0.217  -0.582   0.064  0.00  0.00    -0.227 N 
ATOM      2  C   UNL d   1      -0.179   0.805  -0.021  0.00  0.00     0.131 A 
ATOM      3  C   UNL d   1       0.978  -1.352   0.091  0.00  0.00     0.126 A 
ATOM      4  C   UNL d   1       2.163  -0.696   0.024  0.00  0.00     0.118 A 
ATOM      5  N   UNL d   1      -1.501  -1.046   0.078  0.00  0.00    -0.290 N 
ATOM      6  HN  UNL d   1      -1.808  -2.017   0.133  1.00  0.00     0.187 HD
ATOM      7  N   UNL d   1       0.986   1.504  -0.065  0.00  0.00    -0.334 N 
ATOM      8  HN  UNL d   1       0.999   2.523  -0.112  1.00  0.00     0.168 HD
ATOM      9  C   UNL d   1       2.081   0.806  -0.043  0.00  0.00     0.095 A 
ATOM     10  C   UNL d   1      -1.485   1.223  -0.047  0.00  0.00     0.082 A 
ATOM     11  C   UNL d   1      -2.275   0.050   0.004  0.00  0.00     0.062 A 
ATOM     12  C   UNL d   1       3.402  -1.387   0.022  0.00  0.00     0.105 C 
ATOM     13  N   UNL d   1       4.395  -1.989  -0.002  0.00  0.00    -0.191 NA
ENDROOT
BRANCH   3  14
ATOM     14  N   UNL d   1       0.820  -2.738   0.179  0.00  0.00    -0.286 NA
ATOM     15  H   UNL d   1      -0.129  -3.037  -0.069  0.00  0.00     0.125 HD
ATOM     16  H   UNL d   1       1.550  -3.308  -0.244  0.00  0.00     0.125 HD
ENDBRANCH   3  14
BRANCH   9  17
ATOM     17  S   UNL d   1       3.611   1.675  -0.096  0.00  0.00    -0.115 SA
ATOM     18  C   UNL d   1       3.038   3.391  -0.063  0.00  0.00     0.097 C 
ENDBRANCH   9  17
BRANCH  11  19
ATOM     19  C   UNL d   1      -3.739  -0.023  -0.012  0.00  0.00    -0.008 A 
ATOM     20  C   UNL d   1      -4.416  -1.081   0.613  0.00  0.00     0.015 A 
ATOM     21  C   UNL d   1      -5.815  -1.122   0.628  0.00  0.00     0.024 A 
ATOM     22  C   UNL d   1      -6.547  -0.109   0.011  0.00  0.00     0.034 A 
ATOM     23  C   UNL d   1      -5.893   0.940  -0.627  0.00  0.00     0.024 A 
ATOM     24 CL   UNL d   1      -8.266  -0.151   0.040  0.00  0.00    -0.084 Cl
ATOM     25  C   UNL d   1      -4.494   0.983  -0.638  0.00  0.00     0.015 A 
ENDBRANCH  11  19
TORSDOF 3
