REMARK  9 active torsions:
REMARK  status: ('A' for Active; 'I' for Inactive)
REMARK    1  A    between atoms: C_7  and  C_1 
REMARK    2  A    between atoms: C_11  and  N_2 
REMARK    3  A    between atoms: C_24  and  C_3 
REMARK    4  A    between atoms: O_12  and  C_7 
REMARK    5  A    between atoms: N_8  and  O_12 
REMARK    6  A    between atoms: C_13  and  C_10 
REMARK    7  A    between atoms: N_23  and  C_10 
REMARK    8  A    between atoms: C_14  and  C_15 
REMARK    9  A    between atoms: C_32  and  C_24 
ROOT
ATOM      1  C   UNL d   1       1.048   1.086   0.041  0.00  0.00     0.318 C 
ATOM      2  O   UNL d   1       1.368  -0.096   0.024  0.00  0.00    -0.257 OA
ENDROOT
BRANCH   1   3
ATOM      3  C   UNL d   1      -0.335   1.548  -0.020  0.00  0.00     0.082 C 
ATOM      4  C   UNL d   1      -1.456   0.932  -0.604  0.00  0.00     0.052 C 
ATOM      5  N   UNL d   1      -2.546   1.759  -0.304  0.00  0.00    -0.260 N 
ATOM      6  N   UNL d   1      -2.142   2.915   0.283  0.00  0.00    -0.304 N 
ATOM      7  C   UNL d   1      -0.841   2.748   0.505  0.00  0.00     0.127 C 
ATOM      8  HN  UNL d   1      -2.711   3.731   0.505  1.00  0.00     0.186 HD
BRANCH   4   9
ATOM      9  C   UNL d   1      -1.515  -0.299  -1.464  0.00  0.00     0.060 C 
BRANCH   9  10
ATOM     10  C   UNL d   1      -2.064  -0.097  -2.886  0.00  0.00     0.002 C 
ATOM     11  C   UNL d   1      -1.261   0.873  -3.737  0.00  0.00     0.005 C 
ENDBRANCH   9  10
ENDBRANCH   4   9
BRANCH   5  12
ATOM     12  C   UNL d   1      -3.921   1.607  -0.659  0.00  0.00     0.056 C 
ATOM     13  C   UNL d   1      -4.526   0.349  -0.760  0.00  0.00     0.033 C 
ATOM     14  C   UNL d   1      -5.773   0.220  -1.381  0.00  0.00     0.026 C 
ATOM     15  C   UNL d   1      -6.430   1.352  -1.860  0.00  0.00     0.034 C 
ATOM     16  C   UNL d   1      -5.892   2.619  -1.648  0.00  0.00     0.026 C 
ATOM     17 CL   UNL d   1      -7.893   1.178  -2.747  0.00  0.00    -0.084 Cl
ATOM     18  C   UNL d   1      -4.647   2.752  -1.026  0.00  0.00     0.033 C 
ENDBRANCH   5  12
ENDBRANCH   1   3
BRANCH   1  19
ATOM     19  O   UNL d   1       1.944   2.138   0.077  0.00  0.00    -0.193 OA
BRANCH  19  20
ATOM     20  N   UNL d   1       2.886   1.951   1.121  0.00  0.00    -0.246 N 
ATOM     21  C   UNL d   1       3.888   2.779   1.010  0.00  0.00     0.109 C 
ATOM     22  HN  UNL d   1       2.792   1.257   1.863  1.00  0.00     0.196 HD
BRANCH  21  23
ATOM     23  C   UNL d   1       4.816   2.927   2.183  0.00  0.00     0.004 A 
ATOM     24  C   UNL d   1       5.044   1.871   3.063  0.00  0.00     0.015 A 
ATOM     25  C   UNL d   1       5.735   2.090   4.267  0.00  0.00     0.009 A 
ATOM     26  C   UNL d   1       6.181   3.372   4.641  0.00  0.00    -0.051 A 
ATOM     27  C   UNL d   1       6.045   4.393   3.683  0.00  0.00     0.009 A 
ATOM     28  C   UNL d   1       5.362   4.180   2.475  0.00  0.00     0.015 A 
BRANCH  26  29
ATOM     29  C   UNL d   1       6.718   3.672   6.059  0.00  0.00    -0.024 C 
ATOM     30  C   UNL d   1       6.296   5.086   6.537  0.00  0.00     0.019 C 
ATOM     31  C   UNL d   1       6.162   2.687   7.116  0.00  0.00     0.019 C 
ATOM     32  C   UNL d   1       8.255   3.591   6.093  0.00  0.00     0.019 C 
ENDBRANCH  26  29
ENDBRANCH  21  23
BRANCH  21  33
ATOM     33  N   UNL d   1       4.119   3.557  -0.104  0.00  0.00    -0.286 NA
ATOM     34  H   UNL d   1       3.651   3.199  -0.930  0.00  0.00     0.125 HD
ATOM     35  H   UNL d   1       5.096   3.766  -0.287  0.00  0.00     0.125 HD
ENDBRANCH  21  33
ENDBRANCH  19  20
ENDBRANCH   1  19
TORSDOF 9
