REMARK  7 active torsions:
REMARK  status: ('A' for Active; 'I' for Inactive)
REMARK    1  A    between atoms: C_8  and  C_1 
REMARK       I    between atoms: N_9  and  C_1 
REMARK       I    between atoms: C_2  and  N_3 
REMARK    2  A    between atoms: N_3  and  C_4 
REMARK    3  A    between atoms: C_15  and  N_9 
REMARK    4  A    between atoms: C_10  and  O_12 
REMARK    5  A    between atoms: C_11  and  C_15 
REMARK    6  A    between atoms: C_20  and  C_11 
REMARK    7  A    between atoms: O_12  and  C_20 
ROOT
ATOM      1  O   UNL d   1       6.868  -1.354  -1.410  0.00  0.00    -0.351 OA
ENDROOT
BRANCH   1   2
ATOM      2  C   UNL d   1       7.623  -2.145  -2.245  0.00  0.00     0.070 A 
ATOM      3  C   UNL d   1       7.096  -3.003  -3.218  0.00  0.00     0.066 A 
ATOM      4  C   UNL d   1       7.914  -3.802  -4.013  0.00  0.00     0.037 A 
ATOM      5  C   UNL d   1       9.299  -3.720  -3.841  0.00  0.00     0.029 A 
ATOM      6  C   UNL d   1       9.842  -2.857  -2.883  0.00  0.00     0.005 A 
ATOM      7  C   UNL d   1       9.004  -2.073  -2.084  0.00  0.00     0.037 A 
BRANCH   4   8
ATOM      8  N   UNL d   1       7.402  -4.708  -4.971  0.00  0.00    -0.327 N 
ATOM      9  C   UNL d   1       6.068  -4.933  -5.277  0.00  0.00     0.218 C 
ATOM     10  O   UNL d   1       5.092  -4.353  -4.812  0.00  0.00    -0.274 OA
ATOM     11  C   UNL d   1       5.862  -6.024  -6.297  0.00  0.00     0.117 C 
ATOM     12  H   UNL d   1       8.091  -5.254  -5.471  0.00  0.00     0.169 HD
ENDBRANCH   4   8
ENDBRANCH   1   2
BRANCH   1  13
ATOM     13  C   UNL d   1       5.455  -1.503  -1.582  0.00  0.00     0.177 C 
BRANCH  13  14
ATOM     14  C   UNL d   1       4.684  -0.650  -0.588  0.00  0.00     0.046 C 
BRANCH  14  15
ATOM     15  C   UNL d   1       3.192  -0.794  -0.881  0.00  0.00     0.125 C 
BRANCH  15  16
ATOM     16  N   UNL d   1       2.381  -0.041   0.045  0.00  0.00    -0.361 N 
ATOM     17  C   UNL d   1       1.959  -0.579   1.244  0.00  0.00     0.221 C 
ATOM     18  O   UNL d   1       2.241  -1.734   1.571  0.00  0.00    -0.273 OA
ATOM     19  H   UNL d   1       2.167   0.924  -0.171  0.00  0.00     0.162 HD
BRANCH  17  20
ATOM     20  C   UNL d   1       1.123   0.402   2.110  0.00  0.00     0.078 C 
ATOM     21  C   UNL d   1       1.649   0.686   3.541  0.00  0.00     0.014 C 
ATOM     22  C   UNL d   1       0.187   0.692   4.017  0.00  0.00     0.002 C 
ATOM     23  C   UNL d   1      -0.158  -0.160   2.782  0.00  0.00     0.014 C 
ENDBRANCH  17  20
ENDBRANCH  15  16
ENDBRANCH  14  15
ENDBRANCH  13  14
ENDBRANCH   1  13
TORSDOF 7
