REMARK  3 active torsions:
REMARK  status: ('A' for Active; 'I' for Inactive)
REMARK    1  A    between atoms: N_2  and  S_1 
REMARK    2  A    between atoms: C_7  and  S_1 
REMARK    3  A    between atoms: O_16  and  C_4 
ROOT
ATOM      1  N   UNL d   1       0.737   1.189   1.146  0.00  0.00    -0.271 N 
ATOM      2  C   UNL d   1       1.436   1.933   3.403  0.00  0.00     0.026 A 
ATOM      3  C   UNL d   1       1.411   3.357   2.987  0.00  0.00     0.095 C 
ATOM      4  C   UNL d   1       1.082   0.878   2.531  0.00  0.00     0.058 A 
ATOM      5  C   UNL d   1       0.368   3.909   2.330  0.00  0.00     0.058 C 
ATOM      6  C   UNL d   1      -0.523   1.965   0.905  0.00  0.00     0.147 C 
ATOM      7  C   UNL d   1       0.392   5.309   1.999  0.00  0.00     0.098 C 
ATOM      8  N   UNL d   1       0.407   6.436   1.735  0.00  0.00    -0.192 NA
ATOM      9  C   UNL d   1      -0.830   3.055   1.951  0.00  0.00     0.074 C 
ATOM     10  C   UNL d   1       1.829   1.627   4.723  0.00  0.00     0.016 A 
ATOM     11  C   UNL d   1       1.039  -0.434   3.041  0.00  0.00     0.031 A 
ATOM     12  C   UNL d   1       1.851   0.310   5.187  0.00  0.00     0.001 A 
ATOM     13  C   UNL d   1       1.442  -0.718   4.350  0.00  0.00     0.002 A 
ENDROOT
BRANCH   3  14
ATOM     14  O   UNL d   1       2.514   4.108   3.342  0.00  0.00    -0.358 OA
ATOM     15  H   UNL d   1       3.241   3.499   3.566  0.00  0.00     0.217 HD
ENDBRANCH   3  14
BRANCH   1  16
ATOM     16  S   UNL d   1       1.056  -0.066   0.007  0.00  0.00     0.265 S 
ATOM     17  O   UNL d   1      -0.087  -0.959   0.021  0.00  0.00    -0.200 OA
ATOM     18  O   UNL d   1       2.397  -0.569   0.219  0.00  0.00    -0.200 OA
BRANCH  16  19
ATOM     19  C   UNL d   1       1.076   0.741  -1.575  0.00  0.00     0.080 A 
ATOM     20  C   UNL d   1       1.976   1.785  -1.806  0.00  0.00     0.027 A 
ATOM     21  C   UNL d   1       2.030   2.373  -3.073  0.00  0.00     0.025 A 
ATOM     22  C   UNL d   1       1.199   1.907  -4.094  0.00  0.00     0.034 A 
ATOM     23  C   UNL d   1       0.307   0.861  -3.862  0.00  0.00     0.025 A 
ATOM     24 CL   UNL d   1       1.285   2.620  -5.658  0.00  0.00    -0.084 Cl
ATOM     25  C   UNL d   1       0.241   0.273  -2.598  0.00  0.00     0.027 A 
ENDBRANCH  16  19
ENDBRANCH   1  16
TORSDOF 3
