REMARK  3 active torsions:
REMARK  status: ('A' for Active; 'I' for Inactive)
REMARK    1  A    between atoms: C_2  and  C_1 
REMARK    2  A    between atoms: C_15  and  N_3 
REMARK    3  A    between atoms: S_14  and  C_11 
ROOT
ATOM      1  C   UNL d   1      -0.529  -1.220   0.031  0.00  0.00     0.105 A 
ATOM      2  N   UNL d   1       0.775  -0.792   0.080  0.00  0.00    -0.288 N 
ATOM      3  N   UNL d   1       0.884   0.557   0.116  0.00  0.00    -0.303 N 
ATOM      4  HN  UNL d   1       1.737   1.113   0.171  1.00  0.00     0.186 HD
ATOM      5  C   UNL d   1      -1.295  -0.073   0.009  0.00  0.00     0.061 A 
ATOM      6  C   UNL d   1      -0.378   0.996   0.061  0.00  0.00     0.024 A 
ATOM      7  C   UNL d   1      -0.668   2.449   0.039  0.00  0.00     0.070 C 
ENDROOT
BRANCH   1   8
ATOM      8  C   UNL d   1      -0.965  -2.574  -0.024  0.00  0.00     0.193 A 
ATOM      9  O   UNL d   1      -2.199  -2.939  -0.510  0.00  0.00    -0.266 OA
ATOM     10  C   UNL d   1      -2.167  -4.300  -0.394  0.00  0.00     0.201 A 
ATOM     11  N   UNL d   1      -1.043  -4.734   0.133  0.00  0.00    -0.272 N 
ATOM     12  N   UNL d   1      -0.264  -3.617   0.367  0.00  0.00    -0.275 N 
ATOM     13  HN  UNL d   1      -0.794  -5.704   0.329  1.00  0.00     0.189 HD
ATOM     14  HN  UNL d   1       0.674  -3.603   0.768  1.00  0.00     0.189 HD
BRANCH  10  15
ATOM     15  S   UNL d   1      -3.468  -5.315  -0.916  0.00  0.00    -0.098 SA
ATOM     16  H   UNL d   1      -4.215  -4.345  -1.457  0.00  0.00     0.110 HD
ENDBRANCH  10  15
ENDBRANCH   1   8
BRANCH   2  17
ATOM     17  C   UNL d   1       1.994  -1.573  -0.044  0.00  0.00     0.145 C 
ATOM     18  C   UNL d   1       2.587  -1.971   1.295  0.00  0.00     0.028 C 
ENDBRANCH   2  17
TORSDOF 3
