REMARK  2 active torsions:
REMARK  status: ('A' for Active; 'I' for Inactive)
REMARK    1  A    between atoms: C_2  and  C_1 
REMARK    2  A    between atoms: N_3  and  C_4 
ROOT
ATOM      1  C   UNL d   1       1.440  -0.230   0.065  0.00  0.00     0.075 A 
ATOM      2  C   UNL d   1       0.559  -1.328  -0.031  0.00  0.00     0.054 A 
ATOM      3  C   UNL d   1       0.881   1.069   0.131  0.00  0.00     0.018 A 
ATOM      4  C   UNL d   1      -0.830  -1.095  -0.124  0.00  0.00     0.031 A 
ATOM      5  C   UNL d   1      -0.495   1.283   0.063  0.00  0.00     0.001 A 
ATOM      6  C   UNL d   1      -1.349   0.200  -0.076  0.00  0.00     0.002 A 
ENDROOT
BRANCH   2   7
ATOM      7  N   UNL d   1       0.980  -2.689  -0.019  0.00  0.00    -0.316 N 
ATOM      8  C   UNL d   1       2.010  -3.262   0.693  0.00  0.00     0.188 A 
ATOM      9  N   UNL d   1       2.106  -4.558   0.494  0.00  0.00    -0.360 N 
ATOM     10  C   UNL d   1       1.086  -4.861  -0.364  0.00  0.00     0.106 A 
ATOM     11  HN  UNL d   1       2.792  -5.198   0.892  1.00  0.00     0.166 HD
ATOM     12  C   UNL d   1       0.357  -3.740  -0.664  0.00  0.00     0.115 A 
ENDBRANCH   2   7
BRANCH   1  13
ATOM     13  C   UNL d   1       2.952  -0.287   0.027  0.00  0.00     0.419 C 
ATOM     14  F   UNL d   1       3.472  -1.413  -0.520  0.00  0.00    -0.166 F 
ATOM     15  F   UNL d   1       3.490   0.735  -0.703  0.00  0.00    -0.166 F 
ATOM     16  F   UNL d   1       3.497  -0.175   1.269  0.00  0.00    -0.166 F 
ENDBRANCH   1  13
TORSDOF 2
