REMARK  5 active torsions:
REMARK  status: ('A' for Active; 'I' for Inactive)
REMARK    1  A    between atoms: C_3  and  C_1 
REMARK    2  A    between atoms: S_14  and  C_6 
REMARK    3  A    between atoms: C_18  and  S_14 
REMARK    4  A    between atoms: C_15  and  C_18 
REMARK       I    between atoms: N_16  and  C_15 
REMARK    5  A    between atoms: C_20  and  N_16 
ROOT
ATOM      1  C   UNL d   1      -1.373   0.255  -0.007  0.00  0.00     0.151 A 
ATOM      2  N   UNL d   1      -0.847  -0.515   1.006  0.00  0.00    -0.314 N 
ATOM      3  N   UNL d   1      -0.601   0.137  -1.073  0.00  0.00    -0.281 N 
ATOM      4  HN  UNL d   1      -0.725   0.630  -1.957  1.00  0.00     0.188 HD
ATOM      5  C   UNL d   1       0.216  -1.173   0.445  0.00  0.00     0.163 A 
ATOM      6  N   UNL d   1       0.397  -0.761  -0.786  0.00  0.00    -0.278 N 
ATOM      7  HN  UNL d   1       1.144  -1.055  -1.417  1.00  0.00     0.189 HD
ATOM      8  C   UNL d   1      -1.287  -0.632   2.369  0.00  0.00     0.160 C 
ENDROOT
BRANCH   5   9
ATOM      9  S   UNL d   1       1.127  -2.410   1.253  0.00  0.00    -0.083 SA
BRANCH   9  10
ATOM     10  C   UNL d   1       2.297  -2.827  -0.069  0.00  0.00     0.185 C 
BRANCH  10  11
ATOM     11  C   UNL d   1       3.202  -4.018   0.211  0.00  0.00     0.231 C 
ATOM     12  N   UNL d   1       2.888  -4.806   1.306  0.00  0.00    -0.327 N 
ATOM     13  H   UNL d   1       2.021  -4.585   1.782  0.00  0.00     0.169 HD
ATOM     14  O   UNL d   1       4.130  -4.238  -0.568  0.00  0.00    -0.272 OA
BRANCH  12  15
ATOM     15  C   UNL d   1       3.648  -5.885   1.815  0.00  0.00     0.034 A 
ATOM     16  C   UNL d   1       4.925  -6.217   1.352  0.00  0.00     0.031 A 
ATOM     17  C   UNL d   1       5.646  -7.272   1.922  0.00  0.00     0.026 A 
ATOM     18  C   UNL d   1       5.090  -8.008   2.961  0.00  0.00     0.034 A 
ATOM     19  C   UNL d   1       3.817  -7.700   3.432  0.00  0.00     0.026 A 
ATOM     20 CL   UNL d   1       5.984  -9.295   3.671  0.00  0.00    -0.084 Cl
ATOM     21  C   UNL d   1       3.099  -6.637   2.862  0.00  0.00     0.031 A 
ENDBRANCH  12  15
ENDBRANCH  10  11
ENDBRANCH   9  10
ENDBRANCH   5   9
BRANCH   1  22
ATOM     22  C   UNL d   1      -2.627   1.067   0.012  0.00  0.00     0.085 A 
ATOM     23  N   UNL d   1      -3.428   1.165   1.134  0.00  0.00    -0.351 N 
ATOM     24  C   UNL d   1      -4.494   1.888   0.868  0.00  0.00     0.047 A 
ATOM     25  HN  UNL d   1      -3.221   0.739   2.037  1.00  0.00     0.166 HD
ATOM     26  C   UNL d   1      -5.576   2.162   1.851  0.00  0.00     0.076 C 
ATOM     27  S   UNL d   1      -4.592   2.496  -0.735  0.00  0.00    -0.087 SA
ATOM     28  C   UNL d   1      -3.095   1.740  -1.099  0.00  0.00     0.084 A 
ENDBRANCH   1  22
TORSDOF 5
