REMARK  3 active torsions:
REMARK  status: ('A' for Active; 'I' for Inactive)
REMARK    1  A    between atoms: C_2  and  S_1 
REMARK    2  A    between atoms: C_5  and  S_1 
REMARK    3  A    between atoms: C_7  and  C_6 
ROOT
ATOM      1  C   UNL d   1       0.487  -0.908  -1.450  0.00  0.00     0.064 A 
ATOM      2  C   UNL d   1      -0.276  -2.276  -3.780  0.00  0.00     0.009 A 
ATOM      3  C   UNL d   1       0.811  -2.258  -1.605  0.00  0.00     0.025 A 
ATOM      4  C   UNL d   1      -0.209  -0.229  -2.450  0.00  0.00     0.025 A 
ATOM      5  C   UNL d   1       0.426  -2.940  -2.766  0.00  0.00     0.016 A 
ATOM      6  C   UNL d   1      -0.593  -0.916  -3.606  0.00  0.00     0.016 A 
ENDROOT
BRANCH   1   7
ATOM      7  S   UNL d   1       1.060  -0.022  -0.016  0.00  0.00     0.206 S 
ATOM      8  O   UNL d   1       1.321   1.343  -0.437  0.00  0.00    -0.217 OA
ATOM      9  O   UNL d   1       2.119  -0.814   0.585  0.00  0.00    -0.217 OA
BRANCH   7  10
ATOM     10  C   UNL d   1      -0.288   0.018   1.141  0.00  0.00     0.064 A 
ATOM     11  C   UNL d   1      -0.443  -1.028   2.055  0.00  0.00     0.024 A 
ATOM     12  C   UNL d   1      -1.470  -0.969   2.998  0.00  0.00     0.002 A 
ATOM     13  C   UNL d   1      -2.328   0.132   3.028  0.00  0.00     0.000 A 
ATOM     14  C   UNL d   1      -2.162   1.179   2.120  0.00  0.00     0.002 A 
ATOM     15  C   UNL d   1      -1.137   1.128   1.175  0.00  0.00     0.024 A 
ENDBRANCH   7  10
ENDBRANCH   1   7
BRANCH   2  16
ATOM     16  C   UNL d   1      -0.699  -2.930  -5.059  0.00  0.00     0.155 C 
ATOM     17  O   UNL d   1      -1.340  -2.274  -5.882  0.00  0.00    -0.293 OA
ATOM     18  C   UNL d   1      -0.345  -4.365  -5.362  0.00  0.00     0.096 C 
ENDBRANCH   2  16
TORSDOF 3
