REMARK  5 active torsions:
REMARK  status: ('A' for Active; 'I' for Inactive)
REMARK    1  A    between atoms: C_12  and  C_2 
REMARK    2  A    between atoms: N_13  and  C_6 
REMARK    3  A    between atoms: C_16  and  N_13 
REMARK    4  A    between atoms: C_17  and  C_16 
REMARK    5  A    between atoms: C_18  and  C_17 
ROOT
ATOM      1  C   UNL d   1       0.284   0.959   0.019  0.00  0.00     0.053 A 
ATOM      2  C   UNL d   1      -0.954   1.740  -0.000  0.00  0.00    -0.003 A 
ATOM      3  C   UNL d   1      -2.066   0.915  -0.062  0.00  0.00     0.065 A 
ATOM      4  C   UNL d   1      -0.004  -0.397  -0.089  0.00  0.00     0.089 A 
ATOM      5  S   UNL d   1      -1.671  -0.740  -0.115  0.00  0.00    -0.082 SA
ATOM      6  C   UNL d   1       1.665   1.272   0.112  0.00  0.00     0.116 A 
ATOM      7  N   UNL d   1       0.871  -1.412  -0.161  0.00  0.00    -0.346 N 
ATOM      8  HN  UNL d   1       0.598  -2.392  -0.231  1.00  0.00     0.167 HD
ATOM      9  N   UNL d   1       2.566   0.267  -0.014  0.00  0.00    -0.338 N 
ATOM     10  HN  UNL d   1       3.565   0.471  -0.019  1.00  0.00     0.168 HD
ATOM     11  C   UNL d   1       2.134  -0.994  -0.131  0.00  0.00     0.182 A 
ENDROOT
BRANCH   2  12
ATOM     12  C   UNL d   1      -1.137   3.196  -0.002  0.00  0.00    -0.024 A 
ATOM     13  C   UNL d   1      -0.340   4.017  -0.811  0.00  0.00     0.012 A 
ATOM     14  C   UNL d   1      -0.446   5.408  -0.744  0.00  0.00     0.001 A 
ATOM     15  C   UNL d   1      -1.405   5.995   0.078  0.00  0.00     0.000 A 
ATOM     16  C   UNL d   1      -2.260   5.191   0.827  0.00  0.00     0.001 A 
ATOM     17  C   UNL d   1      -2.121   3.800   0.796  0.00  0.00     0.012 A 
ENDBRANCH   2  12
BRANCH   6  18
ATOM     18  N   UNL d   1       2.158   2.541   0.410  0.00  0.00    -0.376 N 
ATOM     19  H   UNL d   1       1.443   3.233   0.566  0.00  0.00     0.161 HD
BRANCH  18  20
ATOM     20  C   UNL d   1       3.288   2.995  -0.392  0.00  0.00     0.121 C 
BRANCH  20  21
ATOM     21  C   UNL d   1       3.798   4.312   0.196  0.00  0.00     0.019 C 
BRANCH  21  22
ATOM     22  C   UNL d   1       5.061   4.812  -0.503  0.00  0.00    -0.003 C 
ATOM     23  C   UNL d   1       5.598   6.064   0.175  0.00  0.00     0.005 C 
ENDBRANCH  21  22
ENDBRANCH  20  21
ENDBRANCH  18  20
ENDBRANCH   6  18
TORSDOF 5
