REMARK  4 active torsions:
REMARK  status: ('A' for Active; 'I' for Inactive)
REMARK    1  A    between atoms: S_14  and  C_3 
REMARK    2  A    between atoms: C_8  and  C_4 
REMARK    3  A    between atoms: C_7  and  C_8 
REMARK    4  A    between atoms: N_16  and  C_12 
ROOT
ATOM      1  C   UNL d   1       0.081  -0.877   0.056  0.00  0.00     0.041 A 
ATOM      2  C   UNL d   1       0.398   0.540   0.018  0.00  0.00    -0.021 A 
ATOM      3  C   UNL d   1       1.214  -1.665   0.016  0.00  0.00     0.056 A 
ATOM      4  C   UNL d   1       1.768   0.760  -0.107  0.00  0.00     0.063 A 
ATOM      5  S   UNL d   1       2.630  -0.723  -0.024  0.00  0.00    -0.078 SA
ATOM      6  C   UNL d   1      -1.304  -1.349   0.106  0.00  0.00     0.162 C 
ATOM      7  C   UNL d   1      -0.691   1.596   0.039  0.00  0.00     0.050 C 
ATOM      8  C   UNL d   1      -2.096   1.034   0.417  0.00  0.00    -0.037 C 
ATOM      9  C   UNL d   1      -2.346  -0.319  -0.285  0.00  0.00     0.093 C 
ATOM     10  O   UNL d   1      -1.630  -2.488   0.427  0.00  0.00    -0.292 OA
ATOM     11  C   UNL d   1      -3.191   2.019  -0.038  0.00  0.00     0.015 C 
ATOM     12  C   UNL d   1      -2.227   0.867   1.946  0.00  0.00     0.015 C 
ENDROOT
BRANCH   4  13
ATOM     13  C   UNL d   1       2.496   2.029  -0.236  0.00  0.00     0.190 C 
ATOM     14  O   UNL d   1       2.006   3.107   0.101  0.00  0.00    -0.287 OA
BRANCH  13  15
ATOM     15  C   UNL d   1       3.868   2.005  -0.851  0.00  0.00     0.073 C 
ATOM     16  C   UNL d   1       4.756   2.991  -0.660  0.00  0.00     0.088 C 
BRANCH  16  17
ATOM     17  N   UNL d   1       6.067   3.098  -1.111  0.00  0.00    -0.398 N 
ATOM     18  C   UNL d   1       6.762   2.098  -1.923  0.00  0.00     0.148 C 
ATOM     19  C   UNL d   1       6.882   4.282  -0.822  0.00  0.00     0.148 C 
ENDBRANCH  16  17
ENDBRANCH  13  15
ENDBRANCH   4  13
BRANCH   3  20
ATOM     20  S   UNL d   1       1.335  -3.419  -0.070  0.00  0.00    -0.126 SA
ATOM     21  C   UNL d   1       1.503  -3.816   1.684  0.00  0.00     0.096 C 
ENDBRANCH   3  20
TORSDOF 4
