REMARK  9 active torsions:
REMARK  status: ('A' for Active; 'I' for Inactive)
REMARK    1  A    between atoms: S_4  and  C_1 
REMARK    2  A    between atoms: C_7  and  C_2 
REMARK    3  A    between atoms: N_11  and  C_3 
REMARK    4  A    between atoms: C_12  and  S_4 
REMARK    5  A    between atoms: S_8  and  C_5 
REMARK    6  A    between atoms: O_15  and  C_7 
REMARK    7  A    between atoms: C_14  and  S_8 
REMARK    8  A    between atoms: C_17  and  C_14 
REMARK    9  A    between atoms: C_25  and  O_15 
ROOT
ATOM      1  C   UNL d   1      -0.588  -1.263   0.124  0.00  0.00     0.111 A 
ATOM      2  C   UNL d   1      -0.102   1.034   0.129  0.00  0.00     0.109 A 
ATOM      3  C   UNL d   1      -1.094   0.080   0.244  0.00  0.00     0.072 A 
ATOM      4  C   UNL d   1       0.797  -1.286   0.020  0.00  0.00     0.066 A 
ATOM      5  S   UNL d   1       1.441   0.299   0.068  0.00  0.00    -0.073 SA
ENDROOT
BRANCH   4   6
ATOM      6  S   UNL d   1       1.844  -2.685  -0.252  0.00  0.00    -0.116 SA
BRANCH   6   7
ATOM      7  C   UNL d   1       3.342  -2.334   0.718  0.00  0.00     0.118 C 
BRANCH   7   8
ATOM      8  C   UNL d   1       4.266  -3.533   0.721  0.00  0.00    -0.049 A 
ATOM      9  C   UNL d   1       5.142  -3.753  -0.355  0.00  0.00     0.009 A 
ATOM     10  C   UNL d   1       5.975  -4.875  -0.378  0.00  0.00     0.024 A 
ATOM     11  C   UNL d   1       5.938  -5.786   0.674  0.00  0.00     0.034 A 
ATOM     12  C   UNL d   1       5.073  -5.586   1.748  0.00  0.00     0.024 A 
ATOM     13 CL   UNL d   1       6.960  -7.170   0.645  0.00  0.00    -0.084 Cl
ATOM     14  C   UNL d   1       4.237  -4.465   1.771  0.00  0.00     0.009 A 
ENDBRANCH   7   8
ENDBRANCH   6   7
ENDBRANCH   4   6
BRANCH   1  15
ATOM     15  S   UNL d   1      -1.609  -2.675   0.022  0.00  0.00     0.183 S 
ATOM     16  O   UNL d   1      -2.964  -2.211   0.262  0.00  0.00    -0.222 OA
ATOM     17  O   UNL d   1      -1.250  -3.280  -1.245  0.00  0.00    -0.222 OA
BRANCH  15  18
ATOM     18  C   UNL d   1      -1.126  -3.754   1.374  0.00  0.00     0.105 C 
ATOM     19  C   UNL d   1      -1.387  -3.111   2.730  0.00  0.00     0.026 C 
ATOM     20  C   UNL d   1      -1.858  -5.089   1.257  0.00  0.00     0.026 C 
ENDBRANCH  15  18
ENDBRANCH   1  15
BRANCH   3  21
ATOM     21  N   UNL d   1      -2.395   0.408   0.394  0.00  0.00    -0.397 N 
ATOM     22  H   UNL d   1      -2.735   1.365   0.274  0.00  0.00     0.156 HD
ATOM     23  H   UNL d   1      -3.137  -0.299   0.315  0.00  0.00     0.156 HD
ENDBRANCH   3  21
BRANCH   2  24
ATOM     24  C   UNL d   1      -0.263   2.478   0.004  0.00  0.00     0.302 C 
ATOM     25  O   UNL d   1      -1.341   3.065  -0.033  0.00  0.00    -0.259 OA
BRANCH  24  26
ATOM     26  O   UNL d   1       0.942   3.094  -0.180  0.00  0.00    -0.317 OA
BRANCH  26  27
ATOM     27  C   UNL d   1       0.900   4.398  -0.775  0.00  0.00     0.174 C 
ATOM     28  C   UNL d   1       0.890   4.231  -2.285  0.00  0.00     0.034 C 
ENDBRANCH  26  27
ENDBRANCH  24  26
ENDBRANCH   2  24
TORSDOF 9
