REMARK  3 active torsions:
REMARK  status: ('A' for Active; 'I' for Inactive)
REMARK    1  A    between atoms: C_7  and  C_1 
REMARK    2  A    between atoms: O_16  and  C_7 
REMARK    3  A    between atoms: C_17  and  O_16 
ROOT
ATOM      1  C   UNL d   1       2.444  -0.691   0.022  0.00  0.00     0.109 A 
ATOM      2  C   UNL d   1       1.169  -1.454   0.121  0.00  0.00     0.268 A 
ATOM      3  N   UNL d   1      -0.007  -0.692   0.050  0.00  0.00    -0.287 N 
ATOM      4  C   UNL d   1       1.154   1.392   0.044  0.00  0.00     0.073 A 
ATOM      5  C   UNL d   1      -0.019   0.718   0.022  0.00  0.00     0.062 A 
ATOM      6  C   UNL d   1       2.404   0.654   0.016  0.00  0.00     0.048 A 
ATOM      7  C   UNL d   1       1.232   2.823   0.042  0.00  0.00     0.102 C 
ATOM      8  N   UNL d   1       1.295   3.980   0.040  0.00  0.00    -0.191 NA
ATOM      9  C   UNL d   1      -1.236  -1.349   0.033  0.00  0.00     0.101 A 
ATOM     10  O   UNL d   1       1.169  -2.676   0.265  0.00  0.00    -0.267 OA
ATOM     11  C   UNL d   1      -1.319   1.398  -0.024  0.00  0.00     0.032 A 
ATOM     12  C   UNL d   1      -2.420  -0.726  -0.018  0.00  0.00     0.018 A 
ATOM     13  C   UNL d   1      -2.467   0.709  -0.048  0.00  0.00     0.004 A 
ENDROOT
BRANCH   1  14
ATOM     14  C   UNL d   1       3.766  -1.330  -0.172  0.00  0.00     0.298 C 
ATOM     15  O   UNL d   1       4.830  -0.745  -0.024  0.00  0.00    -0.259 OA
BRANCH  14  16
ATOM     16  O   UNL d   1       3.615  -2.571  -0.688  0.00  0.00    -0.318 OA
BRANCH  16  17
ATOM     17  C   UNL d   1       4.767  -3.172  -1.290  0.00  0.00     0.174 C 
ATOM     18  C   UNL d   1       4.770  -2.797  -2.761  0.00  0.00     0.034 C 
ENDBRANCH  16  17
ENDBRANCH  14  16
ENDBRANCH   1  14
TORSDOF 3
