REMARK  14 active torsions:
REMARK  status: ('A' for Active; 'I' for Inactive)
REMARK    1  A    between atoms: C_2  and  C_1 
REMARK    2  A    between atoms: C_1  and  O_7 
REMARK    3  A    between atoms: C_3  and  C_1 
REMARK    4  A    between atoms: C_4  and  C_2 
REMARK    5  A    between atoms: C_2  and  O_8 
REMARK    6  A    between atoms: C_16  and  C_3 
REMARK    7  A    between atoms: C_3  and  O_9 
REMARK    8  A    between atoms: N_5  and  C_4 
REMARK    9  A    between atoms: C_23  and  C_4 
REMARK       I    between atoms: C_11  and  N_5 
REMARK   10  A    between atoms: C_13  and  O_7 
REMARK   11  A    between atoms: C_12  and  O_8 
REMARK   12  A    between atoms: C_14  and  O_9 
REMARK   13  A    between atoms: C_15  and  O_17 
REMARK   14  A    between atoms: O_17  and  C_16 
ROOT
ATOM      1  N   UNL d   1       4.058  -1.849  -4.602  0.00  0.00    -0.197 NA
ATOM      2  C   UNL d   1       3.465  -1.826  -3.605  0.00  0.00     0.061 C 
ATOM      3  C   UNL d   1       2.693  -1.796  -2.354  0.00  0.00     0.151 C 
ENDROOT
BRANCH   3   4
ATOM      4  C   UNL d   1       3.058  -0.612  -1.433  0.00  0.00     0.129 C 
BRANCH   4   5
ATOM      5  C   UNL d   1       2.671   0.805  -1.949  0.00  0.00     0.187 C 
BRANCH   5   6
ATOM      6  C   UNL d   1       1.174   1.255  -2.072  0.00  0.00     0.195 C 
BRANCH   6   7
ATOM      7  O   UNL d   1       1.196   2.667  -2.505  0.00  0.00    -0.311 OA
BRANCH   7   8
ATOM      8  C   UNL d   1       1.647   3.624  -1.648  0.00  0.00     0.255 C 
ATOM      9  O   UNL d   1       1.937   3.427  -0.476  0.00  0.00    -0.266 OA
ATOM     10  C   UNL d   1       1.677   4.974  -2.295  0.00  0.00     0.126 C 
ENDBRANCH   7   8
ENDBRANCH   6   7
BRANCH   6  11
ATOM     11  C   UNL d   1       0.216   1.081  -0.853  0.00  0.00     0.188 C 
BRANCH  11  12
ATOM     12  C   UNL d   1      -1.159   1.787  -0.948  0.00  0.00     0.213 C 
BRANCH  12  13
ATOM     13  O   UNL d   1      -2.079   1.119  -1.826  0.00  0.00    -0.319 OA
BRANCH  13  14
ATOM     14  C   UNL d   1      -2.158   1.579  -3.101  0.00  0.00     0.254 C 
ATOM     15  O   UNL d   1      -1.552   2.550  -3.537  0.00  0.00    -0.266 OA
ATOM     16  C   UNL d   1      -3.088   0.735  -3.919  0.00  0.00     0.126 C 
ENDBRANCH  13  14
ENDBRANCH  12  13
ENDBRANCH  11  12
BRANCH  11  17
ATOM     17  O   UNL d   1       0.012  -0.279  -0.371  0.00  0.00    -0.311 OA
BRANCH  17  18
ATOM     18  C   UNL d   1      -0.558  -1.220  -1.171  0.00  0.00     0.255 C 
ATOM     19  O   UNL d   1      -0.693  -1.135  -2.380  0.00  0.00    -0.266 OA
ATOM     20  C   UNL d   1      -0.998  -2.389  -0.344  0.00  0.00     0.126 C 
ENDBRANCH  17  18
ENDBRANCH  11  17
ENDBRANCH   6  11
ENDBRANCH   5   6
BRANCH   5  21
ATOM     21  O   UNL d   1       3.227   0.941  -3.293  0.00  0.00    -0.311 OA
BRANCH  21  22
ATOM     22  C   UNL d   1       4.237   1.825  -3.501  0.00  0.00     0.255 C 
ATOM     23  O   UNL d   1       4.731   2.546  -2.649  0.00  0.00    -0.266 OA
ATOM     24  C   UNL d   1       4.681   1.777  -4.933  0.00  0.00     0.126 C 
ENDBRANCH  21  22
ENDBRANCH   5  21
ENDBRANCH   4   5
BRANCH   4  25
ATOM     25  N   UNL d   1       2.603  -0.826  -0.051  0.00  0.00    -0.353 N 
ATOM     26  C   UNL d   1       3.169  -1.734   0.805  0.00  0.00     0.214 C 
ATOM     27  O   UNL d   1       4.138  -2.427   0.518  0.00  0.00    -0.274 OA
ATOM     28  C   UNL d   1       2.479  -1.789   2.145  0.00  0.00     0.117 C 
ATOM     29  H   UNL d   1       1.721  -0.425   0.244  0.00  0.00     0.163 HD
ENDBRANCH   4  25
ENDBRANCH   3   4
TORSDOF 14
