REMARK  7 active torsions:
REMARK  status: ('A' for Active; 'I' for Inactive)
REMARK    1  A    between atoms: N_7  and  C_1 
REMARK    2  A    between atoms: C_8  and  C_2 
REMARK    3  A    between atoms: O_13  and  C_8 
REMARK    4  A    between atoms: C_9  and  C_14 
REMARK    5  A    between atoms: N_10  and  O_13 
REMARK    6  A    between atoms: C_17  and  C_12 
REMARK    7  A    between atoms: N_26  and  C_12 
ROOT
ATOM      1  N   UNL d   1       3.523  -0.819  -0.355  0.00  0.00    -0.246 N 
ATOM      2  HN  UNL d   1       3.199  -1.719  -0.709  1.00  0.00     0.196 HD
ATOM      3  C   UNL d   1       4.765  -0.530  -0.089  0.00  0.00     0.109 C 
ENDROOT
BRANCH   1   4
ATOM      4  O   UNL d   1       2.688   0.287  -0.082  0.00  0.00    -0.192 OA
BRANCH   4   5
ATOM      5  C   UNL d   1       1.398   0.060  -0.489  0.00  0.00     0.336 C 
ATOM      6  O   UNL d   1       1.005  -0.932  -1.088  0.00  0.00    -0.255 OA
BRANCH   5   7
ATOM      7  C   UNL d   1       0.540   1.166  -0.104  0.00  0.00     0.163 A 
ATOM      8  C   UNL d   1       0.800   2.413   0.460  0.00  0.00     0.160 A 
ATOM      9  C   UNL d   1      -0.447   3.069   0.582  0.00  0.00     0.057 A 
ATOM     10  N   UNL d   1      -1.439   2.294   0.139  0.00  0.00    -0.300 N 
ATOM     11  C   UNL d   1      -0.747   4.433   1.090  0.00  0.00     0.072 C 
ATOM     12  N   UNL d   1      -0.836   1.145  -0.226  0.00  0.00    -0.289 N 
ATOM     13  HN  UNL d   1      -2.432   2.521   0.087  1.00  0.00     0.187 HD
ATOM     14  C   UNL d   1      -1.690   0.059  -0.660  0.00  0.00     0.178 C 
BRANCH   8  15
ATOM     15  N   UNL d   1       2.060   2.965   0.845  0.00  0.00    -0.111 N 
ATOM     16  O   UNL d   1       2.980   2.917   0.018  0.00  0.00    -0.532 OA
ATOM     17  O   UNL d   1       2.122   3.468   1.972  0.00  0.00    -0.532 OA
ENDBRANCH   8  15
ENDBRANCH   5   7
ENDBRANCH   4   5
ENDBRANCH   1   4
BRANCH   3  18
ATOM     18  C   UNL d   1       5.803  -1.605  -0.240  0.00  0.00     0.004 A 
ATOM     19  C   UNL d   1       5.615  -2.659  -1.139  0.00  0.00     0.015 A 
ATOM     20  C   UNL d   1       6.598  -3.649  -1.280  0.00  0.00     0.017 A 
ATOM     21  C   UNL d   1       7.776  -3.604  -0.517  0.00  0.00     0.048 A 
ATOM     22  C   UNL d   1       7.950  -2.550   0.394  0.00  0.00     0.017 A 
ATOM     23  C   UNL d   1       6.972  -1.560   0.531  0.00  0.00     0.015 A 
BRANCH  21  24
ATOM     24  C   UNL d   1       8.847  -4.662  -0.650  0.00  0.00     0.417 C 
ATOM     25  F   UNL d   1       8.552  -5.630  -1.562  0.00  0.00    -0.166 F 
ATOM     26  F   UNL d   1      10.045  -4.140  -1.035  0.00  0.00    -0.166 F 
ATOM     27  F   UNL d   1       9.085  -5.314   0.522  0.00  0.00    -0.166 F 
ENDBRANCH  21  24
ENDBRANCH   3  18
BRANCH   3  28
ATOM     28  N   UNL d   1       5.182   0.720   0.316  0.00  0.00    -0.286 NA
ATOM     29  H   UNL d   1       4.501   1.453   0.119  0.00  0.00     0.125 HD
ATOM     30  H   UNL d   1       6.110   0.995   0.011  0.00  0.00     0.125 HD
ENDBRANCH   3  28
TORSDOF 7
