REMARK  3 active torsions:
REMARK  status: ('A' for Active; 'I' for Inactive)
REMARK    1  A    between atoms: C_9  and  C_3 
REMARK    2  A    between atoms: C_12  and  C_4 
REMARK    3  A    between atoms: N_8  and  C_10 
ROOT
ATOM      1  N   UNL d   1       0.682   0.229  -0.951  0.00  0.00    -0.319 N 
ATOM      2  HN  UNL d   1       1.250   0.444  -1.770  1.00  0.00     0.169 HD
ATOM      3  C   UNL d   1       0.213   1.088   0.022  0.00  0.00     0.138 A 
ATOM      4  C   UNL d   1       0.215  -0.935  -0.559  0.00  0.00     0.182 A 
ATOM      5  N   UNL d   1      -0.514   0.483   0.976  0.00  0.00    -0.242 N 
ATOM      6  HN  UNL d   1      -0.961   0.905   1.790  1.00  0.00     0.196 HD
ATOM      7  O   UNL d   1      -0.515  -0.856   0.592  0.00  0.00    -0.217 OA
ENDROOT
BRANCH   3   8
ATOM      8  C   UNL d   1       0.497   2.520  -0.008  0.00  0.00     0.012 A 
ATOM      9  C   UNL d   1       1.209   3.073  -1.087  0.00  0.00     0.045 A 
ATOM     10  C   UNL d   1       1.493   4.448  -1.145  0.00  0.00     0.039 A 
ATOM     11  C   UNL d   1       1.060   5.269  -0.095  0.00  0.00     0.030 A 
ATOM     12  C   UNL d   1       0.351   4.729   0.982  0.00  0.00     0.003 A 
ATOM     13  C   UNL d   1       0.069   3.364   1.025  0.00  0.00     0.015 A 
BRANCH  10  14
ATOM     14  N   UNL d   1       2.201   4.999  -2.261  0.00  0.00    -0.333 N 
ATOM     15  C   UNL d   1       2.590   6.317  -2.425  0.00  0.00     0.096 A 
ATOM     16  C   UNL d   1       3.228   6.462  -3.638  0.00  0.00     0.019 A 
ATOM     17  C   UNL d   1       3.247   5.196  -4.251  0.00  0.00     0.019 A 
ATOM     18  C   UNL d   1       2.622   4.319  -3.392  0.00  0.00     0.096 A 
ENDBRANCH  10  14
ENDBRANCH   3   8
BRANCH   4  19
ATOM     19  C   UNL d   1       0.376  -2.254  -1.161  0.00  0.00     0.017 A 
ATOM     20  C   UNL d   1       1.171  -2.397  -2.311  0.00  0.00     0.017 A 
ATOM     21  C   UNL d   1       1.354  -3.649  -2.907  0.00  0.00     0.025 A 
ATOM     22  C   UNL d   1       0.740  -4.771  -2.358  0.00  0.00     0.034 A 
ATOM     23  C   UNL d   1      -0.056  -4.651  -1.221  0.00  0.00     0.025 A 
ATOM     24 CL   UNL d   1       0.966  -6.313  -3.085  0.00  0.00    -0.084 Cl
ATOM     25  C   UNL d   1      -0.237  -3.398  -0.625  0.00  0.00     0.017 A 
ENDBRANCH   4  19
TORSDOF 3
