REMARK  2 active torsions:
REMARK  status: ('A' for Active; 'I' for Inactive)
REMARK    1  A    between atoms: C_2  and  C_1 
REMARK    2  A    between atoms: N_3  and  C_2 
ROOT
ATOM      1  C   UNL d   1      -0.091   2.136  -0.084  0.00  0.00     0.365 C 
ATOM      2  N   UNL d   1      -2.483   3.253   0.187  0.00  0.00    -0.195 NA
ATOM      3  C   UNL d   1      -1.450   2.739   0.060  0.00  0.00     0.100 C 
ENDROOT
BRANCH   1   4
ATOM      4  C   UNL d   1      -0.018   0.610   0.090  0.00  0.00     0.032 A 
ATOM      5  C   UNL d   1       1.096   0.035   0.750  0.00  0.00     0.045 A 
ATOM      6 CL   UNL d   1       2.358   0.987   1.465  0.00  0.00    -0.084 Cl
ATOM      7  C   UNL d   1       1.254  -1.354   0.859  0.00  0.00     0.024 A 
ATOM      8  C   UNL d   1       0.314  -2.214   0.310  0.00  0.00     0.003 A 
ATOM      9  C   UNL d   1      -0.794  -1.683  -0.336  0.00  0.00     0.024 A 
ATOM     10  C   UNL d   1      -0.966  -0.294  -0.445  0.00  0.00     0.045 A 
ATOM     11 CL   UNL d   1      -2.382   0.185  -1.318  0.00  0.00    -0.084 Cl
ENDBRANCH   1   4
BRANCH   1  12
ATOM     12  N   UNL d   1       0.710   2.604  -1.268  0.00  0.00     0.112 N 
ATOM     13  C   UNL d   1       0.119   2.199  -2.558  0.00  0.00     0.284 C 
ATOM     14  C   UNL d   1       0.965   2.538  -3.792  0.00  0.00     0.104 C 
ATOM     15  S   UNL d   1       1.230   4.321  -3.970  0.00  0.00    -0.166 SA
ATOM     16  C   UNL d   1       1.877   4.611  -2.299  0.00  0.00     0.104 C 
ATOM     17  C   UNL d   1       0.937   4.067  -1.213  0.00  0.00     0.284 C 
ENDBRANCH   1  12
TORSDOF 2
