REMARK  5 active torsions:
REMARK  status: ('A' for Active; 'I' for Inactive)
REMARK    1  A    between atoms: C_12  and  C_1 
REMARK    2  A    between atoms: N_7  and  C_2 
REMARK    3  A    between atoms: C_9  and  C_3 
REMARK    4  A    between atoms: N_13  and  C_10 
REMARK    5  A    between atoms: O_23  and  C_12 
ROOT
ATOM      1  C   UNL d   1       2.094  -1.312  -0.140  0.00  0.00     0.052 A 
ATOM      2  C   UNL d   1       0.600  -1.675  -0.238  0.00  0.00     0.098 A 
ATOM      3  C   UNL d   1      -0.323  -0.464  -0.132  0.00  0.00     0.023 A 
ATOM      4  C   UNL d   1       2.484  -0.019  -0.003  0.00  0.00     0.018 A 
ATOM      5  C   UNL d   1       0.165   0.787  -0.018  0.00  0.00     0.020 A 
ATOM      6  N   UNL d   1       1.528   0.988   0.031  0.00  0.00    -0.362 N 
ATOM      7  C   UNL d   1      -1.802  -0.664  -0.147  0.00  0.00     0.158 C 
ATOM      8  O   UNL d   1      -2.299  -1.737  -0.477  0.00  0.00    -0.293 OA
ATOM      9  C   UNL d   1      -0.701   2.025   0.047  0.00  0.00     0.058 C 
ATOM     10  C   UNL d   1       3.900   0.492   0.117  0.00  0.00     0.069 C 
ATOM     11  C   UNL d   1      -2.662   0.493   0.306  0.00  0.00     0.084 C 
ATOM     12  C   UNL d   1      -2.154   1.767  -0.341  0.00  0.00     0.014 C 
ATOM     13  H   UNL d   1       1.863   1.944   0.121  0.00  0.00     0.165 HD
ENDROOT
BRANCH   2  14
ATOM     14  C   UNL d   1       0.213  -2.745   0.783  0.00  0.00    -0.042 A 
ATOM     15  C   UNL d   1      -0.323  -3.958   0.342  0.00  0.00     0.046 A 
ATOM     16  C   UNL d   1      -0.708  -4.947   1.266  0.00  0.00     0.129 A 
ATOM     17  C   UNL d   1      -0.544  -4.809   2.658  0.00  0.00     0.063 A 
ATOM     18  C   UNL d   1      -0.012  -3.563   3.060  0.00  0.00     0.032 A 
ATOM     19  C   UNL d   1       0.350  -2.551   2.156  0.00  0.00     0.010 A 
BRANCH  16  20
ATOM     20  N   UNL d   1      -1.356  -6.101   0.670  0.00  0.00    -0.113 N 
ATOM     21  O   UNL d   1      -2.539  -6.314   0.958  0.00  0.00    -0.532 OA
ATOM     22  O   UNL d   1      -0.682  -6.781  -0.114  0.00  0.00    -0.532 OA
ENDBRANCH  16  20
BRANCH  17  23
ATOM     23  N   UNL d   1      -0.775  -5.775   3.622  0.00  0.00    -0.375 N 
ATOM     24  C   UNL d   1      -1.295  -5.446   4.966  0.00  0.00     0.149 C 
ATOM     25  C   UNL d   1      -0.492  -6.219   6.026  0.00  0.00     0.187 C 
ATOM     26  O   UNL d   1      -0.529  -7.636   5.786  0.00  0.00    -0.388 OA
ATOM     27  C   UNL d   1       0.015  -7.936   4.492  0.00  0.00     0.187 C 
ATOM     28  C   UNL d   1      -0.757  -7.228   3.367  0.00  0.00     0.149 C 
ENDBRANCH  17  23
ENDBRANCH   2  14
BRANCH   1  29
ATOM     29  C   UNL d   1       3.070  -2.440  -0.160  0.00  0.00     0.291 C 
ATOM     30  O   UNL d   1       4.144  -2.444   0.422  0.00  0.00    -0.260 OA
BRANCH  29  31
ATOM     31  O   UNL d   1       2.576  -3.473  -0.888  0.00  0.00    -0.323 OA
ATOM     32  C   UNL d   1       3.350  -4.677  -0.858  0.00  0.00     0.213 C 
ENDBRANCH  29  31
ENDBRANCH   1  29
TORSDOF 5
