REMARK  1 active torsions:
REMARK  status: ('A' for Active; 'I' for Inactive)
REMARK    1  A    between atoms: C_8  and  C_7 
ROOT
ATOM      1  C   UNL d   1      -1.260   0.113  -0.121  0.00  0.00     0.116 C 
ATOM      2  C   UNL d   1      -0.645  -1.188   0.171  0.00  0.00     0.302 C 
ATOM      3  C   UNL d   1      -0.533   1.336   0.242  0.00  0.00     0.302 C 
ATOM      4  O   UNL d   1       0.696  -1.164   0.312  0.00  0.00    -0.280 OA
ATOM      5  O   UNL d   1       0.810   1.216   0.246  0.00  0.00    -0.280 OA
ATOM      6  C   UNL d   1       1.403  -0.017  -0.163  0.00  0.00     0.175 C 
ATOM      7  C   UNL d   1      -2.451   0.089  -0.750  0.00  0.00     0.042 C 
ATOM      8  O   UNL d   1      -1.076   2.386   0.553  0.00  0.00    -0.259 OA
ATOM      9  O   UNL d   1      -1.286  -2.224   0.280  0.00  0.00    -0.259 OA
ATOM     10  C   UNL d   1       1.550  -0.069  -1.687  0.00  0.00     0.080 C 
ATOM     11  C   UNL d   1       2.790  -0.058   0.478  0.00  0.00     0.080 C 
ENDROOT
BRANCH   7  12
ATOM     12  C   UNL d   1      -3.132   1.257  -1.185  0.00  0.00     0.007 A 
ATOM     13  C   UNL d   1      -4.045   2.038  -0.499  0.00  0.00     0.038 A 
ATOM     14  C   UNL d   1      -4.492   3.135  -1.277  0.00  0.00     0.018 A 
ATOM     15 BR   UNL d   1      -5.714   4.402  -0.601  0.00  0.00    -0.051 Br
ATOM     16  C   UNL d   1      -3.949   3.167  -2.535  0.00  0.00     0.069 A 
ATOM     17  S   UNL d   1      -2.886   1.849  -2.784  0.00  0.00    -0.101 SA
ENDBRANCH   7  12
TORSDOF 1
