REMARK  5 active torsions:
REMARK  status: ('A' for Active; 'I' for Inactive)
REMARK    1  A    between atoms: N_11  and  C_3 
REMARK    2  A    between atoms: C_8  and  C_4 
REMARK    3  A    between atoms: O_15  and  C_18 
REMARK    4  A    between atoms: C_20  and  O_15 
REMARK    5  A    between atoms: C_16  and  C_20 
ROOT
ATOM      1  C   UNL d   1      -1.979  -2.417  -0.020  0.00  0.00    -0.009 A 
ATOM      2  C   UNL d   1      -1.904  -3.366   1.008  0.00  0.00     0.016 A 
ATOM      3  C   UNL d   1      -2.914  -2.607  -1.044  0.00  0.00     0.016 A 
ATOM      4  C   UNL d   1      -3.785  -4.575   0.066  0.00  0.00     0.069 A 
ATOM      5  C   UNL d   1      -2.804  -4.439   1.048  0.00  0.00     0.037 A 
ATOM      6  C   UNL d   1      -3.806  -3.683  -1.006  0.00  0.00     0.037 A 
ENDROOT
BRANCH   4   7
ATOM      7  O   UNL d   1      -4.677  -5.599   0.244  0.00  0.00    -0.347 OA
BRANCH   7   8
ATOM      8  C   UNL d   1      -5.922  -5.433  -0.436  0.00  0.00     0.214 C 
BRANCH   8   9
ATOM      9  C   UNL d   1      -6.965  -6.310   0.208  0.00  0.00    -0.032 A 
ATOM     10  C   UNL d   1      -7.274  -7.568  -0.328  0.00  0.00     0.035 A 
ATOM     11  C   UNL d   1      -8.266  -8.364   0.255  0.00  0.00     0.056 A 
ATOM     12 CL   UNL d   1      -8.605  -9.890  -0.481  0.00  0.00    -0.083 Cl
ATOM     13  C   UNL d   1      -8.950  -7.909   1.388  0.00  0.00     0.055 A 
ATOM     14  C   UNL d   1      -8.633  -6.664   1.937  0.00  0.00     0.026 A 
ATOM     15 CL   UNL d   1     -10.195  -8.831   2.152  0.00  0.00    -0.083 Cl
ATOM     16  C   UNL d   1      -7.642  -5.872   1.354  0.00  0.00     0.011 A 
ENDBRANCH   8   9
ENDBRANCH   7   8
ENDBRANCH   4   7
BRANCH   1  17
ATOM     17  C   UNL d   1      -1.111  -1.245  -0.004  0.00  0.00     0.051 A 
ATOM     18  N   UNL d   1       0.151  -1.276   0.564  0.00  0.00    -0.336 N 
ATOM     19  C   UNL d   1       0.715  -0.098   0.471  0.00  0.00     0.142 A 
ATOM     20  HN  UNL d   1       0.580  -2.097   0.992  1.00  0.00     0.168 HD
ATOM     21  S   UNL d   1      -0.225   1.119  -0.290  0.00  0.00    -0.064 SA
ATOM     22  C   UNL d   1      -1.490  -0.013  -0.504  0.00  0.00     0.083 A 
BRANCH  19  23
ATOM     23  N   UNL d   1       1.952   0.166   0.920  0.00  0.00    -0.380 N 
ATOM     24  H   UNL d   1       2.539  -0.643   1.085  0.00  0.00     0.158 HD
ATOM     25  H   UNL d   1       2.438   0.961   0.523  0.00  0.00     0.158 HD
ENDBRANCH  19  23
ENDBRANCH   1  17
TORSDOF 5
