REMARK  4 active torsions:
REMARK  status: ('A' for Active; 'I' for Inactive)
REMARK    1  A    between atoms: C_12  and  C_1 
REMARK    2  A    between atoms: C_18  and  C_8 
REMARK    3  A    between atoms: C_14  and  C_12 
REMARK    4  A    between atoms: C_13  and  C_15 
ROOT
ATOM      1  C   UNL d   1      -2.418  -0.736   0.052  0.00  0.00     0.065 A 
ATOM      2  C   UNL d   1      -0.265   0.482   0.007  0.00  0.00     0.089 A 
ATOM      3  C   UNL d   1      -1.330  -1.605  -0.013  0.00  0.00    -0.026 A 
ATOM      4  C   UNL d   1      -0.066  -0.888  -0.026  0.00  0.00     0.027 A 
ATOM      5  S   UNL d   1      -1.913   0.899   0.100  0.00  0.00    -0.067 SA
ATOM      6  N   UNL d   1       0.679   1.441  -0.009  0.00  0.00    -0.335 N 
ATOM      7  HN  UNL d   1       0.466   2.439   0.014  1.00  0.00     0.168 HD
ATOM      8  C   UNL d   1       1.925   0.955  -0.058  0.00  0.00     0.116 A 
ATOM      9  N   UNL d   1       2.249  -0.353  -0.080  0.00  0.00    -0.345 N 
ATOM     10  HN  UNL d   1       3.230  -0.631  -0.116  1.00  0.00     0.167 HD
ATOM     11  C   UNL d   1       1.281  -1.300  -0.052  0.00  0.00     0.020 A 
ATOM     12  C   UNL d   1      -1.432  -3.102  -0.043  0.00  0.00     0.050 C 
ATOM     13  C   UNL d   1       1.765  -2.719  -0.047  0.00  0.00     0.069 C 
ENDROOT
BRANCH   1  14
ATOM     14  C   UNL d   1      -3.823  -1.108   0.223  0.00  0.00     0.199 C 
ATOM     15  O   UNL d   1      -4.138  -2.095   0.892  0.00  0.00    -0.286 OA
BRANCH  14  16
ATOM     16  C   UNL d   1      -4.961  -0.362  -0.409  0.00  0.00     0.016 A 
ATOM     17  C   UNL d   1      -4.834   0.438  -1.554  0.00  0.00     0.031 A 
ATOM     18  C   UNL d   1      -5.961   1.073  -2.113  0.00  0.00     0.048 A 
ATOM     19  C   UNL d   1      -7.224   0.872  -1.532  0.00  0.00     0.016 A 
ATOM     20  C   UNL d   1      -7.363   0.057  -0.413  0.00  0.00     0.002 A 
ATOM     21  C   UNL d   1      -6.239  -0.553   0.143  0.00  0.00     0.015 A 
BRANCH  18  22
ATOM     22  C   UNL d   1      -5.846   1.959  -3.333  0.00  0.00     0.417 C 
ATOM     23  F   UNL d   1      -4.572   2.085  -3.794  0.00  0.00    -0.166 F 
ATOM     24  F   UNL d   1      -6.581   1.496  -4.381  0.00  0.00    -0.166 F 
ATOM     25  F   UNL d   1      -6.288   3.225  -3.097  0.00  0.00    -0.166 F 
ENDBRANCH  18  22
ENDBRANCH  14  16
ENDBRANCH   1  14
BRANCH   8  26
ATOM     26  C   UNL d   1       3.059   1.908  -0.106  0.00  0.00     0.008 A 
ATOM     27  C   UNL d   1       2.877   3.299  -0.006  0.00  0.00     0.015 A 
ATOM     28  C   UNL d   1       3.961   4.185  -0.059  0.00  0.00     0.001 A 
ATOM     29  C   UNL d   1       5.257   3.697  -0.216  0.00  0.00     0.000 A 
ATOM     30  C   UNL d   1       5.471   2.328  -0.317  0.00  0.00     0.001 A 
ATOM     31  C   UNL d   1       4.386   1.449  -0.259  0.00  0.00     0.015 A 
ENDBRANCH   8  26
TORSDOF 4
