REMARK  3 active torsions:
REMARK  status: ('A' for Active; 'I' for Inactive)
REMARK    1  A    between atoms: S_3  and  C_7 
REMARK    2  A    between atoms: C_5  and  S_3 
REMARK    3  A    between atoms: C_7  and  C_9 
ROOT
ATOM      1  N   UNL d   1       0.114  -1.921  -3.364  0.00  0.00    -0.191 NA
ATOM      2  C   UNL d   1       0.328  -1.353  -2.374  0.00  0.00     0.099 C 
ATOM      3  C   UNL d   1       0.597  -0.659  -1.149  0.00  0.00     0.045 A 
ATOM      4  C   UNL d   1       1.263   0.575  -1.168  0.00  0.00     0.030 A 
ATOM      5  C   UNL d   1       1.537   1.258   0.028  0.00  0.00    -0.047 A 
ATOM      6  C   UNL d   1       0.450  -0.538   1.262  0.00  0.00     0.002 A 
ATOM      7  C   UNL d   1       0.194  -1.214   0.070  0.00  0.00     0.022 A 
ATOM      8  C   UNL d   1       1.114   0.691   1.241  0.00  0.00     0.008 A 
ENDROOT
BRANCH   5   9
ATOM      9  C   UNL d   1       2.247   2.594   0.015  0.00  0.00     0.117 C 
BRANCH   9  10
ATOM     10  S   UNL d   1       1.048   3.969  -0.048  0.00  0.00    -0.125 SA
BRANCH  10  11
ATOM     11  C   UNL d   1       2.090   5.421  -0.131  0.00  0.00     0.001 A 
ATOM     12  C   UNL d   1       1.584   6.530  -0.825  0.00  0.00     0.020 A 
ATOM     13  C   UNL d   1       2.302   7.730  -0.887  0.00  0.00     0.025 A 
ATOM     14  C   UNL d   1       3.532   7.830  -0.246  0.00  0.00     0.034 A 
ATOM     15  C   UNL d   1       4.048   6.740   0.452  0.00  0.00     0.025 A 
ATOM     16 CL   UNL d   1       4.410   9.308  -0.303  0.00  0.00    -0.084 Cl
ATOM     17  C   UNL d   1       3.327   5.540   0.512  0.00  0.00     0.020 A 
ENDBRANCH  10  11
ENDBRANCH   9  10
ENDBRANCH   5   9
TORSDOF 3
