REMARK  7 active torsions:
REMARK  status: ('A' for Active; 'I' for Inactive)
REMARK       I    between atoms: C_6  and  N_1 
REMARK    1  A    between atoms: C_9  and  C_2 
REMARK    2  A    between atoms: S_10  and  C_3 
REMARK    3  A    between atoms: C_11  and  C_6 
REMARK    4  A    between atoms: C_8  and  C_12 
REMARK    5  A    between atoms: O_23  and  C_9 
REMARK    6  A    between atoms: C_22  and  S_10 
REMARK    7  A    between atoms: C_24  and  O_23 
ROOT
ATOM      1  N   UNL d   1       1.068  -0.551  -0.039  0.00  0.00    -0.213 N 
ATOM      2  C   UNL d   1       1.008   0.843  -0.034  0.00  0.00     0.153 A 
ATOM      3  C   UNL d   1      -0.339   1.148  -0.156  0.00  0.00     0.057 A 
ATOM      4  N   UNL d   1      -0.182  -1.106  -0.164  0.00  0.00    -0.300 N 
ATOM      5  HN  UNL d   1      -0.421  -2.097  -0.205  1.00  0.00     0.186 HD
ATOM      6  C   UNL d   1       2.155  -1.452   0.096  0.00  0.00     0.277 C 
ATOM      7  C   UNL d   1      -1.014  -0.071  -0.220  0.00  0.00     0.129 A 
ATOM      8  O   UNL d   1       3.296  -1.048  -0.114  0.00  0.00    -0.265 OA
ENDROOT
BRANCH   2   9
ATOM      9  C   UNL d   1       2.061   1.793   0.194  0.00  0.00     0.313 C 
ATOM     10  O   UNL d   1       1.927   2.813   0.851  0.00  0.00    -0.257 OA
BRANCH   9  11
ATOM     11  O   UNL d   1       3.161   1.503  -0.545  0.00  0.00    -0.317 OA
BRANCH  11  12
ATOM     12  C   UNL d   1       4.094   2.576  -0.767  0.00  0.00     0.175 C 
ATOM     13  C   UNL d   1       4.766   3.134   0.479  0.00  0.00     0.034 C 
ENDBRANCH  11  12
ENDBRANCH   9  11
ENDBRANCH   2   9
BRANCH   6  14
ATOM     14  C   UNL d   1       1.984  -2.884   0.499  0.00  0.00     0.034 A 
ATOM     15  C   UNL d   1       2.762  -3.882  -0.099  0.00  0.00     0.018 A 
ATOM     16  C   UNL d   1       2.602  -5.219   0.283  0.00  0.00     0.017 A 
ATOM     17  C   UNL d   1       1.675  -5.576   1.278  0.00  0.00     0.048 A 
ATOM     18  C   UNL d   1       0.935  -4.562   1.904  0.00  0.00     0.017 A 
ATOM     19  C   UNL d   1       1.090  -3.227   1.521  0.00  0.00     0.018 A 
BRANCH  17  20
ATOM     20  C   UNL d   1       1.458  -7.015   1.684  0.00  0.00     0.417 C 
ATOM     21  F   UNL d   1       2.163  -7.907   0.935  0.00  0.00    -0.166 F 
ATOM     22  F   UNL d   1       1.809  -7.250   2.978  0.00  0.00    -0.166 F 
ATOM     23  F   UNL d   1       0.152  -7.391   1.579  0.00  0.00    -0.166 F 
ENDBRANCH  17  20
ENDBRANCH   6  14
BRANCH   3  24
ATOM     24  S   UNL d   1      -1.126   2.703  -0.121  0.00  0.00    -0.086 SA
BRANCH  24  25
ATOM     25  C   UNL d   1      -1.123   3.281  -1.810  0.00  0.00     0.005 A 
ATOM     26  C   UNL d   1      -1.290   2.437  -2.913  0.00  0.00     0.019 A 
ATOM     27  C   UNL d   1      -1.401   2.967  -4.203  0.00  0.00     0.001 A 
ATOM     28  C   UNL d   1      -1.349   4.346  -4.402  0.00  0.00     0.000 A 
ATOM     29  C   UNL d   1      -1.166   5.196  -3.315  0.00  0.00     0.001 A 
ATOM     30  C   UNL d   1      -1.053   4.665  -2.027  0.00  0.00     0.019 A 
ENDBRANCH  24  25
ENDBRANCH   3  24
TORSDOF 7
