REMARK  3 active torsions:
REMARK  status: ('A' for Active; 'I' for Inactive)
REMARK    1  A    between atoms: C_5  and  C_1 
REMARK    2  A    between atoms: N_3  and  C_2 
REMARK       I    between atoms: N_8  and  C_5 
REMARK    3  A    between atoms: C_11  and  N_8 
ROOT
ATOM      1  C   UNL d   1       2.466  -1.476  -0.141  0.00  0.00     0.256 C 
ATOM      2  N   UNL d   1       2.399  -2.849   0.023  0.00  0.00    -0.323 N 
ATOM      3  O   UNL d   1       1.507  -0.746  -0.368  0.00  0.00    -0.267 OA
ATOM      4  H   UNL d   1       3.221  -3.321   0.369  0.00  0.00     0.169 HD
ENDROOT
BRANCH   1   5
ATOM      5  C   UNL d   1       3.794  -0.866   0.029  0.00  0.00     0.041 A 
ATOM      6  C   UNL d   1       3.981   0.563   0.133  0.00  0.00     0.061 A 
ATOM      7  C   UNL d   1       5.302   0.921   0.266  0.00  0.00     0.144 A 
ATOM      8  S   UNL d   1       6.337  -0.422   0.271  0.00  0.00    -0.077 SA
ATOM      9  C   UNL d   1       5.019  -1.510   0.085  0.00  0.00     0.069 A 
BRANCH   7  10
ATOM     10  N   UNL d   1       5.818   2.261   0.386  0.00  0.00    -0.108 N 
ATOM     11  O   UNL d   1       4.984   3.176   0.333  0.00  0.00    -0.531 OA
ATOM     12  O   UNL d   1       7.037   2.409   0.535  0.00  0.00    -0.531 OA
ENDBRANCH   7  10
ENDBRANCH   1   5
BRANCH   2  13
ATOM     13  C   UNL d   1       1.224  -3.635  -0.063  0.00  0.00     0.036 A 
ATOM     14  C   UNL d   1       0.019  -3.170  -0.601  0.00  0.00     0.053 A 
ATOM     15  C   UNL d   1      -1.117  -3.980  -0.588  0.00  0.00     0.036 A 
ATOM     16 CL   UNL d   1      -2.598  -3.382  -1.233  0.00  0.00    -0.084 Cl
ATOM     17  C   UNL d   1      -1.068  -5.263  -0.054  0.00  0.00     0.024 A 
ATOM     18  C   UNL d   1       0.137  -5.751   0.448  0.00  0.00     0.004 A 
ATOM     19  C   UNL d   1       1.280  -4.944   0.434  0.00  0.00     0.029 A 
ENDBRANCH   2  13
TORSDOF 3
