REMARK  1 active torsions:
REMARK  status: ('A' for Active; 'I' for Inactive)
REMARK       I    between atoms: C_7  and  N_1 
REMARK    1  A    between atoms: C_8  and  C_4 
REMARK       I    between atoms: N_10  and  C_7 
ROOT
ATOM      1  N   UNL d   1      -0.504   1.065   0.148  0.00  0.00    -0.216 N 
ATOM      2  N   UNL d   1       0.833   0.793   0.256  0.00  0.00    -0.294 N 
ATOM      3  HN  UNL d   1       1.600   1.457   0.364  1.00  0.00     0.187 HD
ATOM      4  C   UNL d   1      -0.378  -1.145   0.062  0.00  0.00     0.015 A 
ATOM      5  C   UNL d   1      -1.244  -0.079  -0.029  0.00  0.00     0.135 A 
ATOM      6  C   UNL d   1       0.906  -0.545   0.188  0.00  0.00     0.035 A 
ATOM      7  C   UNL d   1      -0.993   2.386   0.291  0.00  0.00     0.340 C 
ATOM      8  O   UNL d   1      -2.186   2.625   0.166  0.00  0.00    -0.245 OA
ATOM      9  N   UNL d   1       0.013   3.256   0.642  0.00  0.00    -0.346 N 
ATOM     10  C   UNL d   1       2.232  -1.208   0.296  0.00  0.00     0.070 C 
ATOM     11  C   UNL d   1      -0.284   4.585   1.093  0.00  0.00     0.151 C 
ATOM     12  H   UNL d   1       0.922   2.831   0.825  0.00  0.00     0.163 HD
ENDROOT
BRANCH   4  13
ATOM     13  C   UNL d   1      -0.812  -2.532   0.074  0.00  0.00    -0.023 A 
ATOM     14  C   UNL d   1      -0.091  -3.528  -0.594  0.00  0.00     0.012 A 
ATOM     15  C   UNL d   1      -0.496  -4.865  -0.524  0.00  0.00     0.001 A 
ATOM     16  C   UNL d   1      -1.628  -5.219   0.209  0.00  0.00     0.000 A 
ATOM     17  C   UNL d   1      -2.360  -4.236   0.868  0.00  0.00     0.001 A 
ATOM     18  C   UNL d   1      -1.955  -2.902   0.802  0.00  0.00     0.012 A 
ENDBRANCH   4  13
TORSDOF 1
