REMARK  6 active torsions:
REMARK  status: ('A' for Active; 'I' for Inactive)
REMARK    1  A    between atoms: C_5  and  C_1 
REMARK    2  A    between atoms: N_7  and  C_2 
REMARK    3  A    between atoms: O_14  and  C_5 
REMARK       I    between atoms: C_8  and  N_7 
REMARK    4  A    between atoms: C_12  and  C_8 
REMARK    5  A    between atoms: S_10  and  C_12 
REMARK    6  A    between atoms: C_13  and  S_10 
ROOT
ATOM      1  N   UNL d   1       1.417   2.395  -0.092  0.00  0.00    -0.325 N 
ATOM      2  C   UNL d   1       2.803   2.438  -0.029  0.00  0.00     0.231 C 
ATOM      3  O   UNL d   1       3.542   1.455  -0.076  0.00  0.00    -0.272 OA
ATOM      4  H   UNL d   1       0.982   3.212   0.346  0.00  0.00     0.169 HD
ENDROOT
BRANCH   1   5
ATOM      5  C   UNL d   1       0.673   1.214   0.004  0.00  0.00     0.064 A 
ATOM      6  C   UNL d   1      -0.335   1.095   0.955  0.00  0.00     0.107 A 
ATOM      7  S   UNL d   1      -1.130  -0.417   0.858  0.00  0.00    -0.093 SA
ATOM      8  C   UNL d   1      -0.158  -0.916  -0.441  0.00  0.00     0.059 A 
ATOM      9  C   UNL d   1       0.778   0.032  -0.817  0.00  0.00    -0.027 A 
ATOM     10  C   UNL d   1       1.688  -0.201  -1.981  0.00  0.00     0.051 C 
BRANCH   6  11
ATOM     11  C   UNL d   1      -0.709   2.067   1.966  0.00  0.00     0.302 C 
ATOM     12  O   UNL d   1      -0.461   3.263   1.899  0.00  0.00    -0.259 OA
BRANCH  11  13
ATOM     13  O   UNL d   1      -1.310   1.468   3.035  0.00  0.00    -0.322 OA
ATOM     14  C   UNL d   1      -1.614   2.347   4.116  0.00  0.00     0.213 C 
ENDBRANCH  11  13
ENDBRANCH   6  11
ENDBRANCH   1   5
BRANCH   2  15
ATOM     15  C   UNL d   1       3.393   3.856   0.104  0.00  0.00     0.182 C 
BRANCH  15  16
ATOM     16  S   UNL d   1       2.192   5.027   0.846  0.00  0.00    -0.121 SA
BRANCH  16  17
ATOM     17  C   UNL d   1       3.006   6.610   0.910  0.00  0.00     0.001 A 
ATOM     18  C   UNL d   1       4.310   6.881   0.489  0.00  0.00     0.020 A 
ATOM     19  C   UNL d   1       4.834   8.179   0.600  0.00  0.00     0.025 A 
ATOM     20  C   UNL d   1       4.060   9.207   1.132  0.00  0.00     0.034 A 
ATOM     21  C   UNL d   1       2.760   8.955   1.556  0.00  0.00     0.025 A 
ATOM     22 CL   UNL d   1       4.708  10.795   1.270  0.00  0.00    -0.084 Cl
ATOM     23  C   UNL d   1       2.241   7.662   1.443  0.00  0.00     0.020 A 
ENDBRANCH  16  17
ENDBRANCH  15  16
ENDBRANCH   2  15
TORSDOF 6
