REMARK  2 active torsions:
REMARK  status: ('A' for Active; 'I' for Inactive)
REMARK    1  A    between atoms: N_3  and  C_2 
REMARK    2  A    between atoms: C_6  and  C_8 
REMARK       I    between atoms: N_14  and  C_6 
ROOT
ATOM      1  C   UNL d   1       2.183   0.836  -0.780  0.00  0.00     0.087 A 
ATOM      2  C   UNL d   1       1.168   1.582  -0.128  0.00  0.00     0.033 A 
ATOM      3  C   UNL d   1       3.517   1.369  -0.888  0.00  0.00     0.103 C 
ATOM      4  N   UNL d   1       4.593   1.793  -0.987  0.00  0.00    -0.191 NA
ATOM      5  C   UNL d   1       1.899  -0.445  -1.281  0.00  0.00     0.056 A 
ATOM      6 CL   UNL d   1       3.076  -1.389  -2.130  0.00  0.00    -0.083 Cl
ATOM      7  C   UNL d   1      -0.088   0.972   0.050  0.00  0.00     0.025 A 
ATOM      8  C   UNL d   1      -0.354  -0.309  -0.431  0.00  0.00     0.003 A 
ATOM      9  C   UNL d   1       0.633  -1.010  -1.113  0.00  0.00     0.025 A 
ENDROOT
BRANCH   2  10
ATOM     10  N   UNL d   1       1.413   2.895   0.327  0.00  0.00    -0.282 NA
ATOM     11  C   UNL d   1       0.663   3.341   1.512  0.00  0.00     0.096 C 
ATOM     12  C   UNL d   1       1.370   4.565   2.090  0.00  0.00     0.029 C 
ATOM     13  C   UNL d   1       1.492   5.692   1.054  0.00  0.00     0.080 C 
ATOM     14  C   UNL d   1       2.096   5.170  -0.260  0.00  0.00     0.029 C 
ATOM     15  C   UNL d   1       1.405   3.897  -0.757  0.00  0.00     0.096 C 
BRANCH  13  16
ATOM     16  C   UNL d   1       0.152   6.383   0.832  0.00  0.00     0.219 C 
ATOM     17  O   UNL d   1      -0.912   6.010   1.313  0.00  0.00    -0.273 OA
ATOM     18  N   UNL d   1       0.192   7.500   0.050  0.00  0.00    -0.370 N 
ATOM     19  H   UNL d   1       1.058   7.984  -0.146  0.00  0.00     0.159 HD
ATOM     20  H   UNL d   1      -0.669   8.028  -0.021  0.00  0.00     0.159 HD
ENDBRANCH  13  16
ENDBRANCH   2  10
TORSDOF 2
