REMARK  8 active torsions:
REMARK  status: ('A' for Active; 'I' for Inactive)
REMARK    1  A    between atoms: N_3  and  C_1 
REMARK    2  A    between atoms: O_4  and  C_2 
REMARK    3  A    between atoms: C_8  and  O_4 
REMARK    4  A    between atoms: C_5  and  C_7 
REMARK    5  A    between atoms: C_12  and  C_8 
REMARK    6  A    between atoms: C_15  and  C_14 
REMARK    7  A    between atoms: C_30  and  C_29 
REMARK    8  A    between atoms: C_31  and  C_30 
ROOT
ATOM      1  C   UNL d   1      -1.179  -2.595  -0.035  0.00  0.00     0.298 C 
ATOM      2  O   UNL d   1      -0.112  -2.780  -0.622  0.00  0.00    -0.259 OA
ENDROOT
BRANCH   1   3
ATOM      3  O   UNL d   1      -1.690  -3.444   0.944  0.00  0.00    -0.271 OA
BRANCH   3   4
ATOM      4  C   UNL d   1      -1.963  -4.848   0.840  0.00  0.00     0.130 C 
ATOM      5  C   UNL d   1      -1.894  -5.665   1.982  0.00  0.00     0.139 C 
ATOM      6  C   UNL d   1      -2.452  -6.960   2.003  0.00  0.00     0.055 C 
ATOM      7  C   UNL d   1      -3.187  -7.422   0.903  0.00  0.00     0.051 C 
ATOM      8  C   UNL d   1      -3.262  -6.607  -0.234  0.00  0.00     0.038 C 
ATOM      9  C   UNL d   1      -2.558  -5.396  -0.302  0.00  0.00     0.048 C 
ATOM     10 BR   UNL d   1      -2.139  -4.828  -2.066  0.00  0.00    -0.048 Br
BRANCH   5  11
ATOM     11  N   UNL d   1      -1.121  -5.259   3.127  0.00  0.00    -0.113 N 
ATOM     12  O   UNL d   1      -1.464  -4.233   3.735  0.00  0.00    -0.532 OA
ATOM     13  O   UNL d   1      -0.181  -6.015   3.478  0.00  0.00    -0.532 OA
ENDBRANCH   5  11
BRANCH   7  14
ATOM     14  C   UNL d   1      -3.790  -8.810   0.842  0.00  0.00     0.417 C 
ATOM     15  F   UNL d   1      -3.481  -9.584   1.915  0.00  0.00    -0.166 F 
ATOM     16  F   UNL d   1      -5.147  -8.787   0.762  0.00  0.00    -0.166 F 
ATOM     17  F   UNL d   1      -3.362  -9.497  -0.254  0.00  0.00    -0.166 F 
ENDBRANCH   7  14
ENDBRANCH   3   4
ENDBRANCH   1   3
BRANCH   1  18
ATOM     18  C   UNL d   1      -2.033  -1.386  -0.234  0.00  0.00     0.040 A 
ATOM     19  C   UNL d   1      -1.696  -0.421  -1.202  0.00  0.00     0.018 A 
ATOM     20  C   UNL d   1      -2.398   0.794  -1.274  0.00  0.00     0.013 A 
ATOM     21  C   UNL d   1      -3.472   1.068  -0.409  0.00  0.00    -0.026 A 
ATOM     22  C   UNL d   1      -3.859   0.041   0.473  0.00  0.00     0.013 A 
ATOM     23  C   UNL d   1      -3.156  -1.162   0.562  0.00  0.00     0.018 A 
BRANCH  21  24
ATOM     24  C   UNL d   1      -4.141   2.391  -0.370  0.00  0.00    -0.026 A 
ATOM     25  C   UNL d   1      -4.686   2.884   0.831  0.00  0.00     0.013 A 
ATOM     26  C   UNL d   1      -5.297   4.138   0.904  0.00  0.00     0.008 A 
ATOM     27  C   UNL d   1      -5.375   4.951  -0.228  0.00  0.00    -0.058 A 
ATOM     28  C   UNL d   1      -4.830   4.483  -1.428  0.00  0.00     0.008 A 
ATOM     29  C   UNL d   1      -4.231   3.221  -1.498  0.00  0.00     0.013 A 
BRANCH  27  30
ATOM     30  C   UNL d   1      -6.014   6.315  -0.147  0.00  0.00     0.038 C 
BRANCH  30  31
ATOM     31  C   UNL d   1      -7.201   6.514  -1.096  0.00  0.00     0.000 C 
ATOM     32  C   UNL d   1      -8.354   5.559  -0.823  0.00  0.00     0.005 C 
ENDBRANCH  30  31
ENDBRANCH  27  30
ENDBRANCH  21  24
ENDBRANCH   1  18
TORSDOF 8
