REMARK  5 active torsions:
REMARK  status: ('A' for Active; 'I' for Inactive)
REMARK    1  A    between atoms: C_6  and  C_1 
REMARK    2  A    between atoms: S_12  and  C_3 
REMARK    3  A    between atoms: S_8  and  C_6 
REMARK    4  A    between atoms: C_7  and  C_9 
REMARK    5  A    between atoms: C_18  and  S_8 
ROOT
ATOM      1  C   UNL d   1      -2.423  -1.998   0.086  0.00  0.00     0.231 C 
ATOM      2  O   UNL d   1      -3.617  -2.071  -0.204  0.00  0.00    -0.279 OA
ENDROOT
BRANCH   1   3
ATOM      3  C   UNL d   1      -1.675  -0.735   0.173  0.00  0.00     0.070 C 
ATOM      4  S   UNL d   1      -2.671   0.684   0.048  0.00  0.00    -0.077 SA
ATOM      5  C   UNL d   1      -1.353   1.751  -0.017  0.00  0.00     0.052 C 
ATOM      6  C   UNL d   1      -0.164   1.067   0.094  0.00  0.00    -0.005 C 
ATOM      7  C   UNL d   1      -0.333  -0.360   0.293  0.00  0.00    -0.024 C 
ATOM      8  C   UNL d   1       1.138   1.653   0.003  0.00  0.00     0.010 C 
ATOM      9  C   UNL d   1       0.896  -1.226   0.453  0.00  0.00     0.045 C 
ATOM     10  C   UNL d   1       2.199  -0.466   0.771  0.00  0.00     0.032 C 
ATOM     11  C   UNL d   1       2.247   0.959   0.302  0.00  0.00    -0.025 C 
BRANCH   5  12
ATOM     12  S   UNL d   1      -1.629   3.475  -0.254  0.00  0.00    -0.126 SA
ATOM     13  C   UNL d   1      -1.013   4.144   1.306  0.00  0.00     0.096 C 
ENDBRANCH   5  12
ENDBRANCH   1   3
BRANCH   1  14
ATOM     14  S   UNL d   1      -1.604  -3.517   0.415  0.00  0.00    -0.047 SA
BRANCH  14  15
ATOM     15  C   UNL d   1      -0.590  -3.804  -1.026  0.00  0.00     0.008 C 
ATOM     16  C   UNL d   1      -0.648  -3.036  -2.192  0.00  0.00     0.020 C 
ATOM     17  C   UNL d   1       0.423  -3.049  -3.091  0.00  0.00     0.017 C 
ATOM     18  C   UNL d   1       1.541  -3.861  -2.854  0.00  0.00     0.048 C 
ATOM     19  C   UNL d   1       1.500  -4.772  -1.790  0.00  0.00     0.017 C 
ATOM     20  C   UNL d   1       0.442  -4.741  -0.882  0.00  0.00     0.020 C 
BRANCH  18  21
ATOM     21  C   UNL d   1       2.813  -3.699  -3.649  0.00  0.00     0.417 C 
ATOM     22  F   UNL d   1       2.772  -2.670  -4.539  0.00  0.00    -0.166 F 
ATOM     23  F   UNL d   1       3.881  -3.440  -2.840  0.00  0.00    -0.166 F 
ATOM     24  F   UNL d   1       3.144  -4.808  -4.362  0.00  0.00    -0.166 F 
ENDBRANCH  18  21
ENDBRANCH  14  15
ENDBRANCH   1  14
TORSDOF 5
