REMARK  4 active torsions:
REMARK  status: ('A' for Active; 'I' for Inactive)
REMARK    1  A    between atoms: C_2  and  C_1 
REMARK    2  A    between atoms: C_11  and  N_3 
REMARK    3  A    between atoms: N_5  and  C_15 
REMARK    4  A    between atoms: N_17  and  C_8 
ROOT
ATOM      1  N   UNL d   1      -3.422   2.140   1.223  0.00  0.00    -0.300 N 
ATOM      2  HN  UNL d   1      -2.669   1.882   1.861  1.00  0.00     0.187 HD
ATOM      3  N   UNL d   1      -3.282   2.257  -0.012  0.00  0.00    -0.300 N 
ATOM      4  HN  UNL d   1      -4.041   2.516  -0.643  1.00  0.00     0.187 HD
ENDROOT
BRANCH   1   5
ATOM      5  C   UNL d   1      -4.745   2.408   1.633  0.00  0.00     0.048 A 
ATOM      6  C   UNL d   1      -5.555   3.388   1.040  0.00  0.00     0.039 A 
ATOM      7  C   UNL d   1      -6.865   3.636   1.490  0.00  0.00    -0.039 A 
ATOM      8  C   UNL d   1      -7.662   4.731   0.838  0.00  0.00     0.050 C 
ATOM      9  C   UNL d   1      -7.393   2.861   2.537  0.00  0.00     0.012 A 
ATOM     10  C   UNL d   1      -6.555   1.944   3.183  0.00  0.00     0.026 A 
ATOM     11  C   UNL d   1      -5.255   1.707   2.726  0.00  0.00     0.033 A 
BRANCH   9  12
ATOM     12  N   UNL d   1      -8.649   3.141   3.096  0.00  0.00    -0.302 NA
ATOM     13  H   UNL d   1      -9.045   2.363   3.614  0.00  0.00     0.124 HD
ATOM     14  H   UNL d   1      -9.314   3.529   2.436  0.00  0.00     0.124 HD
ENDBRANCH   9  12
ENDBRANCH   1   5
BRANCH   3  15
ATOM     15  C   UNL d   1      -1.967   1.996  -0.444  0.00  0.00     0.048 A 
ATOM     16  C   UNL d   1      -0.824   2.223   0.340  0.00  0.00     0.047 A 
ATOM     17  C   UNL d   1       0.465   1.970  -0.158  0.00  0.00     0.050 A 
ATOM     18  C   UNL d   1       0.604   1.487  -1.469  0.00  0.00     0.016 A 
ATOM     19  C   UNL d   1      -0.520   1.270  -2.263  0.00  0.00     0.003 A 
ATOM     20  C   UNL d   1      -1.793   1.528  -1.752  0.00  0.00     0.031 A 
BRANCH  17  21
ATOM     21  C   UNL d   1       1.687   2.219   0.690  0.00  0.00     0.417 C 
ATOM     22  F   UNL d   1       1.403   2.681   1.939  0.00  0.00    -0.166 F 
ATOM     23  F   UNL d   1       2.525   3.138   0.134  0.00  0.00    -0.166 F 
ATOM     24  F   UNL d   1       2.434   1.094   0.869  0.00  0.00    -0.166 F 
ENDBRANCH  17  21
ENDBRANCH   3  15
TORSDOF 4
