REMARK  2 active torsions:
REMARK  status: ('A' for Active; 'I' for Inactive)
REMARK       I    between atoms: N_2  and  C_1 
REMARK       I    between atoms: N_5  and  C_1 
REMARK    1  A    between atoms: C_6  and  N_4 
REMARK    2  A    between atoms: C_7  and  N_5 
ROOT
ATOM      1  C   UNL d   1       0.722   0.099  -0.177  0.00  0.00     0.323 C 
ATOM      2  N   UNL d   1       0.180   1.025   0.698  0.00  0.00    -0.331 N 
ATOM      3  N   UNL d   1      -0.553   2.951   2.665  0.00  0.00    -0.377 N 
ATOM      4  N   UNL d   1       0.437  -1.215   0.132  0.00  0.00    -0.306 N 
ATOM      5  O   UNL d   1       1.465   0.438  -1.096  0.00  0.00    -0.247 OA
ATOM      6  C   UNL d   1       0.561   2.435   0.530  0.00  0.00     0.147 C 
ATOM      7  C   UNL d   1      -1.016   0.817   1.527  0.00  0.00     0.147 C 
ATOM      8  C   UNL d   1       0.683   3.149   1.885  0.00  0.00     0.143 C 
ATOM      9  C   UNL d   1      -0.919   1.547   2.881  0.00  0.00     0.143 C 
ATOM     10  H   UNL d   1       0.348  -1.385   1.124  0.00  0.00     0.171 HD
ENDROOT
BRANCH   4  11
ATOM     11  C   UNL d   1       1.036  -2.278  -0.582  0.00  0.00     0.075 A 
ATOM     12  C   UNL d   1       1.588  -3.333   0.153  0.00  0.00     0.146 A 
ATOM     13  C   UNL d   1       2.326  -4.331  -0.472  0.00  0.00     0.086 A 
ATOM     14  F   UNL d   1       1.472  -3.343   1.489  0.00  0.00    -0.204 F 
ATOM     15  C   UNL d   1       2.467  -4.289  -1.855  0.00  0.00     0.119 A 
ATOM     16  C   UNL d   1       1.868  -3.288  -2.612  0.00  0.00     0.044 A 
ATOM     17  F   UNL d   1       3.206  -5.224  -2.467  0.00  0.00    -0.206 F 
ATOM     18  C   UNL d   1       1.149  -2.275  -1.974  0.00  0.00     0.036 A 
ENDBRANCH   4  11
BRANCH   3  19
ATOM     19  C   UNL d   1      -1.202   4.002   3.293  0.00  0.00     0.043 A 
ATOM     20  C   UNL d   1      -1.862   3.925   4.562  0.00  0.00     0.018 A 
ATOM     21  C   UNL d   1      -2.541   5.043   5.064  0.00  0.00     0.044 A 
ATOM     22  C   UNL d   1      -2.001   2.911   5.565  0.00  0.00     0.033 A 
ATOM     23  N   UNL d   1      -3.100   4.689   6.273  0.00  0.00    -0.365 N 
ATOM     24  C   UNL d   1      -2.600   6.269   4.399  0.00  0.00     0.030 A 
ATOM     25  C   UNL d   1      -2.786   3.398   6.583  0.00  0.00     0.089 A 
ATOM     26  H   UNL d   1      -3.657   5.309   6.846  0.00  0.00     0.165 HD
ATOM     27  C   UNL d   1      -1.955   6.358   3.175  0.00  0.00     0.005 A 
ATOM     28  C   UNL d   1      -1.286   5.257   2.643  0.00  0.00     0.030 A 
ENDBRANCH   3  19
TORSDOF 2
