REMARK  1 active torsions:
REMARK  status: ('A' for Active; 'I' for Inactive)
REMARK    1  A    between atoms: O_13  and  C_10 
ROOT
ATOM      1  C   UNL d   1       1.273  -1.437   0.005  0.00  0.00    -0.043 A 
ATOM      2  C   UNL d   1      -0.034  -0.759   0.010  0.00  0.00     0.007 A 
ATOM      3  C   UNL d   1       2.369   0.792   0.023  0.00  0.00     0.288 A 
ATOM      4  O   UNL d   1       1.129   1.403   0.000  0.00  0.00    -0.275 OA
ATOM      5  C   UNL d   1      -0.056   0.642  -0.006  0.00  0.00     0.090 A 
ATOM      6  C   UNL d   1       2.380  -0.678   0.014  0.00  0.00     0.090 A 
ATOM      7  C   UNL d   1      -1.270  -1.421   0.022  0.00  0.00     0.051 A 
ATOM      8  O   UNL d   1       3.417   1.426   0.042  0.00  0.00    -0.260 OA
ATOM      9  C   UNL d   1      -1.245   1.374  -0.026  0.00  0.00     0.041 A 
ATOM     10  C   UNL d   1      -2.463  -0.690   0.005  0.00  0.00     0.066 A 
ATOM     11  C   UNL d   1      -2.459   0.698  -0.025  0.00  0.00     0.039 A 
ATOM     12  C   UNL d   1       1.417  -2.931  -0.023  0.00  0.00     0.049 C 
ENDROOT
BRANCH  10  13
ATOM     13  O   UNL d   1      -3.676  -1.314   0.016  0.00  0.00    -0.361 OA
ATOM     14  H   UNL d   1      -3.541  -2.275   0.058  0.00  0.00     0.217 HD
ENDBRANCH  10  13
TORSDOF 1
