REMARK  8 active torsions:
REMARK  status: ('A' for Active; 'I' for Inactive)
REMARK    1  A    between atoms: C_5  and  C_1 
REMARK    2  A    between atoms: C_2  and  S_13 
REMARK    3  A    between atoms: O_22  and  C_3 
REMARK    4  A    between atoms: N_10  and  C_4 
REMARK    5  A    between atoms: O_23  and  C_5 
REMARK       I    between atoms: C_11  and  N_10 
REMARK    6  A    between atoms: C_21  and  C_11 
REMARK    7  A    between atoms: O_24  and  C_12 
REMARK    8  A    between atoms: S_13  and  C_21 
ROOT
ATOM      1  N   UNL d   1      -1.413  -2.344  -0.358  0.00  0.00    -0.324 N 
ATOM      2  C   UNL d   1      -2.641  -2.412  -0.993  0.00  0.00     0.232 C 
ATOM      3  O   UNL d   1      -3.070  -1.543  -1.736  0.00  0.00    -0.272 OA
ATOM      4  H   UNL d   1      -0.976  -3.209  -0.059  0.00  0.00     0.169 HD
ENDROOT
BRANCH   1   5
ATOM      5  C   UNL d   1      -0.619  -1.182  -0.264  0.00  0.00     0.069 C 
ATOM      6  C   UNL d   1       0.778  -1.322  -0.167  0.00  0.00     0.114 C 
ATOM      7  C   UNL d   1       1.598  -0.216   0.134  0.00  0.00     0.108 C 
ATOM      8  C   UNL d   1       1.028   1.066   0.090  0.00  0.00     0.087 C 
ATOM      9  C   UNL d   1      -0.361   1.207  -0.054  0.00  0.00     0.040 C 
ATOM     10  C   UNL d   1      -1.182   0.089  -0.194  0.00  0.00     0.035 C 
BRANCH   6  11
ATOM     11  O   UNL d   1       1.292  -2.573  -0.448  0.00  0.00    -0.352 OA
ATOM     12  C   UNL d   1       1.901  -2.560  -1.755  0.00  0.00     0.210 C 
ENDBRANCH   6  11
BRANCH   7  13
ATOM     13  C   UNL d   1       2.969  -0.407   0.688  0.00  0.00     0.298 C 
ATOM     14  O   UNL d   1       3.463   0.361   1.501  0.00  0.00    -0.259 OA
BRANCH  13  15
ATOM     15  O   UNL d   1       3.577  -1.514   0.225  0.00  0.00    -0.322 OA
ATOM     16  C   UNL d   1       4.845  -1.846   0.797  0.00  0.00     0.213 C 
ENDBRANCH  13  15
ENDBRANCH   7  13
BRANCH   8  17
ATOM     17  O   UNL d   1       1.692   2.259   0.214  0.00  0.00    -0.355 OA
ATOM     18  C   UNL d   1       2.851   2.393  -0.611  0.00  0.00     0.210 C 
ENDBRANCH   8  17
ENDBRANCH   1   5
BRANCH   2  19
ATOM     19  C   UNL d   1      -3.375  -3.737  -0.847  0.00  0.00     0.185 C 
BRANCH  19  20
ATOM     20  S   UNL d   1      -3.425  -4.344   0.861  0.00  0.00    -0.085 SA
BRANCH  20  21
ATOM     21  C   UNL d   1      -4.270  -2.994   1.652  0.00  0.00     0.145 A 
ATOM     22  N   UNL d   1      -5.151  -2.269   0.945  0.00  0.00    -0.341 N 
ATOM     23  C   UNL d   1      -5.779  -1.270   1.602  0.00  0.00     0.009 A 
ATOM     24  HN  UNL d   1      -5.337  -2.463  -0.039  1.00  0.00     0.167 HD
ATOM     25  C   UNL d   1      -6.777  -0.452   0.836  0.00  0.00     0.068 C 
ATOM     26  C   UNL d   1      -5.546  -1.002   2.934  0.00  0.00     0.049 A 
ATOM     27  C   UNL d   1      -4.627  -1.804   3.578  0.00  0.00     0.009 A 
ATOM     28  N   UNL d   1      -3.983  -2.807   2.947  0.00  0.00    -0.341 N 
ATOM     29  C   UNL d   1      -4.327  -1.603   5.031  0.00  0.00     0.068 C 
ATOM     30  HN  UNL d   1      -3.309  -3.397   3.434  1.00  0.00     0.167 HD
ENDBRANCH  20  21
ENDBRANCH  19  20
ENDBRANCH   2  19
TORSDOF 8
