REMARK  4 active torsions:
REMARK  status: ('A' for Active; 'I' for Inactive)
REMARK    1  A    between atoms: C_6  and  C_1 
REMARK    2  A    between atoms: C_4  and  C_7 
REMARK       I    between atoms: N_10  and  C_6 
REMARK    3  A    between atoms: C_23  and  N_10 
REMARK    4  A    between atoms: C_22  and  C_23 
ROOT
ATOM      1  C   UNL d   1      -3.233   0.150  -0.065  0.00  0.00     0.253 C 
ATOM      2  N   UNL d   1      -4.124   1.212  -0.061  0.00  0.00    -0.353 N 
ATOM      3  O   UNL d   1      -2.021   0.375  -0.131  0.00  0.00    -0.268 OA
ATOM      4  H   UNL d   1      -5.104   1.107   0.120  0.00  0.00     0.163 HD
ENDROOT
BRANCH   1   5
ATOM      5  C   UNL d   1      -3.665  -1.283   0.020  0.00  0.00     0.054 A 
ATOM      6  C   UNL d   1      -4.954  -1.819   0.051  0.00  0.00     0.021 A 
ATOM      7  N   UNL d   1      -5.184  -3.170   0.112  0.00  0.00    -0.355 N 
ATOM      8  C   UNL d   1      -6.216  -1.016   0.024  0.00  0.00     0.069 C 
ATOM      9  C   UNL d   1      -4.133  -4.041   0.139  0.00  0.00     0.117 A 
ATOM     10  HN  UNL d   1      -6.140  -3.524   0.136  1.00  0.00     0.166 HD
ATOM     11  C   UNL d   1      -2.826  -3.583   0.114  0.00  0.00     0.035 A 
ATOM     12  C   UNL d   1      -2.603  -2.211   0.056  0.00  0.00     0.021 A 
BRANCH   9  13
ATOM     13  C   UNL d   1      -4.375  -5.545   0.191  0.00  0.00     0.432 C 
ATOM     14  F   UNL d   1      -5.688  -5.907   0.240  0.00  0.00    -0.165 F 
ATOM     15  F   UNL d   1      -3.851  -6.193  -0.892  0.00  0.00    -0.165 F 
ATOM     16  F   UNL d   1      -3.788  -6.128   1.278  0.00  0.00    -0.165 F 
ENDBRANCH   9  13
ENDBRANCH   1   5
BRANCH   2  17
ATOM     17  C   UNL d   1      -3.539   2.539  -0.056  0.00  0.00     0.161 C 
BRANCH  17  18
ATOM     18  C   UNL d   1      -4.438   3.751  -0.094  0.00  0.00    -0.038 A 
ATOM     19  C   UNL d   1      -5.839   3.732  -0.052  0.00  0.00     0.048 A 
ATOM     20  C   UNL d   1      -6.505   4.947  -0.068  0.00  0.00     0.105 A 
ATOM     21  O   UNL d   1      -7.856   5.113  -0.025  0.00  0.00    -0.323 OA
ATOM     22  C   UNL d   1      -5.841   6.152  -0.127  0.00  0.00     0.105 A 
ATOM     23  C   UNL d   1      -7.958   6.554  -0.046  0.00  0.00     0.352 A 
ATOM     24  O   UNL d   1      -6.682   7.217  -0.128  0.00  0.00    -0.323 OA
ATOM     25  C   UNL d   1      -4.470   6.217  -0.174  0.00  0.00     0.040 A 
ATOM     26  C   UNL d   1      -3.773   5.008  -0.155  0.00  0.00     0.012 A 
ENDBRANCH  17  18
ENDBRANCH   2  17
TORSDOF 4
