REMARK  2 active torsions:
REMARK  status: ('A' for Active; 'I' for Inactive)
REMARK    1  A    between atoms: C_6  and  C_1 
REMARK    2  A    between atoms: O_14  and  C_10 
ROOT
ATOM      1  C   UNL d   1       2.096  -0.015  -0.178  0.00  0.00     0.168 A 
ATOM      2  C   UNL d   1       1.167   1.189  -0.129  0.00  0.00     0.176 A 
ATOM      3  C   UNL d   1       1.138  -1.194  -0.153  0.00  0.00     0.176 A 
ATOM      4  C   UNL d   1      -0.213   0.709  -0.086  0.00  0.00     0.025 A 
ATOM      5  C   UNL d   1      -0.230  -0.679  -0.099  0.00  0.00     0.025 A 
ATOM      6  O   UNL d   1       1.468   2.369  -0.136  0.00  0.00    -0.291 OA
ATOM      7  O   UNL d   1       1.407  -2.381  -0.189  0.00  0.00    -0.291 OA
ATOM      8  C   UNL d   1      -1.378   1.450  -0.030  0.00  0.00     0.016 A 
ATOM      9  C   UNL d   1      -1.415  -1.392  -0.057  0.00  0.00     0.016 A 
ATOM     10  C   UNL d   1      -2.604  -0.660  -0.001  0.00  0.00     0.001 A 
ATOM     11  C   UNL d   1      -2.587   0.749   0.012  0.00  0.00     0.001 A 
ENDROOT
BRANCH   1  12
ATOM     12  C   UNL d   1       3.109  -0.033   0.943  0.00  0.00    -0.036 A 
ATOM     13  C   UNL d   1       4.481  -0.007   0.636  0.00  0.00     0.045 A 
ATOM     14  C   UNL d   1       5.442   0.018   1.650  0.00  0.00     0.068 A 
ATOM     15  C   UNL d   1       5.028   0.006   2.983  0.00  0.00     0.037 A 
ATOM     16  C   UNL d   1       3.672  -0.034   3.304  0.00  0.00     0.003 A 
ATOM     17  C   UNL d   1       2.716  -0.052   2.290  0.00  0.00     0.008 A 
BRANCH  14  18
ATOM     18  O   UNL d   1       6.797   0.062   1.470  0.00  0.00    -0.356 OA
ATOM     19  C   UNL d   1       7.266   0.084   0.128  0.00  0.00     0.210 C 
ENDBRANCH  14  18
ENDBRANCH   1  12
TORSDOF 2
