REMARK  3 active torsions:
REMARK  status: ('A' for Active; 'I' for Inactive)
REMARK    1  A    between atoms: C3_5  and  C1_3 
REMARK    2  A    between atoms: C6_9  and  C2_4 
REMARK    3  A    between atoms: O2_13  and  C6_9 
ROOT
ATOM      1  N1  <1> d   1       1.350  -0.532   0.446  0.00  0.00    -0.344 N 
ATOM      2  H1  <1> d   1       2.158  -1.001   0.857  1.00  0.00     0.167 HD
ATOM      3  C1  <1> d   1       0.282  -1.151  -0.023  0.00  0.00     0.086 A 
ATOM      4  C2  <1> d   1       1.222   0.852   0.303  0.00  0.00     0.114 A 
ATOM      5  S1  <1> d   1      -0.910  -0.088  -0.693  0.00  0.00    -0.081 SA
ATOM      6  C4  <1> d   1       0.070   1.264  -0.330  0.00  0.00     0.088 A 
ENDROOT
BRANCH   3   7
ATOM      7  C3  <1> d   1       0.066  -2.616   0.002  0.00  0.00     0.021 A 
ATOM      8  C5  <1> d   1       0.548  -3.436   1.050  0.00  0.00     0.068 A 
ATOM      9  C7  <1> d   1       0.335  -4.829   1.008  0.00  0.00     0.056 A 
ATOM     10 Cl1  <1> d   1       1.370  -2.753   2.426  0.00  0.00    -0.082 Cl
ATOM     11 Cl2  <1> d   1       0.905  -5.901   2.244  0.00  0.00    -0.083 Cl
ATOM     12  C10 <1> d   1      -0.360  -5.412  -0.054  0.00  0.00     0.026 A 
ATOM     13  C9  <1> d   1      -0.844  -4.618  -1.086  0.00  0.00     0.003 A 
ATOM     14  C8  <1> d   1      -0.625  -3.240  -1.061  0.00  0.00     0.016 A 
ENDBRANCH   3   7
BRANCH   4  15
ATOM     15  C6  <1> d   1       2.263   1.737   0.815  0.00  0.00     0.194 C 
ATOM     16  O1  <1> d   1       2.253   2.955   0.705  0.00  0.00    -0.645 OA
BRANCH  15  17
ATOM     17  O2  <1> d   1       3.254   1.054   1.444  0.00  0.00    -0.772 OA
ATOM     18  H2  <1> d   1       3.024   0.096   1.416  0.00  0.00     0.167 HD
ENDBRANCH  15  17
ENDBRANCH   4  15
TORSDOF 3
