REMARK  3 active torsions:
REMARK  status: ('A' for Active; 'I' for Inactive)
REMARK    1  A    between atoms: C_8  and  C_2 
REMARK    2  A    between atoms: S_13  and  C_3 
REMARK    3  A    between atoms: C_9  and  C_8 
ROOT
ATOM      1  N   UNL d   1       0.080  -0.359   1.024  0.00  0.00    -0.319 N 
ATOM      2  C   UNL d   1       0.882  -0.688  -0.050  0.00  0.00     0.104 A 
ATOM      3  C   UNL d   1      -1.048   0.197   0.480  0.00  0.00     0.159 A 
ATOM      4  N   UNL d   1       0.265  -0.333  -1.161  0.00  0.00    -0.287 N 
ATOM      5  HN  UNL d   1       0.625  -0.451  -2.108  1.00  0.00     0.188 HD
ATOM      6  N   UNL d   1      -0.944   0.223  -0.826  0.00  0.00    -0.279 N 
ATOM      7  HN  UNL d   1      -1.637   0.591  -1.477  1.00  0.00     0.189 HD
ATOM      8  C   UNL d   1       0.376  -0.546   2.419  0.00  0.00     0.159 C 
ENDROOT
BRANCH   2   9
ATOM      9  C   UNL d   1       2.243  -1.300   0.012  0.00  0.00     0.117 C 
BRANCH   9  10
ATOM     10  C   UNL d   1       2.234  -2.801  -0.080  0.00  0.00    -0.044 A 
ATOM     11  C   UNL d   1       2.821  -3.658   0.834  0.00  0.00     0.057 A 
ATOM     12  S   UNL d   1       2.703  -5.304   0.384  0.00  0.00    -0.113 SA
ATOM     13  C   UNL d   1       1.865  -4.908  -1.048  0.00  0.00     0.050 A 
ATOM     14  C   UNL d   1       1.672  -3.550  -1.173  0.00  0.00     0.015 A 
ENDBRANCH   9  10
ENDBRANCH   2   9
BRANCH   3  15
ATOM     15  S   UNL d   1      -2.404   0.799   1.365  0.00  0.00    -0.105 SA
ATOM     16  H   UNL d   1      -2.177   0.250   2.562  0.00  0.00     0.110 HD
ENDBRANCH   3  15
TORSDOF 3
