REMARK  4 active torsions:
REMARK  status: ('A' for Active; 'I' for Inactive)
REMARK    1  A    between atoms: C_6  and  N_1 
REMARK    2  A    between atoms: C_2  and  C_8 
REMARK       I    between atoms: N_3  and  C_2 
REMARK       I    between atoms: C_4  and  N_5 
REMARK    3  A    between atoms: C_14  and  C_4 
REMARK    4  A    between atoms: N_5  and  C_19 
ROOT
ATOM      1  C   UNL d   1      -2.139  -2.738   3.963  0.00  0.00     0.253 C 
ATOM      2  N   UNL d   1      -3.324  -3.434   3.730  0.00  0.00    -0.348 N 
ATOM      3  C   UNL d   1      -4.495  -3.083   4.536  0.00  0.00     0.128 C 
ATOM      4  C   UNL d   1      -3.518  -4.545   2.798  0.00  0.00     0.128 C 
ATOM      5  O   UNL d   1      -1.982  -2.008   4.943  0.00  0.00    -0.267 OA
ATOM      6  C   UNL d   1      -5.359  -5.439   4.309  0.00  0.00     0.087 C 
ATOM      7  C   UNL d   1      -5.022  -4.298   5.285  0.00  0.00     0.045 C 
ATOM      8  C   UNL d   1      -4.109  -5.774   3.490  0.00  0.00     0.045 C 
ENDROOT
BRANCH   1   9
ATOM      9  C   UNL d   1      -0.998  -2.821   3.013  0.00  0.00     0.032 A 
ATOM     10  C   UNL d   1      -1.183  -2.838   1.624  0.00  0.00     0.019 A 
ATOM     11  C   UNL d   1      -0.080  -2.846   0.764  0.00  0.00     0.037 A 
ATOM     12  C   UNL d   1       1.215  -2.778   1.298  0.00  0.00     0.102 A 
ATOM     13  C   UNL d   1       1.412  -2.720   2.683  0.00  0.00     0.037 A 
ATOM     14  C   UNL d   1       0.304  -2.744   3.535  0.00  0.00     0.019 A 
BRANCH  12  15
ATOM     15  N   UNL d   1       2.371  -2.739   0.393  0.00  0.00    -0.116 N 
ATOM     16  O   UNL d   1       3.493  -2.599   0.897  0.00  0.00    -0.532 OA
ATOM     17  O   UNL d   1       2.152  -2.848  -0.823  0.00  0.00    -0.532 OA
ENDBRANCH  12  15
ENDBRANCH   1   9
BRANCH   6  18
ATOM     18  N   UNL d   1      -6.493  -5.126   3.432  0.00  0.00    -0.356 N 
ATOM     19  C   UNL d   1      -7.751  -4.889   3.938  0.00  0.00     0.222 C 
ATOM     20  O   UNL d   1      -7.994  -4.920   5.139  0.00  0.00    -0.273 OA
ATOM     21  H   UNL d   1      -6.463  -5.477   2.481  0.00  0.00     0.162 HD
BRANCH  19  22
ATOM     22  C   UNL d   1      -8.824  -4.615   2.879  0.00  0.00     0.078 C 
ATOM     23  C   UNL d   1      -8.504  -3.393   2.003  0.00  0.00     0.014 C 
ATOM     24  C   UNL d   1      -8.742  -2.058   2.709  0.00  0.00     0.001 C 
ATOM     25  C   UNL d   1     -10.131  -1.969   3.332  0.00  0.00     0.000 C 
ATOM     26  C   UNL d   1     -10.420  -3.156   4.241  0.00  0.00     0.001 C 
ATOM     27  C   UNL d   1     -10.218  -4.485   3.511  0.00  0.00     0.014 C 
ENDBRANCH  19  22
ENDBRANCH   6  18
TORSDOF 4
