REMARK  7 active torsions:
REMARK  status: ('A' for Active; 'I' for Inactive)
REMARK    1  A    between atoms: C_7  and  C_1 
REMARK    2  A    between atoms: C_3  and  C_2 
REMARK    3  A    between atoms: N_11  and  C_6 
REMARK    4  A    between atoms: O_12  and  C_7 
REMARK    5  A    between atoms: C_17  and  N_11 
REMARK    6  A    between atoms: C_18  and  O_12 
REMARK    7  A    between atoms: C_21  and  C_18 
ROOT
ATOM      1  C   UNL d   1      -0.022  -1.456   0.026  0.00  0.00     0.087 A 
ATOM      2  C   UNL d   1       1.206  -0.830   0.078  0.00  0.00     0.150 A 
ATOM      3  N   UNL d   1       1.289   0.536   0.157  0.00  0.00    -0.185 N 
ATOM      4  HN  UNL d   1       2.200   0.987   0.246  1.00  0.00     0.184 HD
ATOM      5  C   UNL d   1       0.176   1.281   0.117  0.00  0.00     0.683 A 
ATOM      6  N   UNL d   1      -1.044   0.745   0.026  0.00  0.00    -0.201 N 
ATOM      7  HN  UNL d   1      -1.881   1.327  -0.015  1.00  0.00     0.183 HD
ATOM      8  C   UNL d   1      -1.118  -0.607  -0.009  0.00  0.00     0.126 A 
ENDROOT
BRANCH   1   9
ATOM      9  C   UNL d   1      -0.303  -2.893  -0.098  0.00  0.00     0.297 C 
ATOM     10  O   UNL d   1      -1.187  -3.315  -0.824  0.00  0.00    -0.259 OA
BRANCH   9  11
ATOM     11  O   UNL d   1       0.475  -3.622   0.728  0.00  0.00    -0.313 OA
BRANCH  11  12
ATOM     12  C   UNL d   1       0.358  -5.049   0.571  0.00  0.00     0.217 C 
BRANCH  12  13
ATOM     13  C   UNL d   1      -0.538  -5.624   1.638  0.00  0.00    -0.034 A 
ATOM     14  C   UNL d   1      -1.659  -6.396   1.299  0.00  0.00     0.011 A 
ATOM     15  C   UNL d   1      -2.484  -6.923   2.296  0.00  0.00     0.024 A 
ATOM     16  C   UNL d   1      -2.192  -6.681   3.636  0.00  0.00     0.034 A 
ATOM     17  C   UNL d   1      -1.074  -5.929   3.989  0.00  0.00     0.024 A 
ATOM     18 CL   UNL d   1      -3.219  -7.311   4.865  0.00  0.00    -0.084 Cl
ATOM     19  C   UNL d   1      -0.247  -5.405   2.993  0.00  0.00     0.011 A 
ENDBRANCH  12  13
ENDBRANCH  11  12
ENDBRANCH   9  11
ENDBRANCH   1   9
BRANCH   2  20
ATOM     20  C   UNL d   1       2.544  -1.530  -0.036  0.00  0.00     0.434 C 
ATOM     21  F   UNL d   1       2.514  -2.875  -0.220  0.00  0.00    -0.165 F 
ATOM     22  F   UNL d   1       3.270  -1.063  -1.098  0.00  0.00    -0.165 F 
ATOM     23  F   UNL d   1       3.330  -1.327   1.060  0.00  0.00    -0.165 F 
ENDBRANCH   2  20
BRANCH   5  24
ATOM     24  N   UNL d   1       0.273   2.672   0.114  0.00  0.00    -0.192 N 
ATOM     25  H   UNL d   1      -0.658   3.069   0.112  0.00  0.00     0.184 HD
BRANCH  24  26
ATOM     26  C   UNL d   1       1.226   3.458   0.788  0.00  0.00     0.049 A 
ATOM     27  C   UNL d   1       1.538   4.734   0.296  0.00  0.00     0.033 A 
ATOM     28  C   UNL d   1       2.481   5.537   0.945  0.00  0.00     0.044 A 
ATOM     29  C   UNL d   1       3.095   5.076   2.102  0.00  0.00     0.116 A 
ATOM     30  C   UNL d   1       2.783   3.828   2.623  0.00  0.00     0.044 A 
ATOM     31  F   UNL d   1       3.998   5.844   2.725  0.00  0.00    -0.206 F 
ATOM     32  C   UNL d   1       1.852   3.023   1.966  0.00  0.00     0.033 A 
ENDBRANCH  24  26
ENDBRANCH   5  24
TORSDOF 7
