REMARK  9 active torsions:
REMARK  status: ('A' for Active; 'I' for Inactive)
REMARK    1  A    between atoms: C_10  and  S_1 
REMARK    2  A    between atoms: C_12  and  S_1 
REMARK    3  A    between atoms: C_4  and  S_15 
REMARK    4  A    between atoms: C_7  and  C_6 
REMARK    5  A    between atoms: C_11  and  C_7 
REMARK    6  A    between atoms: O_23  and  C_11 
REMARK    7  A    between atoms: C_19  and  C_12 
REMARK    8  A    between atoms: S_15  and  C_19 
REMARK    9  A    between atoms: C_27  and  O_23 
ROOT
ATOM      1  N   UNL d   1       0.543   2.304  -5.509  0.00  0.00    -0.352 N 
ATOM      2  HN  UNL d   1       0.086   2.615  -4.651  1.00  0.00     0.166 HD
ATOM      3  C   UNL d   1       0.761   1.042  -5.685  0.00  0.00     0.061 C 
ATOM      4  S   UNL d   1       1.414   1.299  -8.392  0.00  0.00    -0.116 SA
ATOM      5  C   UNL d   1       1.489   0.363  -6.834  0.00  0.00     0.118 C 
ATOM      6  C   UNL d   1       0.918   3.259  -6.469  0.00  0.00     0.049 A 
ATOM      7  C   UNL d   1       1.344   2.963  -7.771  0.00  0.00     0.028 A 
ATOM      8  C   UNL d   1       0.785   4.606  -6.102  0.00  0.00     0.031 A 
ATOM      9  C   UNL d   1       1.656   4.002  -8.664  0.00  0.00     0.021 A 
ATOM     10  C   UNL d   1       1.076   5.638  -6.997  0.00  0.00     0.002 A 
ATOM     11  C   UNL d   1       1.523   5.335  -8.278  0.00  0.00     0.002 A 
ENDROOT
BRANCH   3  12
ATOM     12  S   UNL d   1       0.227  -0.087  -4.429  0.00  0.00    -0.115 SA
BRANCH  12  13
ATOM     13  C   UNL d   1      -0.558   1.013  -3.208  0.00  0.00     0.096 C 
BRANCH  13  14
ATOM     14  C   UNL d   1      -1.112   0.130  -2.104  0.00  0.00     0.156 C 
BRANCH  14  15
ATOM     15  S   UNL d   1      -1.940   1.085  -0.856  0.00  0.00     0.176 S 
ATOM     16  O   UNL d   1      -0.952   1.872  -0.145  0.00  0.00    -0.223 OA
ATOM     17  O   UNL d   1      -3.111   1.704  -1.446  0.00  0.00    -0.223 OA
BRANCH  15  18
ATOM     18  C   UNL d   1      -2.518  -0.179   0.263  0.00  0.00     0.059 A 
ATOM     19  C   UNL d   1      -1.702  -0.591   1.321  0.00  0.00     0.025 A 
ATOM     20  C   UNL d   1      -2.145  -1.603   2.176  0.00  0.00     0.025 A 
ATOM     21  C   UNL d   1      -3.397  -2.186   1.974  0.00  0.00     0.034 A 
ATOM     22  C   UNL d   1      -4.219  -1.758   0.930  0.00  0.00     0.025 A 
ATOM     23 CL   UNL d   1      -3.932  -3.443   3.020  0.00  0.00    -0.084 Cl
ATOM     24  C   UNL d   1      -3.782  -0.744   0.072  0.00  0.00     0.025 A 
ENDBRANCH  15  18
ENDBRANCH  14  15
ENDBRANCH  13  14
ENDBRANCH  12  13
ENDBRANCH   3  12
BRANCH   5  25
ATOM     25  C   UNL d   1       2.933   0.066  -6.443  0.00  0.00     0.133 C 
BRANCH  25  26
ATOM     26  C   UNL d   1       3.539  -0.997  -7.326  0.00  0.00     0.260 C 
ATOM     27  O   UNL d   1       3.036  -2.090  -7.532  0.00  0.00    -0.265 OA
BRANCH  26  28
ATOM     28  O   UNL d   1       4.756  -0.580  -7.767  0.00  0.00    -0.322 OA
BRANCH  28  29
ATOM     29  C   UNL d   1       5.567  -1.570  -8.418  0.00  0.00     0.174 C 
ATOM     30  C   UNL d   1       6.396  -2.282  -7.365  0.00  0.00     0.034 C 
ENDBRANCH  28  29
ENDBRANCH  26  28
ENDBRANCH  25  26
ENDBRANCH   5  25
TORSDOF 9
