REMARK  6 active torsions:
REMARK  status: ('A' for Active; 'I' for Inactive)
REMARK    1  A    between atoms: C_6  and  C_1 
REMARK    2  A    between atoms: C_11  and  N_2 
REMARK    3  A    between atoms: C_20  and  C_3 
REMARK       I    between atoms: N_9  and  C_6 
REMARK    4  A    between atoms: C_8  and  C_10 
REMARK    5  A    between atoms: C_13  and  N_9 
REMARK    6  A    between atoms: C_28  and  C_20 
ROOT
ATOM      1  C   UNL d   1      -0.167   1.091   0.124  0.00  0.00     0.073 C 
ATOM      2  N   UNL d   1       0.854  -0.891   0.232  0.00  0.00    -0.260 N 
ATOM      3  C   UNL d   1       1.096   0.497   0.291  0.00  0.00     0.051 C 
ATOM      4  N   UNL d   1      -0.468  -1.168   0.275  0.00  0.00    -0.304 N 
ATOM      5  HN  UNL d   1      -0.911  -2.074   0.428  1.00  0.00     0.186 HD
ATOM      6  C   UNL d   1      -1.060  -0.005   0.074  0.00  0.00     0.126 C 
ENDROOT
BRANCH   1   7
ATOM      7  C   UNL d   1      -0.699   2.452   0.047  0.00  0.00     0.259 C 
ATOM      8  N   UNL d   1       0.136   3.498   0.370  0.00  0.00    -0.323 N 
ATOM      9  H   UNL d   1       1.068   3.268   0.675  0.00  0.00     0.169 HD
ATOM     10  O   UNL d   1      -1.872   2.593  -0.291  0.00  0.00    -0.267 OA
BRANCH   8  11
ATOM     11  C   UNL d   1      -0.157   4.877   0.241  0.00  0.00     0.035 A 
ATOM     12  C   UNL d   1      -1.401   5.373  -0.164  0.00  0.00     0.045 A 
ATOM     13  C   UNL d   1      -1.609   6.745  -0.385  0.00  0.00     0.050 A 
ATOM     14  C   UNL d   1      -0.556   7.635  -0.149  0.00  0.00     0.016 A 
ATOM     15  C   UNL d   1       0.677   7.160   0.295  0.00  0.00     0.003 A 
ATOM     16  C   UNL d   1       0.875   5.789   0.488  0.00  0.00     0.029 A 
BRANCH  13  17
ATOM     17  C   UNL d   1      -2.936   7.245  -0.902  0.00  0.00     0.417 C 
ATOM     18  F   UNL d   1      -3.852   6.262  -1.127  0.00  0.00    -0.166 F 
ATOM     19  F   UNL d   1      -3.533   8.123  -0.049  0.00  0.00    -0.166 F 
ATOM     20  F   UNL d   1      -2.808   7.907  -2.087  0.00  0.00    -0.166 F 
ENDBRANCH  13  17
ENDBRANCH   8  11
ENDBRANCH   1   7
BRANCH   3  21
ATOM     21  C   UNL d   1       2.429   1.075   0.694  0.00  0.00     0.060 C 
BRANCH  21  22
ATOM     22  C   UNL d   1       3.375   1.582  -0.399  0.00  0.00     0.002 C 
ATOM     23  C   UNL d   1       2.830   2.616  -1.365  0.00  0.00     0.005 C 
ENDBRANCH  21  22
ENDBRANCH   3  21
BRANCH   2  24
ATOM     24  C   UNL d   1       1.717  -2.016   0.079  0.00  0.00     0.056 A 
ATOM     25  C   UNL d   1       1.290  -3.260   0.580  0.00  0.00     0.033 A 
ATOM     26  C   UNL d   1       1.994  -4.430   0.287  0.00  0.00     0.026 A 
ATOM     27  C   UNL d   1       3.123  -4.364  -0.521  0.00  0.00     0.034 A 
ATOM     28  C   UNL d   1       3.567  -3.137  -1.011  0.00  0.00     0.026 A 
ATOM     29 CL   UNL d   1       3.942  -5.810  -0.967  0.00  0.00    -0.084 Cl
ATOM     30  C   UNL d   1       2.864  -1.962  -0.712  0.00  0.00     0.033 A 
ENDBRANCH   2  24
TORSDOF 6
