REMARK  7 active torsions:
REMARK  status: ('A' for Active; 'I' for Inactive)
REMARK    1  A    between atoms: C_10  and  O_16 
REMARK    2  A    between atoms: C_17  and  C_10 
REMARK    3  A    between atoms: C_11  and  C_22 
REMARK    4  A    between atoms: N_23  and  C_11 
REMARK    5  A    between atoms: O_16  and  N_12 
REMARK    6  A    between atoms: O_19  and  C_14 
REMARK    7  A    between atoms: C_22  and  O_19 
ROOT
ATOM      1  C   UNL d   1      -5.846  -1.624  -0.044  0.00  0.00     0.100 C 
ATOM      2  N   UNL d   1      -5.716  -2.910   0.069  0.00  0.00    -0.248 N 
ATOM      3  HN  UNL d   1      -6.504  -3.547   0.184  1.00  0.00     0.196 HD
ENDROOT
BRANCH   1   4
ATOM      4  C   UNL d   1      -7.280  -1.062  -0.035  0.00  0.00     0.247 C 
BRANCH   4   5
ATOM      5  O   UNL d   1      -7.626  -0.629   1.278  0.00  0.00    -0.344 OA
BRANCH   5   6
ATOM      6  C   UNL d   1      -8.903  -0.142   1.464  0.00  0.00     0.071 A 
ATOM      7  C   UNL d   1      -9.204   0.141   2.814  0.00  0.00     0.070 A 
ATOM      8  C   UNL d   1     -10.487   0.675   3.047  0.00  0.00     0.087 A 
ATOM      9  C   UNL d   1     -11.436   0.911   1.970  0.00  0.00     0.085 A 
ATOM     10  N   UNL d   1     -11.059   1.051   4.198  0.00  0.00    -0.239 N 
ATOM     11  N   UNL d   1     -12.554   1.425   2.496  0.00  0.00    -0.240 N 
ATOM     12  C   UNL d   1     -11.134   0.618   0.630  0.00  0.00     0.036 A 
ATOM     13  O   UNL d   1     -12.322   1.509   3.860  0.00  0.00    -0.156 OA
ATOM     14  HN  UNL d   1     -13.401   1.699   1.997  1.00  0.00     0.197 HD
ATOM     15  C   UNL d   1      -9.842   0.085   0.417  0.00  0.00     0.039 A 
ATOM     16  HN  UNL d   1     -10.649   1.009   5.131  1.00  0.00     0.197 HD
ENDBRANCH   5   6
ENDBRANCH   4   5
ENDBRANCH   1   4
BRANCH   1  17
ATOM     17  N   UNL d   1      -4.805  -0.731  -0.166  0.00  0.00    -0.289 NA
ATOM     18  H   UNL d   1      -4.982   0.203   0.190  0.00  0.00     0.125 HD
ATOM     19  H   UNL d   1      -3.914  -1.111   0.130  0.00  0.00     0.125 HD
ENDBRANCH   1  17
BRANCH   2  20
ATOM     20  O   UNL d   1      -4.367  -3.337   0.014  0.00  0.00    -0.194 OA
BRANCH  20  21
ATOM     21  C   UNL d   1      -4.337  -4.703   0.124  0.00  0.00     0.315 C 
ATOM     22  O   UNL d   1      -5.295  -5.447   0.309  0.00  0.00    -0.257 OA
BRANCH  21  23
ATOM     23  C   UNL d   1      -2.956  -5.250  -0.017  0.00  0.00     0.041 A 
ATOM     24  C   UNL d   1      -2.804  -6.646   0.073  0.00  0.00     0.019 A 
ATOM     25  C   UNL d   1      -1.547  -7.242  -0.063  0.00  0.00     0.025 A 
ATOM     26  C   UNL d   1      -0.430  -6.446  -0.290  0.00  0.00     0.034 A 
ATOM     27  C   UNL d   1      -0.561  -5.058  -0.377  0.00  0.00     0.025 A 
ATOM     28 CL   UNL d   1       1.117  -7.176  -0.465  0.00  0.00    -0.084 Cl
ATOM     29  C   UNL d   1      -1.822  -4.458  -0.241  0.00  0.00     0.019 A 
ENDBRANCH  21  23
ENDBRANCH  20  21
ENDBRANCH   2  20
TORSDOF 7
