REMARK  0 active torsions:
REMARK  status: ('A' for Active; 'I' for Inactive)
ROOT
ATOM      1  N   UNL d   1      -0.287  -0.594   0.005  0.00  0.00    -0.069 N 
ATOM      2  C   UNL d   1      -0.261   0.781   0.006  0.00  0.00     0.162 A 
ATOM      3  C   UNL d   1       0.889  -1.373   0.006  0.00  0.00     0.713 A 
ATOM      4  N   UNL d   1       0.948   1.399   0.008  0.00  0.00    -0.174 N 
ATOM      5  N   UNL d   1       2.049  -0.635   0.007  0.00  0.00    -0.021 N 
ATOM      6  C   UNL d   1       2.156   0.734   0.008  0.00  0.00     0.692 A 
ATOM      7  N   UNL d   1      -1.536  -1.113   0.003  0.00  0.00    -0.282 N 
ATOM      8  HN  UNL d   1      -1.815  -2.094   0.002  1.00  0.00     0.188 HD
ATOM      9  C   UNL d   1      -1.568   1.188   0.005  0.00  0.00     0.077 A 
ATOM     10  C   UNL d   1      -2.320  -0.021   0.003  0.00  0.00     0.026 A 
ATOM     11  N   UNL d   1       0.851  -2.671   0.005  0.00  0.00    -0.232 N 
ATOM     12  HN  UNL d   1       1.654  -3.300   0.005  1.00  0.00     0.174 HD
ATOM     13  N   UNL d   1       3.264   1.392   0.009  0.00  0.00    -0.234 N 
ATOM     14  HN  UNL d   1       3.339   2.409   0.010  1.00  0.00     0.174 HD
ATOM     15  C   UNL d   1      -3.799  -0.151   0.002  0.00  0.00     0.070 C 
ATOM     16  H   UNL d   1       1.034   2.411   0.008  0.00  0.00     0.186 HD
ATOM     17  H   UNL d   1       2.892  -1.189   0.008  0.00  0.00     0.203 HD
ATOM     18  H   UNL d   1      -0.147  -2.948   0.004  0.00  0.00     0.174 HD
ATOM     19  H   UNL d   1       4.058   0.747   0.009  0.00  0.00     0.174 HD
ENDROOT
TORSDOF 0
