REMARK  5 active torsions:
REMARK  status: ('A' for Active; 'I' for Inactive)
REMARK    1  A    between atoms: S_7  and  C_2 
REMARK    2  A    between atoms: C_6  and  C_4 
REMARK    3  A    between atoms: O_12  and  C_6 
REMARK    4  A    between atoms: C_13  and  S_7 
REMARK    5  A    between atoms: C_16  and  O_12 
ROOT
ATOM      1  C   UNL d   1       0.503   0.652  -0.057  0.00  0.00     0.041 A 
ATOM      2  C   UNL d   1       1.870   0.851  -0.119  0.00  0.00     0.057 A 
ATOM      3  C   UNL d   1       0.169  -0.758   0.003  0.00  0.00    -0.019 A 
ATOM      4  C   UNL d   1       1.296  -1.563   0.088  0.00  0.00     0.088 A 
ATOM      5  S   UNL d   1       2.723  -0.624   0.003  0.00  0.00    -0.076 SA
ATOM      6  C   UNL d   1      -0.543   1.683  -0.046  0.00  0.00     0.162 C 
ATOM      7  O   UNL d   1      -0.331   2.881  -0.214  0.00  0.00    -0.292 OA
ATOM      8  C   UNL d   1      -1.262  -1.232   0.036  0.00  0.00     0.042 C 
ATOM      9  C   UNL d   1      -1.946   1.192   0.270  0.00  0.00     0.084 C 
ATOM     10  C   UNL d   1      -2.230  -0.138  -0.424  0.00  0.00     0.012 C 
ENDROOT
BRANCH   4  11
ATOM     11  C   UNL d   1       1.354  -3.005   0.294  0.00  0.00     0.300 C 
ATOM     12  O   UNL d   1       0.379  -3.734   0.437  0.00  0.00    -0.259 OA
BRANCH  11  13
ATOM     13  O   UNL d   1       2.646  -3.430   0.408  0.00  0.00    -0.317 OA
BRANCH  13  14
ATOM     14  C   UNL d   1       2.839  -4.677   1.084  0.00  0.00     0.174 C 
ATOM     15  C   UNL d   1       2.820  -4.418   2.580  0.00  0.00     0.034 C 
ENDBRANCH  13  14
ENDBRANCH  11  13
ENDBRANCH   4  11
BRANCH   2  16
ATOM     16  S   UNL d   1       2.740   2.380  -0.220  0.00  0.00    -0.117 SA
BRANCH  16  17
ATOM     17  C   UNL d   1       3.797   2.145  -1.695  0.00  0.00     0.045 C 
ATOM     18  C   UNL d   1       2.971   1.864  -2.949  0.00  0.00     0.021 C 
ATOM     19  C   UNL d   1       4.628   3.413  -1.888  0.00  0.00     0.021 C 
ENDBRANCH  16  17
ENDBRANCH   2  16
TORSDOF 5
