REMARK  4 active torsions:
REMARK  status: ('A' for Active; 'I' for Inactive)
REMARK    1  A    between atoms: C_18  and  C_4 
REMARK    2  A    between atoms: C_22  and  C_12 
REMARK    3  A    between atoms: C_16  and  O_19 
REMARK    4  A    between atoms: O_19  and  C_22 
ROOT
ATOM      1  N   UNL d   1       1.456  -0.588  -0.022  0.00  0.00    -0.351 N 
ATOM      2  HN  UNL d   1       2.352  -1.072  -0.072  1.00  0.00     0.166 HD
ATOM      3  C   UNL d   1       1.300   0.790   0.016  0.00  0.00     0.049 A 
ATOM      4  C   UNL d   1       0.279  -1.182   0.013  0.00  0.00     0.075 A 
ATOM      5  S   UNL d   1      -1.074  -0.124   0.105  0.00  0.00    -0.084 SA
ATOM      6  C   UNL d   1      -0.011   1.221   0.088  0.00  0.00     0.082 A 
ENDROOT
BRANCH   4   7
ATOM      7  C   UNL d   1       0.074  -2.666  -0.064  0.00  0.00     0.240 C 
BRANCH   7   8
ATOM      8  O   UNL d   1       0.005  -3.160   1.275  0.00  0.00    -0.345 OA
BRANCH   8   9
ATOM      9  C   UNL d   1      -0.125  -4.520   1.440  0.00  0.00     0.071 A 
ATOM     10  C   UNL d   1      -0.129  -4.912   2.795  0.00  0.00     0.070 A 
ATOM     11  C   UNL d   1      -0.268  -6.295   3.016  0.00  0.00     0.087 A 
ATOM     12  N   UNL d   1      -0.308  -6.973   4.169  0.00  0.00    -0.239 N 
ATOM     13  C   UNL d   1      -0.398  -7.247   1.924  0.00  0.00     0.085 A 
ATOM     14  O   UNL d   1      -0.459  -8.305   3.818  0.00  0.00    -0.156 OA
ATOM     15  HN  UNL d   1      -0.242  -6.588   5.112  1.00  0.00     0.197 HD
ATOM     16  N   UNL d   1      -0.515  -8.474   2.444  0.00  0.00    -0.240 N 
ATOM     17  HN  UNL d   1      -0.622  -9.351   1.936  1.00  0.00     0.197 HD
ATOM     18  C   UNL d   1      -0.393  -6.846   0.577  0.00  0.00     0.036 A 
ATOM     19  C   UNL d   1      -0.252  -5.456   0.375  0.00  0.00     0.039 A 
ENDBRANCH   8   9
ENDBRANCH   7   8
ENDBRANCH   4   7
BRANCH   3  20
ATOM     20  C   UNL d   1       2.458   1.677   0.006  0.00  0.00    -0.009 A 
ATOM     21  C   UNL d   1       2.399   2.967  -0.542  0.00  0.00     0.015 A 
ATOM     22  C   UNL d   1       3.526   3.796  -0.532  0.00  0.00     0.024 A 
ATOM     23  C   UNL d   1       4.719   3.338   0.024  0.00  0.00     0.034 A 
ATOM     24  C   UNL d   1       4.798   2.058   0.563  0.00  0.00     0.024 A 
ATOM     25 CL   UNL d   1       6.101   4.362   0.041  0.00  0.00    -0.084 Cl
ATOM     26  C   UNL d   1       3.671   1.229   0.549  0.00  0.00     0.015 A 
ENDBRANCH   3  20
TORSDOF 4
