REMARK  7 active torsions:
REMARK  status: ('A' for Active; 'I' for Inactive)
REMARK    1  A    between atoms: C_15  and  N_3 
REMARK    2  A    between atoms: S_16  and  C_7 
REMARK    3  A    between atoms: C_8  and  C_14 
REMARK    4  A    between atoms: C_23  and  C_13 
REMARK    5  A    between atoms: C_14  and  C_21 
REMARK    6  A    between atoms: C_21  and  S_16 
REMARK       I    between atoms: C_18  and  N_19 
REMARK    7  A    between atoms: N_19  and  C_20 
ROOT
ATOM      1  N   UNL d   1      -0.456  -1.113   0.019  0.00  0.00    -0.259 N 
ATOM      2  HN  UNL d   1      -0.718  -2.086  -0.140  1.00  0.00     0.191 HD
ATOM      3  N   UNL d   1       0.778  -0.557   0.201  0.00  0.00    -0.178 N 
ATOM      4  N   UNL d   1       0.747   0.783   0.409  0.00  0.00     0.003 NA
ATOM      5  N   UNL d   1      -0.527   1.126   0.344  0.00  0.00    -0.261 N 
ATOM      6  HN  UNL d   1      -0.913   2.065   0.448  1.00  0.00     0.186 HD
ATOM      7  C   UNL d   1      -1.225  -0.021   0.110  0.00  0.00     0.174 A 
ENDROOT
BRANCH   7   8
ATOM      8  S   UNL d   1      -2.954   0.015  -0.081  0.00  0.00    -0.084 SA
BRANCH   8   9
ATOM      9  C   UNL d   1      -3.403  -1.735  -0.083  0.00  0.00     0.168 C 
BRANCH   9  10
ATOM     10  C   UNL d   1      -4.921  -1.842  -0.008  0.00  0.00     0.194 C 
ATOM     11  O   UNL d   1      -5.485  -1.891   1.089  0.00  0.00    -0.289 OA
BRANCH  10  12
ATOM     12  C   UNL d   1      -5.666  -1.856  -1.246  0.00  0.00     0.147 A 
ATOM     13  C   UNL d   1      -7.019  -1.887  -1.502  0.00  0.00     0.075 A 
ATOM     14  C   UNL d   1      -7.131  -1.960  -2.916  0.00  0.00     0.068 A 
ATOM     15  N   UNL d   1      -5.908  -1.936  -3.471  0.00  0.00    -0.260 N 
ATOM     16  O   UNL d   1      -5.004  -1.860  -2.433  0.00  0.00    -0.234 OA
ATOM     17  HN  UNL d   1      -5.690  -1.967  -4.468  1.00  0.00     0.195 HD
BRANCH  14  18
ATOM     18  C   UNL d   1      -8.343  -2.087  -3.727  0.00  0.00    -0.007 A 
ATOM     19  C   UNL d   1      -9.568  -1.558  -3.293  0.00  0.00     0.014 A 
ATOM     20  C   UNL d   1     -10.724  -1.717  -4.066  0.00  0.00     0.001 A 
ATOM     21  C   UNL d   1     -10.669  -2.408  -5.275  0.00  0.00     0.000 A 
ATOM     22  C   UNL d   1      -9.459  -2.933  -5.721  0.00  0.00     0.001 A 
ATOM     23  C   UNL d   1      -8.302  -2.770  -4.953  0.00  0.00     0.014 A 
ENDBRANCH  14  18
ENDBRANCH  10  12
ENDBRANCH   9  10
ENDBRANCH   8   9
ENDBRANCH   7   8
BRANCH   3  24
ATOM     24  C   UNL d   1       2.002  -1.274   0.159  0.00  0.00     0.075 A 
ATOM     25  C   UNL d   1       2.020  -2.662  -0.064  0.00  0.00     0.062 A 
ATOM     26  C   UNL d   1       3.242  -3.344  -0.129  0.00  0.00     0.036 A 
ATOM     27  C   UNL d   1       4.437  -2.630   0.040  0.00  0.00     0.029 A 
ATOM     28  C   UNL d   1       4.423  -1.255   0.268  0.00  0.00     0.005 A 
ATOM     29  C   UNL d   1       3.210  -0.577   0.327  0.00  0.00     0.033 A 
BRANCH  26  30
ATOM     30  N   UNL d   1       3.372  -4.728  -0.375  0.00  0.00    -0.327 N 
ATOM     31  C   UNL d   1       2.364  -5.650  -0.572  0.00  0.00     0.218 C 
ATOM     32  O   UNL d   1       1.156  -5.437  -0.521  0.00  0.00    -0.274 OA
ATOM     33  C   UNL d   1       2.882  -7.035  -0.875  0.00  0.00     0.117 C 
ATOM     34  H   UNL d   1       4.321  -5.078  -0.415  0.00  0.00     0.169 HD
ENDBRANCH  26  30
ENDBRANCH   3  24
TORSDOF 7
