REMARK  4 active torsions:
REMARK  status: ('A' for Active; 'I' for Inactive)
REMARK    1  A    between atoms: C_2  and  S_1 
REMARK    2  A    between atoms: N_8  and  S_1 
REMARK    3  A    between atoms: C_6  and  C_3 
REMARK       I    between atoms: N_9  and  C_6 
REMARK    4  A    between atoms: C_14  and  N_9 
ROOT
ATOM      1  C   UNL d   1       0.891  -1.257   1.277  0.00  0.00     0.186 A 
ATOM      2  C   UNL d   1      -0.056  -2.280   3.087  0.00  0.00     0.065 A 
ATOM      3  C   UNL d   1       0.270  -1.023   2.500  0.00  0.00     0.070 A 
ATOM      4  O   UNL d   1       0.989  -2.619   1.110  0.00  0.00    -0.301 OA
ATOM      5  C   UNL d   1       0.420  -3.220   2.188  0.00  0.00     0.066 A 
ATOM      6  C   UNL d   1       0.438  -4.702   2.190  0.00  0.00     0.078 C 
ENDROOT
BRANCH   2   7
ATOM      7  C   UNL d   1      -0.703  -2.618   4.355  0.00  0.00     0.258 C 
ATOM      8  N   UNL d   1      -1.109  -1.528   5.109  0.00  0.00    -0.323 N 
ATOM      9  H   UNL d   1      -1.074  -0.621   4.670  0.00  0.00     0.169 HD
ATOM     10  O   UNL d   1      -0.852  -3.791   4.679  0.00  0.00    -0.267 OA
BRANCH   8  11
ATOM     11  C   UNL d   1      -1.579  -1.558   6.441  0.00  0.00     0.035 A 
ATOM     12  C   UNL d   1      -1.569  -2.707   7.240  0.00  0.00     0.032 A 
ATOM     13  C   UNL d   1      -1.993  -2.656   8.571  0.00  0.00     0.044 A 
ATOM     14  C   UNL d   1      -2.433  -1.454   9.104  0.00  0.00     0.116 A 
ATOM     15  C   UNL d   1      -2.464  -0.303   8.328  0.00  0.00     0.044 A 
ATOM     16  F   UNL d   1      -2.825  -1.403  10.383  0.00  0.00    -0.206 F 
ATOM     17  C   UNL d   1      -2.036  -0.353   6.997  0.00  0.00     0.032 A 
ENDBRANCH   8  11
ENDBRANCH   2   7
BRANCH   1  18
ATOM     18  S   UNL d   1       1.532  -0.103   0.060  0.00  0.00     0.266 S 
ATOM     19  O   UNL d   1       0.890   1.150   0.403  0.00  0.00    -0.204 OA
ATOM     20  O   UNL d   1       1.339  -0.729  -1.227  0.00  0.00    -0.204 OA
BRANCH  18  21
ATOM     21  N   UNL d   1       3.196   0.059   0.362  0.00  0.00    -0.201 NA
ATOM     22  C   UNL d   1       4.052  -1.118   0.012  0.00  0.00     0.134 C 
ATOM     23  C   UNL d   1       4.438  -1.124  -1.474  0.00  0.00     0.183 C 
ATOM     24  O   UNL d   1       5.045   0.116  -1.867  0.00  0.00    -0.389 OA
ATOM     25  C   UNL d   1       4.152   1.214  -1.632  0.00  0.00     0.183 C 
ATOM     26  C   UNL d   1       3.817   1.322  -0.144  0.00  0.00     0.134 C 
ENDBRANCH  18  21
ENDBRANCH   1  18
TORSDOF 4
