REMARK  4 active torsions:
REMARK  status: ('A' for Active; 'I' for Inactive)
REMARK    1  A    between atoms: C_4  and  C_1 
REMARK    2  A    between atoms: C_9  and  C_3 
REMARK    3  A    between atoms: C_5  and  C_9 
REMARK    4  A    between atoms: N_14  and  C_10 
ROOT
ATOM      1  C   UNL d   1      -0.029   1.095  -0.004  0.00  0.00     0.089 A 
ATOM      2  O   UNL d   1      -0.932   0.059   0.012  0.00  0.00    -0.306 OA
ATOM      3  C   UNL d   1      -0.219  -1.114  -0.001  0.00  0.00     0.126 A 
ATOM      4  C   UNL d   1       1.252   0.579  -0.029  0.00  0.00     0.041 A 
ATOM      5  C   UNL d   1       1.132  -0.826  -0.024  0.00  0.00     0.044 A 
ENDROOT
BRANCH   1   6
ATOM      6  C   UNL d   1      -0.567   2.457   0.016  0.00  0.00     0.036 A 
ATOM      7  C   UNL d   1       0.288   3.572  -0.063  0.00  0.00     0.132 A 
ATOM      8  C   UNL d   1      -0.194   4.878  -0.022  0.00  0.00     0.085 A 
ATOM      9  F   UNL d   1       1.616   3.413  -0.180  0.00  0.00    -0.205 F 
ATOM     10  C   UNL d   1      -1.557   5.087   0.096  0.00  0.00     0.119 A 
ATOM     11  C   UNL d   1      -2.438   4.014   0.169  0.00  0.00     0.043 A 
ATOM     12  F   UNL d   1      -2.032   6.338   0.144  0.00  0.00    -0.206 F 
ATOM     13  C   UNL d   1      -1.946   2.703   0.128  0.00  0.00     0.020 A 
ENDBRANCH   1   6
BRANCH   3  14
ATOM     14  C   UNL d   1      -0.872  -2.410   0.009  0.00  0.00     0.206 C 
ATOM     15  O   UNL d   1      -0.226  -3.459   0.003  0.00  0.00    -0.285 OA
BRANCH  14  16
ATOM     16  C   UNL d   1      -2.366  -2.456   0.029  0.00  0.00     0.074 C 
ATOM     17  C   UNL d   1      -2.998  -3.639   0.014  0.00  0.00     0.088 C 
BRANCH  17  18
ATOM     18  N   UNL d   1      -4.354  -3.937   0.025  0.00  0.00    -0.398 N 
ATOM     19  C   UNL d   1      -5.424  -2.945   0.058  0.00  0.00     0.148 C 
ATOM     20  C   UNL d   1      -4.829  -5.324  -0.015  0.00  0.00     0.148 C 
ENDBRANCH  17  18
ENDBRANCH  14  16
ENDBRANCH   3  14
TORSDOF 4
