REMARK  0 active torsions:
REMARK  status: ('A' for Active; 'I' for Inactive)
ROOT
ATOM      1  C   UNL d   1       2.727  -0.741   0.004  0.00  0.00     0.134 A 
ATOM      2  C   UNL d   1       1.776   0.248   0.007  0.00  0.00     0.104 A 
ATOM      3  N   UNL d   1       4.088  -0.338   0.001  0.00  0.00    -0.288 N 
ATOM      4  N   UNL d   1       3.526   1.967  -0.002  0.00  0.00    -0.270 N 
ATOM      5  N   UNL d   1       2.261  -2.096   0.003  0.00  0.00    -0.303 N 
ATOM      6  C   UNL d   1       4.497   1.010  -0.002  0.00  0.00     0.332 A 
ATOM      7  C   UNL d   1       2.184   1.691   0.009  0.00  0.00     0.267 A 
ATOM      8  C   UNL d   1      -0.094  -1.371   0.006  0.00  0.00     0.061 A 
ATOM      9  C   UNL d   1       0.322  -0.069   0.007  0.00  0.00     0.068 A 
ATOM     10  C   UNL d   1       0.889  -2.431   0.006  0.00  0.00     0.261 A 
ATOM     11  N   UNL d   1      -0.609   0.924   0.007  0.00  0.00    -0.354 N 
ATOM     12  HN  UNL d   1      -0.303   1.897   0.008  1.00  0.00     0.166 HD
ATOM     13  C   UNL d   1      -1.934   0.645   0.005  0.00  0.00     0.046 A 
ATOM     14  C   UNL d   1      -2.421  -0.675   0.002  0.00  0.00     0.013 A 
ATOM     15  C   UNL d   1      -1.454  -1.685   0.003  0.00  0.00     0.035 A 
ATOM     16  C   UNL d   1      -3.815  -0.917  -0.004  0.00  0.00     0.048 A 
ATOM     17  C   UNL d   1      -2.859   1.681   0.005  0.00  0.00     0.054 A 
ATOM     18  C   UNL d   1      -4.721   0.136  -0.005  0.00  0.00     0.048 A 
ATOM     19  O   UNL d   1       5.692   1.327  -0.003  0.00  0.00    -0.246 OA
ATOM     20  O   UNL d   1       1.370   2.613   0.022  0.00  0.00    -0.267 OA
ATOM     21  O   UNL d   1       0.461  -3.585   0.007  0.00  0.00    -0.267 OA
ATOM     22  C   UNL d   1      -4.234   1.434   0.001  0.00  0.00     0.037 A 
ATOM     23  C   UNL d   1       5.283  -1.157  -0.000  0.00  0.00     0.163 C 
ATOM     24  C   UNL d   1       3.925   3.368  -0.003  0.00  0.00     0.164 C 
ATOM     25  C   UNL d   1       2.991  -3.349  -0.002  0.00  0.00     0.161 C 
ATOM     26 CL   UNL d   1      -4.471  -2.522  -0.012  0.00  0.00    -0.083 Cl
ATOM     27 CL   UNL d   1      -5.346   2.748   0.001  0.00  0.00    -0.084 Cl
ENDROOT
TORSDOF 0
