REMARK  5 active torsions:
REMARK  status: ('A' for Active; 'I' for Inactive)
REMARK    1  A    between atoms: C_9  and  C_2 
REMARK    2  A    between atoms: S_8  and  C_3 
REMARK    3  A    between atoms: C_16  and  S_8 
REMARK    4  A    between atoms: C_10  and  C_9 
REMARK    5  A    between atoms: C_18  and  C_16 
ROOT
ATOM      1  N   UNL d   1       0.817  -0.070   0.046  0.00  0.00    -0.319 N 
ATOM      2  C   UNL d   1       0.005   1.027  -0.138  0.00  0.00     0.104 A 
ATOM      3  C   UNL d   1       0.010  -1.159  -0.150  0.00  0.00     0.162 A 
ATOM      4  N   UNL d   1      -1.221   0.606  -0.397  0.00  0.00    -0.286 N 
ATOM      5  HN  UNL d   1      -2.034   1.200  -0.559  1.00  0.00     0.188 HD
ATOM      6  N   UNL d   1      -1.213  -0.764  -0.410  0.00  0.00    -0.278 N 
ATOM      7  HN  UNL d   1      -2.015  -1.369  -0.589  1.00  0.00     0.189 HD
ATOM      8  C   UNL d   1       2.223  -0.088   0.355  0.00  0.00     0.159 C 
ENDROOT
BRANCH   3   9
ATOM      9  S   UNL d   1       0.549  -2.801  -0.067  0.00  0.00    -0.088 SA
BRANCH   9  10
ATOM     10  C   UNL d   1      -0.772  -3.602  -1.026  0.00  0.00     0.121 C 
BRANCH  10  11
ATOM     11  C   UNL d   1      -0.639  -5.107  -1.046  0.00  0.00    -0.048 A 
ATOM     12  C   UNL d   1      -1.327  -5.892  -0.108  0.00  0.00     0.009 A 
ATOM     13  C   UNL d   1      -1.245  -7.286  -0.151  0.00  0.00     0.024 A 
ATOM     14  C   UNL d   1      -0.466  -7.903  -1.127  0.00  0.00     0.034 A 
ATOM     15  C   UNL d   1       0.242  -7.138  -2.052  0.00  0.00     0.024 A 
ATOM     16 CL   UNL d   1      -0.383  -9.621  -1.194  0.00  0.00    -0.084 Cl
ATOM     17  C   UNL d   1       0.158  -5.744  -2.010  0.00  0.00     0.009 A 
ENDBRANCH  10  11
ENDBRANCH   9  10
ENDBRANCH   3   9
BRANCH   2  18
ATOM     18  C   UNL d   1       0.415   2.460  -0.051  0.00  0.00     0.117 C 
BRANCH  18  19
ATOM     19  C   UNL d   1       0.771   3.053  -1.389  0.00  0.00    -0.044 A 
ATOM     20  C   UNL d   1       1.997   3.603  -1.716  0.00  0.00     0.057 A 
ATOM     21  S   UNL d   1       2.042   4.236  -3.306  0.00  0.00    -0.113 SA
ATOM     22  C   UNL d   1       0.418   3.790  -3.588  0.00  0.00     0.050 A 
ATOM     23  C   UNL d   1      -0.142   3.168  -2.493  0.00  0.00     0.015 A 
ENDBRANCH  18  19
ENDBRANCH   2  18
TORSDOF 5
