REMARK  6 active torsions:
REMARK  status: ('A' for Active; 'I' for Inactive)
REMARK    1  A    between atoms: C_7  and  C_1 
REMARK    2  A    between atoms: C_2  and  O_10 
REMARK       I    between atoms: C_3  and  N_6 
REMARK    3  A    between atoms: C_9  and  C_3 
REMARK    4  A    between atoms: C_4  and  C_8 
REMARK       I    between atoms: N_5  and  C_4 
REMARK    5  A    between atoms: N_6  and  N_5 
REMARK    6  A    between atoms: O_10  and  C_25 
ROOT
ATOM      1  C   UNL d   1      -0.942   3.483   6.386  0.00  0.00     0.270 C 
ATOM      2  N   UNL d   1      -1.056   2.377   5.571  0.00  0.00    -0.263 N 
ATOM      3  O   UNL d   1      -0.930   3.385   7.613  0.00  0.00    -0.266 OA
ATOM      4  H   UNL d   1      -1.189   2.393   4.563  0.00  0.00     0.190 HD
ENDROOT
BRANCH   2   5
ATOM      5  N   UNL d   1      -1.094   1.111   6.169  0.00  0.00    -0.263 N 
ATOM      6  C   UNL d   1      -1.375   0.025   5.365  0.00  0.00     0.270 C 
ATOM      7  O   UNL d   1      -1.645   0.166   4.170  0.00  0.00    -0.266 OA
ATOM      8  H   UNL d   1      -0.939   1.088   7.175  0.00  0.00     0.190 HD
BRANCH   6   9
ATOM      9  C   UNL d   1      -1.324  -1.337   5.973  0.00  0.00     0.033 A 
ATOM     10  C   UNL d   1      -0.787  -1.599   7.239  0.00  0.00     0.018 A 
ATOM     11  C   UNL d   1      -0.705  -2.916   7.712  0.00  0.00     0.017 A 
ATOM     12  C   UNL d   1      -1.153  -3.994   6.929  0.00  0.00     0.048 A 
ATOM     13  C   UNL d   1      -1.702  -3.725   5.669  0.00  0.00     0.017 A 
ATOM     14  C   UNL d   1      -1.786  -2.412   5.198  0.00  0.00     0.018 A 
BRANCH  12  15
ATOM     15  C   UNL d   1      -1.010  -5.411   7.434  0.00  0.00     0.417 C 
ATOM     16  F   UNL d   1      -1.570  -6.342   6.613  0.00  0.00    -0.166 F 
ATOM     17  F   UNL d   1      -1.587  -5.592   8.653  0.00  0.00    -0.166 F 
ATOM     18  F   UNL d   1       0.294  -5.777   7.580  0.00  0.00    -0.166 F 
ENDBRANCH  12  15
ENDBRANCH   6   9
ENDBRANCH   2   5
BRANCH   1  19
ATOM     19  C   UNL d   1      -0.807   4.819   5.729  0.00  0.00     0.033 A 
ATOM     20  C   UNL d   1      -0.521   4.984   4.367  0.00  0.00     0.020 A 
ATOM     21  C   UNL d   1      -0.318   6.266   3.832  0.00  0.00     0.038 A 
ATOM     22  C   UNL d   1      -0.363   7.388   4.657  0.00  0.00     0.078 A 
ATOM     23  C   UNL d   1      -0.701   7.232   6.002  0.00  0.00     0.038 A 
ATOM     24  C   UNL d   1      -0.914   5.959   6.537  0.00  0.00     0.020 A 
BRANCH  22  25
ATOM     25  O   UNL d   1      -0.173   8.673   4.250  0.00  0.00    -0.255 OA
BRANCH  25  26
ATOM     26  C   UNL d   1       0.866   8.944   3.315  0.00  0.00     0.530 C 
ATOM     27  F   UNL d   1       1.601   7.864   2.974  0.00  0.00    -0.144 F 
ATOM     28  F   UNL d   1       0.325   9.470   2.195  0.00  0.00    -0.144 F 
ATOM     29  F   UNL d   1       1.701   9.862   3.851  0.00  0.00    -0.144 F 
ENDBRANCH  25  26
ENDBRANCH  22  25
ENDBRANCH   1  19
TORSDOF 6
