REMARK  8 active torsions:
REMARK  status: ('A' for Active; 'I' for Inactive)
REMARK    1  A    between atoms: C_2  and  C_4 
REMARK    2  A    between atoms: C_27  and  C_2 
REMARK    3  A    between atoms: S_10  and  C_27 
REMARK    4  A    between atoms: C_28  and  S_10 
REMARK    5  A    between atoms: O_11  and  C_17 
REMARK    6  A    between atoms: C_14  and  O_11 
REMARK    7  A    between atoms: C_17  and  C_12 
REMARK    8  A    between atoms: C_21  and  C_28 
ROOT
ATOM      1  C   UNL d   1      -6.803   5.597  -0.163  0.00  0.00     0.011 A 
ATOM      2  C   UNL d   1      -6.833   4.488   0.695  0.00  0.00     0.018 A 
ATOM      3  C   UNL d   1      -5.731   5.767  -1.041  0.00  0.00     0.018 A 
ATOM      4  C   UNL d   1      -4.701   3.758  -0.187  0.00  0.00     0.069 A 
ATOM      5  C   UNL d   1      -4.700   4.840  -1.069  0.00  0.00     0.037 A 
ATOM      6  C   UNL d   1      -5.784   3.563   0.672  0.00  0.00     0.037 A 
ENDROOT
BRANCH   1   7
ATOM      7  C   UNL d   1      -7.929   6.569  -0.155  0.00  0.00     0.168 C 
ATOM      8  O   UNL d   1      -8.590   6.719   0.871  0.00  0.00    -0.292 OA
BRANCH   7   9
ATOM      9  C   UNL d   1      -8.247   7.335  -1.426  0.00  0.00     0.158 C 
BRANCH   9  10
ATOM     10  S   UNL d   1      -8.722   6.225  -2.782  0.00  0.00    -0.157 SA
BRANCH  10  11
ATOM     11  C   UNL d   1     -10.184   5.425  -2.028  0.00  0.00     0.112 C 
BRANCH  11  12
ATOM     12  C   UNL d   1     -10.738   4.399  -2.987  0.00  0.00    -0.049 A 
ATOM     13  C   UNL d   1     -10.324   3.059  -2.918  0.00  0.00     0.009 A 
ATOM     14  C   UNL d   1     -10.736   2.142  -3.887  0.00  0.00     0.024 A 
ATOM     15  C   UNL d   1     -11.562   2.559  -4.928  0.00  0.00     0.034 A 
ATOM     16  C   UNL d   1     -12.003   3.879  -4.995  0.00  0.00     0.024 A 
ATOM     17 CL   UNL d   1     -12.022   1.444  -6.155  0.00  0.00    -0.084 Cl
ATOM     18  C   UNL d   1     -11.595   4.795  -4.025  0.00  0.00     0.009 A 
ENDBRANCH  11  12
ENDBRANCH  10  11
ENDBRANCH   9  10
ENDBRANCH   7   9
ENDBRANCH   1   7
BRANCH   4  19
ATOM     19  O   UNL d   1      -3.668   2.865  -0.092  0.00  0.00    -0.347 OA
BRANCH  19  20
ATOM     20  C   UNL d   1      -2.399   3.414  -0.473  0.00  0.00     0.214 C 
BRANCH  20  21
ATOM     21  C   UNL d   1      -1.268   2.649   0.155  0.00  0.00    -0.032 A 
ATOM     22  C   UNL d   1      -1.342   1.266   0.362  0.00  0.00     0.035 A 
ATOM     23  C   UNL d   1      -0.283   0.576   0.945  0.00  0.00     0.056 A 
ATOM     24  C   UNL d   1       0.881   1.266   1.312  0.00  0.00     0.055 A 
ATOM     25 CL   UNL d   1      -0.468  -1.124   1.192  0.00  0.00    -0.083 Cl
ATOM     26  C   UNL d   1       0.977   2.639   1.082  0.00  0.00     0.026 A 
ATOM     27 CL   UNL d   1       2.230   0.482   2.051  0.00  0.00    -0.083 Cl
ATOM     28  C   UNL d   1      -0.085   3.329   0.501  0.00  0.00     0.011 A 
ENDBRANCH  20  21
ENDBRANCH  19  20
ENDBRANCH   4  19
TORSDOF 8
