REMARK  7 active torsions:
REMARK  status: ('A' for Active; 'I' for Inactive)
REMARK    1  A    between atoms: S_3  and  C_1 
REMARK    2  A    between atoms: N_8  and  C_2 
REMARK    3  A    between atoms: C_14  and  S_3 
REMARK    4  A    between atoms: C_7  and  C_4 
REMARK    5  A    between atoms: O_18  and  C_7 
REMARK    6  A    between atoms: N_11  and  N_8 
REMARK    7  A    between atoms: C_13  and  C_17 
ROOT
ATOM      1  C   UNL d   1       1.504  -0.558  -0.036  0.00  0.00     0.095 A 
ATOM      2  C   UNL d   1       1.429   0.871  -0.088  0.00  0.00     0.093 A 
ATOM      3  C   UNL d   1       0.122   1.320   0.050  0.00  0.00     0.109 A 
ATOM      4  S   UNL d   1      -0.973   0.011   0.273  0.00  0.00    -0.092 SA
ATOM      5  C   UNL d   1       0.268  -1.147   0.126  0.00  0.00     0.076 A 
ENDROOT
BRANCH   2   6
ATOM      6  N   UNL d   1       2.520   1.673  -0.239  0.00  0.00    -0.298 N 
ATOM      7  H   UNL d   1       3.355   1.309  -0.716  0.00  0.00     0.187 HD
BRANCH   6   8
ATOM      8  N   UNL d   1       2.559   2.920   0.294  0.00  0.00    -0.311 N 
ATOM      9  C   UNL d   1       3.362   3.759  -0.282  0.00  0.00     0.120 C 
ATOM     10  HN  UNL d   1       1.991   3.181   1.099  1.00  0.00     0.186 HD
BRANCH   9  11
ATOM     11  C   UNL d   1       3.407   5.175   0.152  0.00  0.00     0.002 A 
ATOM     12  C   UNL d   1       4.203   6.125  -0.499  0.00  0.00     0.045 A 
ATOM     13 CL   UNL d   1       5.235   5.736  -1.828  0.00  0.00    -0.083 Cl
ATOM     14  C   UNL d   1       4.173   7.462  -0.081  0.00  0.00     0.024 A 
ATOM     15  C   UNL d   1       3.352   7.854   0.979  0.00  0.00     0.002 A 
ATOM     16  C   UNL d   1       2.559   6.913   1.628  0.00  0.00     0.001 A 
ATOM     17  C   UNL d   1       2.586   5.579   1.218  0.00  0.00     0.014 A 
ENDBRANCH   9  11
ENDBRANCH   6   8
ENDBRANCH   2   6
BRANCH   1  18
ATOM     18  S   UNL d   1       2.975  -1.469  -0.116  0.00  0.00     0.181 S 
ATOM     19  O   UNL d   1       2.555  -2.855  -0.174  0.00  0.00    -0.222 OA
ATOM     20  O   UNL d   1       3.704  -0.836  -1.199  0.00  0.00    -0.222 OA
BRANCH  18  21
ATOM     21  C   UNL d   1       3.849  -1.161   1.421  0.00  0.00     0.105 C 
ATOM     22  C   UNL d   1       3.002  -1.429   2.657  0.00  0.00     0.026 C 
ATOM     23  C   UNL d   1       5.119  -2.013   1.458  0.00  0.00     0.026 C 
ENDBRANCH  18  21
ENDBRANCH   1  18
BRANCH   3  24
ATOM     24  C   UNL d   1      -0.447   2.654   0.021  0.00  0.00     0.302 C 
ATOM     25  O   UNL d   1      -1.371   3.048   0.728  0.00  0.00    -0.259 OA
BRANCH  24  26
ATOM     26  O   UNL d   1       0.117   3.404  -0.972  0.00  0.00    -0.322 OA
ATOM     27  C   UNL d   1      -0.338   4.755  -1.047  0.00  0.00     0.213 C 
ENDBRANCH  24  26
ENDBRANCH   3  24
TORSDOF 7
