REMARK  3 active torsions:
REMARK  status: ('A' for Active; 'I' for Inactive)
REMARK    1  A    between atoms: C_2  and  C_1 
REMARK    2  A    between atoms: O_9  and  C_3 
REMARK    3  A    between atoms: C_16  and  O_9 
ROOT
ATOM      1  N   UNL d   1      -2.787   0.801  10.573  0.00  0.00    -0.191 NA
ATOM      2  C   UNL d   1      -2.427   0.323   9.578  0.00  0.00     0.099 C 
ATOM      3  C   UNL d   1      -1.960  -0.266   8.359  0.00  0.00     0.044 A 
ATOM      4  C   UNL d   1      -0.976  -1.438   6.012  0.00  0.00     0.078 A 
ATOM      5  C   UNL d   1      -2.303  -1.584   8.034  0.00  0.00     0.025 A 
ATOM      6  C   UNL d   1      -1.807  -2.168   6.864  0.00  0.00     0.039 A 
ATOM      7  C   UNL d   1      -1.131   0.466   7.504  0.00  0.00     0.025 A 
ATOM      8  C   UNL d   1      -0.627  -0.124   6.342  0.00  0.00     0.039 A 
ENDROOT
BRANCH   4   9
ATOM      9  O   UNL d   1      -0.476  -2.114   4.921  0.00  0.00    -0.292 OA
BRANCH   9  10
ATOM     10  C   UNL d   1      -0.252  -1.396   3.758  0.00  0.00     0.170 A 
ATOM     11  N   UNL d   1      -1.121  -0.402   3.437  0.00  0.00    -0.344 N 
ATOM     12  C   UNL d   1      -0.875   0.295   2.309  0.00  0.00     0.106 A 
ATOM     13  HN  UNL d   1      -1.927  -0.192   4.026  1.00  0.00     0.167 HD
ATOM     14  C   UNL d   1       0.195   0.043   1.461  0.00  0.00     0.065 A 
ATOM     15  C   UNL d   1       1.058  -1.009   1.795  0.00  0.00     0.045 A 
ATOM     16  C   UNL d   1       0.830  -1.748   2.956  0.00  0.00     0.086 A 
ATOM     17 CL   UNL d   1       1.901  -3.035   3.357  0.00  0.00    -0.080 Cl
BRANCH  14  18
ATOM     18  C   UNL d   1       0.379   0.897   0.245  0.00  0.00     0.418 C 
ATOM     19  F   UNL d   1       1.449   0.536  -0.513  0.00  0.00    -0.166 F 
ATOM     20  F   UNL d   1       0.566   2.207   0.560  0.00  0.00    -0.166 F 
ATOM     21  F   UNL d   1      -0.700   0.860  -0.582  0.00  0.00    -0.166 F 
ENDBRANCH  14  18
ENDBRANCH   9  10
ENDBRANCH   4   9
TORSDOF 3
