REMARK  9 active torsions:
REMARK  status: ('A' for Active; 'I' for Inactive)
REMARK    1  A    between atoms: C_5  and  C_1 
REMARK    2  A    between atoms: C_6  and  C_2 
REMARK    3  A    between atoms: C_3  and  N_10 
REMARK    4  A    between atoms: C_8  and  C_3 
REMARK    5  A    between atoms: C_7  and  C_4 
REMARK    6  A    between atoms: N_9  and  C_4 
REMARK    7  A    between atoms: C_14  and  N_9 
REMARK    8  A    between atoms: N_10  and  C_13 
REMARK    9  A    between atoms: C_13  and  C_14 
ROOT
ATOM      1  C   UNL d   1      -7.709   3.778  -2.589  0.00  0.00     0.139 C 
ENDROOT
BRANCH   1   2
ATOM      2  N   UNL d   1      -6.256   3.677  -2.535  0.00  0.00    -0.388 N 
ATOM      3  H   UNL d   1      -5.717   4.195  -3.227  0.00  0.00     0.159 HD
BRANCH   2   4
ATOM      4  C   UNL d   1      -5.504   3.123  -1.508  0.00  0.00     0.041 C 
ATOM      5  C   UNL d   1      -5.968   2.166  -0.683  0.00  0.00     0.079 C 
BRANCH   5   6
ATOM      6  C   UNL d   1      -5.274   1.522   0.469  0.00  0.00     0.147 C 
ATOM      7  O   UNL d   1      -4.052   1.537   0.610  0.00  0.00    -0.294 OA
ATOM      8  C   UNL d   1      -6.155   0.799   1.458  0.00  0.00     0.096 C 
ENDBRANCH   5   6
BRANCH   4   9
ATOM      9  C   UNL d   1      -4.158   3.720  -1.375  0.00  0.00    -0.010 A 
ATOM     10  C   UNL d   1      -3.054   3.181  -2.045  0.00  0.00     0.013 A 
ATOM     11  C   UNL d   1      -1.816   3.828  -1.998  0.00  0.00     0.001 A 
ATOM     12  C   UNL d   1      -1.673   5.017  -1.282  0.00  0.00     0.000 A 
ATOM     13  C   UNL d   1      -2.763   5.553  -0.599  0.00  0.00     0.001 A 
ATOM     14  C   UNL d   1      -4.000   4.908  -0.645  0.00  0.00     0.013 A 
ENDBRANCH   4   9
ENDBRANCH   2   4
ENDBRANCH   1   2
BRANCH   1  15
ATOM     15  C   UNL d   1      -8.181   5.022  -3.368  0.00  0.00     0.139 C 
BRANCH  15  16
ATOM     16  N   UNL d   1      -9.635   5.135  -3.369  0.00  0.00    -0.388 N 
ATOM     17  H   UNL d   1     -10.101   5.035  -4.268  0.00  0.00     0.159 HD
BRANCH  16  18
ATOM     18  C   UNL d   1     -10.471   5.381  -2.288  0.00  0.00     0.041 C 
ATOM     19  C   UNL d   1     -10.074   5.990  -1.154  0.00  0.00     0.079 C 
BRANCH  19  20
ATOM     20  C   UNL d   1     -10.793   6.339   0.107  0.00  0.00     0.147 C 
ATOM     21  O   UNL d   1     -10.315   7.249   0.793  0.00  0.00    -0.294 OA
ATOM     22  C   UNL d   1     -12.021   5.610   0.568  0.00  0.00     0.096 C 
ENDBRANCH  19  20
BRANCH  18  23
ATOM     23  C   UNL d   1     -11.854   4.911  -2.473  0.00  0.00    -0.010 A 
ATOM     24  C   UNL d   1     -12.852   5.769  -2.948  0.00  0.00     0.013 A 
ATOM     25  C   UNL d   1     -14.182   5.337  -3.010  0.00  0.00     0.001 A 
ATOM     26  C   UNL d   1     -14.520   4.049  -2.593  0.00  0.00     0.000 A 
ATOM     27  C   UNL d   1     -13.527   3.173  -2.158  0.00  0.00     0.001 A 
ATOM     28  C   UNL d   1     -12.197   3.596  -2.121  0.00  0.00     0.013 A 
ENDBRANCH  18  23
ENDBRANCH  16  18
ENDBRANCH  15  16
ENDBRANCH   1  15
TORSDOF 9
