REMARK  2 active torsions:
REMARK  status: ('A' for Active; 'I' for Inactive)
REMARK    1  A    between atoms: C_13  and  N_4 
REMARK    2  A    between atoms: C_14  and  N_5 
ROOT
ATOM      1  C   UNL d   1      -0.344   0.705   0.036  0.00  0.00     0.081 A 
ATOM      2  C   UNL d   1      -0.269  -0.661  -0.014  0.00  0.00     0.090 A 
ATOM      3  C   UNL d   1       0.836   1.530   0.111  0.00  0.00     0.281 A 
ATOM      4  N   UNL d   1      -1.561  -1.130  -0.076  0.00  0.00    -0.255 N 
ATOM      5  N   UNL d   1       2.047   0.786   0.068  0.00  0.00    -0.220 N 
ATOM      6  N   UNL d   1       2.098  -0.624  -0.064  0.00  0.00    -0.300 N 
ATOM      7  HN  UNL d   1       2.998  -1.099  -0.136  1.00  0.00     0.186 HD
ATOM      8  N   UNL d   1      -2.444  -0.097  -0.204  0.00  0.00    -0.303 N 
ATOM      9  HN  UNL d   1      -3.449  -0.154  -0.367  1.00  0.00     0.186 HD
ATOM     10  C   UNL d   1       0.992  -1.309  -0.093  0.00  0.00     0.140 A 
ATOM     11  C   UNL d   1      -1.702   1.006  -0.070  0.00  0.00     0.127 A 
ATOM     12  O   UNL d   1       0.718   2.747   0.166  0.00  0.00    -0.265 OA
ENDROOT
BRANCH   4  13
ATOM     13  C   UNL d   1      -2.043  -2.464  -0.037  0.00  0.00     0.057 A 
ATOM     14  C   UNL d   1      -1.348  -3.474   0.639  0.00  0.00     0.031 A 
ATOM     15  C   UNL d   1      -1.861  -4.774   0.659  0.00  0.00     0.002 A 
ATOM     16  C   UNL d   1      -3.055  -5.071   0.002  0.00  0.00     0.000 A 
ATOM     17  C   UNL d   1      -3.756  -4.064  -0.659  0.00  0.00     0.002 A 
ATOM     18  C   UNL d   1      -3.263  -2.760  -0.664  0.00  0.00     0.031 A 
ENDBRANCH   4  13
BRANCH   5  19
ATOM     19  C   UNL d   1       3.343   1.403   0.133  0.00  0.00     0.060 A 
ATOM     20  C   UNL d   1       3.535   2.688   0.662  0.00  0.00     0.031 A 
ATOM     21  C   UNL d   1       4.808   3.266   0.725  0.00  0.00     0.002 A 
ATOM     22  C   UNL d   1       5.916   2.574   0.247  0.00  0.00     0.000 A 
ATOM     23  C   UNL d   1       5.752   1.300  -0.285  0.00  0.00     0.002 A 
ATOM     24  C   UNL d   1       4.480   0.717  -0.332  0.00  0.00     0.031 A 
ENDBRANCH   5  19
TORSDOF 2
