REMARK  3 active torsions:
REMARK  status: ('A' for Active; 'I' for Inactive)
REMARK    1  A    between atoms: C_4  and  C_1 
REMARK       I    between atoms: N_7  and  C_4 
REMARK    2  A    between atoms: C_8  and  N_7 
REMARK    3  A    between atoms: S_13  and  C_11 
ROOT
ATOM      1  C   UNL d   1       1.867  -4.884   0.853  0.00  0.00     0.258 C 
ATOM      2  N   UNL d   1       0.975  -4.024   0.251  0.00  0.00    -0.322 N 
ATOM      3  O   UNL d   1       1.648  -6.064   1.095  0.00  0.00    -0.267 OA
ATOM      4  H   UNL d   1       1.315  -3.115  -0.049  0.00  0.00     0.169 HD
ENDROOT
BRANCH   2   5
ATOM      5  C   UNL d   1      -0.380  -4.271  -0.067  0.00  0.00     0.051 A 
ATOM      6  C   UNL d   1      -1.041  -3.381  -0.941  0.00  0.00     0.026 A 
ATOM      7  C   UNL d   1      -2.406  -3.554  -1.212  0.00  0.00     0.021 A 
ATOM      8  C   UNL d   1      -3.113  -4.608  -0.635  0.00  0.00     0.002 A 
ATOM      9  C   UNL d   1      -2.461  -5.497   0.213  0.00  0.00     0.002 A 
ATOM     10  C   UNL d   1      -1.101  -5.332   0.494  0.00  0.00     0.031 A 
BRANCH   6  11
ATOM     11  S   UNL d   1      -0.204  -2.020  -1.764  0.00  0.00    -0.132 SA
ATOM     12  C   UNL d   1       0.922  -2.956  -2.840  0.00  0.00     0.095 C 
ENDBRANCH   6  11
ENDBRANCH   2   5
BRANCH   1  13
ATOM     13  C   UNL d   1       3.197  -4.326   1.129  0.00  0.00     0.063 A 
ATOM     14  C   UNL d   1       3.549  -3.001   1.304  0.00  0.00     0.091 A 
ATOM     15  S   UNL d   1       5.199  -2.761   1.640  0.00  0.00    -0.065 SA
ATOM     16 CL   UNL d   1       2.550  -1.597   1.256  0.00  0.00    -0.075 Cl
ATOM     17  C   UNL d   1       5.490  -4.422   1.579  0.00  0.00     0.077 A 
ATOM     18  C   UNL d   1       4.368  -5.157   1.306  0.00  0.00     0.050 A 
ATOM     19 CL   UNL d   1       7.072  -5.027   1.853  0.00  0.00    -0.076 Cl
ENDBRANCH   1  13
TORSDOF 3
