REMARK  3 active torsions:
REMARK  status: ('A' for Active; 'I' for Inactive)
REMARK    1  A    between atoms: C_7  and  N_1 
REMARK    2  A    between atoms: C_8  and  C_5 
REMARK    3  A    between atoms: O_10  and  C_8 
ROOT
ATOM      1  N   UNL d   1       1.026  -0.568  -0.072  0.00  0.00    -0.261 N 
ATOM      2  N   UNL d   1      -0.221  -1.076  -0.270  0.00  0.00    -0.304 N 
ATOM      3  HN  UNL d   1      -0.473  -2.046  -0.459  1.00  0.00     0.186 HD
ATOM      4  C   UNL d   1       0.986   0.820   0.027  0.00  0.00     0.040 A 
ATOM      5  C   UNL d   1      -0.355   1.182   0.007  0.00  0.00     0.006 A 
ATOM      6  C   UNL d   1      -1.038  -0.034  -0.163  0.00  0.00     0.119 A 
ATOM      7  C   UNL d   1       2.171   1.722   0.021  0.00  0.00     0.071 C 
ENDROOT
BRANCH   1   8
ATOM      8  C   UNL d   1       2.145  -1.447  -0.050  0.00  0.00     0.056 A 
ATOM      9  C   UNL d   1       2.086  -2.638  -0.790  0.00  0.00     0.031 A 
ATOM     10  C   UNL d   1       3.202  -3.473  -0.862  0.00  0.00     0.002 A 
ATOM     11  C   UNL d   1       4.364  -3.147  -0.165  0.00  0.00     0.000 A 
ATOM     12  C   UNL d   1       4.405  -1.997   0.623  0.00  0.00     0.002 A 
ATOM     13  C   UNL d   1       3.298  -1.148   0.685  0.00  0.00     0.031 A 
ENDBRANCH   1   8
BRANCH   5  14
ATOM     14  C   UNL d   1      -0.942   2.544   0.059  0.00  0.00     0.206 C 
BRANCH  14  15
ATOM     15  O   UNL d   1      -0.558   3.240   1.239  0.00  0.00    -0.396 OA
ATOM     16  H   UNL d   1      -0.783   2.658   1.987  0.00  0.00     0.209 HD
ENDBRANCH  14  15
ENDBRANCH   5  14
TORSDOF 3
