REMARK  5 active torsions:
REMARK  status: ('A' for Active; 'I' for Inactive)
REMARK    1  A    between atoms: C_3  and  C_1 
REMARK       I    between atoms: N_4  and  C_3 
REMARK    2  A    between atoms: C_8  and  N_4 
REMARK    3  A    between atoms: C_9  and  N_4 
REMARK    4  A    between atoms: C_15  and  C_8 
REMARK    5  A    between atoms: C_16  and  C_9 
ROOT
ATOM      1  C   UNL d   1       3.189  -1.578  -0.548  0.00  0.00     0.261 C 
ATOM      2  N   UNL d   1       3.689  -2.805  -0.094  0.00  0.00    -0.336 N 
ATOM      3  O   UNL d   1       3.936  -0.791  -1.134  0.00  0.00    -0.267 OA
ENDROOT
BRANCH   2   4
ATOM      4  C   UNL d   1       5.148  -2.975  -0.145  0.00  0.00     0.183 C 
BRANCH   4   5
ATOM      5  C   UNL d   1       5.769  -3.898   0.892  0.00  0.00     0.027 A 
ATOM      6  N   UNL d   1       5.244  -3.933   2.145  0.00  0.00    -0.368 N 
ATOM      7  C   UNL d   1       5.833  -4.749   3.048  0.00  0.00     0.088 A 
ATOM      8  HN  UNL d   1       4.435  -3.364   2.396  1.00  0.00     0.165 HD
ATOM      9  C   UNL d   1       6.927  -5.550   2.767  0.00  0.00     0.017 A 
ATOM     10  C   UNL d   1       7.470  -5.490   1.492  0.00  0.00     0.003 A 
ATOM     11  C   UNL d   1       6.896  -4.645   0.545  0.00  0.00     0.027 A 
ENDBRANCH   4   5
ENDBRANCH   2   4
BRANCH   2  12
ATOM     12  C   UNL d   1       2.847  -3.992   0.098  0.00  0.00     0.183 C 
BRANCH  12  13
ATOM     13  C   UNL d   1       3.223  -5.228  -0.697  0.00  0.00     0.027 A 
ATOM     14  N   UNL d   1       3.305  -5.112  -2.047  0.00  0.00    -0.368 N 
ATOM     15  C   UNL d   1       3.501  -6.245  -2.756  0.00  0.00     0.088 A 
ATOM     16  HN  UNL d   1       3.223  -4.206  -2.508  1.00  0.00     0.165 HD
ATOM     17  C   UNL d   1       3.621  -7.502  -2.187  0.00  0.00     0.017 A 
ATOM     18  C   UNL d   1       3.548  -7.605  -0.804  0.00  0.00     0.003 A 
ATOM     19  C   UNL d   1       3.345  -6.456  -0.046  0.00  0.00     0.027 A 
ENDBRANCH  12  13
ENDBRANCH   2  12
BRANCH   1  20
ATOM     20  C   UNL d   1       1.790  -1.211  -0.317  0.00  0.00     0.074 A 
ATOM     21  S   UNL d   1       0.944  -1.603   1.115  0.00  0.00    -0.084 SA
ATOM     22  C   UNL d   1      -0.480  -0.783   0.615  0.00  0.00     0.016 A 
ATOM     23  C   UNL d   1      -1.708  -0.720   1.302  0.00  0.00     0.019 A 
ATOM     24  C   UNL d   1      -0.282  -0.113  -0.593  0.00  0.00    -0.018 A 
ATOM     25  C   UNL d   1      -2.730   0.079   0.786  0.00  0.00     0.001 A 
ATOM     26  C   UNL d   1      -2.543   0.788  -0.392  0.00  0.00     0.001 A 
ATOM     27  C   UNL d   1      -1.336   0.690  -1.093  0.00  0.00     0.013 A 
ATOM     28  C   UNL d   1       1.029  -0.375  -1.115  0.00  0.00     0.037 A 
ENDBRANCH   1  20
TORSDOF 5
