REMARK  4 active torsions:
REMARK  status: ('A' for Active; 'I' for Inactive)
REMARK    1  A    between atoms: C_2  and  C_1 
REMARK       I    between atoms: N_7  and  C_2 
REMARK    2  A    between atoms: C_3  and  C_6 
REMARK    3  A    between atoms: C_4  and  C_5 
REMARK    4  A    between atoms: C_8  and  N_7 
ROOT
ATOM      1  C   UNL d   1      -7.277   0.605   0.162  0.00  0.00     0.050 A 
ATOM      2  C   UNL d   1      -7.003   2.810  -0.832  0.00  0.00     0.050 A 
ATOM      3  C   UNL d   1      -5.043   1.591  -0.024  0.00  0.00     0.036 A 
ATOM      4  C   UNL d   1      -7.824   1.734  -0.453  0.00  0.00     0.032 A 
ATOM      5  C   UNL d   1      -5.901   0.580   0.423  0.00  0.00     0.045 A 
ATOM      6  C   UNL d   1      -5.611   2.731  -0.606  0.00  0.00     0.045 A 
ENDROOT
BRANCH   3   7
ATOM      7  N   UNL d   1      -3.628   1.461   0.015  0.00  0.00    -0.326 N 
ATOM      8  C   UNL d   1      -2.967   0.252   0.167  0.00  0.00     0.231 C 
ATOM      9  O   UNL d   1      -3.529  -0.815   0.399  0.00  0.00    -0.272 OA
ATOM     10  H   UNL d   1      -3.090   2.260  -0.296  0.00  0.00     0.169 HD
BRANCH   8  11
ATOM     11  C   UNL d   1      -1.430   0.263   0.008  0.00  0.00     0.042 C 
ATOM     12  C   UNL d   1      -0.747   1.058   1.140  0.00  0.00     0.024 C 
ATOM     13  C   UNL d   1       0.787   0.956   1.010  0.00  0.00    -0.013 C 
ATOM     14  C   UNL d   1       1.220  -0.518   1.086  0.00  0.00     0.009 C 
ATOM     15  C   UNL d   1       1.222   1.531  -0.350  0.00  0.00     0.009 C 
ATOM     16  C   UNL d   1       0.574  -1.314  -0.056  0.00  0.00    -0.013 C 
ATOM     17  C   UNL d   1      -0.946  -1.214   0.083  0.00  0.00     0.024 C 
ATOM     18  C   UNL d   1       0.985  -0.724  -1.411  0.00  0.00     0.009 C 
ATOM     19  C   UNL d   1       0.552   0.749  -1.494  0.00  0.00    -0.013 C 
ATOM     20  C   UNL d   1      -0.981   0.847  -1.351  0.00  0.00     0.024 C 
ENDBRANCH   8  11
ENDBRANCH   3   7
BRANCH   1  21
ATOM     21  C   UNL d   1      -8.104  -0.616   0.487  0.00  0.00     0.417 C 
ATOM     22  F   UNL d   1      -9.355  -0.572  -0.051  0.00  0.00    -0.166 F 
ATOM     23  F   UNL d   1      -7.543  -1.764   0.016  0.00  0.00    -0.166 F 
ATOM     24  F   UNL d   1      -8.275  -0.798   1.824  0.00  0.00    -0.166 F 
ENDBRANCH   1  21
BRANCH   2  25
ATOM     25  C   UNL d   1      -7.599   4.011  -1.530  0.00  0.00     0.417 C 
ATOM     26  F   UNL d   1      -8.929   3.876  -1.803  0.00  0.00    -0.166 F 
ATOM     27  F   UNL d   1      -7.482   5.152  -0.799  0.00  0.00    -0.166 F 
ATOM     28  F   UNL d   1      -6.999   4.265  -2.725  0.00  0.00    -0.166 F 
ENDBRANCH   2  25
TORSDOF 4
