REMARK  5 active torsions:
REMARK  status: ('A' for Active; 'I' for Inactive)
REMARK    1  A    between atoms: N_5  and  C_4 
REMARK    2  A    between atoms: C_8  and  N_5 
REMARK    3  A    between atoms: C_7  and  C_8 
REMARK    4  A    between atoms: O_10  and  C_7 
REMARK    5  A    between atoms: O_11  and  C_7 
ROOT
ATOM      1  C   UNL d   1       2.086   0.993   1.802  0.00  0.00     0.092 A 
ATOM      2  C   UNL d   1       3.350   1.652   1.962  0.00  0.00     0.103 C 
ATOM      3  N   UNL d   1       4.375   2.191   2.063  0.00  0.00    -0.191 NA
ATOM      4  C   UNL d   1       1.034   1.640   1.105  0.00  0.00     0.050 A 
ATOM      5  C   UNL d   1       1.888  -0.285   2.355  0.00  0.00     0.057 A 
ATOM      6 CL   UNL d   1       3.125  -1.109   3.244  0.00  0.00    -0.083 Cl
ATOM      7  C   UNL d   1      -0.374  -0.317   1.534  0.00  0.00     0.004 A 
ATOM      8  C   UNL d   1      -0.188   0.958   0.994  0.00  0.00     0.031 A 
ATOM      9  C   UNL d   1       0.661  -0.935   2.221  0.00  0.00     0.025 A 
ENDROOT
BRANCH   4  10
ATOM     10  N   UNL d   1       1.185   2.963   0.662  0.00  0.00    -0.384 N 
ATOM     11  H   UNL d   1       2.078   3.159   0.203  0.00  0.00     0.159 HD
BRANCH  10  12
ATOM     12  C   UNL d   1       0.066   3.699   0.058  0.00  0.00     0.180 C 
BRANCH  12  13
ATOM     13  C   UNL d   1       0.371   5.213  -0.098  0.00  0.00     0.275 C 
BRANCH  13  14
ATOM     14  O   UNL d   1       1.330   5.413  -1.143  0.00  0.00    -0.364 OA
ATOM     15  C   UNL d   1       1.825   6.749  -1.146  0.00  0.00     0.204 C 
ENDBRANCH  13  14
BRANCH  13  16
ATOM     16  O   UNL d   1      -0.827   5.970  -0.315  0.00  0.00    -0.364 OA
ATOM     17  C   UNL d   1      -1.495   5.663  -1.531  0.00  0.00     0.204 C 
ENDBRANCH  13  16
ENDBRANCH  12  13
ENDBRANCH  10  12
ENDBRANCH   4  10
TORSDOF 5
