REMARK  6 active torsions:
REMARK  status: ('A' for Active; 'I' for Inactive)
REMARK    1  A    between atoms: C_19  and  C_4 
REMARK    2  A    between atoms: C_7  and  C_9 
REMARK    3  A    between atoms: C_8  and  C_10 
REMARK    4  A    between atoms: C_12  and  C_14 
REMARK    5  A    between atoms: C_14  and  O_18 
REMARK    6  A    between atoms: O_18  and  C_19 
ROOT
ATOM      1  C   UNL d   1       5.395   4.620  -3.001  0.00  0.00     0.049 A 
ATOM      2  C   UNL d   1       7.506   4.804  -1.781  0.00  0.00     0.049 A 
ATOM      3  C   UNL d   1       5.756   3.291  -0.985  0.00  0.00     0.041 A 
ATOM      4  C   UNL d   1       6.676   5.174  -2.852  0.00  0.00     0.032 A 
ATOM      5  C   UNL d   1       7.035   3.857  -0.853  0.00  0.00     0.033 A 
ATOM      6  C   UNL d   1       4.935   3.697  -2.046  0.00  0.00     0.033 A 
ENDROOT
BRANCH   3   7
ATOM      7  C   UNL d   1       5.365   2.180  -0.065  0.00  0.00     0.293 C 
ATOM      8  O   UNL d   1       6.125   1.702   0.757  0.00  0.00    -0.259 OA
BRANCH   7   9
ATOM      9  O   UNL d   1       4.126   1.730  -0.374  0.00  0.00    -0.312 OA
BRANCH   9  10
ATOM     10  C   UNL d   1       3.801   0.406   0.076  0.00  0.00     0.225 C 
BRANCH  10  11
ATOM     11  C   UNL d   1       2.679   0.492   1.070  0.00  0.00     0.015 A 
ATOM     12  S   UNL d   1       1.057   0.584   0.478  0.00  0.00    -0.084 SA
ATOM     13  C   UNL d   1       0.469   0.573   2.036  0.00  0.00     0.057 A 
ATOM     14  C   UNL d   1       1.414   0.503   2.993  0.00  0.00     0.001 A 
ATOM     15  S   UNL d   1      -1.098   0.636   2.604  0.00  0.00    -0.093 SA
ATOM     16  C   UNL d   1       2.741   0.456   2.474  0.00  0.00    -0.034 A 
ATOM     17  C   UNL d   1       0.878   0.487   4.313  0.00  0.00    -0.043 A 
ATOM     18  C   UNL d   1       4.045   0.376   3.194  0.00  0.00     0.050 C 
ATOM     19  C   UNL d   1       1.539   0.405   5.646  0.00  0.00     0.049 C 
ATOM     20  C   UNL d   1      -0.514   0.574   4.222  0.00  0.00     0.058 A 
ENDBRANCH  10  11
ENDBRANCH   9  10
ENDBRANCH   7   9
ENDBRANCH   3   7
BRANCH   2  21
ATOM     21  C   UNL d   1       8.899   5.380  -1.644  0.00  0.00     0.417 C 
ATOM     22  F   UNL d   1       9.222   6.249  -2.643  0.00  0.00    -0.166 F 
ATOM     23  F   UNL d   1       9.068   6.066  -0.483  0.00  0.00    -0.166 F 
ATOM     24  F   UNL d   1       9.861   4.418  -1.663  0.00  0.00    -0.166 F 
ENDBRANCH   2  21
BRANCH   1  25
ATOM     25  C   UNL d   1       4.529   4.952  -4.195  0.00  0.00     0.417 C 
ATOM     26  F   UNL d   1       5.134   5.783  -5.088  0.00  0.00    -0.166 F 
ATOM     27  F   UNL d   1       4.182   3.838  -4.898  0.00  0.00    -0.166 F 
ATOM     28  F   UNL d   1       3.364   5.556  -3.843  0.00  0.00    -0.166 F 
ENDBRANCH   1  25
TORSDOF 6
