REMARK  6 active torsions:
REMARK  status: ('A' for Active; 'I' for Inactive)
REMARK    1  A    between atoms: C_2  and  C_1 
REMARK       I    between atoms: N_6  and  C_2 
REMARK    2  A    between atoms: C_3  and  O_5 
REMARK       I    between atoms: N_9  and  C_3 
REMARK    3  A    between atoms: O_5  and  C_4 
REMARK    4  A    between atoms: C_11  and  N_6 
REMARK    5  A    between atoms: C_23  and  N_9 
REMARK    6  A    between atoms: C_24  and  N_9 
ROOT
ATOM      1  C   UNL d   1       2.373  -1.027  -0.724  0.00  0.00     0.067 C 
ATOM      2  C   UNL d   1       2.660  -0.363   0.484  0.00  0.00     0.096 C 
ATOM      3  C   UNL d   1       1.152  -0.759  -1.344  0.00  0.00     0.039 C 
ATOM      4  C   UNL d   1       1.912   0.729   0.927  0.00  0.00     0.040 C 
ATOM      5  C   UNL d   1       0.317   0.231  -0.807  0.00  0.00     0.012 C 
ATOM      6  C   UNL d   1       0.725   1.024   0.272  0.00  0.00     0.022 C 
ATOM      7 BR   UNL d   1      -1.423   0.471  -1.512  0.00  0.00    -0.051 Br
ENDROOT
BRANCH   1   8
ATOM      8  C   UNL d   1       3.416  -1.911  -1.292  0.00  0.00     0.259 C 
ATOM      9  N   UNL d   1       3.000  -3.029  -2.009  0.00  0.00    -0.323 N 
ATOM     10  H   UNL d   1       2.016  -3.257  -1.978  0.00  0.00     0.169 HD
ATOM     11  O   UNL d   1       4.584  -1.591  -1.103  0.00  0.00    -0.267 OA
BRANCH   9  12
ATOM     12  C   UNL d   1       3.855  -3.958  -2.652  0.00  0.00     0.036 A 
ATOM     13  C   UNL d   1       5.240  -3.786  -2.793  0.00  0.00     0.056 A 
ATOM     14  C   UNL d   1       6.025  -4.768  -3.405  0.00  0.00     0.074 A 
ATOM     15 CL   UNL d   1       7.727  -4.534  -3.538  0.00  0.00    -0.081 Cl
ATOM     16  C   UNL d   1       5.430  -5.923  -3.897  0.00  0.00     0.138 A 
ATOM     17  C   UNL d   1       4.056  -6.101  -3.792  0.00  0.00     0.046 A 
ATOM     18  F   UNL d   1       6.166  -6.883  -4.477  0.00  0.00    -0.204 F 
ATOM     19  C   UNL d   1       3.270  -5.121  -3.175  0.00  0.00     0.032 A 
ENDBRANCH   9  12
ENDBRANCH   1   8
BRANCH   2  20
ATOM     20  O   UNL d   1       3.507  -0.965   1.424  0.00  0.00    -0.260 OA
BRANCH  20  21
ATOM     21  C   UNL d   1       2.772  -1.961   2.084  0.00  0.00     0.368 C 
ATOM     22  N   UNL d   1       3.461  -2.571   3.119  0.00  0.00    -0.328 N 
ATOM     23  O   UNL d   1       1.613  -2.269   1.806  0.00  0.00    -0.238 OA
BRANCH  22  24
ATOM     24  C   UNL d   1       2.738  -3.510   3.974  0.00  0.00     0.123 C 
ATOM     25  C   UNL d   1       2.992  -4.966   3.626  0.00  0.00     0.026 C 
ENDBRANCH  22  24
BRANCH  22  26
ATOM     26  C   UNL d   1       4.889  -2.373   3.335  0.00  0.00     0.123 C 
ATOM     27  C   UNL d   1       5.745  -3.084   2.297  0.00  0.00     0.026 C 
ENDBRANCH  22  26
ENDBRANCH  20  21
ENDBRANCH   2  20
TORSDOF 6
