REMARK  3 active torsions:
REMARK  status: ('A' for Active; 'I' for Inactive)
REMARK    1  A    between atoms: S_6  and  C_1 
REMARK    2  A    between atoms: C_9  and  C_5 
REMARK    3  A    between atoms: O_19  and  C_16 
ROOT
ATOM      1  C   UNL d   1      -0.186  -1.316  -0.324  0.00  0.00     0.122 A 
ATOM      2  C   UNL d   1       1.041  -0.686  -0.419  0.00  0.00     0.086 A 
ATOM      3  S   UNL d   1      -1.348  -0.292   0.395  0.00  0.00    -0.068 SA
ATOM      4  C   UNL d   1      -0.259   1.011   0.473  0.00  0.00     0.065 A 
ATOM      5  C   UNL d   1       1.015   0.700   0.026  0.00  0.00     0.021 A 
ATOM      6  C   UNL d   1       2.199  -1.365  -0.941  0.00  0.00     0.102 C 
ATOM      7  N   UNL d   1       3.161  -1.860  -1.366  0.00  0.00    -0.191 NA
ATOM      8 BR   UNL d   1      -0.898   2.680   1.078  0.00  0.00    -0.042 Br
ENDROOT
BRANCH   1   9
ATOM      9  S   UNL d   1      -0.780  -2.913  -0.830  0.00  0.00     0.179 S 
ATOM     10  O   UNL d   1      -1.927  -2.649  -1.672  0.00  0.00    -0.222 OA
ATOM     11  O   UNL d   1       0.386  -3.611  -1.330  0.00  0.00    -0.222 OA
ATOM     12  C   UNL d   1      -1.309  -3.712   0.660  0.00  0.00     0.167 C 
ENDBRANCH   1   9
BRANCH   5  13
ATOM     13  C   UNL d   1       2.142   1.651  -0.047  0.00  0.00    -0.022 A 
ATOM     14  C   UNL d   1       2.979   1.648  -1.174  0.00  0.00     0.015 A 
ATOM     15  C   UNL d   1       4.114   2.464  -1.248  0.00  0.00     0.037 A 
ATOM     16  C   UNL d   1       4.407   3.351  -0.219  0.00  0.00     0.068 A 
ATOM     17  C   UNL d   1       3.558   3.402   0.887  0.00  0.00     0.037 A 
ATOM     18  C   UNL d   1       2.455   2.541   0.988  0.00  0.00     0.015 A 
BRANCH  16  19
ATOM     19  O   UNL d   1       5.476   4.202  -0.176  0.00  0.00    -0.356 OA
ATOM     20  C   UNL d   1       6.412   4.099  -1.244  0.00  0.00     0.210 C 
ENDBRANCH  16  19
ENDBRANCH   5  13
TORSDOF 3
