REMARK  3 active torsions:
REMARK  status: ('A' for Active; 'I' for Inactive)
REMARK    1  A    between atoms: C_10  and  N_3 
REMARK    2  A    between atoms: C_11  and  N_4 
REMARK    3  A    between atoms: C_9  and  C_7 
ROOT
ATOM      1  C   UNL d   1      -1.349   0.012   0.007  0.00  0.00     0.196 C 
ATOM      2  C   UNL d   1       1.532  -0.091   0.081  0.00  0.00     0.104 C 
ATOM      3  N   UNL d   1      -0.622  -1.208   0.051  0.00  0.00    -0.254 N 
ATOM      4  N   UNL d   1      -0.546   1.182  -0.127  0.00  0.00    -0.254 N 
ATOM      5  C   UNL d   1       0.852   1.218  -0.032  0.00  0.00     0.270 C 
ATOM      6  C   UNL d   1       0.766  -1.348  -0.030  0.00  0.00     0.270 C 
ATOM      7  C   UNL d   1       2.872  -0.034   0.239  0.00  0.00     0.060 C 
ATOM      8  S   UNL d   1      -3.050   0.062   0.187  0.00  0.00    -0.039 SA
ATOM      9  O   UNL d   1       1.322  -2.428  -0.221  0.00  0.00    -0.266 OA
ATOM     10  O   UNL d   1       1.523   2.250  -0.074  0.00  0.00    -0.266 OA
ENDROOT
BRANCH   7  11
ATOM     11  C   UNL d   1       3.712  -1.172   0.340  0.00  0.00     0.076 A 
ATOM     12  O   UNL d   1       3.985  -1.802   1.530  0.00  0.00    -0.323 OA
ATOM     13  C   UNL d   1       4.796  -2.857   1.269  0.00  0.00     0.142 A 
ATOM     14  C   UNL d   1       5.083  -2.925  -0.070  0.00  0.00     0.027 A 
ATOM     15  C   UNL d   1       4.407  -1.834  -0.664  0.00  0.00     0.039 A 
ENDBRANCH   7  11
BRANCH   4  16
ATOM     16  C   UNL d   1      -1.169   2.467  -0.348  0.00  0.00     0.045 A 
ATOM     17  C   UNL d   1      -1.952   2.696  -1.491  0.00  0.00     0.030 A 
ATOM     18  C   UNL d   1      -2.524   3.950  -1.716  0.00  0.00     0.002 A 
ATOM     19  C   UNL d   1      -2.317   4.987  -0.807  0.00  0.00     0.000 A 
ATOM     20  C   UNL d   1      -1.534   4.774   0.325  0.00  0.00     0.002 A 
ATOM     21  C   UNL d   1      -0.957   3.523   0.551  0.00  0.00     0.030 A 
ENDBRANCH   4  16
BRANCH   3  22
ATOM     22  C   UNL d   1      -1.330  -2.454   0.068  0.00  0.00     0.045 A 
ATOM     23  C   UNL d   1      -1.545  -3.116   1.283  0.00  0.00     0.030 A 
ATOM     24  C   UNL d   1      -2.222  -4.337   1.296  0.00  0.00     0.002 A 
ATOM     25  C   UNL d   1      -2.667  -4.903   0.100  0.00  0.00     0.000 A 
ATOM     26  C   UNL d   1      -2.435  -4.252  -1.113  0.00  0.00     0.002 A 
ATOM     27  C   UNL d   1      -1.766  -3.028  -1.133  0.00  0.00     0.030 A 
ENDBRANCH   3  22
TORSDOF 3
