REMARK  3 active torsions:
REMARK  status: ('A' for Active; 'I' for Inactive)
REMARK       I    between atoms: N_2  and  C_1 
REMARK    1  A    between atoms: O_3  and  C_1 
REMARK    2  A    between atoms: C_6  and  N_2 
REMARK    3  A    between atoms: C_7  and  O_3 
ROOT
ATOM      1  C   UNL d   1       1.138  -0.049  -0.011  0.00  0.00     0.365 C 
ATOM      2  N   UNL d   1       0.648   0.000   1.264  0.00  0.00    -0.303 N 
ATOM      3  O   UNL d   1       2.273   0.191  -0.389  0.00  0.00    -0.238 OA
ATOM      4  H   UNL d   1      -0.330  -0.241   1.338  0.00  0.00     0.171 HD
ENDROOT
BRANCH   1   5
ATOM      5  O   UNL d   1       0.134  -0.442  -0.848  0.00  0.00    -0.298 OA
BRANCH   5   6
ATOM      6  C   UNL d   1       0.530  -0.676  -2.217  0.00  0.00     0.143 C 
ATOM      7  C   UNL d   1       0.451   0.604  -3.045  0.00  0.00     0.043 C 
ATOM      8  C   UNL d   1      -1.019   0.900  -3.296  0.00  0.00     0.076 C 
ATOM      9  S   UNL d   1      -1.795  -0.713  -3.565  0.00  0.00    -0.166 SA
ATOM     10  C   UNL d   1      -0.426  -1.680  -2.858  0.00  0.00     0.106 C 
ENDBRANCH   5   6
ENDBRANCH   1   5
BRANCH   2  11
ATOM     11  C   UNL d   1       1.341   0.315   2.450  0.00  0.00     0.036 A 
ATOM     12  C   UNL d   1       2.698   0.645   2.493  0.00  0.00     0.029 A 
ATOM     13  C   UNL d   1       3.317   0.953   3.709  0.00  0.00     0.002 A 
ATOM     14  C   UNL d   1       2.587   0.933   4.894  0.00  0.00     0.000 A 
ATOM     15  C   UNL d   1       1.236   0.599   4.864  0.00  0.00     0.002 A 
ATOM     16  C   UNL d   1       0.617   0.290   3.649  0.00  0.00     0.029 A 
ENDBRANCH   2  11
TORSDOF 3
