REMARK  8 active torsions:
REMARK  status: ('A' for Active; 'I' for Inactive)
REMARK    1  A    between atoms: C_10  and  C_3 
REMARK    2  A    between atoms: C_12  and  C_4 
REMARK    3  A    between atoms: C_7  and  C_22 
REMARK       I    between atoms: N_11  and  C_7 
REMARK    4  A    between atoms: N_8  and  N_11 
REMARK    5  A    between atoms: C_24  and  C_12 
REMARK    6  A    between atoms: C_23  and  C_16 
REMARK    7  A    between atoms: S_20  and  C_24 
REMARK    8  A    between atoms: C_22  and  S_20 
ROOT
ATOM      1  S   UNL d   1       0.927  -5.141   0.423  0.00  0.00    -0.159 SA
ENDROOT
BRANCH   1   2
ATOM      2  C   UNL d   1       1.378  -3.393   0.073  0.00  0.00     0.081 C 
BRANCH   2   3
ATOM      3  C   UNL d   1       0.085  -2.586  -0.030  0.00  0.00     0.075 C 
BRANCH   3   4
ATOM      4  C   UNL d   1       0.305  -1.135  -0.335  0.00  0.00     0.051 A 
ATOM      5  N   UNL d   1       1.334  -0.418   0.064  0.00  0.00    -0.353 N 
ATOM      6  C   UNL d   1       1.173   0.908  -0.323  0.00  0.00     0.049 A 
ATOM      7  HN  UNL d   1       2.135  -0.782   0.581  1.00  0.00     0.166 HD
ATOM      8  C   UNL d   1       0.003   1.174  -1.006  0.00  0.00     0.081 A 
ATOM      9  S   UNL d   1      -0.910  -0.263  -1.191  0.00  0.00    -0.086 SA
BRANCH   6  10
ATOM     10  C   UNL d   1       2.158   1.923   0.034  0.00  0.00    -0.009 A 
ATOM     11  C   UNL d   1       2.367   3.068  -0.750  0.00  0.00     0.015 A 
ATOM     12  C   UNL d   1       3.315   4.025  -0.371  0.00  0.00     0.024 A 
ATOM     13  C   UNL d   1       4.059   3.841   0.793  0.00  0.00     0.034 A 
ATOM     14  C   UNL d   1       3.867   2.709   1.580  0.00  0.00     0.024 A 
ATOM     15 CL   UNL d   1       5.222   5.020   1.260  0.00  0.00    -0.084 Cl
ATOM     16  C   UNL d   1       2.922   1.752   1.198  0.00  0.00     0.015 A 
ENDBRANCH   6  10
ENDBRANCH   3   4
ENDBRANCH   2   3
ENDBRANCH   1   2
BRANCH   1  17
ATOM     17  C   UNL d   1       2.597  -5.857   0.553  0.00  0.00     0.178 C 
BRANCH  17  18
ATOM     18  C   UNL d   1       2.622  -7.356   0.820  0.00  0.00     0.245 C 
ATOM     19  N   UNL d   1       1.403  -7.965   1.074  0.00  0.00    -0.270 N 
ATOM     20  H   UNL d   1       0.547  -7.418   1.027  0.00  0.00     0.190 HD
ATOM     21  O   UNL d   1       3.705  -7.953   0.817  0.00  0.00    -0.271 OA
BRANCH  19  22
ATOM     22  N   UNL d   1       1.356  -9.319   1.222  0.00  0.00    -0.308 N 
ATOM     23  C   UNL d   1       0.203  -9.867   1.422  0.00  0.00     0.118 C 
ATOM     24  HN  UNL d   1       2.205  -9.882   1.177  1.00  0.00     0.186 HD
BRANCH  23  25
ATOM     25  C   UNL d   1       0.084 -11.341   1.533  0.00  0.00    -0.019 A 
ATOM     26  C   UNL d   1       1.228 -12.143   1.429  0.00  0.00     0.013 A 
ATOM     27  C   UNL d   1       1.116 -13.533   1.488  0.00  0.00     0.001 A 
ATOM     28  C   UNL d   1      -0.136 -14.123   1.652  0.00  0.00     0.000 A 
ATOM     29  C   UNL d   1      -1.276 -13.326   1.766  0.00  0.00     0.001 A 
ATOM     30  C   UNL d   1      -1.170 -11.931   1.708  0.00  0.00     0.013 A 
ENDBRANCH  23  25
ENDBRANCH  19  22
ENDBRANCH  17  18
ENDBRANCH   1  17
TORSDOF 8
