REMARK  3 active torsions:
REMARK  status: ('A' for Active; 'I' for Inactive)
REMARK    1  A    between atoms: N_2  and  S_1 
REMARK    2  A    between atoms: C_4  and  S_1 
REMARK    3  A    between atoms: N_12  and  C_6 
ROOT
ATOM      1  S   UNL d   1       0.970   0.015   0.009  0.00  0.00     0.263 S 
ATOM      2  O   UNL d   1       0.344  -0.471  -1.205  0.00  0.00    -0.200 OA
ATOM      3  O   UNL d   1       2.416   0.045   0.120  0.00  0.00    -0.200 OA
ENDROOT
BRANCH   1   4
ATOM      4  N   UNL d   1       0.346  -0.763   1.288  0.00  0.00    -0.277 N 
ATOM      5  C   UNL d   1       0.615  -2.022   1.364  0.00  0.00     0.188 C 
ATOM      6  HN  UNL d   1      -0.222  -0.287   1.988  1.00  0.00     0.179 HD
BRANCH   5   7
ATOM      7  N   UNL d   1       0.202  -2.888   2.353  0.00  0.00    -0.385 N 
ATOM      8  C   UNL d   1       0.560  -4.298   2.346  0.00  0.00     0.149 C 
ATOM      9  C   UNL d   1      -0.622  -2.452   3.469  0.00  0.00     0.149 C 
ENDBRANCH   5   7
ENDBRANCH   1   4
BRANCH   1  10
ATOM     10  C   UNL d   1       0.404   1.694   0.239  0.00  0.00     0.081 A 
ATOM     11  C   UNL d   1      -0.808   2.096  -0.331  0.00  0.00     0.050 A 
ATOM     12  C   UNL d   1      -1.231   3.421  -0.189  0.00  0.00     0.057 A 
ATOM     13 CL   UNL d   1      -2.741   3.862  -0.903  0.00  0.00    -0.083 Cl
ATOM     14  C   UNL d   1      -0.438   4.340   0.513  0.00  0.00     0.055 A 
ATOM     15  C   UNL d   1       0.777   3.929   1.073  0.00  0.00     0.027 A 
ATOM     16 CL   UNL d   1      -0.897   5.994   0.717  0.00  0.00    -0.083 Cl
ATOM     17  C   UNL d   1       1.204   2.606   0.935  0.00  0.00     0.027 A 
ENDBRANCH   1  10
TORSDOF 3
