REMARK  6 active torsions:
REMARK  status: ('A' for Active; 'I' for Inactive)
REMARK    1  A    between atoms: C_4  and  C_1 
REMARK    2  A    between atoms: C_2  and  C_6 
REMARK    3  A    between atoms: C_3  and  C_5 
REMARK       I    between atoms: N_9  and  C_4 
REMARK    4  A    between atoms: N_15  and  C_7 
REMARK    5  A    between atoms: C_14  and  N_9 
REMARK    6  A    between atoms: C_16  and  N_15 
ROOT
ATOM      1  C   UNL d   1       0.834  -0.038   0.200  0.00  0.00     0.127 C 
ATOM      2  C   UNL d   1       0.055  -0.066  -0.900  0.00  0.00     0.116 C 
ATOM      3  C   UNL d   1       0.290   0.017   1.509  0.00  0.00     0.106 C 
ATOM      4  N   UNL d   1      -0.109   0.053   2.595  0.00  0.00    -0.191 NA
ENDROOT
BRANCH   1   5
ATOM      5  C   UNL d   1       2.325  -0.091  -0.021  0.00  0.00     0.268 C 
ATOM      6  N   UNL d   1       3.118   0.026   1.111  0.00  0.00    -0.322 N 
ATOM      7  H   UNL d   1       2.667   0.092   2.018  0.00  0.00     0.169 HD
ATOM      8  O   UNL d   1       2.759  -0.227  -1.163  0.00  0.00    -0.266 OA
BRANCH   6   9
ATOM      9  C   UNL d   1       4.536   0.001   1.154  0.00  0.00     0.036 A 
ATOM     10  C   UNL d   1       5.357  -0.064   0.022  0.00  0.00     0.056 A 
ATOM     11  C   UNL d   1       6.747  -0.159   0.156  0.00  0.00     0.074 A 
ATOM     12 CL   UNL d   1       7.729  -0.271  -1.256  0.00  0.00    -0.081 Cl
ATOM     13  C   UNL d   1       7.325  -0.175   1.420  0.00  0.00     0.138 A 
ATOM     14  C   UNL d   1       6.529  -0.069   2.554  0.00  0.00     0.046 A 
ATOM     15  F   UNL d   1       8.652  -0.294   1.569  0.00  0.00    -0.204 F 
ATOM     16  C   UNL d   1       5.139   0.024   2.422  0.00  0.00     0.032 A 
ENDBRANCH   6   9
ENDBRANCH   1   5
BRANCH   2  17
ATOM     17  N   UNL d   1      -1.313   0.042  -1.045  0.00  0.00    -0.364 N 
ATOM     18  H   UNL d   1      -1.851   0.339  -0.235  0.00  0.00     0.165 HD
BRANCH  17  19
ATOM     19  C   UNL d   1      -2.066  -0.236  -2.204  0.00  0.00     0.033 A 
ATOM     20  C   UNL d   1      -1.590  -1.061  -3.234  0.00  0.00     0.045 A 
ATOM     21  C   UNL d   1      -2.338  -1.295  -4.401  0.00  0.00     0.050 A 
ATOM     22  C   UNL d   1      -3.576  -0.659  -4.552  0.00  0.00     0.032 A 
ATOM     23  C   UNL d   1      -4.079   0.178  -3.546  0.00  0.00     0.050 A 
ATOM     24  C   UNL d   1      -3.312   0.382  -2.381  0.00  0.00     0.045 A 
BRANCH  21  25
ATOM     25  C   UNL d   1      -1.812  -2.244  -5.452  0.00  0.00     0.417 C 
ATOM     26  F   UNL d   1      -2.657  -2.403  -6.509  0.00  0.00    -0.166 F 
ATOM     27  F   UNL d   1      -0.626  -1.836  -5.979  0.00  0.00    -0.166 F 
ATOM     28  F   UNL d   1      -1.597  -3.493  -4.957  0.00  0.00    -0.166 F 
ENDBRANCH  21  25
BRANCH  23  29
ATOM     29  C   UNL d   1      -5.431   0.837  -3.694  0.00  0.00     0.417 C 
ATOM     30  F   UNL d   1      -6.055   0.535  -4.866  0.00  0.00    -0.166 F 
ATOM     31  F   UNL d   1      -6.294   0.469  -2.708  0.00  0.00    -0.166 F 
ATOM     32  F   UNL d   1      -5.360   2.195  -3.646  0.00  0.00    -0.166 F 
ENDBRANCH  23  29
ENDBRANCH  17  19
ENDBRANCH   2  17
TORSDOF 6
