REMARK  3 active torsions:
REMARK  status: ('A' for Active; 'I' for Inactive)
REMARK    1  A    between atoms: C_7  and  C_1 
REMARK    2  A    between atoms: C_5  and  C_8 
REMARK    3  A    between atoms: C_10  and  C_6 
ROOT
ATOM      1  C   UNL d   1      -0.198   0.994  -0.094  0.00  0.00     0.159 A 
ATOM      2  N   UNL d   1      -1.276   0.285  -0.352  0.00  0.00    -0.343 N 
ATOM      3  HN  UNL d   1      -2.230   0.618  -0.490  1.00  0.00     0.167 HD
ATOM      4  O   UNL d   1       0.954   0.255  -0.003  0.00  0.00    -0.291 OA
ATOM      5  C   UNL d   1       0.547  -1.042  -0.191  0.00  0.00     0.103 A 
ATOM      6  C   UNL d   1      -0.816  -1.007  -0.394  0.00  0.00     0.128 A 
ENDROOT
BRANCH   1   7
ATOM      7  C   UNL d   1      -0.059   2.436   0.084  0.00  0.00     0.030 A 
ATOM      8  C   UNL d   1      -1.025   3.221   0.745  0.00  0.00     0.062 A 
ATOM      9  C   UNL d   1      -0.849   4.623   0.792  0.00  0.00     0.017 A 
ATOM     10  C   UNL d   1       0.269   5.237   0.231  0.00  0.00     0.001 A 
ATOM     11  C   UNL d   1       1.237   4.459  -0.391  0.00  0.00     0.001 A 
ATOM     12  C   UNL d   1       1.073   3.075  -0.464  0.00  0.00     0.016 A 
BRANCH   8  13
ATOM     13  C   UNL d   1      -2.261   2.663   1.419  0.00  0.00     0.418 C 
ATOM     14  F   UNL d   1      -2.220   1.353   1.771  0.00  0.00    -0.166 F 
ATOM     15  F   UNL d   1      -2.518   3.318   2.594  0.00  0.00    -0.166 F 
ATOM     16  F   UNL d   1      -3.384   2.836   0.667  0.00  0.00    -0.166 F 
ENDBRANCH   8  13
ENDBRANCH   1   7
BRANCH   5  17
ATOM     17  C   UNL d   1       1.564  -2.086  -0.146  0.00  0.00    -0.001 A 
ATOM     18  C   UNL d   1       2.927  -1.777  -0.021  0.00  0.00     0.014 A 
ATOM     19  C   UNL d   1       3.894  -2.786  -0.010  0.00  0.00     0.001 A 
ATOM     20  C   UNL d   1       3.511  -4.123  -0.118  0.00  0.00     0.000 A 
ATOM     21  C   UNL d   1       2.162  -4.447  -0.231  0.00  0.00     0.001 A 
ATOM     22  C   UNL d   1       1.197  -3.436  -0.243  0.00  0.00     0.014 A 
ENDBRANCH   5  17
TORSDOF 3
