REMARK  2 active torsions:
REMARK  status: ('A' for Active; 'I' for Inactive)
REMARK    1  A    between atoms: N_5  and  C_1 
REMARK       I    between atoms: C_6  and  N_5 
REMARK    2  A    between atoms: C_10  and  C_6 
ROOT
ATOM      1  N   UNL d   1      -2.418  -1.691   0.023  0.00  0.00    -0.307 N 
ATOM      2  C   UNL d   1      -2.377  -3.070   0.135  0.00  0.00     0.257 C 
ATOM      3  O   UNL d   1      -1.375  -3.751   0.318  0.00  0.00    -0.267 OA
ATOM      4  H   UNL d   1      -3.301  -1.210  -0.029  0.00  0.00     0.170 HD
ENDROOT
BRANCH   1   5
ATOM      5  C   UNL d   1      -1.280  -0.897   0.049  0.00  0.00     0.130 A 
ATOM      6  N   UNL d   1      -0.024  -1.345   0.139  0.00  0.00    -0.245 N 
ATOM      7  O   UNL d   1       0.795  -0.242   0.129  0.00  0.00    -0.241 OA
ATOM      8  HN  UNL d   1       0.270  -2.320   0.202  1.00  0.00     0.196 HD
ATOM      9  C   UNL d   1       0.039   0.879   0.027  0.00  0.00     0.076 A 
ATOM     10  C   UNL d   1      -1.287   0.520  -0.027  0.00  0.00     0.084 A 
ATOM     11  C   UNL d   1       0.783   2.150  -0.002  0.00  0.00     0.079 C 
ENDBRANCH   1   5
BRANCH   2  12
ATOM     12  C   UNL d   1      -3.682  -3.792   0.049  0.00  0.00     0.032 A 
ATOM     13  C   UNL d   1      -4.794  -3.299  -0.644  0.00  0.00     0.017 A 
ATOM     14  C   UNL d   1      -5.957  -4.073  -0.736  0.00  0.00     0.001 A 
ATOM     15  C   UNL d   1      -6.014  -5.336  -0.145  0.00  0.00     0.000 A 
ATOM     16  C   UNL d   1      -4.912  -5.832   0.545  0.00  0.00     0.001 A 
ATOM     17  C   UNL d   1      -3.752  -5.063   0.641  0.00  0.00     0.017 A 
ENDBRANCH   2  12
TORSDOF 2
