REMARK  3 active torsions:
REMARK  status: ('A' for Active; 'I' for Inactive)
REMARK    1  A    between atoms: N_2  and  S_1 
REMARK    2  A    between atoms: C_7  and  S_1 
REMARK    3  A    between atoms: C_16  and  C_6 
ROOT
ATOM      1  N   UNL d   1       0.480  -0.049  -1.617  0.00  0.00    -0.187 N 
ATOM      2  N   UNL d   1       0.074   1.060  -2.286  0.00  0.00    -0.288 N 
ATOM      3  HN  UNL d   1       0.058   2.024  -1.953  1.00  0.00     0.188 HD
ATOM      4  C   UNL d   1       0.186  -1.206  -2.299  0.00  0.00     0.143 C 
ATOM      5  C   UNL d   1      -0.269  -0.831  -3.547  0.00  0.00     0.016 C 
ATOM      6  C   UNL d   1      -0.302   0.595  -3.488  0.00  0.00     0.035 C 
ATOM      7  C   UNL d   1      -0.651   1.564  -4.561  0.00  0.00     0.070 C 
ENDROOT
BRANCH   1   8
ATOM      8  S   UNL d   1       1.207  -0.086  -0.040  0.00  0.00     0.282 S 
ATOM      9  O   UNL d   1       2.073   1.074   0.052  0.00  0.00    -0.198 OA
ATOM     10  O   UNL d   1       1.750  -1.425   0.107  0.00  0.00    -0.198 OA
BRANCH   8  11
ATOM     11  C   UNL d   1      -0.168   0.078   1.089  0.00  0.00     0.088 A 
ATOM     12  C   UNL d   1      -0.747  -1.125   1.544  0.00  0.00     0.034 A 
ATOM     13  C   UNL d   1      -1.767  -1.131   2.508  0.00  0.00    -0.039 A 
ATOM     14  C   UNL d   1      -2.378  -2.435   2.936  0.00  0.00     0.050 C 
ATOM     15  C   UNL d   1      -2.185   0.094   3.038  0.00  0.00     0.040 A 
ATOM     16  C   UNL d   1      -1.614   1.290   2.592  0.00  0.00     0.032 A 
ATOM     17 CL   UNL d   1      -3.408   0.183   4.254  0.00  0.00    -0.084 Cl
ATOM     18  C   UNL d   1      -0.616   1.309   1.597  0.00  0.00    -0.037 A 
ATOM     19  C   UNL d   1      -0.084   2.660   1.204  0.00  0.00     0.050 C 
ENDBRANCH   8  11
ENDBRANCH   1   8
BRANCH   5  20
ATOM     20  C   UNL d   1      -0.577  -1.783  -4.612  0.00  0.00    -0.023 A 
ATOM     21  C   UNL d   1      -1.581  -1.521  -5.554  0.00  0.00     0.012 A 
ATOM     22  C   UNL d   1      -1.863  -2.434  -6.577  0.00  0.00     0.001 A 
ATOM     23  C   UNL d   1      -1.153  -3.628  -6.665  0.00  0.00     0.000 A 
ATOM     24  C   UNL d   1      -0.158  -3.909  -5.735  0.00  0.00     0.001 A 
ATOM     25  C   UNL d   1       0.131  -2.991  -4.718  0.00  0.00     0.012 A 
ENDBRANCH   5  20
TORSDOF 3
