REMARK  2 active torsions:
REMARK  status: ('A' for Active; 'I' for Inactive)
REMARK    1  A    between atoms: C_5  and  C_1 
REMARK    2  A    between atoms: N_4  and  C_8 
ROOT
ATOM      1  C   UNL d   1       2.093   0.007  -0.152  0.00  0.00     0.170 A 
ATOM      2  C   UNL d   1       1.144   1.198  -0.246  0.00  0.00     0.176 A 
ATOM      3  C   UNL d   1       1.134  -1.177  -0.084  0.00  0.00     0.176 A 
ATOM      4  C   UNL d   1      -0.239  -0.674  -0.153  0.00  0.00     0.025 A 
ATOM      5  C   UNL d   1      -0.232   0.710  -0.222  0.00  0.00     0.025 A 
ATOM      6  O   UNL d   1       1.435   2.381  -0.306  0.00  0.00    -0.291 OA
ATOM      7  O   UNL d   1       1.406  -2.355   0.056  0.00  0.00    -0.291 OA
ATOM      8  C   UNL d   1      -1.401   1.449  -0.213  0.00  0.00     0.016 A 
ATOM      9  C   UNL d   1      -1.422  -1.389  -0.100  0.00  0.00     0.016 A 
ATOM     10  C   UNL d   1      -2.606   0.746  -0.142  0.00  0.00     0.001 A 
ATOM     11  C   UNL d   1      -2.617  -0.662  -0.094  0.00  0.00     0.001 A 
ENDROOT
BRANCH   1  12
ATOM     12  C   UNL d   1       3.050   0.050   1.032  0.00  0.00    -0.006 A 
ATOM     13  C   UNL d   1       4.311  -0.599   1.079  0.00  0.00     0.110 A 
ATOM     14  C   UNL d   1       5.132  -0.476   2.223  0.00  0.00     0.037 A 
ATOM     15  C   UNL d   1       4.716   0.262   3.329  0.00  0.00     0.002 A 
ATOM     16  C   UNL d   1       3.471   0.867   3.318  0.00  0.00     0.001 A 
ATOM     17  C   UNL d   1       2.648   0.755   2.195  0.00  0.00     0.011 A 
BRANCH  13  18
ATOM     18  N   UNL d   1       4.854  -1.425  -0.027  0.00  0.00    -0.115 N 
ATOM     19  O   UNL d   1       4.191  -1.549  -1.063  0.00  0.00    -0.532 OA
ATOM     20  O   UNL d   1       5.969  -1.944   0.137  0.00  0.00    -0.532 OA
ENDBRANCH  13  18
ENDBRANCH   1  12
TORSDOF 2
