REMARK  5 active torsions:
REMARK  status: ('A' for Active; 'I' for Inactive)
REMARK    1  A    between atoms: C_7  and  C_2 
REMARK    2  A    between atoms: S_16  and  C_10 
REMARK    3  A    between atoms: C_15  and  C_17 
REMARK    4  A    between atoms: C_19  and  C_15 
REMARK    5  A    between atoms: C_17  and  S_16 
ROOT
ATOM      1  C   UNL d   1       3.785   0.413   0.056  0.00  0.00     0.053 A 
ATOM      2  N   UNL d   1       4.472  -0.083  -0.995  0.00  0.00    -0.336 N 
ATOM      3  HN  UNL d   1       3.999  -0.555  -1.766  1.00  0.00     0.168 HD
ATOM      4  C   UNL d   1       5.806   0.074  -0.980  0.00  0.00     0.144 A 
ATOM      5  N   UNL d   1       6.497   0.660   0.008  0.00  0.00    -0.347 N 
ATOM      6  HN  UNL d   1       7.514   0.734  -0.018  1.00  0.00     0.167 HD
ATOM      7  C   UNL d   1       4.412   1.040   1.115  0.00  0.00     0.048 A 
ATOM      8  C   UNL d   1       5.779   1.144   1.033  0.00  0.00     0.092 A 
ENDROOT
BRANCH   1   9
ATOM      9  C   UNL d   1       2.318   0.247  -0.041  0.00  0.00     0.039 A 
ATOM     10  S   UNL d   1       1.297   1.445   0.697  0.00  0.00    -0.079 SA
ATOM     11  C   UNL d   1      -0.064   0.679   0.133  0.00  0.00     0.057 A 
ATOM     12  C   UNL d   1       0.176  -0.431  -0.587  0.00  0.00     0.002 A 
ATOM     13  S   UNL d   1      -1.676   1.065   0.307  0.00  0.00    -0.093 SA
ATOM     14  C   UNL d   1       1.561  -0.755  -0.688  0.00  0.00    -0.030 A 
ATOM     15  C   UNL d   1      -1.007  -1.040  -1.095  0.00  0.00    -0.043 A 
ATOM     16  C   UNL d   1       2.194  -1.938  -1.345  0.00  0.00     0.050 C 
ATOM     17  C   UNL d   1      -1.205  -2.231  -1.967  0.00  0.00     0.049 C 
ATOM     18  C   UNL d   1      -2.105  -0.300  -0.648  0.00  0.00     0.058 A 
ENDBRANCH   1   9
BRANCH   4  19
ATOM     19  S   UNL d   1       6.745  -0.601  -2.326  0.00  0.00    -0.086 SA
BRANCH  19  20
ATOM     20  C   UNL d   1       5.509  -0.466  -3.655  0.00  0.00     0.166 C 
BRANCH  20  21
ATOM     21  C   UNL d   1       5.093   0.973  -3.908  0.00  0.00     0.169 C 
ATOM     22  O   UNL d   1       5.872   1.918  -3.778  0.00  0.00    -0.291 OA
BRANCH  21  23
ATOM     23  C   UNL d   1       3.704   1.266  -4.391  0.00  0.00     0.010 A 
ATOM     24  C   UNL d   1       2.795   0.269  -4.761  0.00  0.00     0.015 A 
ATOM     25  C   UNL d   1       1.510   0.615  -5.193  0.00  0.00     0.001 A 
ATOM     26  C   UNL d   1       1.133   1.957  -5.274  0.00  0.00     0.000 A 
ATOM     27  C   UNL d   1       2.037   2.952  -4.928  0.00  0.00     0.001 A 
ATOM     28  C   UNL d   1       3.317   2.612  -4.488  0.00  0.00     0.015 A 
ENDBRANCH  21  23
ENDBRANCH  20  21
ENDBRANCH  19  20
ENDBRANCH   4  19
TORSDOF 5
