REMARK  6 active torsions:
REMARK  status: ('A' for Active; 'I' for Inactive)
REMARK    1  A    between atoms: C_2  and  C_1 
REMARK    2  A    between atoms: C_4  and  C_2 
REMARK    3  A    between atoms: C_3  and  O_10 
REMARK    4  A    between atoms: N_9  and  C_5 
REMARK    5  A    between atoms: C_18  and  N_9 
REMARK    6  A    between atoms: O_10  and  C_19 
ROOT
ATOM      1  C   UNL d   1       1.013  -0.026  -0.288  0.00  0.00     0.112 C 
ATOM      2  C   UNL d   1       0.290  -0.714   0.614  0.00  0.00     0.115 C 
ATOM      3  C   UNL d   1       0.384   0.677  -1.351  0.00  0.00     0.105 C 
ATOM      4  N   UNL d   1      -0.175   1.247  -2.190  0.00  0.00    -0.191 NA
ENDROOT
BRANCH   1   5
ATOM      5  C   UNL d   1       2.499   0.050  -0.113  0.00  0.00     0.227 C 
ATOM      6  O   UNL d   1       2.989  -0.105   1.008  0.00  0.00    -0.284 OA
BRANCH   5   7
ATOM      7  C   UNL d   1       3.317   0.338  -1.275  0.00  0.00     0.126 A 
ATOM      8  O   UNL d   1       2.866  -0.006  -2.521  0.00  0.00    -0.319 OA
ATOM      9  C   UNL d   1       3.808   0.385  -3.416  0.00  0.00     0.142 A 
ATOM     10  C   UNL d   1       4.872   0.965  -2.768  0.00  0.00     0.027 A 
ATOM     11  C   UNL d   1       4.570   0.909  -1.385  0.00  0.00     0.043 A 
ENDBRANCH   5   7
ENDBRANCH   1   5
BRANCH   2  12
ATOM     12  N   UNL d   1      -1.070  -0.932   0.636  0.00  0.00    -0.364 N 
ATOM     13  H   UNL d   1      -1.617  -0.590  -0.152  0.00  0.00     0.165 HD
BRANCH  12  14
ATOM     14  C   UNL d   1      -1.813  -1.599   1.623  0.00  0.00     0.032 A 
ATOM     15  C   UNL d   1      -1.394  -1.703   2.954  0.00  0.00     0.032 A 
ATOM     16  C   UNL d   1      -2.138  -2.427   3.896  0.00  0.00     0.039 A 
ATOM     17  C   UNL d   1      -3.323  -3.052   3.520  0.00  0.00     0.078 A 
ATOM     18  C   UNL d   1      -3.716  -3.006   2.182  0.00  0.00     0.039 A 
ATOM     19  C   UNL d   1      -2.975  -2.280   1.245  0.00  0.00     0.032 A 
BRANCH  17  20
ATOM     20  O   UNL d   1      -4.147  -3.768   4.330  0.00  0.00    -0.255 OA
BRANCH  20  21
ATOM     21  C   UNL d   1      -4.239  -3.430   5.707  0.00  0.00     0.530 C 
ATOM     22  F   UNL d   1      -3.684  -2.242   6.024  0.00  0.00    -0.144 F 
ATOM     23  F   UNL d   1      -5.547  -3.374   6.044  0.00  0.00    -0.144 F 
ATOM     24  F   UNL d   1      -3.655  -4.397   6.447  0.00  0.00    -0.144 F 
ENDBRANCH  20  21
ENDBRANCH  17  20
ENDBRANCH  12  14
ENDBRANCH   2  12
TORSDOF 6
