REMARK  4 active torsions:
REMARK  status: ('A' for Active; 'I' for Inactive)
REMARK    1  A    between atoms: C_9  and  C_1 
REMARK    2  A    between atoms: C_7  and  C_3 
REMARK    3  A    between atoms: C_8  and  C_11 
REMARK    4  A    between atoms: O_23  and  C_9 
ROOT
ATOM      1  C   UNL d   1       2.118  -1.277  -0.054  0.00  0.00     0.052 A 
ATOM      2  C   UNL d   1      -0.308  -0.467  -0.078  0.00  0.00     0.023 A 
ATOM      3  C   UNL d   1       0.630  -1.670  -0.133  0.00  0.00     0.100 A 
ATOM      4  C   UNL d   1       2.493   0.021   0.039  0.00  0.00     0.018 A 
ATOM      5  C   UNL d   1       0.164   0.792   0.011  0.00  0.00     0.020 A 
ATOM      6  N   UNL d   1       1.524   1.014   0.072  0.00  0.00    -0.362 N 
ATOM      7  C   UNL d   1      -1.782  -0.682  -0.124  0.00  0.00     0.158 C 
ATOM      8  O   UNL d   1      -2.257  -1.764  -0.453  0.00  0.00    -0.293 OA
ATOM      9  C   UNL d   1      -0.715   2.022   0.043  0.00  0.00     0.058 C 
ATOM     10  C   UNL d   1       3.906   0.551   0.071  0.00  0.00     0.069 C 
ATOM     11  C   UNL d   1      -2.664   0.469   0.297  0.00  0.00     0.084 C 
ATOM     12  C   UNL d   1      -2.162   1.747  -0.350  0.00  0.00     0.014 C 
ATOM     13  H   UNL d   1       1.844   1.977   0.146  0.00  0.00     0.165 HD
ENDROOT
BRANCH   3  14
ATOM     14  C   UNL d   1       0.269  -2.768   0.880  0.00  0.00    -0.023 A 
ATOM     15  C   UNL d   1       0.234  -2.593   2.272  0.00  0.00     0.042 A 
ATOM     16  C   UNL d   1      -0.085  -3.666   3.119  0.00  0.00     0.040 A 
ATOM     17 CL   UNL d   1       0.579  -1.084   3.036  0.00  0.00    -0.084 Cl
ATOM     18  C   UNL d   1      -0.369  -4.938   2.602  0.00  0.00     0.049 A 
ATOM     19  C   UNL d   1      -0.345  -5.117   1.216  0.00  0.00     0.017 A 
ATOM     20  C   UNL d   1      -0.033  -4.050   0.371  0.00  0.00     0.011 A 
BRANCH  18  21
ATOM     21  C   UNL d   1      -0.684  -6.100   3.508  0.00  0.00     0.417 C 
ATOM     22  F   UNL d   1      -0.670  -5.777   4.832  0.00  0.00    -0.166 F 
ATOM     23  F   UNL d   1      -1.912  -6.636   3.268  0.00  0.00    -0.166 F 
ATOM     24  F   UNL d   1       0.204  -7.123   3.368  0.00  0.00    -0.166 F 
ENDBRANCH  18  21
ENDBRANCH   3  14
BRANCH   1  25
ATOM     25  C   UNL d   1       3.060  -2.420  -0.181  0.00  0.00     0.291 C 
ATOM     26  O   UNL d   1       2.853  -3.372  -0.919  0.00  0.00    -0.260 OA
BRANCH  25  27
ATOM     27  O   UNL d   1       4.114  -2.287   0.660  0.00  0.00    -0.323 OA
ATOM     28  C   UNL d   1       5.114  -3.307   0.573  0.00  0.00     0.213 C 
ENDBRANCH  25  27
ENDBRANCH   1  25
TORSDOF 4
