REMARK  7 active torsions:
REMARK  status: ('A' for Active; 'I' for Inactive)
REMARK    1  A    between atoms: N_2  and  S_1 
REMARK    2  A    between atoms: C_6  and  S_1 
REMARK    3  A    between atoms: S_4  and  N_2 
REMARK    4  A    between atoms: C_10  and  S_4 
REMARK    5  A    between atoms: C_5  and  O_9 
REMARK    6  A    between atoms: C_11  and  C_5 
REMARK    7  A    between atoms: O_9  and  C_19 
ROOT
ATOM      1  C   UNL d   1       2.524   0.990  -2.921  0.00  0.00     0.010 A 
ATOM      2  C   UNL d   1       3.106   2.228  -3.224  0.00  0.00     0.022 A 
ATOM      3  C   UNL d   1       3.346  -0.133  -2.781  0.00  0.00     0.022 A 
ATOM      4  C   UNL d   1       5.297   1.230  -3.198  0.00  0.00     0.079 A 
ATOM      5  C   UNL d   1       4.489   2.349  -3.364  0.00  0.00     0.039 A 
ATOM      6  C   UNL d   1       4.731  -0.014  -2.917  0.00  0.00     0.039 A 
ENDROOT
BRANCH   1   7
ATOM      7  S   UNL d   1       0.747   0.769  -2.651  0.00  0.00    -0.086 SA
ATOM      8  C   UNL d   1       0.634   1.764  -1.140  0.00  0.00     0.108 C 
BRANCH   7   9
ATOM      9  N   UNL d   1       0.287   1.914  -3.681  0.00  0.00    -0.260 N 
ATOM     10  HN  UNL d   1       0.193   2.894  -3.413  1.00  0.00     0.186 HD
BRANCH   9  11
ATOM     11  S   UNL d   1      -0.035   1.348  -5.274  0.00  0.00     0.267 S 
ATOM     12  O   UNL d   1      -1.253   0.557  -5.266  0.00  0.00    -0.200 OA
ATOM     13  O   UNL d   1       1.180   0.843  -5.884  0.00  0.00    -0.200 OA
BRANCH  11  14
ATOM     14  C   UNL d   1      -0.414   2.884  -6.099  0.00  0.00     0.080 A 
ATOM     15  C   UNL d   1       0.629   3.647  -6.646  0.00  0.00     0.027 A 
ATOM     16  C   UNL d   1       0.322   4.791  -7.389  0.00  0.00     0.025 A 
ATOM     17  C   UNL d   1      -1.008   5.162  -7.583  0.00  0.00     0.034 A 
ATOM     18  C   UNL d   1      -2.043   4.405  -7.033  0.00  0.00     0.025 A 
ATOM     19 CL   UNL d   1      -1.379   6.550  -8.529  0.00  0.00    -0.084 Cl
ATOM     20  C   UNL d   1      -1.750   3.260  -6.288  0.00  0.00     0.027 A 
ENDBRANCH  11  14
ENDBRANCH   9  11
ENDBRANCH   7   9
ENDBRANCH   1   7
BRANCH   4  21
ATOM     21  O   UNL d   1       6.711   1.266  -3.193  0.00  0.00    -0.275 OA
BRANCH  21  22
ATOM     22  C   UNL d   1       7.476   2.366  -3.553  0.00  0.00     0.298 C 
ATOM     23  O   UNL d   1       7.098   3.389  -4.102  0.00  0.00    -0.259 OA
BRANCH  22  24
ATOM     24  C   UNL d   1       8.881   2.164  -3.106  0.00  0.00     0.040 A 
ATOM     25  C   UNL d   1       9.753   3.261  -3.182  0.00  0.00     0.019 A 
ATOM     26  C   UNL d   1      11.074   3.146  -2.740  0.00  0.00     0.025 A 
ATOM     27  C   UNL d   1      11.527   1.933  -2.224  0.00  0.00     0.034 A 
ATOM     28  C   UNL d   1      10.671   0.834  -2.151  0.00  0.00     0.025 A 
ATOM     29 CL   UNL d   1      13.148   1.794  -1.669  0.00  0.00    -0.084 Cl
ATOM     30  C   UNL d   1       9.349   0.947  -2.591  0.00  0.00     0.019 A 
ENDBRANCH  22  24
ENDBRANCH  21  22
ENDBRANCH   4  21
TORSDOF 7
