REMARK  11 active torsions:
REMARK  status: ('A' for Active; 'I' for Inactive)
REMARK    1  A    between atoms: N_5  and  S_1 
REMARK    2  A    between atoms: C_10  and  S_1 
REMARK    3  A    between atoms: C_15  and  C_2 
REMARK    4  A    between atoms: C_4  and  C_3 
REMARK    5  A    between atoms: N_12  and  N_5 
REMARK    6  A    between atoms: C_6  and  C_13 
REMARK    7  A    between atoms: C_7  and  C_14 
REMARK    8  A    between atoms: C_11  and  N_12 
REMARK    9  A    between atoms: O_24  and  C_15 
REMARK   10  A    between atoms: C_35  and  O_24 
REMARK   11  A    between atoms: C_36  and  C_35 
ROOT
ATOM      1  C   UNL d   1      -0.232   5.684  -3.165  0.00  0.00     0.087 A 
ATOM      2  C   UNL d   1       1.060   5.630  -2.678  0.00  0.00     0.150 A 
ATOM      3  N   UNL d   1       1.488   4.561  -1.923  0.00  0.00    -0.184 N 
ATOM      4  HN  UNL d   1       2.415   4.565  -1.498  1.00  0.00     0.184 HD
ATOM      5  C   UNL d   1       0.669   3.516  -1.757  0.00  0.00     0.697 A 
ATOM      6  N   UNL d   1      -0.577   3.477  -2.248  0.00  0.00    -0.199 N 
ATOM      7  HN  UNL d   1      -1.175   2.661  -2.119  1.00  0.00     0.183 HD
ATOM      8  C   UNL d   1      -1.004   4.564  -2.919  0.00  0.00     0.126 A 
ENDROOT
BRANCH   5   9
ATOM      9  N   UNL d   1       1.125   2.420  -1.041  0.00  0.00    -0.122 N 
ATOM     10  H   UNL d   1       2.024   2.520  -0.576  0.00  0.00     0.206 HD
BRANCH   9  11
ATOM     11  N   UNL d   1       0.480   1.115  -1.069  0.00  0.00    -0.208 N 
ATOM     12  H   UNL d   1      -0.314   0.952  -1.694  0.00  0.00     0.201 HD
BRANCH  11  13
ATOM     13  S   UNL d   1       0.810  -0.050   0.091  0.00  0.00     0.276 S 
ATOM     14  O   UNL d   1       2.193   0.084   0.493  0.00  0.00    -0.199 OA
ATOM     15  O   UNL d   1       0.249  -1.305  -0.365  0.00  0.00    -0.199 OA
BRANCH  13  16
ATOM     16  C   UNL d   1      -0.211   0.537   1.431  0.00  0.00     0.082 A 
ATOM     17  C   UNL d   1      -1.571   0.202   1.453  0.00  0.00     0.041 A 
ATOM     18  C   UNL d   1      -2.374   0.597   2.533  0.00  0.00     0.050 A 
ATOM     19  C   UNL d   1      -1.789   1.335   3.579  0.00  0.00     0.032 A 
ATOM     20  C   UNL d   1      -0.421   1.666   3.567  0.00  0.00     0.050 A 
ATOM     21  C   UNL d   1       0.365   1.265   2.477  0.00  0.00     0.041 A 
BRANCH  18  22
ATOM     22  C   UNL d   1      -3.833   0.207   2.608  0.00  0.00     0.417 C 
ATOM     23  F   UNL d   1      -4.256  -0.523   1.540  0.00  0.00    -0.166 F 
ATOM     24  F   UNL d   1      -4.106  -0.544   3.710  0.00  0.00    -0.166 F 
ATOM     25  F   UNL d   1      -4.657   1.288   2.676  0.00  0.00    -0.166 F 
ENDBRANCH  18  22
BRANCH  20  26
ATOM     26  C   UNL d   1       0.188   2.401   4.740  0.00  0.00     0.417 C 
ATOM     27  F   UNL d   1       1.522   2.630   4.604  0.00  0.00    -0.166 F 
ATOM     28  F   UNL d   1      -0.384   3.618   4.943  0.00  0.00    -0.166 F 
ATOM     29  F   UNL d   1       0.040   1.715   5.906  0.00  0.00    -0.166 F 
ENDBRANCH  20  26
ENDBRANCH  13  16
ENDBRANCH  11  13
ENDBRANCH   9  11
ENDBRANCH   5   9
BRANCH   2  30
ATOM     30  C   UNL d   1       2.118   6.664  -3.000  0.00  0.00     0.434 C 
ATOM     31  F   UNL d   1       1.812   7.522  -4.018  0.00  0.00    -0.165 F 
ATOM     32  F   UNL d   1       2.432   7.446  -1.930  0.00  0.00    -0.165 F 
ATOM     33  F   UNL d   1       3.291   6.085  -3.392  0.00  0.00    -0.165 F 
ENDBRANCH   2  30
BRANCH   1  34
ATOM     34  C   UNL d   1      -0.843   6.720  -4.004  0.00  0.00     0.297 C 
ATOM     35  O   UNL d   1      -1.568   6.418  -4.940  0.00  0.00    -0.259 OA
BRANCH  34  36
ATOM     36  O   UNL d   1      -0.556   7.963  -3.574  0.00  0.00    -0.313 OA
BRANCH  36  37
ATOM     37  C   UNL d   1      -1.012   9.012  -4.454  0.00  0.00     0.217 C 
BRANCH  37  38
ATOM     38  C   UNL d   1      -1.563  10.169  -3.659  0.00  0.00    -0.034 A 
ATOM     39  C   UNL d   1      -0.762  10.846  -2.734  0.00  0.00     0.009 A 
ATOM     40  C   UNL d   1      -1.261  11.948  -2.038  0.00  0.00     0.001 A 
ATOM     41  C   UNL d   1      -2.566  12.386  -2.266  0.00  0.00     0.000 A 
ATOM     42  C   UNL d   1      -3.373  11.723  -3.184  0.00  0.00     0.001 A 
ATOM     43  C   UNL d   1      -2.878  10.619  -3.880  0.00  0.00     0.009 A 
ENDBRANCH  37  38
ENDBRANCH  36  37
ENDBRANCH  34  36
ENDBRANCH   1  34
TORSDOF 11
