REMARK  5 active torsions:
REMARK  status: ('A' for Active; 'I' for Inactive)
REMARK    1  A    between atoms: C3_5  and  C1_1 
REMARK    2  A    between atoms: O3_17  and  C3_5 
REMARK    3  A    between atoms: C11_16  and  C4_6 
REMARK    4  A    between atoms: C5_8  and  O2_15 
REMARK    5  A    between atoms: O2_15  and  C11_16 
ROOT
ATOM      1  C1  <1> d   1       0.387   1.003  -0.521  0.00  0.00     0.114 A 
ATOM      2  N1  <1> d   1      -0.011  -0.286  -0.907  0.00  0.00    -0.346 N 
ATOM      3  H1  <1> d   1      -0.500  -0.515  -1.772  1.00  0.00     0.166 HD
ATOM      4  C2  <1> d   1       1.027   1.071   0.701  0.00  0.00     0.088 A 
ATOM      5  C4  <1> d   1       0.346  -1.158   0.021  0.00  0.00     0.075 A 
ATOM      6  S1  <1> d   1       1.137  -0.485   1.398  0.00  0.00    -0.084 SA
ENDROOT
BRANCH   5   7
ATOM      7  C11 <1> d   1       0.057  -2.633  -0.027  0.00  0.00     0.240 C 
BRANCH   7   8
ATOM      8  O2  <1> d   1       1.308  -3.326  -0.019  0.00  0.00    -0.345 OA
BRANCH   8   9
ATOM      9  C5  <1> d   1       1.261  -4.693  -0.058  0.00  0.00     0.072 A 
ATOM     10  C8  <1> d   1       0.103  -5.471  -0.080  0.00  0.00     0.060 A 
ATOM     11  C6  <1> d   1       0.202  -6.864  -0.139  0.00  0.00     0.038 A 
ATOM     12 Cl1  <1> d   1      -1.236  -7.812  -0.178  0.00  0.00    -0.084 Cl
ATOM     13  C10 <1> d   1       1.442  -7.493  -0.174  0.00  0.00     0.048 A 
ATOM     14  C7  <1> d   1       2.594  -6.715  -0.142  0.00  0.00     0.038 A 
ATOM     15  C9  <1> d   1       2.509  -5.323  -0.083  0.00  0.00     0.060 A 
ATOM     16 Cl2  <1> d   1       4.136  -7.476  -0.185  0.00  0.00    -0.084 Cl
ENDBRANCH   8   9
ENDBRANCH   7   8
ENDBRANCH   5   7
BRANCH   1  17
ATOM     17  C3  <1> d   1       0.111   2.152  -1.377  0.00  0.00     0.194 C 
ATOM     18  O1  <1> d   1       0.415   3.305  -1.112  0.00  0.00    -0.645 OA
BRANCH  17  19
ATOM     19  O3  <1> d   1      -0.539   1.799  -2.519  0.00  0.00    -0.772 OA
ATOM     20  H7  <1> d   1      -0.666   0.824  -2.498  0.00  0.00     0.167 HD
ENDBRANCH  17  19
ENDBRANCH   1  17
TORSDOF 5
