REMARK  4 active torsions:
REMARK  status: ('A' for Active; 'I' for Inactive)
REMARK    1  A    between atoms: C_8  and  C_1 
REMARK    2  A    between atoms: N_7  and  C_2 
REMARK       I    between atoms: N_11  and  C_8 
REMARK    3  A    between atoms: N_9  and  N_11 
REMARK    4  A    between atoms: C_18  and  C_17 
ROOT
ATOM      1  C   UNL d   1      -0.234  -2.571  -0.144  0.00  0.00     0.279 C 
ATOM      2  N   UNL d   1       0.938  -3.313  -0.000  0.00  0.00    -0.266 N 
ATOM      3  O   UNL d   1      -1.335  -3.105  -0.279  0.00  0.00    -0.265 OA
ATOM      4  H   UNL d   1       1.832  -2.848   0.097  0.00  0.00     0.190 HD
ENDROOT
BRANCH   1   5
ATOM      5  C   UNL d   1      -0.080  -1.125  -0.122  0.00  0.00     0.100 A 
ATOM      6  S   UNL d   1       1.415  -0.334   0.190  0.00  0.00    -0.046 SA
ATOM      7  C   UNL d   1       0.628   1.172   0.097  0.00  0.00     0.155 A 
ATOM      8  N   UNL d   1      -0.655   1.147  -0.177  0.00  0.00    -0.339 N 
ATOM      9  C   UNL d   1      -1.070  -0.169  -0.325  0.00  0.00     0.030 A 
ATOM     10  HN  UNL d   1      -1.255   1.967  -0.267  1.00  0.00     0.168 HD
ATOM     11  C   UNL d   1      -2.498  -0.417  -0.669  0.00  0.00     0.070 C 
BRANCH   7  12
ATOM     12  N   UNL d   1       1.329   2.368   0.318  0.00  0.00    -0.313 N 
ATOM     13  C   UNL d   1       2.686   2.561   0.532  0.00  0.00     0.098 A 
ATOM     14  C   UNL d   1       2.935   3.906   0.704  0.00  0.00     0.019 A 
ATOM     15  C   UNL d   1       1.700   4.579   0.605  0.00  0.00     0.019 A 
ATOM     16  C   UNL d   1       0.740   3.624   0.362  0.00  0.00     0.098 A 
ENDBRANCH   7  12
ENDBRANCH   1   5
BRANCH   2  17
ATOM     17  N   UNL d   1       0.857  -4.671   0.056  0.00  0.00    -0.308 N 
ATOM     18  C   UNL d   1       1.965  -5.329   0.150  0.00  0.00     0.118 C 
ATOM     19  HN  UNL d   1      -0.043  -5.150   0.024  1.00  0.00     0.186 HD
BRANCH  18  20
ATOM     20  C   UNL d   1       1.952  -6.806   0.233  0.00  0.00    -0.019 A 
ATOM     21  C   UNL d   1       0.735  -7.498   0.297  0.00  0.00     0.014 A 
ATOM     22  C   UNL d   1       0.727  -8.892   0.376  0.00  0.00     0.024 A 
ATOM     23  C   UNL d   1       1.933  -9.589   0.388  0.00  0.00     0.034 A 
ATOM     24  C   UNL d   1       3.148  -8.904   0.325  0.00  0.00     0.024 A 
ATOM     25 CL   UNL d   1       1.926 -11.307   0.481  0.00  0.00    -0.084 Cl
ATOM     26  C   UNL d   1       3.160  -7.506   0.249  0.00  0.00     0.014 A 
ENDBRANCH  18  20
ENDBRANCH   2  17
TORSDOF 4
