REMARK  4 active torsions:
REMARK  status: ('A' for Active; 'I' for Inactive)
REMARK    1  A    between atoms: C_5  and  N_1 
REMARK    2  A    between atoms: S_2  and  C_7 
REMARK    3  A    between atoms: N_8  and  S_2 
REMARK    4  A    between atoms: C_19  and  N_8 
ROOT
ATOM      1  C   UNL d   1       2.961  -1.481   0.020  0.00  0.00     0.067 A 
ATOM      2  C   UNL d   1       5.236  -3.111   0.220  0.00  0.00     0.081 A 
ATOM      3  C   UNL d   1       3.263  -2.406  -0.993  0.00  0.00     0.062 A 
ATOM      4  C   UNL d   1       4.408  -3.204  -0.905  0.00  0.00     0.051 A 
ATOM      5  C   UNL d   1       3.833  -1.359   1.113  0.00  0.00     0.033 A 
ATOM      6  C   UNL d   1       4.952  -2.194   1.231  0.00  0.00     0.027 A 
ATOM      7 CL   UNL d   1       2.312  -2.533  -2.434  0.00  0.00    -0.082 Cl
ENDROOT
BRANCH   1   8
ATOM      8  N   UNL d   1       1.803  -0.668  -0.029  0.00  0.00    -0.250 N 
ATOM      9  C   UNL d   1       1.843   0.697   0.060  0.00  0.00     0.232 C 
ATOM     10  C   UNL d   1       0.450   1.233  -0.103  0.00  0.00     0.123 C 
ATOM     11  O   UNL d   1       2.828   1.409   0.199  0.00  0.00    -0.273 OA
ATOM     12  C   UNL d   1      -0.447  -0.003   0.000  0.00  0.00     0.050 C 
ATOM     13  C   UNL d   1       0.522  -1.173  -0.010  0.00  0.00     0.240 C 
ATOM     14  C   UNL d   1      -1.479  -0.111  -1.121  0.00  0.00     0.020 C 
ATOM     15  C   UNL d   1      -1.325   0.024   1.255  0.00  0.00     0.020 C 
ATOM     16  O   UNL d   1       0.189  -2.343   0.080  0.00  0.00    -0.272 OA
ATOM     17  C   UNL d   1      -2.651   0.753  -0.666  0.00  0.00     0.001 C 
ATOM     18  C   UNL d   1      -2.558   0.833   0.855  0.00  0.00     0.001 C 
ENDBRANCH   1   8
BRANCH   2  19
ATOM     19  S   UNL d   1       6.540  -4.306   0.439  0.00  0.00     0.259 S 
ATOM     20  O   UNL d   1       6.244  -4.988   1.675  0.00  0.00    -0.201 OA
ATOM     21  O   UNL d   1       6.656  -5.021  -0.814  0.00  0.00    -0.201 OA
BRANCH  19  22
ATOM     22  N   UNL d   1       7.953  -3.395   0.571  0.00  0.00    -0.311 N 
ATOM     23  H   UNL d   1       8.063  -2.751  -0.213  0.00  0.00     0.172 HD
BRANCH  22  24
ATOM     24  C   UNL d   1       8.499  -2.923   1.866  0.00  0.00     0.093 C 
ATOM     25  C   UNL d   1       9.810  -2.149   1.601  0.00  0.00     0.026 C 
ATOM     26  C   UNL d   1      10.968  -3.042   1.137  0.00  0.00     0.002 C 
ATOM     27  C   UNL d   1      11.178  -4.260   2.036  0.00  0.00     0.000 C 
ATOM     28  C   UNL d   1       9.876  -5.012   2.276  0.00  0.00     0.002 C 
ATOM     29  C   UNL d   1       8.818  -4.066   2.838  0.00  0.00     0.026 C 
ENDBRANCH  22  24
ENDBRANCH  19  22
ENDBRANCH   2  19
TORSDOF 4
