REMARK  3 active torsions:
REMARK  status: ('A' for Active; 'I' for Inactive)
REMARK    1  A    between atoms: C_7  and  C_1 
REMARK    2  A    between atoms: C_8  and  C_4 
REMARK       I    between atoms: N_10  and  C_7 
REMARK    3  A    between atoms: C_14  and  N_10 
ROOT
ATOM      1  C   UNL d   1       0.013  -1.339  -0.039  0.00  0.00     0.092 A 
ATOM      2  N   UNL d   1      -1.289   0.525   0.098  0.00  0.00    -0.259 N 
ATOM      3  HN  UNL d   1      -2.092   1.152   0.146  1.00  0.00     0.195 HD
ATOM      4  C   UNL d   1      -1.322  -0.816   0.012  0.00  0.00     0.083 A 
ATOM      5  O   UNL d   1       0.035   0.889   0.107  0.00  0.00    -0.241 OA
ATOM      6  C   UNL d   1       0.816  -0.216   0.024  0.00  0.00     0.090 A 
ATOM      7  C   UNL d   1       2.269   0.038  -0.023  0.00  0.00     0.080 C 
ENDROOT
BRANCH   1   8
ATOM      8  C   UNL d   1       0.440  -2.716  -0.184  0.00  0.00     0.256 C 
ATOM      9  O   UNL d   1      -0.171  -3.524  -0.875  0.00  0.00    -0.267 OA
ATOM     10  N   UNL d   1       1.554  -3.067   0.552  0.00  0.00    -0.357 N 
ATOM     11  H   UNL d   1       1.957  -2.399   1.192  0.00  0.00     0.162 HD
BRANCH  10  12
ATOM     12  C   UNL d   1       2.008  -4.441   0.620  0.00  0.00     0.118 C 
ATOM     13  C   UNL d   1       2.860  -4.822  -0.577  0.00  0.00     0.026 C 
ENDBRANCH  10  12
ENDBRANCH   1   8
BRANCH   4  14
ATOM     14  C   UNL d   1      -2.612  -1.520   0.013  0.00  0.00    -0.006 A 
ATOM     15  C   UNL d   1      -3.739  -0.924  -0.573  0.00  0.00     0.014 A 
ATOM     16  C   UNL d   1      -4.974  -1.581  -0.580  0.00  0.00     0.001 A 
ATOM     17  C   UNL d   1      -5.097  -2.840  -0.001  0.00  0.00     0.000 A 
ATOM     18  C   UNL d   1      -3.992  -3.438   0.600  0.00  0.00     0.001 A 
ATOM     19  C   UNL d   1      -2.760  -2.776   0.616  0.00  0.00     0.014 A 
ENDBRANCH   4  14
TORSDOF 3
