REMARK  7 active torsions:
REMARK  status: ('A' for Active; 'I' for Inactive)
REMARK    1  A    between atoms: C_5  and  C_1 
REMARK       I    between atoms: C_2  and  N_4 
REMARK    2  A    between atoms: C_3  and  C_2 
REMARK       I    between atoms: N_6  and  C_3 
REMARK    3  A    between atoms: N_4  and  C_7 
REMARK    4  A    between atoms: C_15  and  N_6 
REMARK    5  A    between atoms: C_14  and  C_15 
REMARK    6  A    between atoms: O_16  and  C_14 
REMARK    7  A    between atoms: O_17  and  C_14 
ROOT
ATOM      1  C   UNL d   1       0.024  -3.698   3.355  0.00  0.00     0.313 C 
ATOM      2  N   UNL d   1       0.592  -2.701   4.119  0.00  0.00    -0.319 N 
ATOM      3  O   UNL d   1      -0.958  -4.390   3.585  0.00  0.00    -0.262 OA
ATOM      4  H   UNL d   1       1.389  -2.241   3.682  0.00  0.00     0.169 HD
ENDROOT
BRANCH   1   5
ATOM      5  C   UNL d   1       0.779  -3.900   2.026  0.00  0.00     0.309 C 
ATOM      6  N   UNL d   1       0.220  -4.835   1.181  0.00  0.00    -0.348 N 
ATOM      7  H   UNL d   1      -0.725  -5.144   1.408  0.00  0.00     0.163 HD
ATOM      8  O   UNL d   1       1.780  -3.233   1.797  0.00  0.00    -0.262 OA
BRANCH   6   9
ATOM      9  C   UNL d   1       0.699  -4.964  -0.181  0.00  0.00     0.183 C 
BRANCH   9  10
ATOM     10  C   UNL d   1       0.176  -6.211  -0.926  0.00  0.00     0.275 C 
BRANCH  10  11
ATOM     11  O   UNL d   1      -1.248  -6.068  -1.034  0.00  0.00    -0.364 OA
ATOM     12  C   UNL d   1      -1.863  -7.208  -1.621  0.00  0.00     0.204 C 
ENDBRANCH  10  11
BRANCH  10  13
ATOM     13  O   UNL d   1       0.747  -6.300  -2.234  0.00  0.00    -0.364 OA
ATOM     14  C   UNL d   1       2.127  -6.633  -2.238  0.00  0.00     0.204 C 
ENDBRANCH  10  13
ENDBRANCH   9  10
ENDBRANCH   6   9
ENDBRANCH   1   5
BRANCH   2  15
ATOM     15  C   UNL d   1       0.176  -2.240   5.380  0.00  0.00     0.035 A 
ATOM     16  C   UNL d   1      -0.872  -2.820   6.099  0.00  0.00     0.045 A 
ATOM     17  C   UNL d   1      -1.260  -2.308   7.349  0.00  0.00     0.050 A 
ATOM     18  C   UNL d   1      -0.576  -1.204   7.876  0.00  0.00     0.016 A 
ATOM     19  C   UNL d   1       0.478  -0.627   7.170  0.00  0.00     0.003 A 
ATOM     20  C   UNL d   1       0.853  -1.145   5.929  0.00  0.00     0.029 A 
BRANCH  17  21
ATOM     21  C   UNL d   1      -2.409  -2.922   8.110  0.00  0.00     0.417 C 
ATOM     22  F   UNL d   1      -2.948  -4.019   7.510  0.00  0.00    -0.166 F 
ATOM     23  F   UNL d   1      -3.440  -2.048   8.284  0.00  0.00    -0.166 F 
ATOM     24  F   UNL d   1      -2.049  -3.323   9.361  0.00  0.00    -0.166 F 
ENDBRANCH  17  21
ENDBRANCH   2  15
TORSDOF 7
