REMARK  6 active torsions:
REMARK  status: ('A' for Active; 'I' for Inactive)
REMARK    1  A    between atoms: C_2  and  C_1 
REMARK    2  A    between atoms: C_3  and  C_2 
REMARK    3  A    between atoms: C_4  and  O_9 
REMARK    4  A    between atoms: N_13  and  N_5 
REMARK    5  A    between atoms: O_9  and  C_7 
REMARK    6  A    between atoms: C_16  and  N_13 
ROOT
ATOM      1  C   UNL d   1       0.976  -0.100  -0.513  0.00  0.00     0.179 C 
ATOM      2  N   UNL d   1       0.251   0.448   0.421  0.00  0.00    -0.287 N 
ATOM      3  HN  UNL d   1       0.702   0.990   1.158  1.00  0.00     0.188 HD
ATOM      4  C   UNL d   1       0.334  -0.858  -1.552  0.00  0.00     0.123 C 
ATOM      5  N   UNL d   1      -0.250  -1.456  -2.357  0.00  0.00    -0.190 NA
ENDROOT
BRANCH   1   6
ATOM      6  C   UNL d   1       2.477   0.076  -0.485  0.00  0.00     0.223 C 
ATOM      7  O   UNL d   1       3.177  -0.784  -1.000  0.00  0.00    -0.284 OA
BRANCH   6   8
ATOM      8  C   UNL d   1       3.070   1.254   0.185  0.00  0.00     0.051 A 
ATOM      9  C   UNL d   1       4.262   1.194   0.925  0.00  0.00     0.092 A 
ATOM     10  C   UNL d   1       4.791   2.389   1.439  0.00  0.00     0.038 A 
ATOM     11  C   UNL d   1       4.145   3.612   1.246  0.00  0.00     0.003 A 
ATOM     12  C   UNL d   1       2.964   3.665   0.517  0.00  0.00     0.001 A 
ATOM     13  C   UNL d   1       2.432   2.494  -0.016  0.00  0.00     0.018 A 
BRANCH   9  14
ATOM     14  O   UNL d   1       5.082   0.118   1.107  0.00  0.00    -0.254 OA
BRANCH  14  15
ATOM     15  C   UNL d   1       4.554  -1.117   1.578  0.00  0.00     0.530 C 
ATOM     16  F   UNL d   1       3.208  -1.137   1.664  0.00  0.00    -0.144 F 
ATOM     17  F   UNL d   1       4.970  -2.113   0.769  0.00  0.00    -0.144 F 
ATOM     18  F   UNL d   1       5.048  -1.356   2.815  0.00  0.00    -0.144 F 
ENDBRANCH  14  15
ENDBRANCH   9  14
ENDBRANCH   6   8
ENDBRANCH   1   6
BRANCH   2  19
ATOM     19  N   UNL d   1      -1.109   0.304   0.425  0.00  0.00    -0.300 N 
ATOM     20  H   UNL d   1      -1.552  -0.476  -0.070  0.00  0.00     0.187 HD
BRANCH  19  21
ATOM     21  C   UNL d   1      -1.759   0.614   1.642  0.00  0.00     0.049 A 
ATOM     22  C   UNL d   1      -1.268   1.599   2.511  0.00  0.00     0.056 A 
ATOM     23  C   UNL d   1      -1.915   1.878   3.720  0.00  0.00     0.058 A 
ATOM     24 CL   UNL d   1      -1.232   3.099   4.735  0.00  0.00    -0.082 Cl
ATOM     25  C   UNL d   1      -3.071   1.174   4.069  0.00  0.00     0.055 A 
ATOM     26  C   UNL d   1      -3.578   0.203   3.203  0.00  0.00     0.028 A 
ATOM     27 CL   UNL d   1      -3.922   1.456   5.546  0.00  0.00    -0.083 Cl
ATOM     28  C   UNL d   1      -2.933  -0.064   1.992  0.00  0.00     0.033 A 
ENDBRANCH  19  21
ENDBRANCH   2  19
TORSDOF 6
