REMARK  2 active torsions:
REMARK  status: ('A' for Active; 'I' for Inactive)
REMARK    1  A    between atoms: N_2  and  C_1 
REMARK       I    between atoms: C_4  and  N_2 
REMARK    2  A    between atoms: C_11  and  C_4 
ROOT
ATOM      1  N   UNL d   1       5.414  -3.237   1.553  0.00  0.00    -0.197 NA
ATOM      2  C   UNL d   1       4.663  -3.677   0.781  0.00  0.00     0.068 C 
ATOM      3  C   UNL d   1       3.676  -4.140  -0.188  0.00  0.00     0.226 C 
ENDROOT
BRANCH   3   4
ATOM      4  C   UNL d   1       2.274  -3.574   0.027  0.00  0.00     0.235 C 
ATOM      5  N   UNL d   1       2.166  -2.435   0.816  0.00  0.00    -0.326 N 
ATOM      6  H   UNL d   1       3.008  -2.081   1.255  0.00  0.00     0.169 HD
ATOM      7  O   UNL d   1       1.342  -4.121  -0.568  0.00  0.00    -0.272 OA
BRANCH   5   8
ATOM      8  C   UNL d   1       1.035  -1.580   0.962  0.00  0.00     0.041 C 
ATOM      9  C   UNL d   1      -0.201  -1.850   0.364  0.00  0.00     0.037 C 
ATOM     10  C   UNL d   1      -1.234  -0.893   0.330  0.00  0.00    -0.054 C 
ATOM     11  C   UNL d   1      -2.571  -1.270  -0.245  0.00  0.00     0.049 C 
ATOM     12  C   UNL d   1      -0.983   0.399   0.808  0.00  0.00    -0.056 C 
ATOM     13  C   UNL d   1       0.179   0.615   1.557  0.00  0.00     0.016 C 
ATOM     14  C   UNL d   1      -1.923   1.546   0.559  0.00  0.00     0.049 C 
ATOM     15  C   UNL d   1       1.169  -0.379   1.688  0.00  0.00    -0.035 C 
ATOM     16  C   UNL d   1       2.337  -0.075   2.588  0.00  0.00     0.050 C 
ENDBRANCH   5   8
ENDBRANCH   3   4
TORSDOF 2
