REMARK  3 active torsions:
REMARK  status: ('A' for Active; 'I' for Inactive)
REMARK    1  A    between atoms: N_7  and  C_10 
REMARK    2  A    between atoms: C_9  and  C_8 
REMARK    3  A    between atoms: C_13  and  C_11 
ROOT
ATOM      1  C   UNL d   1       4.713   3.045  -0.454  0.00  0.00     0.088 A 
ATOM      2  O   UNL d   1       4.263   1.816  -0.829  0.00  0.00    -0.310 OA
ATOM      3  C   UNL d   1       3.261   1.433   0.028  0.00  0.00     0.077 A 
ATOM      4  C   UNL d   1       4.004   3.476   0.646  0.00  0.00     0.041 A 
ATOM      5  C   UNL d   1       3.079   2.450   0.953  0.00  0.00     0.040 A 
ENDROOT
BRANCH   3   6
ATOM      6  C   UNL d   1       2.574   0.202  -0.104  0.00  0.00     0.060 C 
ATOM      7  C   UNL d   1       2.961  -0.939   0.496  0.00  0.00     0.103 C 
ATOM      8  C   UNL d   1       2.149  -2.144   0.190  0.00  0.00     0.265 C 
ATOM      9  C   UNL d   1       4.122  -1.069   1.416  0.00  0.00     0.265 C 
ATOM     10  N   UNL d   1       2.587  -3.308   0.754  0.00  0.00    -0.275 N 
ATOM     11  O   UNL d   1       1.140  -2.125  -0.507  0.00  0.00    -0.267 OA
ATOM     12  C   UNL d   1       3.670  -3.460   1.561  0.00  0.00     0.329 C 
ATOM     13  H   UNL d   1       2.039  -4.136   0.571  0.00  0.00     0.173 HD
ATOM     14  N   UNL d   1       4.410  -2.346   1.806  0.00  0.00    -0.275 N 
ATOM     15  O   UNL d   1       3.954  -4.543   2.060  0.00  0.00    -0.246 OA
ATOM     16  H   UNL d   1       5.189  -2.457   2.441  0.00  0.00     0.173 HD
ATOM     17  O   UNL d   1       4.779  -0.131   1.854  0.00  0.00    -0.267 OA
ENDBRANCH   3   6
BRANCH   1  18
ATOM     18  C   UNL d   1       5.845   3.577  -1.204  0.00  0.00     0.031 A 
ATOM     19  C   UNL d   1       6.104   3.316  -2.559  0.00  0.00     0.115 A 
ATOM     20  C   UNL d   1       7.255   3.795  -3.207  0.00  0.00     0.037 A 
ATOM     21  C   UNL d   1       8.171   4.566  -2.496  0.00  0.00     0.002 A 
ATOM     22  C   UNL d   1       7.930   4.860  -1.156  0.00  0.00     0.001 A 
ATOM     23  C   UNL d   1       6.782   4.372  -0.520  0.00  0.00     0.017 A 
BRANCH  19  24
ATOM     24  N   UNL d   1       5.161   2.575  -3.377  0.00  0.00    -0.115 N 
ATOM     25  O   UNL d   1       4.049   3.087  -3.566  0.00  0.00    -0.532 OA
ATOM     26  O   UNL d   1       5.572   1.528  -3.898  0.00  0.00    -0.532 OA
ENDBRANCH  19  24
ENDBRANCH   1  18
TORSDOF 3
