REMARK  8 active torsions:
REMARK  status: ('A' for Active; 'I' for Inactive)
REMARK    1  A    between atoms: C_8  and  N_1 
REMARK    2  A    between atoms: C_10  and  C_2 
REMARK    3  A    between atoms: S_9  and  C_5 
REMARK    4  A    between atoms: C_11  and  C_8 
REMARK    5  A    between atoms: C_12  and  S_9 
REMARK    6  A    between atoms: O_19  and  C_11 
REMARK    7  A    between atoms: O_20  and  C_11 
REMARK    8  A    between atoms: C_13  and  C_12 
ROOT
ATOM      1  N   UNL d   1      -0.291  -1.050  -0.311  0.00  0.00    -0.306 N 
ATOM      2  C   UNL d   1       0.944  -0.405  -0.476  0.00  0.00     0.134 A 
ATOM      3  N   UNL d   1       0.715   0.895  -0.555  0.00  0.00    -0.283 N 
ATOM      4  HN  UNL d   1       1.424   1.613  -0.706  1.00  0.00     0.188 HD
ATOM      5  C   UNL d   1      -1.210  -0.031  -0.215  0.00  0.00     0.163 A 
ATOM      6  N   UNL d   1      -0.620   1.124  -0.405  0.00  0.00    -0.278 N 
ATOM      7  HN  UNL d   1      -1.080   2.034  -0.434  1.00  0.00     0.189 HD
ENDROOT
BRANCH   5   8
ATOM      8  S   UNL d   1      -2.877  -0.164   0.223  0.00  0.00    -0.088 SA
BRANCH   8   9
ATOM      9  C   UNL d   1      -3.600   1.215  -0.720  0.00  0.00     0.121 C 
BRANCH   9  10
ATOM     10  C   UNL d   1      -5.112   1.226  -0.640  0.00  0.00    -0.049 A 
ATOM     11  C   UNL d   1      -5.782   2.209   0.102  0.00  0.00     0.008 A 
ATOM     12  C   UNL d   1      -7.179   2.233   0.163  0.00  0.00     0.007 A 
ATOM     13  C   UNL d   1      -7.939   1.273  -0.514  0.00  0.00    -0.062 A 
ATOM     14  C   UNL d   1      -7.277   0.287  -1.252  0.00  0.00     0.007 A 
ATOM     15  C   UNL d   1      -9.438   1.306  -0.429  0.00  0.00     0.048 C 
ATOM     16  C   UNL d   1      -5.879   0.267  -1.322  0.00  0.00     0.008 A 
ENDBRANCH   9  10
ENDBRANCH   8   9
ENDBRANCH   5   8
BRANCH   1  17
ATOM     17  C   UNL d   1      -0.430  -2.491  -0.227  0.00  0.00     0.193 C 
BRANCH  17  18
ATOM     18  C   UNL d   1      -1.787  -3.186  -0.021  0.00  0.00     0.276 C 
BRANCH  18  19
ATOM     19  O   UNL d   1      -2.575  -2.960  -1.196  0.00  0.00    -0.364 OA
ATOM     20  C   UNL d   1      -3.917  -3.402  -1.037  0.00  0.00     0.204 C 
ENDBRANCH  18  19
BRANCH  18  21
ATOM     21  O   UNL d   1      -1.609  -4.605   0.112  0.00  0.00    -0.364 OA
ATOM     22  C   UNL d   1      -0.980  -5.014   1.317  0.00  0.00     0.204 C 
ENDBRANCH  18  21
ENDBRANCH  17  18
ENDBRANCH   1  17
BRANCH   2  23
ATOM     23  C   UNL d   1       2.306  -0.980  -0.453  0.00  0.00     0.009 A 
ATOM     24  C   UNL d   1       2.659  -2.199  -1.048  0.00  0.00     0.015 A 
ATOM     25  C   UNL d   1       3.969  -2.691  -0.966  0.00  0.00     0.001 A 
ATOM     26  C   UNL d   1       4.956  -1.956  -0.316  0.00  0.00     0.000 A 
ATOM     27  C   UNL d   1       4.637  -0.725   0.244  0.00  0.00     0.001 A 
ATOM     28  C   UNL d   1       3.326  -0.244   0.174  0.00  0.00     0.015 A 
ENDBRANCH   2  23
TORSDOF 8
