REMARK  9 active torsions:
REMARK  status: ('A' for Active; 'I' for Inactive)
REMARK    1  A    between atoms: C_11  and  C_1 
REMARK    2  A    between atoms: C_12  and  C_2 
REMARK    3  A    between atoms: C_3  and  N_8 
REMARK    4  A    between atoms: N_7  and  C_4 
REMARK       I    between atoms: C_5  and  N_7 
REMARK    5  A    between atoms: C_9  and  C_5 
REMARK    6  A    between atoms: C_6  and  C_10 
REMARK       I    between atoms: N_8  and  C_6 
REMARK    7  A    between atoms: O_29  and  C_11 
REMARK    8  A    between atoms: O_28  and  C_12 
REMARK    9  A    between atoms: C_23  and  C_13 
ROOT
ATOM      1  C   UNL d   1       1.389   3.524   0.200  0.00  0.00     0.033 A 
ATOM      2  C   UNL d   1      -0.707   4.018   1.296  0.00  0.00     0.033 A 
ATOM      3  C   UNL d   1       0.073   5.496  -0.495  0.00  0.00    -0.049 A 
ATOM      4  C   UNL d   1       0.445   3.227   1.193  0.00  0.00     0.034 A 
ATOM      5  C   UNL d   1      -0.886   5.136   0.468  0.00  0.00     0.025 A 
ATOM      6  C   UNL d   1       1.190   4.647  -0.636  0.00  0.00     0.025 A 
ENDROOT
BRANCH   1   7
ATOM      7  C   UNL d   1       2.602   2.666  -0.047  0.00  0.00     0.256 C 
ATOM      8  N   UNL d   1       3.238   2.193   1.083  0.00  0.00    -0.321 N 
ATOM      9  H   UNL d   1       2.958   2.602   1.966  0.00  0.00     0.169 HD
ATOM     10  O   UNL d   1       2.983   2.513  -1.204  0.00  0.00    -0.267 OA
BRANCH   8  11
ATOM     11  C   UNL d   1       4.419   1.436   1.134  0.00  0.00     0.058 A 
ATOM     12  C   UNL d   1       5.053   0.659   0.169  0.00  0.00     0.106 A 
ATOM     13  S   UNL d   1       6.548   0.009   0.758  0.00  0.00    -0.094 SA
ATOM     14  C   UNL d   1       6.331   0.690   2.296  0.00  0.00     0.053 A 
ATOM     15  C   UNL d   1       5.168   1.417   2.368  0.00  0.00     0.038 A 
BRANCH  12  16
ATOM     16  C   UNL d   1       4.715   0.233  -1.174  0.00  0.00     0.302 C 
ATOM     17  O   UNL d   1       5.492   0.190  -2.128  0.00  0.00    -0.259 OA
BRANCH  16  18
ATOM     18  O   UNL d   1       3.467  -0.327  -1.185  0.00  0.00    -0.322 OA
ATOM     19  C   UNL d   1       3.168  -1.002  -2.408  0.00  0.00     0.213 C 
ENDBRANCH  16  18
ENDBRANCH  12  16
ENDBRANCH   8  11
ENDBRANCH   1   7
BRANCH   2  20
ATOM     20  C   UNL d   1      -1.757   3.724   2.310  0.00  0.00     0.256 C 
ATOM     21  N   UNL d   1      -3.026   3.591   1.776  0.00  0.00    -0.321 N 
ATOM     22  H   UNL d   1      -3.113   3.472   0.769  0.00  0.00     0.169 HD
ATOM     23  O   UNL d   1      -1.426   3.602   3.481  0.00  0.00    -0.267 OA
BRANCH  21  24
ATOM     24  C   UNL d   1      -4.214   3.474   2.501  0.00  0.00     0.058 A 
ATOM     25  C   UNL d   1      -5.396   2.995   1.943  0.00  0.00     0.106 A 
ATOM     26  S   UNL d   1      -6.679   2.981   3.090  0.00  0.00    -0.094 SA
ATOM     27  C   UNL d   1      -5.693   3.643   4.309  0.00  0.00     0.053 A 
ATOM     28  C   UNL d   1      -4.402   3.839   3.873  0.00  0.00     0.038 A 
BRANCH  25  29
ATOM     29  C   UNL d   1      -5.692   2.489   0.613  0.00  0.00     0.302 C 
ATOM     30  O   UNL d   1      -6.683   1.848   0.281  0.00  0.00    -0.259 OA
BRANCH  29  31
ATOM     31  O   UNL d   1      -4.690   2.833  -0.256  0.00  0.00    -0.322 OA
ATOM     32  C   UNL d   1      -4.909   2.397  -1.600  0.00  0.00     0.213 C 
ENDBRANCH  29  31
ENDBRANCH  25  29
ENDBRANCH  21  24
ENDBRANCH   2  20
BRANCH   3  33
ATOM     33  C   UNL d   1      -0.125   6.787  -1.316  0.00  0.00    -0.024 C 
ATOM     34  C   UNL d   1       1.075   7.140  -2.220  0.00  0.00     0.019 C 
ATOM     35  C   UNL d   1      -1.368   6.650  -2.221  0.00  0.00     0.019 C 
ATOM     36  C   UNL d   1      -0.337   7.989  -0.364  0.00  0.00     0.019 C 
ENDBRANCH   3  33
TORSDOF 9
