REMARK  1 active torsions:
REMARK  status: ('A' for Active; 'I' for Inactive)
REMARK    1  A    between atoms: C_6  and  C_1 
REMARK       I    between atoms: N_9  and  C_6 
ROOT
ATOM      1  C   UNL d   1      -0.145  -1.237  -0.066  0.00  0.00     0.125 A 
ATOM      2  C   UNL d   1      -0.830   0.855   0.306  0.00  0.00     0.118 A 
ATOM      3  C   UNL d   1      -1.222  -0.461   0.433  0.00  0.00     0.077 A 
ATOM      4  N   UNL d   1       0.838  -0.436  -0.505  0.00  0.00    -0.255 N 
ATOM      5  HN  UNL d   1       1.716  -0.723  -0.938  1.00  0.00     0.195 HD
ATOM      6  O   UNL d   1       0.421   0.855  -0.254  0.00  0.00    -0.236 OA
ATOM      7  C   UNL d   1      -1.523   2.066   0.646  0.00  0.00     0.040 A 
ATOM      8  S   UNL d   1      -3.079   2.063   1.367  0.00  0.00    -0.099 SA
ATOM      9  C   UNL d   1      -1.069   3.357   0.449  0.00  0.00     0.022 A 
ATOM     10  C   UNL d   1      -3.147   3.770   1.399  0.00  0.00     0.050 A 
ATOM     11  C   UNL d   1      -2.008   4.340   0.879  0.00  0.00     0.008 A 
ENDROOT
BRANCH   1  12
ATOM     12  C   UNL d   1      -0.123  -2.699  -0.188  0.00  0.00     0.272 C 
ATOM     13  N   UNL d   1       1.084  -3.386  -0.008  0.00  0.00    -0.347 N 
ATOM     14  C   UNL d   1       1.150  -4.805  -0.348  0.00  0.00     0.126 C 
ATOM     15  C   UNL d   1       2.294  -2.829   0.600  0.00  0.00     0.126 C 
ATOM     16  C   UNL d   1       1.546  -5.649   0.860  0.00  0.00     0.020 C 
ATOM     17  C   UNL d   1       2.829  -5.124   1.502  0.00  0.00     0.003 C 
ATOM     18  C   UNL d   1       2.700  -3.640   1.830  0.00  0.00     0.020 C 
ATOM     19  O   UNL d   1      -1.171  -3.299  -0.430  0.00  0.00    -0.266 OA
ENDBRANCH   1  12
TORSDOF 1
