REMARK  4 active torsions:
REMARK  status: ('A' for Active; 'I' for Inactive)
REMARK    1  A    between atoms: N_8  and  C_1 
REMARK    2  A    between atoms: C_9  and  N_2 
REMARK    3  A    between atoms: S_10  and  C_5 
REMARK    4  A    between atoms: C_11  and  N_8 
ROOT
ATOM      1  C   UNL d   1      -0.076  -1.244  -0.077  0.00  0.00     0.706 A 
ATOM      2  N   UNL d   1       1.210  -0.680  -0.013  0.00  0.00    -0.123 N 
ATOM      3  N   UNL d   1      -0.971  -0.275  -0.047  0.00  0.00    -0.129 N 
ATOM      4  HN  UNL d   1      -1.982  -0.403  -0.079  1.00  0.00     0.205 HD
ATOM      5  C   UNL d   1       0.960   0.688   0.028  0.00  0.00     0.182 A 
ATOM      6  N   UNL d   1      -0.331   0.923   0.032  0.00  0.00    -0.265 N 
ATOM      7  HN  UNL d   1      -0.775   1.839   0.086  1.00  0.00     0.189 HD
ENDROOT
BRANCH   1   8
ATOM      8  N   UNL d   1      -0.311  -2.586  -0.076  0.00  0.00    -0.190 N 
ATOM      9  H   UNL d   1       0.378  -3.207   0.330  0.00  0.00     0.184 HD
BRANCH   8  10
ATOM     10  C   UNL d   1      -1.505  -3.235  -0.458  0.00  0.00     0.049 A 
ATOM     11  C   UNL d   1      -2.572  -2.588  -1.095  0.00  0.00     0.030 A 
ATOM     12  C   UNL d   1      -3.728  -3.279  -1.472  0.00  0.00     0.002 A 
ATOM     13  C   UNL d   1      -3.835  -4.642  -1.228  0.00  0.00     0.000 A 
ATOM     14  C   UNL d   1      -2.787  -5.312  -0.607  0.00  0.00     0.002 A 
ATOM     15  C   UNL d   1      -1.633  -4.617  -0.229  0.00  0.00     0.030 A 
ENDBRANCH   8  10
ENDBRANCH   1   8
BRANCH   2  16
ATOM     16  C   UNL d   1       2.471  -1.359  -0.044  0.00  0.00     0.059 A 
ATOM     17  C   UNL d   1       2.628  -2.541  -0.783  0.00  0.00     0.030 A 
ATOM     18  C   UNL d   1       3.870  -3.182  -0.838  0.00  0.00     0.002 A 
ATOM     19  C   UNL d   1       4.968  -2.643  -0.173  0.00  0.00     0.000 A 
ATOM     20  C   UNL d   1       4.823  -1.474   0.567  0.00  0.00     0.002 A 
ATOM     21  C   UNL d   1       3.579  -0.842   0.644  0.00  0.00     0.030 A 
ENDBRANCH   2  16
BRANCH   5  22
ATOM     22  S   UNL d   1       2.146   1.952  -0.129  0.00  0.00    -0.096 SA
ATOM     23  C   UNL d   1       1.100   3.422  -0.023  0.00  0.00     0.099 C 
ENDBRANCH   5  22
TORSDOF 4
