REMARK  2 active torsions:
REMARK  status: ('A' for Active; 'I' for Inactive)
REMARK    1  A    between atoms: C_3  and  C_1 
REMARK    2  A    between atoms: C_10  and  C_2 
ROOT
ATOM      1  C   UNL d   1      -1.265  -0.953  -0.144  0.00  0.00     0.142 A 
ATOM      2  C   UNL d   1       0.059  -1.382  -0.079  0.00  0.00     0.064 A 
ATOM      3  O   UNL d   1      -1.285   0.395  -0.369  0.00  0.00    -0.234 OA
ATOM      4  N   UNL d   1      -0.018   0.904  -0.338  0.00  0.00    -0.264 N 
ATOM      5  HN  UNL d   1       0.253   1.882  -0.437  1.00  0.00     0.194 HD
ATOM      6  C   UNL d   1       0.796  -0.141  -0.152  0.00  0.00     0.045 A 
ATOM      7  C   UNL d   1       2.246   0.147  -0.013  0.00  0.00     0.071 C 
ENDROOT
BRANCH   1   8
ATOM      8  C   UNL d   1      -2.553  -1.698  -0.012  0.00  0.00     0.094 A 
ATOM      9  N   UNL d   1      -2.673  -2.915   0.533  0.00  0.00    -0.258 N 
ATOM     10  O   UNL d   1      -4.028  -3.192   0.545  0.00  0.00    -0.242 OA
ATOM     11  HN  UNL d   1      -1.920  -3.515   0.870  1.00  0.00     0.195 HD
ATOM     12  C   UNL d   1      -4.708  -2.154  -0.011  0.00  0.00     0.074 A 
ATOM     13  C   UNL d   1      -3.816  -1.179  -0.377  0.00  0.00     0.068 A 
ATOM     14  C   UNL d   1      -6.173  -2.290  -0.091  0.00  0.00     0.079 C 
ENDBRANCH   1   8
BRANCH   2  15
ATOM     15  C   UNL d   1       0.553  -2.742  -0.006  0.00  0.00     0.109 C 
ATOM     16  S   UNL d   1       1.835  -3.221  -0.952  0.00  0.00    -0.060 SA
ATOM     17  N   UNL d   1      -0.064  -3.648   0.797  0.00  0.00    -0.389 N 
ATOM     18  H   UNL d   1      -0.995  -3.475   1.173  0.00  0.00     0.157 HD
ATOM     19  H   UNL d   1       0.195  -4.622   0.700  0.00  0.00     0.157 HD
ENDBRANCH   2  15
TORSDOF 2
