REMARK  3 active torsions:
REMARK  status: ('A' for Active; 'I' for Inactive)
REMARK    1  A    between atoms: C_13  and  C_9 
REMARK    2  A    between atoms: C_11  and  C_14 
REMARK    3  A    between atoms: C_22  and  C_15 
ROOT
ATOM      1  C   UNL d   1       0.378   0.663  -0.213  0.00  0.00     0.139 A 
ATOM      2  C   UNL d   1       0.384  -0.721  -0.481  0.00  0.00     0.058 A 
ATOM      3  N   UNL d   1       1.507   1.064   0.369  0.00  0.00    -0.254 N 
ATOM      4  HN  UNL d   1       1.753   2.010   0.660  1.00  0.00     0.195 HD
ATOM      5  C   UNL d   1      -0.750   1.498  -0.559  0.00  0.00     0.289 A 
ATOM      6  N   UNL d   1      -1.773  -0.570  -1.462  0.00  0.00    -0.301 N 
ATOM      7  HN  UNL d   1      -2.581  -0.985  -1.926  1.00  0.00     0.186 HD
ATOM      8  N   UNL d   1      -1.771   0.781  -1.167  0.00  0.00    -0.264 N 
ATOM      9  C   UNL d   1       1.601  -1.185   0.001  0.00  0.00     0.113 A 
ATOM     10  O   UNL d   1       2.271  -0.077   0.490  0.00  0.00    -0.236 OA
ATOM     11  C   UNL d   1      -0.748  -1.321  -1.151  0.00  0.00     0.037 A 
ATOM     12  O   UNL d   1      -0.835   2.706  -0.354  0.00  0.00    -0.264 OA
ATOM     13  C   UNL d   1      -0.838  -2.771  -1.541  0.00  0.00     0.070 C 
ATOM     14  H   UNL d   1      -2.596   1.304  -1.444  0.00  0.00     0.190 HD
ENDROOT
BRANCH   9  15
ATOM     15  C   UNL d   1       2.163  -2.489   0.049  0.00  0.00     0.041 C 
ATOM     16  C   UNL d   1       3.490  -2.677  -0.006  0.00  0.00     0.014 C 
BRANCH  16  17
ATOM     17  C   UNL d   1       4.032  -4.035  -0.032  0.00  0.00    -0.036 A 
ATOM     18  C   UNL d   1       4.206  -4.687  -1.257  0.00  0.00     0.012 A 
ATOM     19  C   UNL d   1       4.663  -6.006  -1.295  0.00  0.00     0.017 A 
ATOM     20  C   UNL d   1       4.952  -6.694  -0.108  0.00  0.00     0.048 A 
ATOM     21  C   UNL d   1       4.782  -6.030   1.118  0.00  0.00     0.017 A 
ATOM     22  C   UNL d   1       4.323  -4.710   1.156  0.00  0.00     0.012 A 
BRANCH  20  23
ATOM     23  C   UNL d   1       5.435  -8.124  -0.132  0.00  0.00     0.417 C 
ATOM     24  F   UNL d   1       5.535  -8.645  -1.387  0.00  0.00    -0.166 F 
ATOM     25  F   UNL d   1       6.665  -8.269   0.432  0.00  0.00    -0.166 F 
ATOM     26  F   UNL d   1       4.608  -8.962   0.553  0.00  0.00    -0.166 F 
ENDBRANCH  20  23
ENDBRANCH  16  17
ENDBRANCH   9  15
TORSDOF 3
