REMARK  3 active torsions:
REMARK  status: ('A' for Active; 'I' for Inactive)
REMARK    1  A    between atoms: N_2  and  S_1 
REMARK    2  A    between atoms: C_5  and  S_1 
REMARK    3  A    between atoms: C_11  and  C_6 
ROOT
ATOM      1  N   UNL d   1       0.411   1.676  -0.355  0.00  0.00    -0.188 N 
ATOM      2  N   UNL d   1       1.175   2.801  -0.446  0.00  0.00    -0.284 N 
ATOM      3  HN  UNL d   1       2.162   2.867  -0.695  1.00  0.00     0.188 HD
ATOM      4  C   UNL d   1       0.337   3.804  -0.133  0.00  0.00     0.060 A 
ATOM      5  C   UNL d   1      -0.902   1.958  -0.058  0.00  0.00     0.131 A 
ATOM      6  C   UNL d   1      -0.990   3.320   0.031  0.00  0.00     0.052 A 
ENDROOT
BRANCH   4   7
ATOM      7  C   UNL d   1       0.777   5.192   0.001  0.00  0.00    -0.007 A 
ATOM      8  C   UNL d   1       0.064   6.075   0.830  0.00  0.00     0.023 A 
ATOM      9  C   UNL d   1       0.436   7.421   0.946  0.00  0.00    -0.024 A 
ATOM     10  C   UNL d   1      -0.351   8.335   1.836  0.00  0.00     0.044 C 
ATOM     11  C   UNL d   1       1.556   7.877   0.251  0.00  0.00     0.076 A 
ATOM     12  C   UNL d   1      -0.064   9.784   1.481  0.00  0.00     0.042 C 
ATOM     13  C   UNL d   1       1.445  10.025   1.308  0.00  0.00     0.061 C 
ATOM     14  O   UNL d   1       2.008   9.168   0.296  0.00  0.00    -0.340 OA
ATOM     15  C   UNL d   1       1.663  11.460   0.812  0.00  0.00     0.046 C 
ATOM     16  C   UNL d   1       2.227   9.831   2.615  0.00  0.00     0.046 C 
ATOM     17  C   UNL d   1       2.279   7.008  -0.566  0.00  0.00     0.038 A 
ATOM     18  C   UNL d   1       1.897   5.668  -0.686  0.00  0.00     0.016 A 
ENDBRANCH   4   7
BRANCH   1  19
ATOM     19  S   UNL d   1       0.961   0.051  -0.545  0.00  0.00     0.283 S 
ATOM     20  O   UNL d   1      -0.083  -0.799   0.008  0.00  0.00    -0.198 OA
ATOM     21  O   UNL d   1       2.300   0.051   0.018  0.00  0.00    -0.198 OA
BRANCH  19  22
ATOM     22  C   UNL d   1       1.110  -0.366  -2.260  0.00  0.00     0.103 A 
ATOM     23  C   UNL d   1       0.274   0.075  -3.286  0.00  0.00     0.057 A 
ATOM     24 CL   UNL d   1      -0.993   1.223  -3.123  0.00  0.00    -0.083 Cl
ATOM     25  C   UNL d   1       0.440  -0.446  -4.581  0.00  0.00     0.025 A 
ATOM     26  C   UNL d   1       1.446  -1.370  -4.864  0.00  0.00     0.002 A 
ATOM     27  C   UNL d   1       2.294  -1.793  -3.850  0.00  0.00     0.002 A 
ATOM     28  C   UNL d   1       2.118  -1.307  -2.555  0.00  0.00     0.027 A 
ENDBRANCH  19  22
ENDBRANCH   1  19
TORSDOF 3
