REMARK  10 active torsions:
REMARK  status: ('A' for Active; 'I' for Inactive)
REMARK    1  A    between atoms: C_2  and  N_1 
REMARK    2  A    between atoms: O_8  and  C_3 
REMARK    3  A    between atoms: O_11  and  C_4 
REMARK    4  A    between atoms: O_12  and  C_5 
REMARK    5  A    between atoms: C_13  and  O_8 
REMARK    6  A    between atoms: C_15  and  O_11 
REMARK    7  A    between atoms: C_14  and  O_12 
REMARK    8  A    between atoms: C_16  and  C_13 
REMARK    9  A    between atoms: C_17  and  C_14 
REMARK   10  A    between atoms: C_18  and  C_15 
ROOT
ATOM      1  C   UNL d   1       0.278   1.208   0.442  0.00  0.00     0.108 C 
ATOM      2  C   UNL d   1      -1.323   3.403   1.170  0.00  0.00     0.136 C 
ATOM      3  C   UNL d   1      -1.724   2.078   1.481  0.00  0.00     0.107 C 
ATOM      4  C   UNL d   1      -0.209   3.585   0.321  0.00  0.00     0.107 C 
ATOM      5  C   UNL d   1       0.606   2.491  -0.008  0.00  0.00     0.075 C 
ATOM      6  C   UNL d   1      -0.887   0.998   1.175  0.00  0.00     0.075 C 
ENDROOT
BRANCH   2   7
ATOM      7  O   UNL d   1      -2.092   4.385   1.749  0.00  0.00    -0.341 OA
BRANCH   7   8
ATOM      8  C   UNL d   1      -1.425   5.589   2.133  0.00  0.00     0.214 C 
BRANCH   8   9
ATOM      9  C   UNL d   1      -1.626   6.052   3.553  0.00  0.00    -0.034 A 
ATOM     10  C   UNL d   1      -2.299   5.306   4.522  0.00  0.00     0.009 A 
ATOM     11  C   UNL d   1      -2.413   5.802   5.823  0.00  0.00     0.001 A 
ATOM     12  C   UNL d   1      -1.862   7.038   6.163  0.00  0.00     0.000 A 
ATOM     13  C   UNL d   1      -1.195   7.792   5.204  0.00  0.00     0.001 A 
ATOM     14  C   UNL d   1      -1.079   7.302   3.906  0.00  0.00     0.009 A 
ENDBRANCH   8   9
ENDBRANCH   7   8
ENDBRANCH   2   7
BRANCH   3  15
ATOM     15  O   UNL d   1      -2.957   1.901   2.082  0.00  0.00    -0.344 OA
BRANCH  15  16
ATOM     16  C   UNL d   1      -3.580   0.637   1.786  0.00  0.00     0.214 C 
BRANCH  16  17
ATOM     17  C   UNL d   1      -5.092   0.650   1.816  0.00  0.00    -0.034 A 
ATOM     18  C   UNL d   1      -5.845   1.790   2.106  0.00  0.00     0.009 A 
ATOM     19  C   UNL d   1      -7.243   1.740   2.075  0.00  0.00     0.001 A 
ATOM     20  C   UNL d   1      -7.899   0.554   1.752  0.00  0.00     0.000 A 
ATOM     21  C   UNL d   1      -7.162  -0.592   1.463  0.00  0.00     0.001 A 
ATOM     22  C   UNL d   1      -5.769  -0.543   1.497  0.00  0.00     0.009 A 
ENDBRANCH  16  17
ENDBRANCH  15  16
ENDBRANCH   3  15
BRANCH   4  23
ATOM     23  O   UNL d   1       0.235   4.748  -0.264  0.00  0.00    -0.344 OA
BRANCH  23  24
ATOM     24  C   UNL d   1      -0.760   5.656  -0.739  0.00  0.00     0.214 C 
BRANCH  24  25
ATOM     25  C   UNL d   1      -0.560   6.067  -2.174  0.00  0.00    -0.034 A 
ATOM     26  C   UNL d   1      -1.645   6.007  -3.060  0.00  0.00     0.009 A 
ATOM     27  C   UNL d   1      -1.536   6.525  -4.348  0.00  0.00     0.001 A 
ATOM     28  C   UNL d   1      -0.342   7.109  -4.762  0.00  0.00     0.000 A 
ATOM     29  C   UNL d   1       0.747   7.166  -3.893  0.00  0.00     0.001 A 
ATOM     30  C   UNL d   1       0.642   6.646  -2.602  0.00  0.00     0.009 A 
ENDBRANCH  24  25
ENDBRANCH  23  24
ENDBRANCH   4  23
BRANCH   1  31
ATOM     31  N   UNL d   1       1.137   0.067   0.103  0.00  0.00    -0.116 N 
ATOM     32  O   UNL d   1       2.189   0.297  -0.508  0.00  0.00    -0.532 OA
ATOM     33  O   UNL d   1       0.753  -1.060   0.447  0.00  0.00    -0.532 OA
ENDBRANCH   1  31
TORSDOF 10
