REMARK  1 active torsions:
REMARK  status: ('A' for Active; 'I' for Inactive)
REMARK    1  A    between atoms: S_12  and  C_5 
ROOT
ATOM      1  N   UNL d   1      -0.309  -1.214  -0.016  0.00  0.00    -0.315 N 
ATOM      2  C   UNL d   1       0.938  -0.630  -0.062  0.00  0.00     0.141 A 
ATOM      3  N   UNL d   1       0.787   0.679  -0.126  0.00  0.00    -0.282 N 
ATOM      4  HN  UNL d   1       1.541   1.366  -0.149  1.00  0.00     0.188 HD
ATOM      5  C   UNL d   1      -1.202  -0.177  -0.096  0.00  0.00     0.159 A 
ATOM      6  N   UNL d   1      -0.556   0.962  -0.157  0.00  0.00    -0.278 N 
ATOM      7  HN  UNL d   1      -0.975   1.890  -0.218  1.00  0.00     0.189 HD
ATOM      8  C   UNL d   1       2.216  -1.285  -0.036  0.00  0.00     0.050 A 
ATOM      9  S   UNL d   1       3.517  -0.609   0.860  0.00  0.00    -0.098 SA
ATOM     10  C   UNL d   1       2.609  -2.439  -0.686  0.00  0.00     0.023 A 
ATOM     11  C   UNL d   1       4.579  -1.868   0.405  0.00  0.00     0.050 A 
ATOM     12  C   UNL d   1       3.969  -2.784  -0.422  0.00  0.00     0.009 A 
ATOM     13  C   UNL d   1      -0.619  -2.609   0.151  0.00  0.00     0.160 C 
ENDROOT
BRANCH   5  14
ATOM     14  S   UNL d   1      -2.925  -0.327  -0.111  0.00  0.00    -0.105 SA
ATOM     15  H   UNL d   1      -3.058  -1.656  -0.143  0.00  0.00     0.110 HD
ENDBRANCH   5  14
TORSDOF 1
