REMARK  6 active torsions:
REMARK  status: ('A' for Active; 'I' for Inactive)
REMARK    1  A    between atoms: C_3  and  S_1 
REMARK    2  A    between atoms: C_4  and  S_1 
REMARK    3  A    between atoms: C_6  and  C_2 
REMARK    4  A    between atoms: C_5  and  N_10 
REMARK    5  A    between atoms: O_21  and  C_6 
REMARK    6  A    between atoms: N_10  and  C_7 
ROOT
ATOM      1  C   UNL d   1       0.419   1.514  -0.277  0.00  0.00     0.159 C 
ATOM      2  C   UNL d   1      -0.317   1.468  -1.401  0.00  0.00     0.123 C 
ATOM      3  C   UNL d   1       0.989   0.373   0.327  0.00  0.00     0.113 C 
ATOM      4  N   UNL d   1       1.487  -0.552   0.818  0.00  0.00    -0.191 NA
ENDROOT
BRANCH   1   5
ATOM      5  S   UNL d   1       0.566   3.037   0.527  0.00  0.00     0.224 S 
ATOM      6  O   UNL d   1      -0.477   3.135   1.534  0.00  0.00    -0.216 OA
ATOM      7  O   UNL d   1       0.742   4.102  -0.443  0.00  0.00    -0.216 OA
BRANCH   5   8
ATOM      8  C   UNL d   1       2.078   3.042   1.473  0.00  0.00     0.105 A 
ATOM      9  S   UNL d   1       3.538   2.821   0.605  0.00  0.00    -0.090 SA
ATOM     10  C   UNL d   1       4.481   2.988   2.024  0.00  0.00     0.051 A 
ATOM     11  C   UNL d   1       3.705   3.222   3.138  0.00  0.00     0.009 A 
ATOM     12  C   UNL d   1       2.317   3.250   2.820  0.00  0.00     0.032 A 
ENDBRANCH   5   8
ENDBRANCH   1   5
BRANCH   2  13
ATOM     13  N   UNL d   1      -0.677   0.355  -2.146  0.00  0.00    -0.362 N 
ATOM     14  H   UNL d   1      -0.268   0.368  -3.088  0.00  0.00     0.165 HD
BRANCH  13  15
ATOM     15  C   UNL d   1      -1.875  -0.301  -2.046  0.00  0.00     0.055 A 
ATOM     16  C   UNL d   1      -2.318  -1.264  -2.944  0.00  0.00     0.106 A 
ATOM     17  S   UNL d   1      -3.860  -1.881  -2.479  0.00  0.00    -0.094 SA
ATOM     18  C   UNL d   1      -3.936  -0.875  -1.108  0.00  0.00     0.053 A 
ATOM     19  C   UNL d   1      -2.817  -0.085  -0.989  0.00  0.00     0.038 A 
BRANCH  16  20
ATOM     20  C   UNL d   1      -1.719  -1.817  -4.148  0.00  0.00     0.302 C 
ATOM     21  O   UNL d   1      -2.147  -2.760  -4.804  0.00  0.00    -0.259 OA
BRANCH  20  22
ATOM     22  O   UNL d   1      -0.583  -1.125  -4.482  0.00  0.00    -0.322 OA
ATOM     23  C   UNL d   1       0.069  -1.636  -5.648  0.00  0.00     0.213 C 
ENDBRANCH  20  22
ENDBRANCH  16  20
ENDBRANCH  13  15
ENDBRANCH   2  13
TORSDOF 6
