REMARK  4 active torsions:
REMARK  status: ('A' for Active; 'I' for Inactive)
REMARK    1  A    between atoms: C_2  and  C_1 
REMARK       I    between atoms: N_3  and  C_1 
REMARK       I    between atoms: C_4  and  N_3 
REMARK       I    between atoms: N_6  and  C_4 
REMARK    2  A    between atoms: O_19  and  C_5 
REMARK    3  A    between atoms: C_12  and  N_6 
REMARK    4  A    between atoms: O_23  and  C_9 
ROOT
ATOM      1  C   UNL d   1       1.137  -0.280  -0.579  0.00  0.00     0.265 C 
ATOM      2  N   UNL d   1       0.882  -1.661  -0.597  0.00  0.00    -0.275 N 
ATOM      3  C   UNL d   1       0.197  -2.609  -1.349  0.00  0.00     0.327 C 
ATOM      4  N   UNL d   1       0.141  -2.405  -2.697  0.00  0.00    -0.309 N 
ATOM      5  O   UNL d   1       1.865   0.195   0.290  0.00  0.00    -0.267 OA
ATOM      6  O   UNL d   1      -0.245  -3.583  -0.755  0.00  0.00    -0.247 OA
ATOM      7  H   UNL d   1       1.114  -2.051   0.307  0.00  0.00     0.173 HD
ATOM      8  H   UNL d   1       0.708  -1.638  -3.030  0.00  0.00     0.170 HD
ENDROOT
BRANCH   1   9
ATOM      9  C   UNL d   1       0.492   0.622  -1.551  0.00  0.00     0.100 C 
ATOM     10  C   UNL d   1       0.901   0.611  -2.901  0.00  0.00     0.108 C 
ATOM     11  C   UNL d   1       0.191   1.395  -3.817  0.00  0.00     0.068 C 
ATOM     12 CL   UNL d   1       0.397   1.292  -5.529  0.00  0.00    -0.081 Cl
ATOM     13  C   UNL d   1      -0.839   2.233  -3.370  0.00  0.00     0.029 C 
ATOM     14  C   UNL d   1      -1.169   2.308  -2.015  0.00  0.00     0.039 C 
ATOM     15  C   UNL d   1      -0.488   1.522  -1.088  0.00  0.00     0.086 C 
BRANCH  10  16
ATOM     16  O   UNL d   1       1.868  -0.313  -3.207  0.00  0.00    -0.353 OA
ATOM     17  C   UNL d   1       2.852   0.020  -4.178  0.00  0.00     0.210 C 
ENDBRANCH  10  16
BRANCH  15  18
ATOM     18  O   UNL d   1      -0.772   1.525   0.250  0.00  0.00    -0.355 OA
ATOM     19  C   UNL d   1      -1.306   2.715   0.829  0.00  0.00     0.210 C 
ENDBRANCH  15  18
ENDBRANCH   1   9
BRANCH   4  20
ATOM     20  C   UNL d   1      -0.272  -3.306  -3.705  0.00  0.00     0.038 A 
ATOM     21  C   UNL d   1      -0.823  -4.566  -3.451  0.00  0.00     0.055 A 
ATOM     22  C   UNL d   1      -1.081  -5.457  -4.504  0.00  0.00     0.058 A 
ATOM     23 CL   UNL d   1      -1.706  -7.018  -4.101  0.00  0.00    -0.082 Cl
ATOM     24  C   UNL d   1      -0.809  -5.085  -5.824  0.00  0.00     0.055 A 
ATOM     25  C   UNL d   1      -0.311  -3.814  -6.090  0.00  0.00     0.028 A 
ATOM     26 CL   UNL d   1      -1.052  -6.149  -7.162  0.00  0.00    -0.083 Cl
ATOM     27  C   UNL d   1      -0.043  -2.930  -5.037  0.00  0.00     0.031 A 
ENDBRANCH   4  20
TORSDOF 4
