REMARK  4 active torsions:
REMARK  status: ('A' for Active; 'I' for Inactive)
REMARK    1  A    between atoms: C_2  and  C_1 
REMARK       I    between atoms: N_3  and  C_1 
REMARK    2  A    between atoms: C_12  and  N_3 
REMARK    3  A    between atoms: C_13  and  N_4 
REMARK    4  A    between atoms: C_19  and  C_13 
ROOT
ATOM      1  N   UNL d   1      -2.288   1.383  -1.530  0.00  0.00     0.092 N 
ATOM      2  C   UNL d   1      -1.116   0.777   1.139  0.00  0.00     0.088 C 
ATOM      3  C   UNL d   1      -2.096  -0.176   0.431  0.00  0.00     0.055 C 
ATOM      4  C   UNL d   1      -1.508   2.187   0.707  0.00  0.00     0.055 C 
ATOM      5  C   UNL d   1      -1.449   2.354  -0.801  0.00  0.00     0.275 C 
ATOM      6  C   UNL d   1      -2.029  -0.001  -1.097  0.00  0.00     0.275 C 
ENDROOT
BRANCH   2   7
ATOM      7  N   UNL d   1       0.257   0.322   0.853  0.00  0.00    -0.352 N 
ATOM      8  C   UNL d   1       1.530   0.788   1.019  0.00  0.00     0.252 C 
ATOM      9  O   UNL d   1       2.454   0.032   0.718  0.00  0.00    -0.268 OA
ATOM     10  H   UNL d   1       0.327  -0.654   0.583  0.00  0.00     0.163 HD
BRANCH   8  11
ATOM     11  C   UNL d   1       1.859   2.158   1.457  0.00  0.00     0.032 A 
ATOM     12  C   UNL d   1       1.169   2.817   2.481  0.00  0.00     0.027 A 
ATOM     13  C   UNL d   1       1.510   4.134   2.744  0.00  0.00    -0.022 A 
ATOM     14  C   UNL d   1       0.920   5.088   3.709  0.00  0.00     0.068 C 
ATOM     15  C   UNL d   1       2.571   4.748   2.092  0.00  0.00     0.075 A 
ATOM     16  C   UNL d   1       1.569   6.377   3.199  0.00  0.00     0.180 C 
ATOM     17  O   UNL d   1       2.781   6.044   2.483  0.00  0.00    -0.350 OA
ATOM     18  C   UNL d   1       3.330   4.091   1.150  0.00  0.00     0.038 A 
ATOM     19  C   UNL d   1       2.957   2.785   0.824  0.00  0.00     0.020 A 
ENDBRANCH   8  11
ENDBRANCH   2   7
BRANCH   1  20
ATOM     20  C   UNL d   1      -1.990   1.569  -2.970  0.00  0.00     0.311 C 
BRANCH  20  21
ATOM     21  C   UNL d   1      -2.734   0.683  -3.941  0.00  0.00    -0.030 A 
ATOM     22  C   UNL d   1      -4.132   0.675  -3.997  0.00  0.00     0.009 A 
ATOM     23  C   UNL d   1      -4.793  -0.075  -4.972  0.00  0.00     0.001 A 
ATOM     24  C   UNL d   1      -4.064  -0.821  -5.897  0.00  0.00     0.000 A 
ATOM     25  C   UNL d   1      -2.672  -0.829  -5.845  0.00  0.00     0.001 A 
ATOM     26  C   UNL d   1      -2.009  -0.082  -4.871  0.00  0.00     0.009 A 
ENDBRANCH  20  21
ENDBRANCH   1  20
TORSDOF 4
