REMARK  4 active torsions:
REMARK  status: ('A' for Active; 'I' for Inactive)
REMARK    1  A    between atoms: C_5  and  C_1 
REMARK       I    between atoms: N_13  and  C_5 
REMARK    2  A    between atoms: O_21  and  C_6 
REMARK    3  A    between atoms: N_11  and  N_13 
REMARK    4  A    between atoms: C_17  and  C_18 
ROOT
ATOM      1  N   UNL d   1      -3.987   0.569  -0.092  0.00  0.00    -0.308 N 
ATOM      2  HN  UNL d   1      -3.159   1.133  -0.284  1.00  0.00     0.186 HD
ATOM      3  C   UNL d   1      -5.144   1.121   0.076  0.00  0.00     0.118 C 
ENDROOT
BRANCH   1   4
ATOM      4  N   UNL d   1      -3.908  -0.791  -0.005  0.00  0.00    -0.265 N 
ATOM      5  C   UNL d   1      -2.669  -1.402  -0.187  0.00  0.00     0.288 C 
ATOM      6  O   UNL d   1      -1.627  -0.794  -0.418  0.00  0.00    -0.264 OA
ATOM      7  H   UNL d   1      -4.726  -1.362   0.182  0.00  0.00     0.190 HD
BRANCH   5   8
ATOM      8  C   UNL d   1      -2.678  -2.864  -0.088  0.00  0.00     0.126 A 
ATOM      9  N   UNL d   1      -3.787  -3.584   0.166  0.00  0.00    -0.256 N 
ATOM     10  O   UNL d   1      -3.379  -4.913   0.172  0.00  0.00    -0.242 OA
ATOM     11  HN  UNL d   1      -4.730  -3.228   0.321  1.00  0.00     0.195 HD
ATOM     12  C   UNL d   1      -2.043  -4.984  -0.075  0.00  0.00     0.075 A 
ATOM     13  C   UNL d   1      -1.552  -3.716  -0.243  0.00  0.00     0.071 A 
ATOM     14  C   UNL d   1      -1.437  -6.329  -0.112  0.00  0.00     0.079 C 
ENDBRANCH   5   8
ENDBRANCH   1   4
BRANCH   3  15
ATOM     15  C   UNL d   1      -5.285   2.596  -0.007  0.00  0.00    -0.017 A 
ATOM     16  C   UNL d   1      -4.165   3.397  -0.266  0.00  0.00     0.034 A 
ATOM     17  C   UNL d   1      -4.298   4.786  -0.335  0.00  0.00     0.046 A 
ATOM     18 BR   UNL d   1      -2.752   5.823  -0.699  0.00  0.00    -0.048 Br
ATOM     19  C   UNL d   1      -5.546   5.381  -0.140  0.00  0.00     0.100 A 
ATOM     20  C   UNL d   1      -6.662   4.576   0.113  0.00  0.00     0.046 A 
ATOM     21  C   UNL d   1      -6.540   3.183   0.179  0.00  0.00     0.034 A 
ATOM     22 BR   UNL d   1      -8.373   5.354   0.376  0.00  0.00    -0.048 Br
BRANCH  19  23
ATOM     23  O   UNL d   1      -5.658   6.746  -0.198  0.00  0.00    -0.358 OA
ATOM     24  H   UNL d   1      -6.585   6.987  -0.022  0.00  0.00     0.217 HD
ENDBRANCH  19  23
ENDBRANCH   3  15
TORSDOF 4
