REMARK  7 active torsions:
REMARK  status: ('A' for Active; 'I' for Inactive)
REMARK       I    between atoms: N_8  and  C_1 
REMARK    1  A    between atoms: C_9  and  C_1 
REMARK    2  A    between atoms: C_5  and  C_2 
REMARK    3  A    between atoms: C_3  and  O_4 
REMARK    4  A    between atoms: O_4  and  C_9 
REMARK    5  A    between atoms: S_7  and  C_5 
REMARK    6  A    between atoms: C_10  and  S_7 
REMARK    7  A    between atoms: N_12  and  N_8 
ROOT
ATOM      1  C   UNL d   1       5.182   1.002  -0.169  0.00  0.00    -0.015 A 
ATOM      2  C   UNL d   1       4.346   0.964   0.967  0.00  0.00     0.076 A 
ATOM      3  C   UNL d   1       6.523   1.393   0.003  0.00  0.00     0.011 A 
ATOM      4  C   UNL d   1       4.853   1.308   2.226  0.00  0.00     0.037 A 
ATOM      5  C   UNL d   1       7.030   1.695   1.267  0.00  0.00     0.001 A 
ATOM      6  C   UNL d   1       6.196   1.657   2.376  0.00  0.00     0.003 A 
ENDROOT
BRANCH   1   7
ATOM      7  C   UNL d   1       4.608   0.718  -1.544  0.00  0.00     0.120 C 
BRANCH   7   8
ATOM      8  S   UNL d   1       5.737   0.027  -2.804  0.00  0.00    -0.125 SA
BRANCH   8   9
ATOM      9  C   UNL d   1       6.335  -1.475  -2.046  0.00  0.00     0.001 A 
ATOM     10  C   UNL d   1       5.547  -2.308  -1.244  0.00  0.00     0.020 A 
ATOM     11  C   UNL d   1       6.082  -3.484  -0.704  0.00  0.00     0.025 A 
ATOM     12  C   UNL d   1       7.402  -3.836  -0.972  0.00  0.00     0.034 A 
ATOM     13  C   UNL d   1       8.194  -3.025  -1.778  0.00  0.00     0.025 A 
ATOM     14 CL   UNL d   1       8.053  -5.286  -0.314  0.00  0.00    -0.084 Cl
ATOM     15  C   UNL d   1       7.659  -1.850  -2.316  0.00  0.00     0.020 A 
ENDBRANCH   8   9
ENDBRANCH   7   8
ENDBRANCH   1   7
BRANCH   2  16
ATOM     16  O   UNL d   1       3.037   0.611   0.750  0.00  0.00    -0.341 OA
BRANCH  16  17
ATOM     17  C   UNL d   1       2.305   0.156   1.889  0.00  0.00     0.279 C 
BRANCH  17  18
ATOM     18  C   UNL d   1       1.048  -0.600   1.474  0.00  0.00     0.255 C 
ATOM     19  O   UNL d   1       0.154  -0.893   2.267  0.00  0.00    -0.270 OA
ATOM     20  N   UNL d   1       1.033  -0.989   0.139  0.00  0.00    -0.292 N 
ATOM     21  H   UNL d   1       1.682  -0.524  -0.496  0.00  0.00     0.183 HD
BRANCH  20  22
ATOM     22  N   UNL d   1      -0.095  -1.651  -0.387  0.00  0.00    -0.247 NA
ATOM     23  H   UNL d   1      -0.856  -1.542   0.299  0.00  0.00     0.143 HD
ATOM     24  H   UNL d   1       0.099  -2.657  -0.372  0.00  0.00     0.143 HD
ENDBRANCH  20  22
ENDBRANCH  17  18
ENDBRANCH  16  17
ENDBRANCH   2  16
TORSDOF 7
