REMARK  7 active torsions:
REMARK  status: ('A' for Active; 'I' for Inactive)
REMARK    1  A    between atoms: N_5  and  C_1 
REMARK    2  A    between atoms: C_3  and  C_2 
REMARK       I    between atoms: N_6  and  C_3 
REMARK    3  A    between atoms: O_19  and  C_4 
REMARK       I    between atoms: C_8  and  N_6 
REMARK       I    between atoms: N_12  and  C_8 
REMARK    4  A    between atoms: O_21  and  C_9 
REMARK    5  A    between atoms: C_10  and  N_12 
REMARK    6  A    between atoms: O_22  and  C_16 
REMARK    7  A    between atoms: O_23  and  C_17 
ROOT
ATOM      1  C   UNL d   1       1.992   2.515   0.367  0.00  0.00     0.265 C 
ATOM      2  N   UNL d   1       3.317   2.681  -0.002  0.00  0.00    -0.275 N 
ATOM      3  C   UNL d   1       4.184   1.782  -0.576  0.00  0.00     0.327 C 
ATOM      4  N   UNL d   1       5.463   2.209  -0.838  0.00  0.00    -0.304 N 
ATOM      5  O   UNL d   1       1.253   3.485   0.516  0.00  0.00    -0.267 OA
ATOM      6  O   UNL d   1       3.914   0.598  -0.772  0.00  0.00    -0.247 OA
ATOM      7  H   UNL d   1       3.528   3.656  -0.150  0.00  0.00     0.173 HD
ATOM      8  H   UNL d   1       6.100   1.431  -0.976  0.00  0.00     0.171 HD
ENDROOT
BRANCH   1   9
ATOM      9  C   UNL d   1       1.466   1.157   0.599  0.00  0.00     0.103 C 
ATOM     10  C   UNL d   1       2.028   0.365   1.613  0.00  0.00     0.119 C 
ATOM     11  C   UNL d   1       1.637  -0.976   1.717  0.00  0.00     0.139 C 
ATOM     12  C   UNL d   1       0.607  -1.487   0.916  0.00  0.00     0.065 C 
ATOM     13  C   UNL d   1      -0.017  -0.657  -0.018  0.00  0.00     0.070 C 
ATOM     14  C   UNL d   1       0.397   0.673  -0.175  0.00  0.00     0.108 C 
ATOM     15 CL   UNL d   1      -1.276  -1.341  -0.983  0.00  0.00    -0.081 Cl
BRANCH  10  16
ATOM     16  O   UNL d   1       2.942   0.936   2.462  0.00  0.00    -0.352 OA
ATOM     17  C   UNL d   1       2.362   1.213   3.741  0.00  0.00     0.210 C 
ENDBRANCH  10  16
BRANCH  11  18
ATOM     18  N   UNL d   1       2.303  -1.883   2.641  0.00  0.00    -0.113 N 
ATOM     19  O   UNL d   1       3.529  -1.799   2.761  0.00  0.00    -0.532 OA
ATOM     20  O   UNL d   1       1.579  -2.697   3.233  0.00  0.00    -0.532 OA
ENDBRANCH  11  18
BRANCH  14  21
ATOM     21  O   UNL d   1      -0.163   1.459  -1.151  0.00  0.00    -0.353 OA
ATOM     22  C   UNL d   1      -1.347   2.110  -0.676  0.00  0.00     0.210 C 
ENDBRANCH  14  21
ENDBRANCH   1   9
BRANCH   4  23
ATOM     23  C   UNL d   1       6.079   3.477  -0.715  0.00  0.00     0.103 C 
ATOM     24  C   UNL d   1       7.453   3.522  -0.421  0.00  0.00     0.097 C 
ATOM     25  C   UNL d   1       8.096   4.737  -0.161  0.00  0.00     0.039 C 
ATOM     26  C   UNL d   1       7.376   5.931  -0.205  0.00  0.00     0.006 C 
ATOM     27  C   UNL d   1       6.039   5.915  -0.599  0.00  0.00     0.039 C 
ATOM     28  C   UNL d   1       5.421   4.699  -0.904  0.00  0.00     0.097 C 
BRANCH  24  29
ATOM     29  O   UNL d   1       8.222   2.390  -0.503  0.00  0.00    -0.354 OA
ATOM     30  C   UNL d   1       8.222   1.635   0.707  0.00  0.00     0.210 C 
ENDBRANCH  24  29
BRANCH  28  31
ATOM     31  O   UNL d   1       4.166   4.784  -1.456  0.00  0.00    -0.354 OA
ATOM     32  C   UNL d   1       4.198   4.373  -2.833  0.00  0.00     0.210 C 
ENDBRANCH  28  31
ENDBRANCH   4  23
TORSDOF 7
