REMARK  9 active torsions:
REMARK  status: ('A' for Active; 'I' for Inactive)
REMARK    1  A    between atoms: C_9  and  C_1 
REMARK    2  A    between atoms: C_2  and  C_10 
REMARK       I    between atoms: N_4  and  C_2 
REMARK    3  A    between atoms: C_3  and  C_8 
REMARK       I    between atoms: N_6  and  C_3 
REMARK    4  A    between atoms: C_8  and  N_4 
REMARK       I    between atoms: C_5  and  N_7 
REMARK    5  A    between atoms: C_11  and  C_5 
REMARK    6  A    between atoms: N_7  and  N_6 
REMARK    7  A    between atoms: C_25  and  C_8 
REMARK    8  A    between atoms: C_30  and  C_25 
REMARK    9  A    between atoms: S_29  and  C_30 
ROOT
ATOM      1  C   UNL d   1       0.867   5.504  -3.251  0.00  0.00     0.179 C 
ENDROOT
BRANCH   1   2
ATOM      2  C   UNL d   1       2.262   4.856  -3.418  0.00  0.00     0.259 C 
ATOM      3  N   UNL d   1       2.297   3.504  -3.131  0.00  0.00    -0.265 N 
ATOM      4  H   UNL d   1       1.442   2.942  -3.103  0.00  0.00     0.190 HD
ATOM      5  O   UNL d   1       3.280   5.486  -3.704  0.00  0.00    -0.269 OA
BRANCH   3   6
ATOM      6  N   UNL d   1       3.506   2.818  -3.345  0.00  0.00    -0.263 N 
ATOM      7  C   UNL d   1       3.450   1.513  -3.793  0.00  0.00     0.270 C 
ATOM      8  O   UNL d   1       2.404   0.889  -3.908  0.00  0.00    -0.266 OA
ATOM      9  H   UNL d   1       4.364   3.319  -3.142  0.00  0.00     0.190 HD
BRANCH   7  10
ATOM     10  C   UNL d   1       4.744   0.874  -4.142  0.00  0.00     0.033 A 
ATOM     11  C   UNL d   1       4.908  -0.492  -3.875  0.00  0.00     0.019 A 
ATOM     12  C   UNL d   1       6.074  -1.151  -4.276  0.00  0.00     0.025 A 
ATOM     13  C   UNL d   1       7.064  -0.449  -4.960  0.00  0.00     0.034 A 
ATOM     14  C   UNL d   1       6.908   0.911  -5.232  0.00  0.00     0.025 A 
ATOM     15 CL   UNL d   1       8.479  -1.270  -5.495  0.00  0.00    -0.084 Cl
ATOM     16  C   UNL d   1       5.748   1.578  -4.820  0.00  0.00     0.019 A 
ENDBRANCH   7  10
ENDBRANCH   3   6
ENDBRANCH   1   2
BRANCH   1  17
ATOM     17  N   UNL d   1      -0.126   4.919  -4.168  0.00  0.00    -0.344 N 
ATOM     18  C   UNL d   1      -0.963   3.887  -3.790  0.00  0.00     0.252 C 
ATOM     19  O   UNL d   1      -0.843   3.336  -2.700  0.00  0.00    -0.268 OA
ATOM     20  H   UNL d   1      -0.098   5.212  -5.131  0.00  0.00     0.163 HD
BRANCH  18  21
ATOM     21  C   UNL d   1      -2.042   3.460  -4.744  0.00  0.00     0.032 A 
ATOM     22  C   UNL d   1      -2.261   4.069  -5.986  0.00  0.00     0.018 A 
ATOM     23  C   UNL d   1      -3.351   3.692  -6.784  0.00  0.00     0.017 A 
ATOM     24  C   UNL d   1      -4.247   2.697  -6.362  0.00  0.00     0.048 A 
ATOM     25  C   UNL d   1      -4.006   2.058  -5.139  0.00  0.00     0.017 A 
ATOM     26  C   UNL d   1      -2.917   2.437  -4.340  0.00  0.00     0.018 A 
BRANCH  24  27
ATOM     27  C   UNL d   1      -5.456   2.368  -7.207  0.00  0.00     0.417 C 
ATOM     28  F   UNL d   1      -6.232   1.373  -6.696  0.00  0.00    -0.166 F 
ATOM     29  F   UNL d   1      -5.122   1.976  -8.467  0.00  0.00    -0.166 F 
ATOM     30  F   UNL d   1      -6.281   3.442  -7.360  0.00  0.00    -0.166 F 
ENDBRANCH  24  27
ENDBRANCH  18  21
ENDBRANCH   1  17
BRANCH   1  31
ATOM     31  C   UNL d   1       0.892   7.045  -3.350  0.00  0.00     0.045 C 
BRANCH  31  32
ATOM     32  C   UNL d   1       1.353   7.593  -4.703  0.00  0.00     0.076 C 
BRANCH  32  33
ATOM     33  S   UNL d   1       1.248   9.413  -4.741  0.00  0.00    -0.173 SA
ATOM     34  C   UNL d   1       1.957   9.678  -6.388  0.00  0.00     0.089 C 
ENDBRANCH  32  33
ENDBRANCH  31  32
ENDBRANCH   1  31
TORSDOF 9
