REMARK  4 active torsions:
REMARK  status: ('A' for Active; 'I' for Inactive)
REMARK    1  A    between atoms: N_2  and  S_1 
REMARK       I    between atoms: C_6  and  N_2 
REMARK       I    between atoms: C_4  and  N_5 
REMARK    2  A    between atoms: C_7  and  C_4 
REMARK    3  A    between atoms: C_8  and  C_6 
REMARK    4  A    between atoms: O_26  and  C_20 
ROOT
ATOM      1  S   UNL d   1       0.870   1.520  -0.255  0.00  0.00    -0.122 SA
ATOM      2  C   UNL d   1      -1.438  -2.068   1.176  0.00  0.00     0.253 C 
ATOM      3  N   UNL d   1      -0.851  -1.181   0.283  0.00  0.00    -0.346 N 
ATOM      4  C   UNL d   1       1.374  -0.089   0.469  0.00  0.00     0.105 C 
ATOM      5  C   UNL d   1      -0.928   1.288   0.001  0.00  0.00     0.105 C 
ATOM      6  C   UNL d   1      -1.484  -0.072  -0.439  0.00  0.00     0.137 C 
ATOM      7  C   UNL d   1       0.582  -1.309  -0.011  0.00  0.00     0.137 C 
ATOM      8  O   UNL d   1      -0.851  -3.059   1.618  0.00  0.00    -0.267 OA
ENDROOT
BRANCH   1   9
ATOM      9  N   UNL d   1       0.912   1.158  -1.720  0.00  0.00    -0.306 N 
ATOM     10  C   UNL d   1       2.037   1.452  -2.389  0.00  0.00     0.261 C 
ATOM     11  O   UNL d   1       3.200   1.478  -1.987  0.00  0.00    -0.267 OA
ATOM     12  HN  UNL d   1       0.120   0.710  -2.180  1.00  0.00     0.176 HD
BRANCH  10  13
ATOM     13  C   UNL d   1       1.800   1.754  -3.846  0.00  0.00     0.033 A 
ATOM     14  C   UNL d   1       2.832   2.345  -4.584  0.00  0.00     0.020 A 
ATOM     15  C   UNL d   1       2.632   2.709  -5.920  0.00  0.00     0.038 A 
ATOM     16  C   UNL d   1       1.396   2.487  -6.528  0.00  0.00     0.068 A 
ATOM     17  C   UNL d   1       0.383   1.845  -5.820  0.00  0.00     0.038 A 
ATOM     18  C   UNL d   1       0.579   1.486  -4.484  0.00  0.00     0.020 A 
BRANCH  16  19
ATOM     19  O   UNL d   1       1.098   2.835  -7.819  0.00  0.00    -0.356 OA
ATOM     20  C   UNL d   1       1.645   4.090  -8.211  0.00  0.00     0.210 C 
ENDBRANCH  16  19
ENDBRANCH  10  13
ENDBRANCH   1   9
BRANCH   2  21
ATOM     21  C   UNL d   1      -2.836  -1.883   1.654  0.00  0.00     0.032 A 
ATOM     22  C   UNL d   1      -3.616  -3.033   1.854  0.00  0.00     0.018 A 
ATOM     23  C   UNL d   1      -4.911  -2.936   2.372  0.00  0.00     0.025 A 
ATOM     24  C   UNL d   1      -5.433  -1.684   2.689  0.00  0.00     0.034 A 
ATOM     25  C   UNL d   1      -4.663  -0.536   2.518  0.00  0.00     0.025 A 
ATOM     26 CL   UNL d   1      -7.029  -1.558   3.320  0.00  0.00    -0.084 Cl
ATOM     27  C   UNL d   1      -3.357  -0.639   2.029  0.00  0.00     0.018 A 
ENDBRANCH   2  21
TORSDOF 4
