REMARK  2 active torsions:
REMARK  status: ('A' for Active; 'I' for Inactive)
REMARK    1  A    between atoms: C_3  and  S_1 
REMARK    2  A    between atoms: C_4  and  S_1 
ROOT
ATOM      1  N   UNL d   1       0.458  -0.516   3.622  0.00  0.00    -0.196 NA
ATOM      2  C   UNL d   1       1.951  -0.620   1.445  0.00  0.00     0.269 C 
ATOM      3  C   UNL d   1       1.097  -0.573   2.642  0.00  0.00     0.074 C 
ENDROOT
BRANCH   2   4
ATOM      4  S   UNL d   1       0.945  -0.165   0.047  0.00  0.00     0.187 S 
ATOM      5  O   UNL d   1      -0.235  -1.009   0.019  0.00  0.00    -0.222 OA
ATOM      6  O   UNL d   1       1.801  -0.094  -1.125  0.00  0.00    -0.222 OA
BRANCH   4   7
ATOM      7  C   UNL d   1       0.413   1.503   0.381  0.00  0.00     0.060 A 
ATOM      8  C   UNL d   1       1.179   2.578  -0.084  0.00  0.00     0.025 A 
ATOM      9  C   UNL d   1       0.749   3.884   0.158  0.00  0.00     0.020 A 
ATOM     10  C   UNL d   1      -0.442   4.106   0.850  0.00  0.00     0.011 A 
ATOM     11  C   UNL d   1      -1.215   3.033   1.296  0.00  0.00     0.020 A 
ATOM     12 BR   UNL d   1      -1.020   5.876   1.175  0.00  0.00    -0.051 Br
ATOM     13  C   UNL d   1      -0.794   1.724   1.052  0.00  0.00     0.025 A 
ENDBRANCH   4   7
ENDBRANCH   2   4
TORSDOF 2
