REMARK  1 active torsions:
REMARK  status: ('A' for Active; 'I' for Inactive)
REMARK    1  A    between atoms: C_5  and  C_1 
ROOT
ATOM      1  C   UNL d   1       0.001  -1.115  -0.117  0.00  0.00     0.072 A 
ATOM      2  N   UNL d   1      -1.266  -0.732  -0.356  0.00  0.00    -0.299 N 
ATOM      3  HN  UNL d   1      -2.072  -1.325  -0.552  1.00  0.00     0.187 HD
ATOM      4  C   UNL d   1       0.865   0.015   0.012  0.00  0.00    -0.016 A 
ATOM      5  N   UNL d   1      -1.230   0.602  -0.277  0.00  0.00    -0.311 N 
ATOM      6  C   UNL d   1       0.017   1.101  -0.076  0.00  0.00     0.116 A 
ATOM      7  C   UNL d   1       2.340   0.095   0.147  0.00  0.00     0.052 C 
ATOM      8  H   UNL d   1      -2.103   1.113  -0.380  0.00  0.00     0.186 HD
ENDROOT
BRANCH   1   9
ATOM      9  C   UNL d   1       0.331  -2.583  -0.025  0.00  0.00     0.033 A 
ATOM     10  S   UNL d   1       1.693  -3.250   0.759  0.00  0.00    -0.100 SA
ATOM     11  C   UNL d   1       1.211  -4.850   0.401  0.00  0.00     0.050 A 
ATOM     12  C   UNL d   1       0.037  -4.881  -0.320  0.00  0.00     0.008 A 
ATOM     13  C   UNL d   1      -0.481  -3.573  -0.542  0.00  0.00     0.021 A 
ENDBRANCH   1   9
TORSDOF 1
