REMARK  7 active torsions:
REMARK  status: ('A' for Active; 'I' for Inactive)
REMARK    1  A    between atoms: N_2  and  C_1 
REMARK    2  A    between atoms: C_3  and  C_1 
REMARK    3  A    between atoms: C_4  and  C_1 
REMARK    4  A    between atoms: N_6  and  C_1 
REMARK       I    between atoms: C_5  and  N_2 
REMARK    5  A    between atoms: C_8  and  C_5 
REMARK    6  A    between atoms: C_14  and  N_6 
REMARK    7  A    between atoms: C_7  and  C_14 
ROOT
ATOM      1  C   UNL d   1       0.934  -0.218  -0.113  0.00  0.00     0.426 C 
ENDROOT
BRANCH   1   2
ATOM      2  N   UNL d   1       0.735  -0.322  -1.582  0.00  0.00    -0.307 N 
ATOM      3  C   UNL d   1       0.456  -1.480  -2.250  0.00  0.00     0.254 C 
ATOM      4  O   UNL d   1       0.250  -2.547  -1.686  0.00  0.00    -0.268 OA
ATOM      5  H   UNL d   1       1.145   0.443  -2.099  0.00  0.00     0.166 HD
BRANCH   3   6
ATOM      6  C   UNL d   1       0.509  -1.409  -3.743  0.00  0.00     0.032 A 
ATOM      7  C   UNL d   1       0.264  -0.215  -4.434  0.00  0.00     0.017 A 
ATOM      8  C   UNL d   1       0.361  -0.186  -5.829  0.00  0.00     0.007 A 
ATOM      9  C   UNL d   1       0.680  -1.343  -6.548  0.00  0.00    -0.062 A 
ATOM     10  C   UNL d   1       0.910  -2.536  -5.853  0.00  0.00     0.007 A 
ATOM     11  C   UNL d   1       0.802  -1.287  -8.043  0.00  0.00     0.048 C 
ATOM     12  C   UNL d   1       0.820  -2.569  -4.459  0.00  0.00     0.017 A 
ENDBRANCH   3   6
ENDBRANCH   1   2
BRANCH   1  13
ATOM     13  C   UNL d   1       0.021  -1.102   0.817  0.00  0.00     0.452 C 
ATOM     14  F   UNL d   1      -1.266  -1.118   0.402  0.00  0.00    -0.166 F 
ATOM     15  F   UNL d   1       0.427  -2.387   0.917  0.00  0.00    -0.166 F 
ATOM     16  F   UNL d   1       0.018  -0.628   2.091  0.00  0.00    -0.166 F 
ENDBRANCH   1  13
BRANCH   1  17
ATOM     17  C   UNL d   1       0.461   1.219   0.323  0.00  0.00     0.452 C 
ATOM     18  F   UNL d   1       0.872   2.143  -0.592  0.00  0.00    -0.166 F 
ATOM     19  F   UNL d   1      -0.879   1.348   0.413  0.00  0.00    -0.166 F 
ATOM     20  F   UNL d   1       0.998   1.592   1.509  0.00  0.00    -0.166 F 
ENDBRANCH   1  17
BRANCH   1  21
ATOM     21  N   UNL d   1       2.429  -0.322   0.044  0.00  0.00     0.137 N 
ATOM     22  H   UNL d   1       2.663  -0.108   1.021  0.00  0.00     0.320 HD
BRANCH  21  23
ATOM     23  C   UNL d   1       2.978  -1.654  -0.236  0.00  0.00     0.338 C 
BRANCH  23  24
ATOM     24  C   UNL d   1       4.413  -1.718   0.161  0.00  0.00     0.080 A 
ATOM     25  O   UNL d   1       4.689  -1.530   1.485  0.00  0.00    -0.325 OA
ATOM     26  C   UNL d   1       6.031  -1.678   1.631  0.00  0.00     0.142 A 
ATOM     27  C   UNL d   1       6.622  -1.955   0.421  0.00  0.00     0.027 A 
ATOM     28  C   UNL d   1       5.577  -1.977  -0.533  0.00  0.00     0.036 A 
ENDBRANCH  23  24
ENDBRANCH  21  23
ENDBRANCH   1  21
TORSDOF 7
