REMARK  3 active torsions:
REMARK  status: ('A' for Active; 'I' for Inactive)
REMARK    1  A    between atoms: C_4  and  C_1 
REMARK    2  A    between atoms: O_3  and  C_4 
REMARK    3  A    between atoms: C_6  and  O_3 
ROOT
ATOM      1  C   UNL d   1      -2.063   1.147  -1.754  0.00  0.00     0.069 A 
ATOM      2  C   UNL d   1      -3.758   2.239  -3.688  0.00  0.00     0.034 A 
ATOM      3 CL   UNL d   1      -4.832   2.866  -4.875  0.00  0.00    -0.084 Cl
ATOM      4  C   UNL d   1      -3.187   1.882  -1.368  0.00  0.00     0.038 A 
ATOM      5  C   UNL d   1      -1.762   1.012  -3.111  0.00  0.00     0.038 A 
ATOM      6  C   UNL d   1      -4.041   2.419  -2.336  0.00  0.00     0.026 A 
ATOM      7  C   UNL d   1      -2.613   1.550  -4.080  0.00  0.00     0.026 A 
ENDROOT
BRANCH   1   8
ATOM      8  O   UNL d   1      -1.200   0.524  -0.892  0.00  0.00    -0.344 OA
BRANCH   8   9
ATOM      9  C   UNL d   1      -1.759   0.176   0.377  0.00  0.00     0.244 C 
BRANCH   9  10
ATOM     10  C   UNL d   1      -0.956  -0.926   1.056  0.00  0.00     0.095 C 
ATOM     11  S   UNL d   1      -1.428  -1.595   2.510  0.00  0.00    -0.064 SA
ATOM     12  N   UNL d   1       0.177  -1.361   0.437  0.00  0.00    -0.392 N 
ATOM     13  H   UNL d   1       0.731  -2.103   0.846  0.00  0.00     0.156 HD
ATOM     14  H   UNL d   1       0.460  -0.969  -0.456  0.00  0.00     0.156 HD
ENDBRANCH   9  10
ENDBRANCH   8   9
ENDBRANCH   1   8
TORSDOF 3
