REMARK  4 active torsions:
REMARK  status: ('A' for Active; 'I' for Inactive)
REMARK    1  A    between atoms: N_5  and  C_1 
REMARK       I    between atoms: C_2  and  N_6 
REMARK    2  A    between atoms: O_11  and  C_2 
REMARK    3  A    between atoms: N_6  and  N_5 
REMARK    4  A    between atoms: C_13  and  O_11 
ROOT
ATOM      1  C   UNL d   1      -0.764  -0.983  -0.231  0.00  0.00     0.127 C 
ATOM      2  C   UNL d   1      -1.074  -1.028  -1.690  0.00  0.00     0.087 C 
ATOM      3  N   UNL d   1      -1.317  -1.092  -2.820  0.00  0.00    -0.195 NA
ATOM      4  S   UNL d   1       0.070   1.557  -0.035  0.00  0.00    -0.166 SA
ATOM      5  C   UNL d   1       0.756  -1.048   0.023  0.00  0.00     0.053 C 
ATOM      6  C   UNL d   1      -1.229   0.354   0.362  0.00  0.00     0.116 C 
ATOM      7  C   UNL d   1       1.390   0.326  -0.158  0.00  0.00     0.077 C 
ENDROOT
BRANCH   1   8
ATOM      8  N   UNL d   1      -1.421  -2.095   0.512  0.00  0.00    -0.212 NA
ATOM      9  H   UNL d   1      -2.445  -2.006   0.436  0.00  0.00     0.148 HD
BRANCH   8  10
ATOM     10  N   UNL d   1      -1.069  -3.365   0.004  0.00  0.00    -0.265 N 
ATOM     11  C   UNL d   1      -2.030  -4.327  -0.219  0.00  0.00     0.375 C 
ATOM     12  O   UNL d   1      -3.228  -4.165  -0.054  0.00  0.00    -0.237 OA
ATOM     13  H   UNL d   1      -0.111  -3.695   0.006  0.00  0.00     0.186 HD
BRANCH  11  14
ATOM     14  O   UNL d   1      -1.412  -5.464  -0.607  0.00  0.00    -0.303 OA
BRANCH  14  15
ATOM     15  C   UNL d   1      -2.229  -6.638  -0.685  0.00  0.00     0.176 C 
ATOM     16  C   UNL d   1      -1.967  -7.458   0.563  0.00  0.00     0.034 C 
ENDBRANCH  14  15
ENDBRANCH  11  14
ENDBRANCH   8  10
ENDBRANCH   1   8
TORSDOF 4
