REMARK  3 active torsions:
REMARK  status: ('A' for Active; 'I' for Inactive)
REMARK    1  A    between atoms: O_5  and  C_2 
REMARK    2  A    between atoms: C_7  and  O_5 
REMARK    3  A    between atoms: O_15  and  C_9 
ROOT
ATOM      1  C   UNL d   1       0.261   0.574   0.560  0.00  0.00     0.100 A 
ATOM      2  C   UNL d   1       1.268   1.537   0.376  0.00  0.00     0.098 A 
ATOM      3  C   UNL d   1      -1.085   0.781   0.111  0.00  0.00     0.104 C 
ATOM      4  N   UNL d   1      -2.184   0.927  -0.239  0.00  0.00    -0.191 NA
ATOM      5  C   UNL d   1       0.603  -0.653   1.157  0.00  0.00     0.057 A 
ATOM      6 CL   UNL d   1      -0.580  -1.870   1.509  0.00  0.00    -0.083 Cl
ATOM      7  C   UNL d   1       2.600   1.220   0.689  0.00  0.00     0.039 A 
ATOM      8  C   UNL d   1       2.933  -0.017   1.236  0.00  0.00     0.005 A 
ATOM      9  C   UNL d   1       1.930  -0.946   1.490  0.00  0.00     0.025 A 
ENDROOT
BRANCH   2  10
ATOM     10  O   UNL d   1       1.133   2.775  -0.215  0.00  0.00    -0.309 OA
BRANCH  10  11
ATOM     11  C   UNL d   1       0.072   3.599   0.070  0.00  0.00     0.076 A 
ATOM     12  C   UNL d   1      -0.619   3.641   1.283  0.00  0.00     0.040 A 
ATOM     13  C   UNL d   1      -1.748   4.460   1.411  0.00  0.00     0.039 A 
ATOM     14  C   UNL d   1      -2.152   5.269   0.348  0.00  0.00     0.068 A 
ATOM     15  C   UNL d   1      -1.389   5.316  -0.816  0.00  0.00     0.039 A 
ATOM     16  C   UNL d   1      -0.284   4.475  -0.958  0.00  0.00     0.040 A 
BRANCH  14  17
ATOM     17  O   UNL d   1      -3.251   6.083   0.381  0.00  0.00    -0.356 OA
ATOM     18  C   UNL d   1      -4.407   5.456   0.935  0.00  0.00     0.210 C 
ENDBRANCH  14  17
ENDBRANCH  10  11
ENDBRANCH   2  10
TORSDOF 3
