REMARK  4 active torsions:
REMARK  status: ('A' for Active; 'I' for Inactive)
REMARK    1  A    between atoms: C_7  and  C_1 
REMARK    2  A    between atoms: O_14  and  C_7 
REMARK    3  A    between atoms: O_15  and  C_12 
REMARK    4  A    between atoms: C_16  and  O_14 
ROOT
ATOM      1  C   UNL d   1      -2.106  -1.720  -0.061  0.00  0.00     0.154 A 
ATOM      2  C   UNL d   1      -2.694  -0.516  -0.043  0.00  0.00     0.099 A 
ATOM      3  C   UNL d   1       0.088  -0.832  -0.049  0.00  0.00     0.093 A 
ATOM      4  O   UNL d   1      -0.736  -1.930  -0.083  0.00  0.00    -0.303 OA
ATOM      5  C   UNL d   1      -1.854   0.686  -0.027  0.00  0.00     0.187 A 
ATOM      6  C   UNL d   1      -0.400   0.475  -0.019  0.00  0.00     0.048 A 
ATOM      7  C   UNL d   1       1.463  -1.064  -0.044  0.00  0.00     0.074 A 
ATOM      8  C   UNL d   1       0.478   1.560   0.025  0.00  0.00     0.021 A 
ATOM      9  O   UNL d   1      -2.352   1.803  -0.008  0.00  0.00    -0.287 OA
ATOM     10  C   UNL d   1       2.335   0.023  -0.009  0.00  0.00     0.068 A 
ATOM     11  C   UNL d   1       1.851   1.330   0.029  0.00  0.00     0.037 A 
ENDROOT
BRANCH   1  12
ATOM     12  C   UNL d   1      -3.006  -2.901   0.036  0.00  0.00     0.317 C 
ATOM     13  O   UNL d   1      -4.226  -2.836   0.104  0.00  0.00    -0.257 OA
BRANCH  12  14
ATOM     14  O   UNL d   1      -2.262  -4.028   0.162  0.00  0.00    -0.316 OA
BRANCH  14  15
ATOM     15  C   UNL d   1      -2.954  -5.156   0.714  0.00  0.00     0.175 C 
ATOM     16  C   UNL d   1      -2.820  -5.090   2.225  0.00  0.00     0.034 C 
ENDBRANCH  14  15
ENDBRANCH  12  14
ENDBRANCH   1  12
BRANCH  10  17
ATOM     17  O   UNL d   1       3.686  -0.147  -0.011  0.00  0.00    -0.361 OA
ATOM     18  H   UNL d   1       3.890  -1.096  -0.068  0.00  0.00     0.217 HD
ENDBRANCH  10  17
TORSDOF 4
