REMARK  5 active torsions:
REMARK  status: ('A' for Active; 'I' for Inactive)
REMARK    1  A    between atoms: N_8  and  C_2 
REMARK    2  A    between atoms: C_11  and  C_3 
REMARK       I    between atoms: C_9  and  N_8 
REMARK       I    between atoms: N_12  and  C_9 
REMARK    3  A    between atoms: C_10  and  O_13 
REMARK    4  A    between atoms: C_18  and  N_12 
REMARK    5  A    between atoms: O_13  and  C_19 
ROOT
ATOM      1  N   UNL d   1       0.239   2.588  -0.045  0.00  0.00    -0.287 N 
ATOM      2  C   UNL d   1       1.529   2.937   0.196  0.00  0.00     0.326 C 
ATOM      3  N   UNL d   1       1.965   4.138  -0.294  0.00  0.00    -0.309 N 
ATOM      4  O   UNL d   1       2.379   2.248   0.748  0.00  0.00    -0.247 OA
ATOM      5  H   UNL d   1      -0.302   3.140  -0.690  0.00  0.00     0.172 HD
ATOM      6  H   UNL d   1       2.976   4.167  -0.237  0.00  0.00     0.170 HD
ENDROOT
BRANCH   1   7
ATOM      7  C   UNL d   1      -0.325   1.358   0.182  0.00  0.00     0.169 C 
ATOM      8  S   UNL d   1       0.480   0.081   0.966  0.00  0.00    -0.037 SA
ATOM      9  C   UNL d   1      -0.763  -0.966   0.399  0.00  0.00     0.077 C 
ATOM     10  N   UNL d   1      -1.785  -0.307  -0.119  0.00  0.00    -0.295 N 
ATOM     11  N   UNL d   1      -1.525   1.042  -0.252  0.00  0.00    -0.279 N 
ATOM     12  HN  UNL d   1      -2.665  -0.746  -0.389  1.00  0.00     0.187 HD
ATOM     13  HN  UNL d   1      -2.186   1.714  -0.642  1.00  0.00     0.189 HD
BRANCH   9  14
ATOM     14  C   UNL d   1      -0.639  -2.482   0.380  0.00  0.00    -0.001 C 
ATOM     15  C   UNL d   1       0.684  -3.004   0.970  0.00  0.00     0.021 C 
ATOM     16  C   UNL d   1      -1.804  -3.117   1.156  0.00  0.00     0.021 C 
ATOM     17  C   UNL d   1      -0.712  -2.930  -1.099  0.00  0.00     0.021 C 
ENDBRANCH   9  14
ENDBRANCH   1   7
BRANCH   3  18
ATOM     18  C   UNL d   1       1.353   5.253  -0.883  0.00  0.00     0.036 A 
ATOM     19  C   UNL d   1      -0.001   5.585  -0.793  0.00  0.00     0.032 A 
ATOM     20  C   UNL d   1      -0.504   6.733  -1.435  0.00  0.00     0.039 A 
ATOM     21  C   UNL d   1       0.348   7.586  -2.129  0.00  0.00     0.078 A 
ATOM     22  C   UNL d   1       1.704   7.258  -2.207  0.00  0.00     0.039 A 
ATOM     23  C   UNL d   1       2.200   6.115  -1.584  0.00  0.00     0.032 A 
BRANCH  21  24
ATOM     24  O   UNL d   1       0.039   8.753  -2.755  0.00  0.00    -0.255 OA
BRANCH  24  25
ATOM     25  C   UNL d   1      -1.227   9.363  -2.582  0.00  0.00     0.530 C 
ATOM     26  F   UNL d   1      -1.780   9.116  -1.375  0.00  0.00    -0.144 F 
ATOM     27  F   UNL d   1      -1.066  10.701  -2.689  0.00  0.00    -0.144 F 
ATOM     28  F   UNL d   1      -2.071   8.960  -3.553  0.00  0.00    -0.144 F 
ENDBRANCH  24  25
ENDBRANCH  21  24
ENDBRANCH   3  18
TORSDOF 5
