REMARK  4 active torsions:
REMARK  status: ('A' for Active; 'I' for Inactive)
REMARK    1  A    between atoms: C_7  and  C_1 
REMARK    2  A    between atoms: C_2  and  C_9 
REMARK    3  A    between atoms: O_4  and  C_2 
REMARK    4  A    between atoms: C_5  and  O_4 
ROOT
ATOM      1  C   UNL d   1      -0.771  -3.103  -4.619  0.00  0.00     0.298 C 
ATOM      2  O   UNL d   1      -0.518  -4.282  -4.794  0.00  0.00    -0.259 OA
ENDROOT
BRANCH   1   3
ATOM      3  C   UNL d   1      -0.470  -2.367  -3.357  0.00  0.00     0.040 A 
ATOM      4  C   UNL d   1      -0.644  -0.981  -3.234  0.00  0.00     0.018 A 
ATOM      5  C   UNL d   1      -0.191  -0.311  -2.092  0.00  0.00     0.017 A 
ATOM      6  C   UNL d   1       0.440  -1.013  -1.053  0.00  0.00     0.048 A 
ATOM      7  C   UNL d   1       0.568  -2.406  -1.159  0.00  0.00     0.017 A 
ATOM      8  C   UNL d   1       0.117  -3.077  -2.301  0.00  0.00     0.018 A 
BRANCH   6   9
ATOM      9  C   UNL d   1       1.009  -0.260   0.127  0.00  0.00     0.417 C 
ATOM     10  F   UNL d   1       1.564  -1.067   1.074  0.00  0.00    -0.166 F 
ATOM     11  F   UNL d   1       0.072   0.488   0.773  0.00  0.00    -0.166 F 
ATOM     12  F   UNL d   1       1.991   0.609  -0.243  0.00  0.00    -0.166 F 
ENDBRANCH   6   9
ENDBRANCH   1   3
BRANCH   1  13
ATOM     13  O   UNL d   1      -1.280  -2.230  -5.562  0.00  0.00    -0.274 OA
BRANCH  13  14
ATOM     14  C   UNL d   1      -0.707  -2.175  -6.854  0.00  0.00     0.092 A 
ATOM     15  C   UNL d   1      -1.412  -1.502  -7.875  0.00  0.00     0.026 A 
ATOM     16  C   UNL d   1      -0.751  -1.217  -9.072  0.00  0.00     0.045 A 
ATOM     17  C   UNL d   1      -2.730  -0.976  -7.998  0.00  0.00     0.033 A 
ATOM     18  N   UNL d   1      -1.631  -0.520  -9.869  0.00  0.00    -0.365 N 
ATOM     19  C   UNL d   1       0.575  -1.596  -9.313  0.00  0.00     0.030 A 
ATOM     20  C   UNL d   1      -2.838  -0.386  -9.236  0.00  0.00     0.089 A 
ATOM     21  H   UNL d   1      -1.412  -0.166 -10.790  0.00  0.00     0.165 HD
ATOM     22  C   UNL d   1       1.236  -2.308  -8.310  0.00  0.00     0.005 A 
ATOM     23  C   UNL d   1       0.614  -2.589  -7.094  0.00  0.00     0.038 A 
ENDBRANCH  13  14
ENDBRANCH   1  13
TORSDOF 4
