REMARK  0 active torsions:
REMARK  status: ('A' for Active; 'I' for Inactive)
ROOT
ATOM      1  C   UNL d   1       2.724  -0.745  -0.002  0.00  0.00     0.134 A 
ATOM      2  C   UNL d   1       1.776   0.246  -0.001  0.00  0.00     0.104 A 
ATOM      3  N   UNL d   1       4.087  -0.342  -0.002  0.00  0.00    -0.288 N 
ATOM      4  N   UNL d   1       3.525   1.963  -0.002  0.00  0.00    -0.270 N 
ATOM      5  N   UNL d   1       2.252  -2.099  -0.003  0.00  0.00    -0.303 N 
ATOM      6  C   UNL d   1       4.496   1.008  -0.002  0.00  0.00     0.332 A 
ATOM      7  C   UNL d   1       2.185   1.689  -0.000  0.00  0.00     0.267 A 
ATOM      8  C   UNL d   1      -0.105  -1.366  -0.001  0.00  0.00     0.061 A 
ATOM      9  C   UNL d   1       0.320  -0.066  -0.001  0.00  0.00     0.068 A 
ATOM     10  C   UNL d   1       0.875  -2.429  -0.002  0.00  0.00     0.261 A 
ATOM     11  N   UNL d   1      -0.593   0.941   0.001  0.00  0.00    -0.354 N 
ATOM     12  HN  UNL d   1      -0.273   1.910   0.002  1.00  0.00     0.166 HD
ATOM     13  C   UNL d   1      -1.471  -1.669  -0.001  0.00  0.00     0.033 A 
ATOM     14  C   UNL d   1      -2.406  -0.641   0.001  0.00  0.00    -0.007 A 
ATOM     15  C   UNL d   1      -1.917   0.676   0.001  0.00  0.00     0.043 A 
ATOM     16  O   UNL d   1       5.691   1.325  -0.003  0.00  0.00    -0.246 OA
ATOM     17  O   UNL d   1       1.373   2.614   0.001  0.00  0.00    -0.267 OA
ATOM     18  O   UNL d   1       0.443  -3.583  -0.002  0.00  0.00    -0.267 OA
ATOM     19  C   UNL d   1      -3.785  -0.909   0.001  0.00  0.00     0.037 A 
ATOM     20  C   UNL d   1       5.284  -1.159  -0.001  0.00  0.00     0.163 C 
ATOM     21  C   UNL d   1       3.920   3.366  -0.003  0.00  0.00     0.164 C 
ATOM     22  C   UNL d   1       2.982  -3.350  -0.003  0.00  0.00     0.161 C 
ATOM     23  C   UNL d   1      -2.852   1.707   0.003  0.00  0.00     0.032 A 
ATOM     24  C   UNL d   1      -4.692   0.145   0.003  0.00  0.00     0.035 A 
ATOM     25  C   UNL d   1      -4.231   1.456   0.004  0.00  0.00     0.026 A 
ATOM     26 CL   UNL d   1      -6.380  -0.181   0.003  0.00  0.00    -0.084 Cl
ENDROOT
TORSDOF 0
