REMARK  4 active torsions:
REMARK  status: ('A' for Active; 'I' for Inactive)
REMARK    1  A    between atoms: N_4  and  C_1 
REMARK    2  A    between atoms: C_8  and  C_2 
REMARK    3  A    between atoms: O_12  and  C_3 
REMARK    4  A    between atoms: O_15  and  C_6 
REMARK       I    between atoms: N_13  and  C_8 
ROOT
ATOM      1  C   UNL d   1       1.875  -1.054   0.012  0.00  0.00     0.139 A 
ATOM      2  C   UNL d   1       1.664   1.335   0.011  0.00  0.00     0.102 A 
ATOM      3  C   UNL d   1       2.491   0.198   0.064  0.00  0.00     0.119 A 
ATOM      4  C   UNL d   1       0.489  -1.199  -0.057  0.00  0.00     0.065 A 
ATOM      5  C   UNL d   1       0.239   1.220  -0.021  0.00  0.00     0.108 A 
ATOM      6  C   UNL d   1      -0.332  -0.068  -0.050  0.00  0.00     0.070 A 
ATOM      7 CL   UNL d   1      -2.023  -0.426  -0.042  0.00  0.00    -0.081 Cl
ENDROOT
BRANCH   2   8
ATOM      8  C   UNL d   1       2.256   2.699  -0.048  0.00  0.00     0.255 C 
ATOM      9  O   UNL d   1       1.963   3.490  -0.929  0.00  0.00    -0.268 OA
ATOM     10  N   UNL d   1       3.188   3.014   0.902  0.00  0.00    -0.366 N 
ATOM     11  H   UNL d   1       3.611   2.311   1.494  0.00  0.00     0.159 HD
ATOM     12  H   UNL d   1       3.664   3.901   0.791  0.00  0.00     0.159 HD
ENDBRANCH   2   8
BRANCH   3  13
ATOM     13  O   UNL d   1       3.824   0.259   0.382  0.00  0.00    -0.352 OA
ATOM     14  C   UNL d   1       4.677   0.689  -0.681  0.00  0.00     0.210 C 
ENDBRANCH   3  13
BRANCH   5  15
ATOM     15  O   UNL d   1      -0.405   2.425   0.063  0.00  0.00    -0.353 OA
ATOM     16  C   UNL d   1      -1.810   2.556  -0.026  0.00  0.00     0.210 C 
ENDBRANCH   5  15
BRANCH   1  17
ATOM     17  N   UNL d   1       2.673  -2.263   0.028  0.00  0.00    -0.113 N 
ATOM     18  O   UNL d   1       3.461  -2.431  -0.912  0.00  0.00    -0.532 OA
ATOM     19  O   UNL d   1       2.453  -3.065   0.945  0.00  0.00    -0.532 OA
ENDBRANCH   1  17
TORSDOF 4
