REMARK  6 active torsions:
REMARK  status: ('A' for Active; 'I' for Inactive)
REMARK    1  A    between atoms: N_2  and  C_1 
REMARK    2  A    between atoms: S_4  and  C_1 
REMARK    3  A    between atoms: C_3  and  C_9 
REMARK    4  A    between atoms: C_9  and  S_4 
REMARK    5  A    between atoms: C_8  and  C_5 
REMARK    6  A    between atoms: O_15  and  C_10 
ROOT
ATOM      1  C   UNL d   1      -2.190   1.266   2.205  0.00  0.00    -0.014 A 
ATOM      2  C   UNL d   1      -3.419   1.101   4.333  0.00  0.00     0.010 A 
ATOM      3  C   UNL d   1      -2.825   0.503   3.215  0.00  0.00     0.026 A 
ATOM      4  C   UNL d   1      -2.220   2.664   2.317  0.00  0.00     0.075 A 
ATOM      5  C   UNL d   1      -3.431   2.487   4.443  0.00  0.00     0.018 A 
ATOM      6  C   UNL d   1      -2.829   3.249   3.438  0.00  0.00     0.038 A 
ENDROOT
BRANCH   1   7
ATOM      7  C   UNL d   1      -1.494   0.490   1.105  0.00  0.00     0.123 C 
BRANCH   7   8
ATOM      8  S   UNL d   1      -2.644   0.023  -0.226  0.00  0.00    -0.096 SA
BRANCH   8   9
ATOM      9  C   UNL d   1      -1.522  -0.716  -1.373  0.00  0.00     0.137 C 
ATOM     10  S   UNL d   1      -0.595   0.307  -2.340  0.00  0.00    -0.053 SA
BRANCH   9  11
ATOM     11  N   UNL d   1      -1.513  -2.119  -1.431  0.00  0.00    -0.365 N 
ATOM     12  C   UNL d   1      -0.630  -2.869  -2.354  0.00  0.00     0.134 C 
ATOM     13  C   UNL d   1       0.248  -3.896  -1.635  0.00  0.00     0.093 C 
ATOM     14  S   UNL d   1      -0.732  -5.150  -0.749  0.00  0.00    -0.166 SA
ATOM     15  C   UNL d   1      -1.817  -4.018   0.177  0.00  0.00     0.093 C 
ATOM     16  C   UNL d   1      -2.487  -2.989  -0.734  0.00  0.00     0.134 C 
ENDBRANCH   9  11
ENDBRANCH   8   9
ENDBRANCH   7   8
ENDBRANCH   1   7
BRANCH   4  17
ATOM     17  O   UNL d   1      -1.625   3.594   1.512  0.00  0.00    -0.355 OA
ATOM     18  C   UNL d   1      -1.652   3.404   0.106  0.00  0.00     0.210 C 
ENDBRANCH   4  17
BRANCH   2  19
ATOM     19  C   UNL d   1      -4.013   0.219   5.381  0.00  0.00     0.155 C 
ATOM     20  O   UNL d   1      -4.394  -0.908   5.071  0.00  0.00    -0.293 OA
ATOM     21  C   UNL d   1      -4.112   0.705   6.807  0.00  0.00     0.096 C 
ENDBRANCH   2  19
TORSDOF 6
