REMARK  8 active torsions:
REMARK  status: ('A' for Active; 'I' for Inactive)
REMARK    1  A    between atoms: C_8  and  N_1 
REMARK    2  A    between atoms: C_12  and  C_2 
REMARK    3  A    between atoms: S_11  and  C_5 
REMARK    4  A    between atoms: C_22  and  S_11 
REMARK    5  A    between atoms: C_15  and  C_22 
REMARK    6  A    between atoms: C_20  and  C_15 
REMARK    7  A    between atoms: C_17  and  C_18 
REMARK    8  A    between atoms: O_34  and  C_31 
ROOT
ATOM      1  N   UNL d   1      -0.349  -1.287   0.106  0.00  0.00    -0.275 N 
ATOM      2  C   UNL d   1       0.902  -0.656  -0.030  0.00  0.00     0.139 A 
ATOM      3  N   UNL d   1       0.711   0.654  -0.069  0.00  0.00    -0.282 N 
ATOM      4  HN  UNL d   1       1.448   1.355  -0.147  1.00  0.00     0.188 HD
ATOM      5  C   UNL d   1      -1.253  -0.224   0.131  0.00  0.00     0.168 A 
ATOM      6  N   UNL d   1      -0.626   0.920   0.012  0.00  0.00    -0.278 N 
ATOM      7  HN  UNL d   1      -1.058   1.843  -0.016  1.00  0.00     0.189 HD
ENDROOT
BRANCH   5   8
ATOM      8  S   UNL d   1      -2.944  -0.355   0.507  0.00  0.00    -0.084 SA
BRANCH   8   9
ATOM      9  C   UNL d   1      -3.565   1.346   0.248  0.00  0.00     0.166 C 
BRANCH   9  10
ATOM     10  C   UNL d   1      -5.064   1.415   0.554  0.00  0.00     0.169 C 
ATOM     11  O   UNL d   1      -5.739   0.427   0.832  0.00  0.00    -0.291 OA
BRANCH  10  12
ATOM     12  C   UNL d   1      -5.769   2.741   0.504  0.00  0.00     0.011 A 
ATOM     13  C   UNL d   1      -5.143   3.939   0.141  0.00  0.00     0.018 A 
ATOM     14  C   UNL d   1      -5.871   5.143   0.124  0.00  0.00     0.037 A 
ATOM     15  C   UNL d   1      -7.224   5.156   0.469  0.00  0.00     0.068 A 
ATOM     16  C   UNL d   1      -7.855   3.964   0.807  0.00  0.00     0.037 A 
ATOM     17  C   UNL d   1      -7.133   2.767   0.832  0.00  0.00     0.018 A 
BRANCH  15  18
ATOM     18  O   UNL d   1      -8.031   6.261   0.468  0.00  0.00    -0.356 OA
ATOM     19  C   UNL d   1      -7.394   7.496   0.777  0.00  0.00     0.210 C 
ENDBRANCH  15  18
ENDBRANCH  10  12
ENDBRANCH   9  10
ENDBRANCH   8   9
ENDBRANCH   5   8
BRANCH   1  20
ATOM     20  C   UNL d   1      -0.620  -2.692   0.186  0.00  0.00     0.046 A 
ATOM     21  C   UNL d   1       0.271  -3.552   0.851  0.00  0.00     0.069 A 
ATOM     22  C   UNL d   1       0.052  -4.913   0.764  0.00  0.00     0.107 A 
ATOM     23  O   UNL d   1       0.864  -5.879   1.272  0.00  0.00    -0.323 OA
ATOM     24  C   UNL d   1      -1.034  -5.435   0.107  0.00  0.00     0.105 A 
ATOM     25  C   UNL d   1       0.154  -7.070   0.870  0.00  0.00     0.352 A 
ATOM     26  O   UNL d   1      -1.051  -6.793   0.126  0.00  0.00    -0.323 OA
ATOM     27  C   UNL d   1      -1.964  -4.623  -0.502  0.00  0.00     0.042 A 
ATOM     28  C   UNL d   1      -1.746  -3.239  -0.472  0.00  0.00     0.033 A 
ENDBRANCH   1  20
BRANCH   2  29
ATOM     29  C   UNL d   1       2.239  -1.270  -0.143  0.00  0.00     0.010 A 
ATOM     30  C   UNL d   1       2.498  -2.424  -0.888  0.00  0.00     0.016 A 
ATOM     31  C   UNL d   1       3.765  -3.029  -0.867  0.00  0.00     0.009 A 
ATOM     32  C   UNL d   1       4.843  -2.463  -0.164  0.00  0.00    -0.051 A 
ATOM     33  C   UNL d   1       4.597  -1.254   0.503  0.00  0.00     0.009 A 
ATOM     34  C   UNL d   1       3.319  -0.672   0.516  0.00  0.00     0.016 A 
BRANCH  32  35
ATOM     35  C   UNL d   1       6.215  -3.163  -0.145  0.00  0.00    -0.024 C 
ATOM     36  C   UNL d   1       7.311  -2.361   0.593  0.00  0.00     0.019 C 
ATOM     37  C   UNL d   1       6.093  -4.529   0.567  0.00  0.00     0.019 C 
ATOM     38  C   UNL d   1       6.716  -3.395  -1.587  0.00  0.00     0.019 C 
ENDBRANCH  32  35
ENDBRANCH   2  29
TORSDOF 8
