REMARK  3 active torsions:
REMARK  status: ('A' for Active; 'I' for Inactive)
REMARK    1  A    between atoms: C_2  and  C_1 
REMARK       I    between atoms: N_3  and  C_1 
REMARK       I    between atoms: C_4  and  N_5 
REMARK    2  A    between atoms: C_12  and  C_4 
REMARK    3  A    between atoms: N_5  and  C_13 
ROOT
ATOM      1  C   UNL d   1       1.244   0.139  -0.108  0.00  0.00     0.257 C 
ATOM      2  N   UNL d   1       0.296   0.733  -0.952  0.00  0.00    -0.348 N 
ATOM      3  O   UNL d   1       1.157   0.116   1.117  0.00  0.00    -0.267 OA
ATOM      4  C   UNL d   1       0.520   1.018  -2.369  0.00  0.00     0.128 C 
ATOM      5  C   UNL d   1      -0.811   1.456  -0.328  0.00  0.00     0.128 C 
ATOM      6  C   UNL d   1      -1.929   1.634  -2.607  0.00  0.00     0.087 C 
ATOM      7  C   UNL d   1      -2.107   1.314  -1.120  0.00  0.00     0.045 C 
ATOM      8  C   UNL d   1      -0.747   0.865  -3.196  0.00  0.00     0.045 C 
ENDROOT
BRANCH   1   9
ATOM      9  C   UNL d   1       2.409  -0.533  -0.709  0.00  0.00     0.075 A 
ATOM     10  C   UNL d   1       3.493   0.210  -1.193  0.00  0.00     0.051 A 
ATOM     11 CL   UNL d   1       3.579   1.932  -1.054  0.00  0.00    -0.083 Cl
ATOM     12  C   UNL d   1       4.560  -0.436  -1.826  0.00  0.00     0.025 A 
ATOM     13  C   UNL d   1       4.574  -1.827  -1.932  0.00  0.00     0.003 A 
ATOM     14  C   UNL d   1       3.527  -2.575  -1.394  0.00  0.00     0.025 A 
ATOM     15  C   UNL d   1       2.442  -1.933  -0.786  0.00  0.00     0.051 A 
ATOM     16 CL   UNL d   1       1.169  -2.931  -0.178  0.00  0.00    -0.083 Cl
ENDBRANCH   1   9
BRANCH   6  17
ATOM     17  N   UNL d   1      -1.803   3.068  -2.851  0.00  0.00    -0.352 N 
ATOM     18  C   UNL d   1      -2.912   3.845  -3.138  0.00  0.00     0.252 C 
ATOM     19  O   UNL d   1      -4.048   3.397  -3.198  0.00  0.00    -0.268 OA
ATOM     20  H   UNL d   1      -0.949   3.534  -2.578  0.00  0.00     0.163 HD
BRANCH  18  21
ATOM     21  C   UNL d   1      -2.670   5.300  -3.369  0.00  0.00     0.032 A 
ATOM     22  C   UNL d   1      -1.435   5.796  -3.809  0.00  0.00     0.017 A 
ATOM     23  C   UNL d   1      -1.271   7.165  -4.038  0.00  0.00     0.001 A 
ATOM     24  C   UNL d   1      -2.338   8.041  -3.838  0.00  0.00     0.000 A 
ATOM     25  C   UNL d   1      -3.572   7.553  -3.415  0.00  0.00     0.001 A 
ATOM     26  C   UNL d   1      -3.740   6.186  -3.184  0.00  0.00     0.017 A 
ENDBRANCH  18  21
ENDBRANCH   6  17
TORSDOF 3
