REMARK  6 active torsions:
REMARK  status: ('A' for Active; 'I' for Inactive)
REMARK    1  A    between atoms: C_6  and  C_1 
REMARK       I    between atoms: C_2  and  N_5 
REMARK    2  A    between atoms: C_3  and  C_2 
REMARK    3  A    between atoms: N_4  and  C_6 
REMARK    4  A    between atoms: N_5  and  C_15 
REMARK    5  A    between atoms: O_22  and  C_8 
REMARK    6  A    between atoms: O_23  and  C_11 
ROOT
ATOM      1  N   UNL d   1      -1.251   3.076   0.227  0.00  0.00     0.092 N 
ATOM      2  C   UNL d   1      -4.199   3.323   0.191  0.00  0.00     0.088 C 
ATOM      3  C   UNL d   1      -3.325   3.813  -0.961  0.00  0.00     0.055 C 
ATOM      4  C   UNL d   1      -3.403   3.448   1.490  0.00  0.00     0.055 C 
ATOM      5  C   UNL d   1      -2.012   3.031  -1.032  0.00  0.00     0.275 C 
ATOM      6  C   UNL d   1      -2.058   2.724   1.407  0.00  0.00     0.275 C 
ENDROOT
BRANCH   2   7
ATOM      7  N   UNL d   1      -4.646   1.945  -0.012  0.00  0.00    -0.352 N 
ATOM      8  C   UNL d   1      -5.733   1.595  -0.781  0.00  0.00     0.252 C 
ATOM      9  O   UNL d   1      -6.491   2.393  -1.313  0.00  0.00    -0.268 OA
ATOM     10  H   UNL d   1      -4.104   1.208   0.416  0.00  0.00     0.163 HD
BRANCH   8  11
ATOM     11  C   UNL d   1      -5.980   0.127  -0.881  0.00  0.00     0.034 A 
ATOM     12  C   UNL d   1      -7.303  -0.336  -0.873  0.00  0.00     0.056 A 
ATOM     13  C   UNL d   1      -7.584  -1.714  -0.861  0.00  0.00     0.102 A 
ATOM     14  C   UNL d   1      -6.513  -2.628  -0.880  0.00  0.00     0.101 A 
ATOM     15  C   UNL d   1      -5.196  -2.148  -0.948  0.00  0.00     0.040 A 
ATOM     16  C   UNL d   1      -4.924  -0.782  -0.950  0.00  0.00     0.020 A 
BRANCH  13  17
ATOM     17  O   UNL d   1      -8.857  -2.215  -0.826  0.00  0.00    -0.353 OA
ATOM     18  C   UNL d   1      -9.946  -1.305  -0.762  0.00  0.00     0.210 C 
ENDBRANCH  13  17
BRANCH  14  19
ATOM     19  O   UNL d   1      -6.552  -3.998  -0.850  0.00  0.00    -0.353 OA
ATOM     20  C   UNL d   1      -7.787  -4.647  -0.588  0.00  0.00     0.210 C 
ENDBRANCH  14  19
ENDBRANCH   8  11
ENDBRANCH   2   7
BRANCH   1  21
ATOM     21  C   UNL d   1      -0.073   2.179   0.178  0.00  0.00     0.315 C 
BRANCH  21  22
ATOM     22  C   UNL d   1       0.994   2.561  -0.819  0.00  0.00     0.030 A 
ATOM     23  C   UNL d   1       1.302   1.672  -1.861  0.00  0.00     0.126 A 
ATOM     24  F   UNL d   1       0.620   0.523  -1.981  0.00  0.00    -0.205 F 
ATOM     25  C   UNL d   1       2.317   1.933  -2.778  0.00  0.00     0.043 A 
ATOM     26  C   UNL d   1       3.052   3.107  -2.675  0.00  0.00     0.005 A 
ATOM     27  C   UNL d   1       2.768   4.011  -1.649  0.00  0.00     0.024 A 
ATOM     28  C   UNL d   1       1.751   3.738  -0.725  0.00  0.00     0.045 A 
ATOM     29 CL   UNL d   1       1.512   4.883   0.547  0.00  0.00    -0.084 Cl
ENDBRANCH  21  22
ENDBRANCH   1  21
TORSDOF 6
