REMARK  5 active torsions:
REMARK  status: ('A' for Active; 'I' for Inactive)
REMARK    1  A    between atoms: C_3  and  C_1 
REMARK    2  A    between atoms: N_4  and  C_2 
REMARK    3  A    between atoms: O_10  and  C_3 
REMARK    4  A    between atoms: N_6  and  N_4 
REMARK    5  A    between atoms: C_11  and  N_6 
ROOT
ATOM      1  N   UNL d   1       2.247  -1.423  -0.361  0.00  0.00    -0.208 NA
ATOM      2  H   UNL d   1       3.110  -0.911  -0.131  0.00  0.00     0.152 HD
ENDROOT
BRANCH   1   3
ATOM      3  C   UNL d   1       1.141  -0.615  -0.114  0.00  0.00     0.027 A 
ATOM      4  C   UNL d   1       1.111   0.727  -0.049  0.00  0.00     0.046 A 
ATOM      5  C   UNL d   1      -0.224   1.372   0.124  0.00  0.00     0.120 A 
ATOM      6  S   UNL d   1      -1.439   0.026   0.111  0.00  0.00    -0.159 SA
ATOM      7  C   UNL d   1      -0.191  -1.298   0.050  0.00  0.00     0.127 A 
BRANCH   4   8
ATOM      8  C   UNL d   1       2.250   1.651  -0.240  0.00  0.00     0.291 C 
ATOM      9  O   UNL d   1       2.100   2.848  -0.449  0.00  0.00    -0.260 OA
BRANCH   8  10
ATOM     10  O   UNL d   1       3.439   1.008  -0.149  0.00  0.00    -0.323 OA
ATOM     11  C   UNL d   1       4.572   1.842  -0.404  0.00  0.00     0.213 C 
ENDBRANCH   8  10
ENDBRANCH   4   8
ENDBRANCH   1   3
BRANCH   1  12
ATOM     12  N   UNL d   1       2.370  -2.053  -1.570  0.00  0.00    -0.317 N 
ATOM     13  H   UNL d   1       2.018  -1.573  -2.397  0.00  0.00     0.181 HD
BRANCH  12  14
ATOM     14  C   UNL d   1       3.105  -3.221  -1.811  0.00  0.00     0.043 A 
ATOM     15  C   UNL d   1       3.483  -4.088  -0.782  0.00  0.00     0.030 A 
ATOM     16  C   UNL d   1       4.177  -5.268  -1.063  0.00  0.00     0.002 A 
ATOM     17  C   UNL d   1       4.530  -5.578  -2.376  0.00  0.00     0.000 A 
ATOM     18  C   UNL d   1       4.202  -4.700  -3.405  0.00  0.00     0.002 A 
ATOM     19  C   UNL d   1       3.496  -3.529  -3.122  0.00  0.00     0.030 A 
ENDBRANCH  12  14
ENDBRANCH   1  12
TORSDOF 5
