REMARK  2 active torsions:
REMARK  status: ('A' for Active; 'I' for Inactive)
REMARK       I    between atoms: C_3  and  N_1 
REMARK    1  A    between atoms: C_5  and  N_1 
REMARK    2  A    between atoms: C_6  and  C_3 
ROOT
ATOM      1  N   UNL d   1      -0.978   2.688   0.721  0.00  0.00    -0.197 NA
ATOM      2  C   UNL d   1      -1.185   1.734   0.095  0.00  0.00     0.068 C 
ATOM      3  C   UNL d   1      -1.347   0.491  -0.659  0.00  0.00     0.226 C 
ENDROOT
BRANCH   3   4
ATOM      4  C   UNL d   1      -0.115  -0.404  -0.673  0.00  0.00     0.236 C 
ATOM      5  N   UNL d   1       0.955   0.015   0.093  0.00  0.00    -0.312 N 
ATOM      6  H   UNL d   1       0.862   0.841   0.670  0.00  0.00     0.170 HD
ATOM      7  O   UNL d   1      -0.156  -1.425  -1.359  0.00  0.00    -0.272 OA
BRANCH   5   8
ATOM      8  C   UNL d   1       2.234  -0.560   0.111  0.00  0.00     0.107 A 
ATOM      9  N   UNL d   1       2.523  -1.653  -0.613  0.00  0.00    -0.352 N 
ATOM     10  C   UNL d   1       3.795  -2.110  -0.586  0.00  0.00     0.089 A 
ATOM     11  HN  UNL d   1       1.805  -2.123  -1.165  1.00  0.00     0.166 HD
ATOM     12  C   UNL d   1       4.814  -1.512   0.134  0.00  0.00     0.017 A 
ATOM     13  C   UNL d   1       4.504  -0.388   0.885  0.00  0.00     0.005 A 
ATOM     14  C   UNL d   1       3.197   0.090   0.881  0.00  0.00     0.048 A 
ENDBRANCH   5   8
ENDBRANCH   3   4
TORSDOF 2
