REMARK  6 active torsions:
REMARK  status: ('A' for Active; 'I' for Inactive)
REMARK    1  A    between atoms: N_7  and  S_1 
REMARK    2  A    between atoms: C_16  and  S_1 
REMARK    3  A    between atoms: N_2  and  C_17 
REMARK    4  A    between atoms: C_11  and  C_6 
REMARK       I    between atoms: N_13  and  C_9 
REMARK       I    between atoms: N_15  and  C_9 
REMARK       I    between atoms: C_14  and  N_21 
REMARK       I    between atoms: N_22  and  C_14 
REMARK    5  A    between atoms: N_21  and  N_15 
REMARK    6  A    between atoms: C_34  and  N_22 
ROOT
ATOM      1  S   UNL d   1      -0.374  -1.684   1.673  0.00  0.00     0.265 S 
ATOM      2  O   UNL d   1       0.497  -1.818   2.824  0.00  0.00    -0.200 OA
ATOM      3  O   UNL d   1      -1.456  -2.634   1.477  0.00  0.00    -0.200 OA
ENDROOT
BRANCH   1   4
ATOM      4  N   UNL d   1       0.530  -1.643   0.325  0.00  0.00    -0.255 N 
ATOM      5  C   UNL d   1       0.936  -2.763  -0.201  0.00  0.00     0.183 C 
ATOM      6  N   UNL d   1       1.782  -2.766  -1.314  0.00  0.00    -0.356 N 
ATOM      7  N   UNL d   1       0.653  -4.039   0.258  0.00  0.00    -0.171 NA
ATOM      8  C   UNL d   1       2.678  -3.890  -1.636  0.00  0.00     0.125 C 
ATOM      9  C   UNL d   1       2.381  -1.515  -1.805  0.00  0.00     0.125 C 
ATOM     10  C   UNL d   1       4.008  -3.246  -1.989  0.00  0.00     0.021 C 
ATOM     11  C   UNL d   1       3.582  -1.950  -2.644  0.00  0.00     0.021 C 
ATOM     12  H   UNL d   1       0.166  -4.104   1.157  0.00  0.00     0.156 HD
ATOM     13  HN  UNL d   1       0.776  -0.751  -0.105  1.00  0.00     0.181 HD
BRANCH   7  14
ATOM     14  N   UNL d   1      -0.007  -4.902  -0.663  0.00  0.00    -0.266 N 
ATOM     15  C   UNL d   1      -0.058  -6.229  -0.255  0.00  0.00     0.335 C 
ATOM     16  N   UNL d   1      -0.542  -7.073  -1.232  0.00  0.00    -0.308 N 
ATOM     17  O   UNL d   1       0.276  -6.559   0.884  0.00  0.00    -0.246 OA
ATOM     18  H   UNL d   1      -0.901  -6.631  -2.065  0.00  0.00     0.170 HD
ATOM     19  H   UNL d   1       0.118  -4.655  -1.635  0.00  0.00     0.186 HD
BRANCH  16  20
ATOM     20  C   UNL d   1      -0.668  -8.478  -1.143  0.00  0.00     0.036 A 
ATOM     21  C   UNL d   1      -0.277  -9.224  -0.025  0.00  0.00     0.031 A 
ATOM     22  C   UNL d   1      -0.407 -10.617  -0.007  0.00  0.00     0.026 A 
ATOM     23  C   UNL d   1      -0.929 -11.277  -1.111  0.00  0.00     0.034 A 
ATOM     24  C   UNL d   1      -1.333 -10.552  -2.230  0.00  0.00     0.026 A 
ATOM     25 CL   UNL d   1      -1.069 -12.990  -1.097  0.00  0.00    -0.084 Cl
ATOM     26  C   UNL d   1      -1.205  -9.157  -2.244  0.00  0.00     0.031 A 
ENDBRANCH  16  20
ENDBRANCH   7  14
ENDBRANCH   1   4
BRANCH   1  27
ATOM     27  C   UNL d   1      -1.169  -0.102   1.843  0.00  0.00     0.080 A 
ATOM     28  C   UNL d   1      -0.726   1.028   1.155  0.00  0.00     0.027 A 
ATOM     29  C   UNL d   1      -1.493   2.201   1.206  0.00  0.00     0.033 A 
ATOM     30  C   UNL d   1      -2.679   2.247   1.962  0.00  0.00     0.057 A 
ATOM     31  C   UNL d   1      -3.094   1.111   2.669  0.00  0.00     0.033 A 
ATOM     32  C   UNL d   1      -2.336  -0.057   2.615  0.00  0.00     0.027 A 
BRANCH  30  33
ATOM     33  N   UNL d   1      -3.492   3.419   1.939  0.00  0.00    -0.255 N 
ATOM     34  C   UNL d   1      -4.409   3.885   2.878  0.00  0.00     0.076 C 
ATOM     35  C   UNL d   1      -5.169   4.828   2.212  0.00  0.00     0.069 C 
ATOM     36  C   UNL d   1      -4.489   3.504   4.266  0.00  0.00     0.033 A 
ATOM     37  C   UNL d   1      -4.575   4.985   0.938  0.00  0.00     0.135 C 
ATOM     38  N   UNL d   1      -3.488   4.200   0.822  0.00  0.00    -0.289 N 
ATOM     39  HN  UNL d   1      -2.808   4.191   0.061  1.00  0.00     0.187 HD
ATOM     40  S   UNL d   1      -5.987   3.491   5.108  0.00  0.00    -0.100 SA
ATOM     41  C   UNL d   1      -3.450   3.151   5.109  0.00  0.00     0.021 A 
ATOM     42  C   UNL d   1      -5.250   2.975   6.561  0.00  0.00     0.050 A 
ATOM     43  C   UNL d   1      -3.891   2.817   6.422  0.00  0.00     0.008 A 
BRANCH  37  44
ATOM     44  C   UNL d   1      -5.050   5.925  -0.138  0.00  0.00     0.434 C 
ATOM     45  F   UNL d   1      -4.315   5.867  -1.279  0.00  0.00    -0.165 F 
ATOM     46  F   UNL d   1      -6.339   5.665  -0.493  0.00  0.00    -0.165 F 
ATOM     47  F   UNL d   1      -5.023   7.219   0.280  0.00  0.00    -0.165 F 
ENDBRANCH  37  44
ENDBRANCH  30  33
ENDBRANCH   1  27
TORSDOF 6
