REMARK  2 active torsions:
REMARK  status: ('A' for Active; 'I' for Inactive)
REMARK    1  A    between atoms: C_6  and  C_1 
REMARK    2  A    between atoms: C_9  and  C_5 
ROOT
ATOM      1  C   UNL d   1      -0.143   1.041  -0.007  0.00  0.00     0.159 A 
ATOM      2  N   UNL d   1      -0.241   0.215  -1.032  0.00  0.00    -0.343 N 
ATOM      3  HN  UNL d   1      -0.266   0.448  -2.025  1.00  0.00     0.167 HD
ATOM      4  O   UNL d   1      -0.150   0.410   1.215  0.00  0.00    -0.291 OA
ATOM      5  C   UNL d   1      -0.242  -0.927   0.914  0.00  0.00     0.103 A 
ATOM      6  C   UNL d   1      -0.303  -1.025  -0.459  0.00  0.00     0.128 A 
ENDROOT
BRANCH   1   7
ATOM      7  C   UNL d   1      -0.044   2.504   0.006  0.00  0.00     0.026 A 
ATOM      8  C   UNL d   1       0.603   3.230  -1.042  0.00  0.00    -0.011 A 
ATOM      9  C   UNL d   1       0.585   4.649  -1.000  0.00  0.00    -0.025 A 
ATOM     10  C   UNL d   1       1.282   2.632  -2.135  0.00  0.00     0.013 A 
ATOM     11  C   UNL d   1       1.194   5.398  -2.022  0.00  0.00     0.012 A 
ATOM     12  C   UNL d   1      -0.042   5.313   0.065  0.00  0.00     0.012 A 
ATOM     13  C   UNL d   1       1.838   4.773  -3.088  0.00  0.00     0.001 A 
ATOM     14  C   UNL d   1       1.887   3.389  -3.141  0.00  0.00     0.001 A 
ATOM     15  C   UNL d   1      -0.647   4.601   1.095  0.00  0.00     0.002 A 
ATOM     16  C   UNL d   1      -0.647   3.209   1.065  0.00  0.00     0.017 A 
ENDBRANCH   1   7
BRANCH   5  17
ATOM     17  C   UNL d   1      -0.241  -1.879   2.016  0.00  0.00    -0.001 A 
ATOM     18  C   UNL d   1      -0.184  -1.459   3.353  0.00  0.00     0.014 A 
ATOM     19  C   UNL d   1      -0.161  -2.391   4.396  0.00  0.00     0.001 A 
ATOM     20  C   UNL d   1      -0.195  -3.755   4.118  0.00  0.00     0.000 A 
ATOM     21  C   UNL d   1      -0.259  -4.190   2.797  0.00  0.00     0.001 A 
ATOM     22  C   UNL d   1      -0.284  -3.259   1.755  0.00  0.00     0.014 A 
ENDBRANCH   5  17
TORSDOF 2
