REMARK  9 active torsions:
REMARK  status: ('A' for Active; 'I' for Inactive)
REMARK    1  A    between atoms: N_4  and  S_1 
REMARK    2  A    between atoms: C_9  and  S_1 
REMARK    3  A    between atoms: N_11  and  N_4 
REMARK    4  A    between atoms: C_17  and  C_5 
REMARK    5  A    between atoms: C_6  and  C_13 
REMARK    6  A    between atoms: C_7  and  C_29 
REMARK       I    between atoms: C_12  and  N_11 
REMARK    7  A    between atoms: C_26  and  C_12 
REMARK    8  A    between atoms: S_24  and  C_26 
REMARK    9  A    between atoms: C_29  and  S_24 
ROOT
ATOM      1  N   UNL d   1       0.714  -2.093   3.623  0.00  0.00    -0.260 N 
ATOM      2  C   UNL d   1       0.380  -2.949   2.590  0.00  0.00     0.245 C 
ATOM      3  O   UNL d   1      -0.212  -2.570   1.580  0.00  0.00    -0.271 OA
ATOM      4  H   UNL d   1       1.148  -2.426   4.484  0.00  0.00     0.190 HD
ENDROOT
BRANCH   2   5
ATOM      5  C   UNL d   1       0.885  -4.375   2.768  0.00  0.00     0.178 C 
BRANCH   5   6
ATOM      6  S   UNL d   1       0.211  -5.103   4.303  0.00  0.00    -0.153 SA
BRANCH   6   7
ATOM      7  C   UNL d   1       0.954  -6.771   4.211  0.00  0.00     0.139 C 
BRANCH   7   8
ATOM      8  C   UNL d   1       2.449  -6.736   4.279  0.00  0.00     0.060 A 
ATOM      9  N   UNL d   1       3.240  -6.671   3.226  0.00  0.00    -0.352 N 
ATOM     10  C   UNL d   1       4.569  -6.653   3.626  0.00  0.00     0.049 A 
ATOM     11  HN  UNL d   1       2.921  -6.639   2.258  1.00  0.00     0.166 HD
ATOM     12  C   UNL d   1       4.760  -6.675   4.994  0.00  0.00     0.081 A 
ATOM     13  S   UNL d   1       3.252  -6.762   5.801  0.00  0.00    -0.086 SA
BRANCH  10  14
ATOM     14  C   UNL d   1       5.654  -6.556   2.657  0.00  0.00    -0.009 A 
ATOM     15  C   UNL d   1       5.433  -5.908   1.432  0.00  0.00     0.015 A 
ATOM     16  C   UNL d   1       6.473  -5.747   0.512  0.00  0.00     0.024 A 
ATOM     17  C   UNL d   1       7.740  -6.245   0.806  0.00  0.00     0.034 A 
ATOM     18  C   UNL d   1       7.970  -6.920   2.003  0.00  0.00     0.024 A 
ATOM     19 CL   UNL d   1       9.030  -6.023  -0.310  0.00  0.00    -0.084 Cl
ATOM     20  C   UNL d   1       6.929  -7.078   2.924  0.00  0.00     0.015 A 
ENDBRANCH  10  14
ENDBRANCH   7   8
ENDBRANCH   6   7
ENDBRANCH   5   6
ENDBRANCH   2   5
BRANCH   1  21
ATOM     21  N   UNL d   1       0.324  -0.699   3.545  0.00  0.00    -0.220 N 
ATOM     22  H   UNL d   1      -0.180  -0.369   2.716  0.00  0.00     0.200 HD
BRANCH  21  23
ATOM     23  S   UNL d   1       0.684   0.331   4.827  0.00  0.00     0.276 S 
ATOM     24  O   UNL d   1       2.123   0.508   4.852  0.00  0.00    -0.199 OA
ATOM     25  O   UNL d   1      -0.021  -0.157   5.991  0.00  0.00    -0.199 OA
BRANCH  23  26
ATOM     26  C   UNL d   1      -0.048   1.873   4.333  0.00  0.00     0.081 A 
ATOM     27  C   UNL d   1       0.705   2.800   3.598  0.00  0.00     0.041 A 
ATOM     28  C   UNL d   1       0.159   4.055   3.277  0.00  0.00     0.049 A 
ATOM     29  C   UNL d   1      -1.139   4.364   3.718  0.00  0.00     0.016 A 
ATOM     30  C   UNL d   1      -1.879   3.443   4.464  0.00  0.00     0.002 A 
ATOM     31  C   UNL d   1      -1.334   2.197   4.776  0.00  0.00     0.025 A 
BRANCH  28  32
ATOM     32  C   UNL d   1       0.939   5.076   2.481  0.00  0.00     0.417 C 
ATOM     33  F   UNL d   1       2.182   4.653   2.124  0.00  0.00    -0.166 F 
ATOM     34  F   UNL d   1       0.311   5.411   1.319  0.00  0.00    -0.166 F 
ATOM     35  F   UNL d   1       1.118   6.242   3.159  0.00  0.00    -0.166 F 
ENDBRANCH  28  32
ENDBRANCH  23  26
ENDBRANCH  21  23
ENDBRANCH   1  21
TORSDOF 9
