REMARK  2 active torsions:
REMARK  status: ('A' for Active; 'I' for Inactive)
REMARK       I    between atoms: N_2  and  C_1 
REMARK    1  A    between atoms: C_3  and  C_1 
REMARK       I    between atoms: C_4  and  N_2 
REMARK       I    between atoms: N_5  and  C_4 
REMARK    2  A    between atoms: C_6  and  N_5 
ROOT
ATOM      1  C   UNL d   1       1.014   0.052   0.180  0.00  0.00     0.265 C 
ATOM      2  N   UNL d   1       0.422  -0.833  -0.706  0.00  0.00    -0.275 N 
ATOM      3  C   UNL d   1       0.993  -1.905  -1.355  0.00  0.00     0.327 C 
ATOM      4  N   UNL d   1       2.362  -1.903  -1.418  0.00  0.00    -0.306 N 
ATOM      5  O   UNL d   1       2.225   0.065   0.387  0.00  0.00    -0.267 OA
ATOM      6  O   UNL d   1       0.237  -2.779  -1.772  0.00  0.00    -0.247 OA
ATOM      7  H   UNL d   1      -0.587  -0.871  -0.761  0.00  0.00     0.173 HD
ATOM      8  H   UNL d   1       2.814  -1.295  -0.736  0.00  0.00     0.171 HD
ENDROOT
BRANCH   1   9
ATOM      9  C   UNL d   1       0.111   1.011   0.865  0.00  0.00     0.109 A 
ATOM     10  C   UNL d   1       0.529   1.643   2.037  0.00  0.00     0.135 A 
ATOM     11  F   UNL d   1       1.703   1.343   2.610  0.00  0.00    -0.205 F 
ATOM     12  C   UNL d   1      -0.277   2.592   2.672  0.00  0.00     0.043 A 
ATOM     13  C   UNL d   1      -1.521   2.923   2.138  0.00  0.00     0.006 A 
ATOM     14  C   UNL d   1      -1.960   2.287   0.979  0.00  0.00     0.043 A 
ATOM     15  C   UNL d   1      -1.147   1.339   0.356  0.00  0.00     0.135 A 
ATOM     16  F   UNL d   1      -1.616   0.747  -0.753  0.00  0.00    -0.205 F 
ENDBRANCH   1   9
BRANCH   4  17
ATOM     17  C   UNL d   1       3.159  -2.860  -2.083  0.00  0.00     0.075 A 
ATOM     18  C   UNL d   1       2.717  -3.632  -3.166  0.00  0.00     0.144 A 
ATOM     19  C   UNL d   1       3.514  -4.635  -3.713  0.00  0.00     0.063 A 
ATOM     20  F   UNL d   1       1.547  -3.387  -3.771  0.00  0.00    -0.204 F 
ATOM     21  C   UNL d   1       4.785  -4.853  -3.197  0.00  0.00     0.014 A 
ATOM     22  C   UNL d   1       5.279  -4.043  -2.174  0.00  0.00     0.021 A 
ATOM     23 BR   UNL d   1       5.848  -6.253  -3.889  0.00  0.00    -0.051 Br
ATOM     24  C   UNL d   1       4.468  -3.039  -1.627  0.00  0.00     0.034 A 
ENDBRANCH   4  17
TORSDOF 2
