REMARK  8 active torsions:
REMARK  status: ('A' for Active; 'I' for Inactive)
REMARK    1  A    between atoms: O_7  and  C_1 
REMARK    2  A    between atoms: C_10  and  C_2 
REMARK    3  A    between atoms: C_13  and  C_6 
REMARK    4  A    between atoms: C_9  and  O_7 
REMARK    5  A    between atoms: C_8  and  C_11 
REMARK    6  A    between atoms: C_12  and  C_9 
REMARK    7  A    between atoms: O_23  and  C_10 
REMARK    8  A    between atoms: C_26  and  O_23 
ROOT
ATOM      1  C   UNL d   1       1.343   0.810   0.153  0.00  0.00     0.176 C 
ATOM      2  C   UNL d   1       0.082   1.372   0.066  0.00  0.00     0.133 C 
ATOM      3  N   UNL d   1       1.340  -0.562   0.301  0.00  0.00    -0.329 N 
ATOM      4  HN  UNL d   1       2.172  -1.117   0.502  1.00  0.00     0.168 HD
ATOM      5  S   UNL d   1      -1.099   0.120   0.048  0.00  0.00    -0.061 SA
ATOM      6  C   UNL d   1       0.133  -1.068   0.152  0.00  0.00     0.087 C 
ENDROOT
BRANCH   1   7
ATOM      7  O   UNL d   1       2.479   1.569   0.087  0.00  0.00    -0.256 OA
BRANCH   7   8
ATOM      8  C   UNL d   1       3.609   0.950  -0.359  0.00  0.00     0.299 C 
ATOM      9  O   UNL d   1       3.731  -0.209  -0.730  0.00  0.00    -0.259 OA
BRANCH   8  10
ATOM     10  C   UNL d   1       4.776   1.882  -0.472  0.00  0.00     0.040 A 
ATOM     11  C   UNL d   1       5.959   1.338  -0.995  0.00  0.00     0.018 A 
ATOM     12  C   UNL d   1       7.083   2.133  -1.226  0.00  0.00     0.017 A 
ATOM     13  C   UNL d   1       7.051   3.501  -0.935  0.00  0.00     0.048 A 
ATOM     14  C   UNL d   1       5.880   4.042  -0.371  0.00  0.00     0.017 A 
ATOM     15  C   UNL d   1       4.746   3.239  -0.139  0.00  0.00     0.018 A 
BRANCH  13  16
ATOM     16  C   UNL d   1       8.244   4.378  -1.252  0.00  0.00     0.417 C 
ATOM     17  F   UNL d   1       9.287   3.699  -1.806  0.00  0.00    -0.166 F 
ATOM     18  F   UNL d   1       7.937   5.367  -2.135  0.00  0.00    -0.166 F 
ATOM     19  F   UNL d   1       8.746   5.000  -0.150  0.00  0.00    -0.166 F 
ENDBRANCH  13  16
ENDBRANCH   8  10
ENDBRANCH   7   8
ENDBRANCH   1   7
BRANCH   2  20
ATOM     20  C   UNL d   1      -0.367   2.731  -0.096  0.00  0.00     0.304 C 
ATOM     21  O   UNL d   1      -1.517   3.088  -0.315  0.00  0.00    -0.259 OA
BRANCH  20  22
ATOM     22  O   UNL d   1       0.699   3.584  -0.067  0.00  0.00    -0.317 OA
BRANCH  22  23
ATOM     23  C   UNL d   1       0.467   4.860  -0.674  0.00  0.00     0.174 C 
ATOM     24  C   UNL d   1       0.742   4.718  -2.161  0.00  0.00     0.034 C 
ENDBRANCH  22  23
ENDBRANCH  20  22
ENDBRANCH   2  20
BRANCH   6  25
ATOM     25  C   UNL d   1      -0.150  -2.516   0.080  0.00  0.00    -0.002 A 
ATOM     26  C   UNL d   1       0.896  -3.420   0.337  0.00  0.00     0.014 A 
ATOM     27  C   UNL d   1       0.701  -4.801   0.259  0.00  0.00     0.001 A 
ATOM     28  C   UNL d   1      -0.548  -5.309  -0.086  0.00  0.00     0.000 A 
ATOM     29  C   UNL d   1      -1.598  -4.435  -0.355  0.00  0.00     0.001 A 
ATOM     30  C   UNL d   1      -1.402  -3.051  -0.273  0.00  0.00     0.014 A 
ENDBRANCH   6  25
TORSDOF 8
