REMARK  5 active torsions:
REMARK  status: ('A' for Active; 'I' for Inactive)
REMARK    1  A    between atoms: N_3  and  C_1 
REMARK    2  A    between atoms: C_9  and  C_2 
REMARK    3  A    between atoms: C_10  and  C_5 
REMARK    4  A    between atoms: O_16  and  C_9 
REMARK    5  A    between atoms: C_20  and  O_16 
ROOT
ATOM      1  C   UNL d   1      -1.694   0.102   0.036  0.00  0.00     0.104 A 
ATOM      2  C   UNL d   1      -1.421  -1.259   0.082  0.00  0.00     0.086 A 
ATOM      3  S   UNL d   1      -0.306   1.056  -0.102  0.00  0.00    -0.075 SA
ATOM      4  C   UNL d   1       0.026  -1.508   0.034  0.00  0.00     0.006 A 
ATOM      5  C   UNL d   1       0.732  -0.306  -0.064  0.00  0.00    -0.007 A 
ATOM      6  C   UNL d   1       2.203  -0.031  -0.170  0.00  0.00     0.057 C 
ENDROOT
BRANCH   1   7
ATOM      7  N   UNL d   1      -2.883   0.796   0.140  0.00  0.00    -0.245 N 
ATOM      8  C   UNL d   1      -3.818   0.515   1.103  0.00  0.00     0.232 C 
ATOM      9  C   UNL d   1      -5.029   1.353   0.839  0.00  0.00     0.113 C 
ATOM     10  O   UNL d   1      -3.721  -0.258   2.048  0.00  0.00    -0.273 OA
ATOM     11  C   UNL d   1      -4.758   2.015  -0.499  0.00  0.00     0.113 C 
ATOM     12  C   UNL d   1      -3.368   1.591  -0.870  0.00  0.00     0.232 C 
ATOM     13  O   UNL d   1      -2.853   1.868  -1.942  0.00  0.00    -0.273 OA
ENDBRANCH   1   7
BRANCH   2  14
ATOM     14  C   UNL d   1      -2.489  -2.262   0.063  0.00  0.00     0.297 C 
ATOM     15  O   UNL d   1      -2.432  -3.349   0.620  0.00  0.00    -0.259 OA
BRANCH  14  16
ATOM     16  O   UNL d   1      -3.501  -1.884  -0.781  0.00  0.00    -0.318 OA
BRANCH  16  17
ATOM     17  C   UNL d   1      -4.406  -2.907  -1.217  0.00  0.00     0.174 C 
ATOM     18  C   UNL d   1      -5.736  -2.773  -0.505  0.00  0.00     0.034 C 
ENDBRANCH  16  17
ENDBRANCH  14  16
ENDBRANCH   2  14
BRANCH   4  19
ATOM     19  C   UNL d   1       0.711  -2.819  -0.048  0.00  0.00    -0.024 A 
ATOM     20  C   UNL d   1       0.175  -3.866  -0.814  0.00  0.00     0.012 A 
ATOM     21  C   UNL d   1       0.832  -5.098  -0.926  0.00  0.00     0.001 A 
ATOM     22  C   UNL d   1       2.066  -5.290  -0.316  0.00  0.00     0.000 A 
ATOM     23  C   UNL d   1       2.620  -4.266   0.444  0.00  0.00     0.001 A 
ATOM     24  C   UNL d   1       1.933  -3.057   0.602  0.00  0.00     0.012 A 
ENDBRANCH   4  19
TORSDOF 5
