REMARK  3 active torsions:
REMARK  status: ('A' for Active; 'I' for Inactive)
REMARK    1  A    between atoms: C_12  and  N_1 
REMARK    2  A    between atoms: S_14  and  C_2 
REMARK    3  A    between atoms: C_7  and  C_10 
ROOT
ATOM      1  N   UNL d   1       1.598   1.138  -0.053  0.00  0.00    -0.276 N 
ATOM      2  C   UNL d   1       2.367  -0.023  -0.128  0.00  0.00     0.150 A 
ATOM      3  N   UNL d   1       1.641  -1.122  -0.144  0.00  0.00    -0.333 N 
ATOM      4  HN  UNL d   1       1.973  -2.084  -0.212  1.00  0.00     0.168 HD
ATOM      5  C   UNL d   1       0.279   0.689   0.027  0.00  0.00     0.141 A 
ATOM      6  C   UNL d   1       0.353  -0.696  -0.050  0.00  0.00     0.080 A 
ATOM      7  N   UNL d   1      -0.856   1.425   0.092  0.00  0.00    -0.349 N 
ATOM      8  HN  UNL d   1      -0.861   2.444   0.139  1.00  0.00     0.167 HD
ATOM      9  C   UNL d   1      -2.043  -0.717   0.035  0.00  0.00     0.065 A 
ATOM     10  C   UNL d   1      -0.839  -1.430  -0.029  0.00  0.00     0.051 A 
ATOM     11  C   UNL d   1      -1.985   0.672   0.089  0.00  0.00     0.106 A 
ENDROOT
BRANCH   1  12
ATOM     12  C   UNL d   1       2.011   2.505  -0.058  0.00  0.00     0.043 A 
ATOM     13  C   UNL d   1       3.113   2.924  -0.818  0.00  0.00     0.032 A 
ATOM     14  C   UNL d   1       3.530   4.259  -0.781  0.00  0.00     0.026 A 
ATOM     15  C   UNL d   1       2.838   5.183  -0.004  0.00  0.00     0.034 A 
ATOM     16  C   UNL d   1       1.719   4.789   0.726  0.00  0.00     0.026 A 
ATOM     17 CL   UNL d   1       3.363   6.820   0.050  0.00  0.00    -0.084 Cl
ATOM     18  C   UNL d   1       1.301   3.454   0.694  0.00  0.00     0.032 A 
ENDBRANCH   1  12
BRANCH   2  19
ATOM     19  S   UNL d   1       4.104  -0.119  -0.020  0.00  0.00    -0.106 SA
ATOM     20  H   UNL d   1       4.377   1.102   0.456  0.00  0.00     0.110 HD
ENDBRANCH   2  19
BRANCH   9  21
ATOM     21  C   UNL d   1      -3.374  -1.402   0.032  0.00  0.00     0.418 C 
ATOM     22  F   UNL d   1      -3.290  -2.760  -0.010  0.00  0.00    -0.166 F 
ATOM     23  F   UNL d   1      -4.113  -1.106   1.136  0.00  0.00    -0.166 F 
ATOM     24  F   UNL d   1      -4.139  -1.042  -1.036  0.00  0.00    -0.166 F 
ENDBRANCH   9  21
TORSDOF 3
