REMARK  6 active torsions:
REMARK  status: ('A' for Active; 'I' for Inactive)
REMARK    1  A    between atoms: C_2  and  S_1 
REMARK    2  A    between atoms: N_3  and  S_1 
REMARK    3  A    between atoms: C_6  and  C_4 
REMARK    4  A    between atoms: C_9  and  N_5 
REMARK    5  A    between atoms: O_16  and  C_6 
REMARK    6  A    between atoms: O_19  and  C_15 
ROOT
ATOM      1  N   UNL d   1       0.558  -1.004  -0.080  0.00  0.00    -0.304 N 
ATOM      2  N   UNL d   1      -0.872  -2.597   1.844  0.00  0.00    -0.376 N 
ATOM      3  C   UNL d   1      -0.796  -0.602   0.397  0.00  0.00     0.155 C 
ATOM      4  C   UNL d   1       0.858  -2.447   0.107  0.00  0.00     0.155 C 
ATOM      5  C   UNL d   1      -1.122  -1.145   1.812  0.00  0.00     0.143 C 
ATOM      6  C   UNL d   1       0.535  -2.929   1.532  0.00  0.00     0.143 C 
ENDROOT
BRANCH   1   7
ATOM      7  S   UNL d   1       1.780   0.129  -0.208  0.00  0.00     0.262 S 
ATOM      8  O   UNL d   1       2.964  -0.473  -0.775  0.00  0.00    -0.200 OA
ATOM      9  O   UNL d   1       1.204   1.300  -0.833  0.00  0.00    -0.200 OA
BRANCH   7  10
ATOM     10  C   UNL d   1       2.123   0.591   1.472  0.00  0.00     0.096 A 
ATOM     11  C   UNL d   1       3.171   0.040   2.221  0.00  0.00     0.062 A 
ATOM     12  C   UNL d   1       3.399   0.522   3.521  0.00  0.00     0.019 A 
ATOM     13  C   UNL d   1       2.622   1.548   4.056  0.00  0.00     0.001 A 
ATOM     14  C   UNL d   1       1.605   2.119   3.298  0.00  0.00     0.002 A 
ATOM     15  C   UNL d   1       1.365   1.649   2.009  0.00  0.00     0.026 A 
BRANCH  11  16
ATOM     16  C   UNL d   1       4.006  -1.097   1.786  0.00  0.00     0.294 C 
ATOM     17  O   UNL d   1       3.554  -2.177   1.449  0.00  0.00    -0.259 OA
BRANCH  16  18
ATOM     18  O   UNL d   1       5.309  -0.781   1.986  0.00  0.00    -0.322 OA
ATOM     19  C   UNL d   1       6.248  -1.842   1.786  0.00  0.00     0.213 C 
ENDBRANCH  16  18
ENDBRANCH  11  16
ENDBRANCH   7  10
ENDBRANCH   1   7
BRANCH   2  20
ATOM     20  C   UNL d   1      -1.597  -3.397   2.727  0.00  0.00     0.064 A 
ATOM     21  C   UNL d   1      -3.008  -3.516   2.689  0.00  0.00     0.094 A 
ATOM     22  C   UNL d   1      -3.682  -4.421   3.528  0.00  0.00     0.039 A 
ATOM     23  C   UNL d   1      -2.985  -5.218   4.429  0.00  0.00     0.003 A 
ATOM     24  C   UNL d   1      -1.609  -5.088   4.523  0.00  0.00     0.002 A 
ATOM     25  C   UNL d   1      -0.932  -4.194   3.684  0.00  0.00     0.032 A 
BRANCH  21  26
ATOM     26  O   UNL d   1      -3.864  -2.753   1.933  0.00  0.00    -0.354 OA
ATOM     27  C   UNL d   1      -3.628  -2.756   0.532  0.00  0.00     0.210 C 
ENDBRANCH  21  26
ENDBRANCH   2  20
TORSDOF 6
