REMARK  9 active torsions:
REMARK  status: ('A' for Active; 'I' for Inactive)
REMARK       I    between atoms: N_2  and  C_1 
REMARK    1  A    between atoms: O_5  and  C_1 
REMARK    2  A    between atoms: C_14  and  N_2 
REMARK    3  A    between atoms: C_3  and  S_11 
REMARK    4  A    between atoms: C_4  and  S_12 
REMARK    5  A    between atoms: C_13  and  O_5 
REMARK    6  A    between atoms: S_11  and  C_15 
REMARK    7  A    between atoms: S_12  and  C_16 
REMARK    8  A    between atoms: C_15  and  C_13 
REMARK    9  A    between atoms: C_16  and  C_13 
ROOT
ATOM      1  C   UNL d   1      -1.213   0.855  -0.817  0.00  0.00     0.153 C 
ENDROOT
BRANCH   1   2
ATOM      2  O   UNL d   1       0.238   0.938  -0.865  0.00  0.00    -0.297 OA
BRANCH   2   3
ATOM      3  C   UNL d   1       0.839  -0.274  -1.020  0.00  0.00     0.365 C 
ATOM      4  N   UNL d   1       1.898  -0.151  -1.881  0.00  0.00    -0.303 N 
ATOM      5  H   UNL d   1       2.122   0.798  -2.141  0.00  0.00     0.171 HD
ATOM      6  O   UNL d   1       0.414  -1.296  -0.500  0.00  0.00    -0.238 OA
BRANCH   4   7
ATOM      7  C   UNL d   1       2.571  -1.200  -2.545  0.00  0.00     0.036 A 
ATOM      8  C   UNL d   1       2.158  -2.537  -2.474  0.00  0.00     0.031 A 
ATOM      9  C   UNL d   1       2.839  -3.537  -3.175  0.00  0.00     0.026 A 
ATOM     10  C   UNL d   1       3.946  -3.208  -3.949  0.00  0.00     0.034 A 
ATOM     11  C   UNL d   1       4.365  -1.883  -4.041  0.00  0.00     0.026 A 
ATOM     12 CL   UNL d   1       4.791  -4.442  -4.798  0.00  0.00    -0.084 Cl
ATOM     13  C   UNL d   1       3.673  -0.880  -3.348  0.00  0.00     0.031 A 
ENDBRANCH   4   7
ENDBRANCH   2   3
ENDBRANCH   1   2
BRANCH   1  14
ATOM     14  C   UNL d   1      -1.736   1.255   0.578  0.00  0.00     0.114 C 
BRANCH  14  15
ATOM     15  S   UNL d   1      -3.548   0.959   0.669  0.00  0.00    -0.110 SA
BRANCH  15  16
ATOM     16  C   UNL d   1      -4.006   1.726   2.211  0.00  0.00     0.069 A 
ATOM     17  N   UNL d   1      -3.044   2.090   3.083  0.00  0.00    -0.361 N 
ATOM     18  C   UNL d   1      -3.456   2.627   4.257  0.00  0.00     0.089 A 
ATOM     19  HN  UNL d   1      -2.054   1.967   2.870  1.00  0.00     0.165 HD
ATOM     20  C   UNL d   1      -4.784   2.826   4.600  0.00  0.00     0.017 A 
ATOM     21  C   UNL d   1      -5.758   2.453   3.685  0.00  0.00     0.004 A 
ATOM     22  C   UNL d   1      -5.365   1.892   2.473  0.00  0.00     0.037 A 
ENDBRANCH  15  16
ENDBRANCH  14  15
ENDBRANCH   1  14
BRANCH   1  23
ATOM     23  C   UNL d   1      -1.742   1.776  -1.932  0.00  0.00     0.114 C 
BRANCH  23  24
ATOM     24  S   UNL d   1      -1.199   1.165  -3.578  0.00  0.00    -0.110 SA
BRANCH  24  25
ATOM     25  C   UNL d   1      -1.953   2.375  -4.642  0.00  0.00     0.069 A 
ATOM     26  N   UNL d   1      -2.662   3.379  -4.082  0.00  0.00    -0.361 N 
ATOM     27  C   UNL d   1      -3.232   4.272  -4.920  0.00  0.00     0.089 A 
ATOM     28  HN  UNL d   1      -2.763   3.460  -3.071  1.00  0.00     0.165 HD
ATOM     29  C   UNL d   1      -3.126   4.215  -6.299  0.00  0.00     0.017 A 
ATOM     30  C   UNL d   1      -2.388   3.179  -6.855  0.00  0.00     0.004 A 
ATOM     31  C   UNL d   1      -1.790   2.243  -6.016  0.00  0.00     0.037 A 
ENDBRANCH  24  25
ENDBRANCH  23  24
ENDBRANCH   1  23
TORSDOF 9
