REMARK  0 active torsions:
REMARK  status: ('A' for Active; 'I' for Inactive)
ROOT
ATOM      1  C   UNL d   1       0.666   1.197  -0.326  0.00  0.00     0.136 C 
ATOM      2  C   UNL d   1       1.408  -0.028  -0.004  0.00  0.00     0.304 C 
ATOM      3  C   UNL d   1      -0.775   1.266  -0.039  0.00  0.00     0.304 C 
ATOM      4  O   UNL d   1       0.670  -1.151  -0.067  0.00  0.00    -0.279 OA
ATOM      5  O   UNL d   1      -1.407   0.076  -0.046  0.00  0.00    -0.279 OA
ATOM      6  C   UNL d   1      -0.690  -1.089   0.352  0.00  0.00     0.175 C 
ATOM      7  C   UNL d   1       1.246   2.234  -0.966  0.00  0.00     0.027 C 
ATOM      8  N   UNL d   1       0.634   3.409  -1.381  0.00  0.00    -0.392 N 
ATOM      9  O   UNL d   1      -1.389   2.309   0.139  0.00  0.00    -0.259 OA
ATOM     10  O   UNL d   1       2.606  -0.075   0.235  0.00  0.00    -0.259 OA
ATOM     11  C   UNL d   1      -1.397  -2.280  -0.293  0.00  0.00     0.080 C 
ATOM     12  C   UNL d   1      -0.752  -1.212   1.875  0.00  0.00     0.080 C 
ATOM     13  C   UNL d   1       2.708   2.367  -1.355  0.00  0.00     0.059 C 
ATOM     14  C   UNL d   1       1.563   4.477  -1.690  0.00  0.00     0.120 C 
ATOM     15  C   UNL d   1       2.909   3.883  -1.282  0.00  0.00     0.025 C 
ATOM     16  H   UNL d   1      -0.273   3.637  -0.963  0.00  0.00     0.159 HD
ENDROOT
TORSDOF 0
