REMARK  6 active torsions:
REMARK  status: ('A' for Active; 'I' for Inactive)
REMARK    1  A    between atoms: C_4  and  C_1 
REMARK    2  A    between atoms: C_2  and  N_5 
REMARK    3  A    between atoms: N_10  and  C_3 
REMARK    4  A    between atoms: N_5  and  C_4 
REMARK    5  A    between atoms: C_13  and  N_10 
REMARK    6  A    between atoms: C_16  and  C_13 
ROOT
ATOM      1  C   UNL d   1      -1.266   4.523   0.049  0.00  0.00     0.122 C 
ATOM      2  C   UNL d   1      -2.164   5.101   0.882  0.00  0.00     0.122 C 
ATOM      3  C   UNL d   1      -0.302   5.300  -0.682  0.00  0.00     0.114 C 
ATOM      4  C   UNL d   1      -2.236   6.530   1.037  0.00  0.00     0.114 C 
ATOM      5  N   UNL d   1       0.490   5.887  -1.296  0.00  0.00    -0.190 NA
ATOM      6  N   UNL d   1      -2.318   7.675   1.192  0.00  0.00    -0.190 NA
ENDROOT
BRANCH   1   7
ATOM      7  N   UNL d   1      -1.187   3.138  -0.183  0.00  0.00    -0.278 NA
ATOM      8  H   UNL d   1      -0.206   2.853  -0.263  0.00  0.00     0.128 HD
BRANCH   7   9
ATOM      9  C   UNL d   1      -1.901   2.564  -1.334  0.00  0.00     0.136 C 
BRANCH   9  10
ATOM     10  C   UNL d   1      -2.193   1.107  -1.105  0.00  0.00     0.015 A 
ATOM     11  C   UNL d   1      -1.194   0.140  -0.919  0.00  0.00     0.044 A 
ATOM     12 CL   UNL d   1       0.487   0.546  -0.968  0.00  0.00    -0.084 Cl
ATOM     13  C   UNL d   1      -1.526  -1.204  -0.700  0.00  0.00     0.024 A 
ATOM     14  C   UNL d   1      -2.861  -1.606  -0.679  0.00  0.00     0.005 A 
ATOM     15  C   UNL d   1      -3.862  -0.665  -0.887  0.00  0.00     0.043 A 
ATOM     16  C   UNL d   1      -3.524   0.670  -1.100  0.00  0.00     0.125 A 
ATOM     17  F   UNL d   1      -4.516   1.545  -1.322  0.00  0.00    -0.205 F 
ENDBRANCH   9  10
ENDBRANCH   7   9
ENDBRANCH   1   7
BRANCH   2  18
ATOM     18  N   UNL d   1      -3.084   4.384   1.669  0.00  0.00    -0.278 NA
ATOM     19  H   UNL d   1      -3.998   4.837   1.658  0.00  0.00     0.128 HD
BRANCH  18  20
ATOM     20  C   UNL d   1      -2.748   4.091   3.070  0.00  0.00     0.131 C 
BRANCH  20  21
ATOM     21  C   UNL d   1      -3.489   2.868   3.548  0.00  0.00    -0.045 A 
ATOM     22  C   UNL d   1      -3.289   1.638   2.903  0.00  0.00     0.008 A 
ATOM     23  C   UNL d   1      -3.908   0.478   3.369  0.00  0.00     0.001 A 
ATOM     24  C   UNL d   1      -4.733   0.532   4.490  0.00  0.00     0.000 A 
ATOM     25  C   UNL d   1      -4.946   1.748   5.139  0.00  0.00     0.001 A 
ATOM     26  C   UNL d   1      -4.327   2.911   4.672  0.00  0.00     0.008 A 
ENDBRANCH  20  21
ENDBRANCH  18  20
ENDBRANCH   2  18
TORSDOF 6
