REMARK  5 active torsions:
REMARK  status: ('A' for Active; 'I' for Inactive)
REMARK    1  A    between atoms: N_7  and  C_1 
REMARK    2  A    between atoms: C_9  and  C_6 
REMARK       I    between atoms: C_8  and  N_7 
REMARK       I    between atoms: N_13  and  C_8 
REMARK    3  A    between atoms: C_10  and  O_14 
REMARK    4  A    between atoms: C_19  and  N_13 
REMARK    5  A    between atoms: O_14  and  C_20 
ROOT
ATOM      1  N   UNL d   1      -0.341  -2.337  -0.169  0.00  0.00    -0.293 N 
ATOM      2  C   UNL d   1      -1.703  -2.659   0.015  0.00  0.00     0.326 C 
ATOM      3  N   UNL d   1      -2.165  -3.788  -0.616  0.00  0.00    -0.309 N 
ATOM      4  O   UNL d   1      -2.453  -1.934   0.655  0.00  0.00    -0.247 OA
ATOM      5  H   UNL d   1       0.236  -2.930  -0.731  0.00  0.00     0.172 HD
ATOM      6  H   UNL d   1      -3.180  -3.794  -0.620  0.00  0.00     0.170 HD
ENDROOT
BRANCH   1   7
ATOM      7  C   UNL d   1       0.286  -1.219   0.384  0.00  0.00     0.127 A 
ATOM      8  C   UNL d   1      -0.266  -0.026   0.807  0.00  0.00     0.077 A 
ATOM      9  C   UNL d   1       0.831   0.735   1.274  0.00  0.00     0.034 A 
ATOM     10  N   UNL d   1       1.986   0.083   1.145  0.00  0.00    -0.301 N 
ATOM     11  N   UNL d   1       1.639  -1.087   0.597  0.00  0.00    -0.281 N 
ATOM     12  HN  UNL d   1       2.920   0.403   1.404  1.00  0.00     0.187 HD
ATOM     13  C   UNL d   1       2.658  -2.094   0.432  0.00  0.00     0.179 C 
BRANCH   9  14
ATOM     14  C   UNL d   1       0.834   2.125   1.880  0.00  0.00     0.037 A 
ATOM     15  C   UNL d   1      -0.344   2.619   2.688  0.00  0.00     0.011 A 
ATOM     16  C   UNL d   1      -0.080   3.199   1.339  0.00  0.00     0.011 A 
ENDBRANCH   9  14
ENDBRANCH   1   7
BRANCH   3  17
ATOM     17  C   UNL d   1      -1.529  -4.713  -1.455  0.00  0.00     0.036 C 
ATOM     18  C   UNL d   1      -0.187  -5.080  -1.352  0.00  0.00     0.032 C 
ATOM     19  C   UNL d   1       0.438  -5.809  -2.375  0.00  0.00     0.039 C 
ATOM     20  C   UNL d   1      -0.299  -6.262  -3.466  0.00  0.00     0.078 C 
ATOM     21  C   UNL d   1      -1.677  -6.028  -3.481  0.00  0.00     0.039 C 
ATOM     22  C   UNL d   1      -2.293  -5.276  -2.477  0.00  0.00     0.032 C 
BRANCH  20  23
ATOM     23  O   UNL d   1       0.152  -6.969  -4.537  0.00  0.00    -0.255 OA
BRANCH  23  24
ATOM     24  C   UNL d   1       1.538  -7.220  -4.703  0.00  0.00     0.530 C 
ATOM     25  F   UNL d   1       2.127  -7.617  -3.555  0.00  0.00    -0.144 F 
ATOM     26  F   UNL d   1       1.686  -8.211  -5.607  0.00  0.00    -0.144 F 
ATOM     27  F   UNL d   1       2.165  -6.118  -5.168  0.00  0.00    -0.144 F 
ENDBRANCH  23  24
ENDBRANCH  20  23
ENDBRANCH   3  17
TORSDOF 5
