REMARK  8 active torsions:
REMARK  status: ('A' for Active; 'I' for Inactive)
REMARK       I    between atoms: N_5  and  C_1 
REMARK    1  A    between atoms: O_10  and  C_1 
REMARK    2  A    between atoms: C_2  and  O_9 
REMARK       I    between atoms: N_6  and  C_2 
REMARK    3  A    between atoms: C_13  and  N_5 
REMARK    4  A    between atoms: C_14  and  N_6 
REMARK    5  A    between atoms: O_9  and  C_17 
REMARK    6  A    between atoms: C_18  and  O_10 
REMARK    7  A    between atoms: C_11  and  C_18 
REMARK    8  A    between atoms: C_17  and  C_12 
ROOT
ATOM      1  N   UNL d   1       5.373   1.018   0.626  0.00  0.00    -0.359 N 
ATOM      2  HN  UNL d   1       4.884   1.910   0.702  1.00  0.00     0.165 HD
ATOM      3  C   UNL d   1       4.701  -0.158   0.749  0.00  0.00     0.034 A 
ATOM      4  C   UNL d   1       6.712   0.974   0.400  0.00  0.00     0.034 A 
ATOM      5  C   UNL d   1       6.707  -1.425   0.408  0.00  0.00     0.004 A 
ATOM      6  C   UNL d   1       7.403  -0.229   0.280  0.00  0.00     0.027 A 
ATOM      7  C   UNL d   1       5.340  -1.393   0.648  0.00  0.00     0.027 A 
ENDROOT
BRANCH   3   8
ATOM      8  C   UNL d   1       3.203  -0.134   0.990  0.00  0.00     0.237 C 
BRANCH   8   9
ATOM      9  O   UNL d   1       2.720   1.200   1.196  0.00  0.00    -0.298 OA
BRANCH   9  10
ATOM     10  C   UNL d   1       1.542   1.495   0.606  0.00  0.00     0.365 C 
ATOM     11  N   UNL d   1       1.049   2.746   0.864  0.00  0.00    -0.303 N 
ATOM     12  H   UNL d   1       0.113   2.846   0.494  0.00  0.00     0.171 HD
ATOM     13  O   UNL d   1       0.884   0.710  -0.068  0.00  0.00    -0.238 OA
BRANCH  11  14
ATOM     14  C   UNL d   1       1.586   3.848   1.550  0.00  0.00     0.036 A 
ATOM     15  C   UNL d   1       2.916   3.961   1.962  0.00  0.00     0.031 A 
ATOM     16  C   UNL d   1       3.357   5.115   2.622  0.00  0.00     0.026 A 
ATOM     17  C   UNL d   1       2.471   6.160   2.872  0.00  0.00     0.034 A 
ATOM     18  C   UNL d   1       1.145   6.063   2.466  0.00  0.00     0.026 A 
ATOM     19 CL   UNL d   1       3.020   7.579   3.674  0.00  0.00    -0.084 Cl
ATOM     20  C   UNL d   1       0.709   4.913   1.802  0.00  0.00     0.031 A 
ENDBRANCH  11  14
ENDBRANCH   9  10
ENDBRANCH   8   9
ENDBRANCH   3   8
BRANCH   4  21
ATOM     21  C   UNL d   1       7.452   2.292   0.339  0.00  0.00     0.237 C 
BRANCH  21  22
ATOM     22  O   UNL d   1       7.470   2.888  -0.966  0.00  0.00    -0.298 OA
BRANCH  22  23
ATOM     23  C   UNL d   1       8.487   2.506  -1.773  0.00  0.00     0.365 C 
ATOM     24  N   UNL d   1       8.584   3.172  -2.965  0.00  0.00    -0.303 N 
ATOM     25  H   UNL d   1       9.277   2.743  -3.564  0.00  0.00     0.171 HD
ATOM     26  O   UNL d   1       9.287   1.614  -1.503  0.00  0.00    -0.238 OA
BRANCH  24  27
ATOM     27  C   UNL d   1       7.971   4.344  -3.445  0.00  0.00     0.036 A 
ATOM     28  C   UNL d   1       7.160   5.188  -2.684  0.00  0.00     0.031 A 
ATOM     29  C   UNL d   1       6.643   6.367  -3.237  0.00  0.00     0.026 A 
ATOM     30  C   UNL d   1       6.931   6.705  -4.557  0.00  0.00     0.034 A 
ATOM     31  C   UNL d   1       7.733   5.873  -5.330  0.00  0.00     0.026 A 
ATOM     32 CL   UNL d   1       6.304   8.159  -5.228  0.00  0.00    -0.084 Cl
ATOM     33  C   UNL d   1       8.254   4.701  -4.773  0.00  0.00     0.031 A 
ENDBRANCH  24  27
ENDBRANCH  22  23
ENDBRANCH  21  22
ENDBRANCH   4  21
TORSDOF 8
