REMARK  4 active torsions:
REMARK  status: ('A' for Active; 'I' for Inactive)
REMARK    1  A    between atoms: N_7  and  C_1 
REMARK    2  A    between atoms: C_11  and  C_3 
REMARK       I    between atoms: C_8  and  N_7 
REMARK    3  A    between atoms: C_9  and  C_8 
REMARK    4  A    between atoms: C_15  and  C_16 
ROOT
ATOM      1  C   UNL d   1      -2.242  -0.904  -0.061  0.00  0.00     0.142 A 
ATOM      2  C   UNL d   1      -1.695   0.200   0.637  0.00  0.00     0.085 A 
ATOM      3  C   UNL d   1      -1.372   1.160  -0.305  0.00  0.00     0.079 A 
ATOM      4  N   UNL d   1      -2.154  -0.697  -1.377  0.00  0.00    -0.284 N 
ATOM      5  HN  UNL d   1      -2.438  -1.328  -2.126  1.00  0.00     0.188 HD
ATOM      6  N   UNL d   1      -1.612   0.519  -1.496  0.00  0.00    -0.297 N 
ATOM      7 BR   UNL d   1      -1.504   0.251   2.507  0.00  0.00    -0.044 Br
ATOM      8  H   UNL d   1      -1.468   0.875  -2.432  0.00  0.00     0.187 HD
ENDROOT
BRANCH   1   9
ATOM      9  N   UNL d   1      -2.836  -2.012   0.523  0.00  0.00    -0.307 N 
ATOM     10  C   UNL d   1      -3.304  -3.102  -0.171  0.00  0.00     0.259 C 
ATOM     11  O   UNL d   1      -3.138  -3.306  -1.371  0.00  0.00    -0.267 OA
ATOM     12  H   UNL d   1      -2.937  -1.965   1.526  0.00  0.00     0.170 HD
BRANCH  10  13
ATOM     13  C   UNL d   1      -4.087  -4.142   0.578  0.00  0.00     0.054 A 
ATOM     14  C   UNL d   1      -4.167  -4.301   1.972  0.00  0.00     0.051 A 
ATOM     15  C   UNL d   1      -4.872  -5.386   2.521  0.00  0.00     0.048 A 
ATOM     16 CL   UNL d   1      -3.420  -3.243   3.118  0.00  0.00    -0.083 Cl
ATOM     17  C   UNL d   1      -5.511  -6.306   1.694  0.00  0.00     0.035 A 
ATOM     18  C   UNL d   1      -5.484  -6.142   0.316  0.00  0.00     0.025 A 
ATOM     19 CL   UNL d   1      -6.322  -7.659   2.377  0.00  0.00    -0.084 Cl
ATOM     20  C   UNL d   1      -4.781  -5.068  -0.231  0.00  0.00     0.020 A 
ENDBRANCH  10  13
ENDBRANCH   1   9
BRANCH   3  21
ATOM     21  C   UNL d   1      -0.931   2.556  -0.238  0.00  0.00    -0.007 A 
ATOM     22  C   UNL d   1      -0.188   3.146  -1.267  0.00  0.00     0.014 A 
ATOM     23  C   UNL d   1       0.185   4.498  -1.205  0.00  0.00     0.009 A 
ATOM     24  C   UNL d   1      -0.154   5.308  -0.107  0.00  0.00    -0.051 A 
ATOM     25  C   UNL d   1      -0.915   4.712   0.906  0.00  0.00     0.009 A 
ATOM     26  C   UNL d   1      -1.303   3.365   0.837  0.00  0.00     0.014 A 
BRANCH  24  27
ATOM     27  C   UNL d   1       0.312   6.772  -0.037  0.00  0.00    -0.024 C 
ATOM     28  C   UNL d   1      -0.145   7.506   1.245  0.00  0.00     0.019 C 
ATOM     29  C   UNL d   1       1.855   6.816  -0.062  0.00  0.00     0.019 C 
ATOM     30  C   UNL d   1      -0.236   7.570  -1.239  0.00  0.00     0.019 C 
ENDBRANCH  24  27
ENDBRANCH   3  21
TORSDOF 4
