REMARK  7 active torsions:
REMARK  status: ('A' for Active; 'I' for Inactive)
REMARK    1  A    between atoms: C_2  and  C_1 
REMARK    2  A    between atoms: C_4  and  C_1 
REMARK    3  A    between atoms: C_5  and  C_1 
REMARK    4  A    between atoms: O_15  and  C_1 
REMARK       I    between atoms: C_3  and  N_7 
REMARK       I    between atoms: N_6  and  C_3 
REMARK    5  A    between atoms: O_20  and  C_4 
REMARK    6  A    between atoms: C_9  and  N_6 
REMARK    7  A    between atoms: N_7  and  C_18 
ROOT
ATOM      1  C   UNL d   1       1.017   1.316  -0.822  0.00  0.00    -0.005 A 
ATOM      2  C   UNL d   1       0.389   1.296  -2.080  0.00  0.00     0.013 A 
ATOM      3  C   UNL d   1       1.253   2.574  -0.249  0.00  0.00     0.013 A 
ATOM      4  C   UNL d   1       0.070   3.710  -2.040  0.00  0.00     0.036 A 
ATOM      5  C   UNL d   1      -0.082   2.476  -2.679  0.00  0.00     0.030 A 
ATOM      6  C   UNL d   1       0.795   3.748  -0.851  0.00  0.00     0.030 A 
ENDROOT
BRANCH   4   7
ATOM      7  N   UNL d   1      -0.572   4.846  -2.600  0.00  0.00    -0.309 N 
ATOM      8  C   UNL d   1      -0.689   6.088  -2.001  0.00  0.00     0.325 C 
ATOM      9  N   UNL d   1      -1.534   6.928  -2.713  0.00  0.00    -0.309 N 
ATOM     10  O   UNL d   1      -0.136   6.418  -0.957  0.00  0.00    -0.247 OA
ATOM     11  H   UNL d   1      -1.725   6.676  -3.671  0.00  0.00     0.170 HD
ATOM     12  H   UNL d   1      -1.127   4.675  -3.424  0.00  0.00     0.170 HD
BRANCH   9  13
ATOM     13  C   UNL d   1      -2.006   8.193  -2.282  0.00  0.00     0.037 A 
ATOM     14  C   UNL d   1      -1.868   8.668  -0.973  0.00  0.00     0.053 A 
ATOM     15  C   UNL d   1      -2.358   9.927  -0.622  0.00  0.00     0.036 A 
ATOM     16 CL   UNL d   1      -2.171  10.499   0.993  0.00  0.00    -0.084 Cl
ATOM     17  C   UNL d   1      -3.000  10.725  -1.563  0.00  0.00     0.024 A 
ATOM     18  C   UNL d   1      -3.160  10.256  -2.864  0.00  0.00     0.004 A 
ATOM     19  C   UNL d   1      -2.671   8.992  -3.221  0.00  0.00     0.029 A 
ENDBRANCH   9  13
ENDBRANCH   4   7
BRANCH   1  20
ATOM     20  C   UNL d   1       1.366   0.028  -0.057  0.00  0.00     0.271 C 
BRANCH  20  21
ATOM     21  C   UNL d   1       2.330  -0.930  -0.794  0.00  0.00     0.432 C 
ATOM     22  F   UNL d   1       1.789  -2.144  -1.052  0.00  0.00    -0.167 F 
ATOM     23  F   UNL d   1       2.786  -0.446  -1.971  0.00  0.00    -0.167 F 
ATOM     24  F   UNL d   1       3.429  -1.175  -0.025  0.00  0.00    -0.167 F 
ENDBRANCH  20  21
BRANCH  20  25
ATOM     25  C   UNL d   1       0.100  -0.807   0.214  0.00  0.00     0.307 C 
ATOM     26  O   UNL d   1      -0.835  -0.968  -0.563  0.00  0.00    -0.261 OA
BRANCH  25  27
ATOM     27  O   UNL d   1       0.166  -1.396   1.451  0.00  0.00    -0.324 OA
ATOM     28  C   UNL d   1      -1.004  -2.141   1.799  0.00  0.00     0.213 C 
ENDBRANCH  25  27
ENDBRANCH  20  25
BRANCH  20  29
ATOM     29  O   UNL d   1       1.924   0.426   1.233  0.00  0.00    -0.368 OA
ATOM     30  H   UNL d   1       2.100  -0.397   1.728  0.00  0.00     0.212 HD
ENDBRANCH  20  29
ENDBRANCH   1  20
TORSDOF 7
