REMARK  4 active torsions:
REMARK  status: ('A' for Active; 'I' for Inactive)
REMARK    1  A    between atoms: C_2  and  C_1 
REMARK    2  A    between atoms: C_3  and  C_1 
REMARK    3  A    between atoms: N_7  and  C_5 
REMARK    4  A    between atoms: N_8  and  C_6 
ROOT
ATOM      1  C   UNL d   1       1.093   0.040  -0.100  0.00  0.00     0.051 C 
ATOM      2  S   UNL d   1       2.785  -0.105  -0.213  0.00  0.00    -0.079 SA
ENDROOT
BRANCH   1   3
ATOM      3  C   UNL d   1       0.342  -0.646   1.020  0.00  0.00    -0.014 A 
ATOM      4  C   UNL d   1       0.762  -1.869   1.531  0.00  0.00     0.015 A 
ATOM      5  C   UNL d   1       0.080  -2.472   2.605  0.00  0.00     0.030 A 
ATOM      6  C   UNL d   1      -1.045  -1.887   3.206  0.00  0.00     0.029 A 
ATOM      7  C   UNL d   1      -1.458  -0.663   2.655  0.00  0.00     0.030 A 
ATOM      8  C   UNL d   1      -0.775  -0.042   1.595  0.00  0.00     0.015 A 
BRANCH   6   9
ATOM      9  N   UNL d   1      -1.676  -2.443   4.307  0.00  0.00    -0.390 N 
ATOM     10  C   UNL d   1      -3.099  -2.242   4.569  0.00  0.00     0.149 C 
ATOM     11  C   UNL d   1      -1.063  -3.504   5.103  0.00  0.00     0.149 C 
ENDBRANCH   6   9
ENDBRANCH   1   3
BRANCH   1  12
ATOM     12  C   UNL d   1       0.322   0.860  -1.102  0.00  0.00    -0.014 A 
ATOM     13  C   UNL d   1       0.872   2.007  -1.678  0.00  0.00     0.015 A 
ATOM     14  C   UNL d   1       0.140   2.771  -2.604  0.00  0.00     0.030 A 
ATOM     15  C   UNL d   1      -1.169   2.436  -2.990  0.00  0.00     0.029 A 
ATOM     16  C   UNL d   1      -1.694   1.273  -2.401  0.00  0.00     0.030 A 
ATOM     17  C   UNL d   1      -0.967   0.491  -1.487  0.00  0.00     0.015 A 
BRANCH  15  18
ATOM     18  N   UNL d   1      -1.880   3.160  -3.935  0.00  0.00    -0.390 N 
ATOM     19  C   UNL d   1      -3.340   3.239  -3.892  0.00  0.00     0.149 C 
ATOM     20  C   UNL d   1      -1.256   4.196  -4.756  0.00  0.00     0.149 C 
ENDBRANCH  15  18
ENDBRANCH   1  12
TORSDOF 4
