REMARK  3 active torsions:
REMARK  status: ('A' for Active; 'I' for Inactive)
REMARK    1  A    between atoms: N_2  and  C_6 
REMARK    2  A    between atoms: C_8  and  C_5 
REMARK    3  A    between atoms: C_19  and  C_7 
ROOT
ATOM      1  C   UNL d   1       0.235   1.016   0.043  0.00  0.00     0.055 A 
ATOM      2  C   UNL d   1       1.612   1.343   0.006  0.00  0.00     0.141 C 
ATOM      3  C   UNL d   1      -1.034   1.742   0.033  0.00  0.00    -0.003 A 
ATOM      4  C   UNL d   1      -0.015  -0.355   0.009  0.00  0.00     0.089 A 
ATOM      5  C   UNL d   1      -2.117   0.879   0.071  0.00  0.00     0.065 A 
ATOM      6  S   UNL d   1      -1.664  -0.758   0.101  0.00  0.00    -0.082 SA
ATOM      7  N   UNL d   1       2.538   0.358  -0.204  0.00  0.00    -0.336 N 
ATOM      8  HN  UNL d   1       3.520   0.591  -0.349  1.00  0.00     0.168 HD
ATOM      9  N   UNL d   1       0.883  -1.348  -0.089  0.00  0.00    -0.346 N 
ATOM     10  HN  UNL d   1       0.631  -2.337  -0.070  1.00  0.00     0.167 HD
ATOM     11  C   UNL d   1       2.131  -0.915  -0.215  0.00  0.00     0.183 C 
ENDROOT
BRANCH   2  12
ATOM     12  N   UNL d   1       2.127   2.660   0.150  0.00  0.00    -0.250 N 
ATOM     13  N   UNL d   1       1.511   3.622   0.875  0.00  0.00    -0.288 N 
ATOM     14  C   UNL d   1       2.257   4.732   0.705  0.00  0.00     0.134 C 
ATOM     15  HN  UNL d   1       0.662   3.528   1.432  1.00  0.00     0.187 HD
ATOM     16  C   UNL d   1       3.413   4.446  -0.066  0.00  0.00     0.055 C 
ATOM     17  C   UNL d   1       3.334   3.106  -0.347  0.00  0.00     0.120 C 
BRANCH  14  18
ATOM     18  C   UNL d   1       1.879   6.080   1.262  0.00  0.00     0.434 C 
ATOM     19  F   UNL d   1       0.780   6.066   2.059  0.00  0.00    -0.165 F 
ATOM     20  F   UNL d   1       2.890   6.611   2.003  0.00  0.00    -0.165 F 
ATOM     21  F   UNL d   1       1.632   6.976   0.265  0.00  0.00    -0.165 F 
ENDBRANCH  14  18
ENDBRANCH   2  12
BRANCH   3  22
ATOM     22  C   UNL d   1      -1.307   3.178  -0.088  0.00  0.00    -0.024 A 
ATOM     23  C   UNL d   1      -0.708   3.941  -1.099  0.00  0.00     0.012 A 
ATOM     24  C   UNL d   1      -0.928   5.320  -1.169  0.00  0.00     0.001 A 
ATOM     25  C   UNL d   1      -1.789   5.939  -0.264  0.00  0.00     0.000 A 
ATOM     26  C   UNL d   1      -2.437   5.180   0.707  0.00  0.00     0.001 A 
ATOM     27  C   UNL d   1      -2.192   3.808   0.800  0.00  0.00     0.012 A 
ENDBRANCH   3  22
TORSDOF 3
