REMARK  4 active torsions:
REMARK  status: ('A' for Active; 'I' for Inactive)
REMARK    1  A    between atoms: C_5  and  C_1 
REMARK    2  A    between atoms: N_3  and  C_2 
REMARK       I    between atoms: C_4  and  N_3 
REMARK    3  A    between atoms: C_10  and  C_4 
REMARK    4  A    between atoms: O_13  and  C_5 
ROOT
ATOM      1  C   UNL d   1      -0.039   1.230   0.155  0.00  0.00     0.106 A 
ATOM      2  C   UNL d   1       1.326   0.961   0.269  0.00  0.00     0.058 A 
ATOM      3  S   UNL d   1      -0.968  -0.204   0.481  0.00  0.00    -0.094 SA
ATOM      4  C   UNL d   1       1.552  -0.386   0.729  0.00  0.00     0.038 A 
ATOM      5  C   UNL d   1       0.405  -1.122   0.862  0.00  0.00     0.053 A 
ENDROOT
BRANCH   2   6
ATOM      6  N   UNL d   1       2.442   1.760   0.044  0.00  0.00    -0.325 N 
ATOM      7  C   UNL d   1       2.596   2.778  -0.889  0.00  0.00     0.236 C 
ATOM      8  O   UNL d   1       1.747   3.150  -1.694  0.00  0.00    -0.272 OA
ATOM      9  H   UNL d   1       3.328   1.361   0.339  0.00  0.00     0.169 HD
BRANCH   7  10
ATOM     10  C   UNL d   1       3.966   3.453  -0.761  0.00  0.00     0.139 C 
ATOM     11  S   UNL d   1       5.344   2.261  -0.601  0.00  0.00    -0.155 SA
ATOM     12  C   UNL d   1       6.597   3.373  -1.310  0.00  0.00     0.075 C 
ATOM     13  C   UNL d   1       5.859   4.642  -1.716  0.00  0.00     0.012 C 
ATOM     14  C   UNL d   1       4.394   4.288  -1.956  0.00  0.00     0.025 C 
ENDBRANCH   7  10
ENDBRANCH   2   6
BRANCH   1  15
ATOM     15  C   UNL d   1      -0.847   2.414  -0.114  0.00  0.00     0.302 C 
ATOM     16  O   UNL d   1      -2.026   2.399  -0.456  0.00  0.00    -0.259 OA
BRANCH  15  17
ATOM     17  O   UNL d   1      -0.167   3.563   0.170  0.00  0.00    -0.322 OA
ATOM     18  C   UNL d   1      -0.854   4.781  -0.153  0.00  0.00     0.213 C 
ENDBRANCH  15  17
ENDBRANCH   1  15
TORSDOF 4
