REMARK  9 active torsions:
REMARK  status: ('A' for Active; 'I' for Inactive)
REMARK       I    between atoms: N_2  and  C_1 
REMARK    1  A    between atoms: C_10  and  C_1 
REMARK    2  A    between atoms: C_3  and  N_2 
REMARK    3  A    between atoms: C_4  and  C_3 
REMARK    4  A    between atoms: C_7  and  C_3 
REMARK    5  A    between atoms: O_15  and  C_4 
REMARK    6  A    between atoms: C_5  and  C_6 
REMARK    7  A    between atoms: O_14  and  C_5 
REMARK    8  A    between atoms: C_13  and  C_7 
REMARK    9  A    between atoms: C_21  and  O_15 
ROOT
ATOM      1  C   UNL d   1       0.815  -2.389   0.180  0.00  0.00     0.188 C 
ENDROOT
BRANCH   1   2
ATOM      2  N   UNL d   1       0.259  -1.055  -0.104  0.00  0.00    -0.343 N 
ATOM      3  C   UNL d   1      -0.952  -0.637   0.405  0.00  0.00     0.252 C 
ATOM      4  O   UNL d   1      -1.693  -1.345   1.075  0.00  0.00    -0.268 OA
ATOM      5  H   UNL d   1       0.817  -0.411  -0.649  0.00  0.00     0.163 HD
BRANCH   3   6
ATOM      6  C   UNL d   1      -1.367   0.752   0.099  0.00  0.00     0.032 A 
ATOM      7  C   UNL d   1      -2.711   0.986  -0.220  0.00  0.00     0.017 A 
ATOM      8  C   UNL d   1      -3.172   2.290  -0.398  0.00  0.00     0.001 A 
ATOM      9  C   UNL d   1      -2.294   3.362  -0.247  0.00  0.00     0.000 A 
ATOM     10  C   UNL d   1      -0.951   3.132   0.060  0.00  0.00     0.001 A 
ATOM     11  C   UNL d   1      -0.481   1.827   0.230  0.00  0.00     0.017 A 
ENDBRANCH   3   6
ENDBRANCH   1   2
BRANCH   1  12
ATOM     12  C   UNL d   1       1.376  -2.538   1.603  0.00  0.00     0.282 C 
ATOM     13  O   UNL d   1       1.748  -3.607   2.075  0.00  0.00    -0.263 OA
BRANCH  12  14
ATOM     14  O   UNL d   1       1.475  -1.338   2.246  0.00  0.00    -0.320 OA
BRANCH  14  15
ATOM     15  C   UNL d   1       1.808  -1.421   3.638  0.00  0.00     0.174 C 
ATOM     16  C   UNL d   1       0.529  -1.558   4.444  0.00  0.00     0.034 C 
ENDBRANCH  14  15
ENDBRANCH  12  14
ENDBRANCH   1  12
BRANCH   1  17
ATOM     17  C   UNL d   1      -0.126  -3.581  -0.109  0.00  0.00     0.074 C 
BRANCH  17  18
ATOM     18  C   UNL d   1      -0.507  -3.700  -1.565  0.00  0.00    -0.055 A 
ATOM     19  C   UNL d   1       0.296  -4.439  -2.446  0.00  0.00     0.024 A 
ATOM     20  C   UNL d   1      -0.028  -4.513  -3.807  0.00  0.00     0.040 A 
ATOM     21  C   UNL d   1      -1.164  -3.848  -4.284  0.00  0.00     0.017 A 
ATOM     22  C   UNL d   1      -1.974  -3.124  -3.409  0.00  0.00     0.002 A 
ATOM     23  C   UNL d   1      -1.650  -3.056  -2.056  0.00  0.00     0.007 A 
BRANCH  20  24
ATOM     24  C   UNL d   1       0.800  -5.275  -4.779  0.00  0.00     0.292 C 
ATOM     25  O   UNL d   1       0.552  -5.335  -5.974  0.00  0.00    -0.259 OA
BRANCH  24  26
ATOM     26  O   UNL d   1       1.853  -5.865  -4.162  0.00  0.00    -0.323 OA
ATOM     27  C   UNL d   1       2.704  -6.598  -5.045  0.00  0.00     0.213 C 
ENDBRANCH  24  26
ENDBRANCH  20  24
ENDBRANCH  17  18
ENDBRANCH   1  17
TORSDOF 9
