REMARK  4 active torsions:
REMARK  status: ('A' for Active; 'I' for Inactive)
REMARK    1  A    between atoms: O_7  and  S_1 
REMARK    2  A    between atoms: C_14  and  S_1 
REMARK    3  A    between atoms: C_4  and  C_8 
REMARK    4  A    between atoms: C_11  and  O_7 
ROOT
ATOM      1  C   UNL d   1       1.130  -4.851  -2.011  0.00  0.00    -0.006 C 
ATOM      2  C   UNL d   1       0.661  -2.722  -0.186  0.00  0.00     0.101 C 
ATOM      3  C   UNL d   1      -0.406  -3.518  -0.637  0.00  0.00    -0.026 C 
ATOM      4  C   UNL d   1       1.975  -3.007  -0.663  0.00  0.00    -0.026 C 
ATOM      5  C   UNL d   1       2.186  -4.041  -1.599  0.00  0.00     0.023 C 
ATOM      6  C   UNL d   1      -0.120  -4.636  -1.446  0.00  0.00     0.023 C 
ATOM      7  C   UNL d   1       3.183  -2.206  -0.243  0.00  0.00     0.051 C 
ATOM      8  C   UNL d   1      -1.883  -3.347  -0.406  0.00  0.00     0.051 C 
ENDROOT
BRANCH   1   9
ATOM      9  C   UNL d   1       1.338  -5.960  -2.997  0.00  0.00     0.070 C 
ATOM     10  N   UNL d   1       2.473  -6.592  -2.925  0.00  0.00    -0.294 N 
ATOM     11  N   UNL d   1       2.681  -7.696  -3.710  0.00  0.00    -0.261 N 
ATOM     12  HN  UNL d   1       3.202  -6.269  -2.290  1.00  0.00     0.187 HD
ATOM     13  C   UNL d   1       3.950  -8.376  -3.544  0.00  0.00     0.181 C 
ATOM     14  C   UNL d   1       1.713  -8.281  -4.517  0.00  0.00     0.272 C 
ATOM     15  C   UNL d   1       0.436  -7.563  -4.631  0.00  0.00     0.046 A 
ATOM     16  O   UNL d   1       1.879  -9.326  -5.142  0.00  0.00    -0.266 OA
ATOM     17  C   UNL d   1       0.268  -6.354  -3.963  0.00  0.00     0.009 A 
ATOM     18  C   UNL d   1      -0.589  -8.080  -5.439  0.00  0.00     0.018 A 
ATOM     19  C   UNL d   1      -0.890  -5.604  -4.221  0.00  0.00     0.015 A 
ATOM     20  C   UNL d   1      -1.924  -6.128  -5.002  0.00  0.00     0.001 A 
ATOM     21  C   UNL d   1      -1.782  -7.377  -5.597  0.00  0.00     0.001 A 
ENDBRANCH   1   9
BRANCH   2  22
ATOM     22  O   UNL d   1       0.591  -1.643   0.669  0.00  0.00    -0.228 OA
BRANCH  22  23
ATOM     23  S   UNL d   1      -0.606  -1.387   1.740  0.00  0.00     0.303 S 
ATOM     24  O   UNL d   1      -0.963  -2.631   2.398  0.00  0.00    -0.193 OA
ATOM     25  O   UNL d   1      -1.606  -0.555   1.098  0.00  0.00    -0.193 OA
BRANCH  23  26
ATOM     26  C   UNL d   1       0.099  -0.368   3.014  0.00  0.00     0.086 A 
ATOM     27  C   UNL d   1      -0.601   0.772   3.425  0.00  0.00     0.026 A 
ATOM     28  C   UNL d   1      -0.100   1.552   4.461  0.00  0.00     0.008 A 
ATOM     29  C   UNL d   1       1.099   1.198   5.091  0.00  0.00    -0.062 A 
ATOM     30  C   UNL d   1       1.791   0.051   4.671  0.00  0.00     0.008 A 
ATOM     31  C   UNL d   1       1.622   2.060   6.202  0.00  0.00     0.048 C 
ATOM     32  C   UNL d   1       1.294  -0.738   3.630  0.00  0.00     0.026 A 
ENDBRANCH  23  26
ENDBRANCH  22  23
ENDBRANCH   2  22
TORSDOF 4
