REMARK  6 active torsions:
REMARK  status: ('A' for Active; 'I' for Inactive)
REMARK       I    between atoms: N_3  and  C_1 
REMARK    1  A    between atoms: C_11  and  C_1 
REMARK    2  A    between atoms: C_2  and  N_3 
REMARK    3  A    between atoms: C_6  and  C_13 
REMARK    4  A    between atoms: O_14  and  C_6 
REMARK    5  A    between atoms: C_7  and  C_11 
REMARK    6  A    between atoms: C_13  and  C_7 
ROOT
ATOM      1  C   UNL d   1       0.832  -0.236  -0.251  0.00  0.00     0.218 C 
ATOM      2  N   UNL d   1       0.565  -0.712  -1.521  0.00  0.00    -0.356 N 
ATOM      3  O   UNL d   1      -0.043  -0.082   0.597  0.00  0.00    -0.274 OA
ATOM      4  H   UNL d   1       1.307  -0.734  -2.211  0.00  0.00     0.162 HD
ENDROOT
BRANCH   1   5
ATOM      5  C   UNL d   1       2.305   0.108   0.002  0.00  0.00     0.112 C 
BRANCH   5   6
ATOM      6  C   UNL d   1       2.852  -0.059   1.457  0.00  0.00    -0.030 C 
ATOM      7  C   UNL d   1       4.355   0.324   1.449  0.00  0.00     0.016 C 
ATOM      8  C   UNL d   1       2.186   0.891   2.478  0.00  0.00     0.016 C 
BRANCH   6   9
ATOM      9  C   UNL d   1       2.645  -1.500   1.991  0.00  0.00     0.119 C 
BRANCH   9  10
ATOM     10  C   UNL d   1       3.188  -2.610   1.113  0.00  0.00     0.140 C 
ATOM     11  O   UNL d   1       4.215  -2.548   0.465  0.00  0.00    -0.650 OA
BRANCH  10  12
ATOM     12  O   UNL d   1       2.422  -3.724   1.145  0.00  0.00    -0.776 OA
ATOM     13  H   UNL d   1       1.633  -3.656   1.716  0.00  0.00     0.167 HD
ENDBRANCH  10  12
ENDBRANCH   9  10
ENDBRANCH   6   9
ENDBRANCH   5   6
ENDBRANCH   1   5
BRANCH   2  14
ATOM     14  C   UNL d   1      -0.806  -1.008  -1.980  0.00  0.00     0.092 C 
ATOM     15  C   UNL d   1      -0.856  -2.158  -3.022  0.00  0.00     0.064 C 
ATOM     16  C   UNL d   1      -1.247  -1.474  -4.296  0.00  0.00    -0.050 A 
ATOM     17  C   UNL d   1      -1.347  -2.037  -5.562  0.00  0.00     0.007 A 
ATOM     18  C   UNL d   1      -1.583  -0.139  -4.079  0.00  0.00    -0.050 A 
ATOM     19  C   UNL d   1      -1.760  -1.230  -6.626  0.00  0.00     0.001 A 
ATOM     20  C   UNL d   1      -2.081   0.117  -6.410  0.00  0.00     0.001 A 
ATOM     21  C   UNL d   1      -2.005   0.667  -5.129  0.00  0.00     0.007 A 
ATOM     22  C   UNL d   1      -1.493   0.225  -2.628  0.00  0.00     0.064 C 
ENDBRANCH   2  14
TORSDOF 6
