REMARK  3 active torsions:
REMARK  status: ('A' for Active; 'I' for Inactive)
REMARK    1  A    between atoms: N_10  and  C_3 
REMARK    2  A    between atoms: C_9  and  C_6 
REMARK    3  A    between atoms: N_13  and  C_7 
ROOT
ATOM      1  N   UNL d   1       0.104   0.986  -0.053  0.00  0.00    -0.324 N 
ATOM      2  HN  UNL d   1       0.142   2.006  -0.054  1.00  0.00     0.169 HD
ATOM      3  C   UNL d   1      -1.051   0.329  -0.164  0.00  0.00     0.156 A 
ATOM      4  N   UNL d   1      -1.186  -0.998  -0.131  0.00  0.00    -0.332 N 
ATOM      5  HN  UNL d   1      -2.101  -1.441  -0.209  1.00  0.00     0.168 HD
ATOM      6  C   UNL d   1      -0.061  -1.730   0.013  0.00  0.00     0.047 A 
ATOM      7  C   UNL d   1       1.206   0.243   0.061  0.00  0.00     0.082 A 
ATOM      8  C   UNL d   1       1.179  -1.130   0.103  0.00  0.00     0.072 A 
ENDROOT
BRANCH   6   9
ATOM      9  C   UNL d   1      -0.248  -3.197   0.078  0.00  0.00    -0.009 A 
ATOM     10  C   UNL d   1       0.626  -4.026   0.811  0.00  0.00     0.017 A 
ATOM     11  C   UNL d   1       0.440  -5.411   0.869  0.00  0.00     0.043 A 
ATOM     12  C   UNL d   1      -0.628  -5.987   0.198  0.00  0.00     0.116 A 
ATOM     13  C   UNL d   1      -1.514  -5.205  -0.529  0.00  0.00     0.043 A 
ATOM     14  F   UNL d   1      -0.808  -7.312   0.257  0.00  0.00    -0.206 F 
ATOM     15  C   UNL d   1      -1.324  -3.820  -0.586  0.00  0.00     0.017 A 
ENDBRANCH   6   9
BRANCH   7  16
ATOM     16  N   UNL d   1       2.416   0.926   0.199  0.00  0.00    -0.289 NA
ATOM     17  H   UNL d   1       2.221   1.919   0.094  0.00  0.00     0.125 HD
ATOM     18  H   UNL d   1       3.112   0.607  -0.465  0.00  0.00     0.125 HD
ENDBRANCH   7  16
BRANCH   3  19
ATOM     19  N   UNL d   1      -2.204   1.082  -0.267  0.00  0.00    -0.274 NA
ATOM     20  H   UNL d   1      -2.046   1.991   0.145  0.00  0.00     0.127 HD
ATOM     21  H   UNL d   1      -2.984   0.547   0.090  0.00  0.00     0.127 HD
ENDBRANCH   3  19
TORSDOF 3
