REMARK  2 active torsions:
REMARK  status: ('A' for Active; 'I' for Inactive)
REMARK    1  A    between atoms: S_4  and  C_2 
REMARK    2  A    between atoms: C_7  and  C_3 
ROOT
ATOM      1  C   UNL d   1      -0.771  -0.029  -0.113  0.00  0.00     0.085 A 
ATOM      2  C   UNL d   1       0.093   1.051  -0.033  0.00  0.00     0.120 A 
ATOM      3  C   UNL d   1      -0.078  -1.289  -0.041  0.00  0.00     0.010 A 
ATOM      4  S   UNL d   1       1.720   0.546   0.139  0.00  0.00    -0.088 SA
ATOM      5  C   UNL d   1       1.280  -1.103   0.135  0.00  0.00     0.065 A 
ATOM      6  C   UNL d   1      -2.195   0.139  -0.192  0.00  0.00     0.102 C 
ATOM      7  N   UNL d   1      -3.348   0.245  -0.249  0.00  0.00    -0.191 NA
ENDROOT
BRANCH   2   8
ATOM      8  S   UNL d   1      -0.163   2.813  -0.027  0.00  0.00     0.179 S 
ATOM      9  O   UNL d   1      -1.578   2.998  -0.264  0.00  0.00    -0.222 OA
ATOM     10  O   UNL d   1       0.478   3.296   1.178  0.00  0.00    -0.222 OA
ATOM     11  C   UNL d   1       0.714   3.415  -1.445  0.00  0.00     0.167 C 
ENDBRANCH   2   8
BRANCH   3  12
ATOM     12  C   UNL d   1      -0.670  -2.675  -0.144  0.00  0.00     0.017 A 
ATOM     13  S   UNL d   1      -2.130  -3.045  -0.957  0.00  0.00    -0.101 SA
ATOM     14  C   UNL d   1      -1.972  -4.715  -0.646  0.00  0.00     0.050 A 
ATOM     15  C   UNL d   1      -0.850  -4.993   0.100  0.00  0.00     0.008 A 
ATOM     16  C   UNL d   1      -0.089  -3.817   0.378  0.00  0.00     0.020 A 
ENDBRANCH   3  12
TORSDOF 2
