REMARK  5 active torsions:
REMARK  status: ('A' for Active; 'I' for Inactive)
REMARK    1  A    between atoms: C_4  and  C_1 
REMARK    2  A    between atoms: S_6  and  C_2 
REMARK       I    between atoms: C_3  and  N_5 
REMARK    3  A    between atoms: C_7  and  C_3 
REMARK    4  A    between atoms: N_5  and  C_4 
REMARK    5  A    between atoms: C_12  and  S_6 
ROOT
ATOM      1  C   UNL d   1       0.194   1.118  -0.033  0.00  0.00    -0.002 A 
ATOM      2  C   UNL d   1       1.606   1.188   0.070  0.00  0.00     0.015 A 
ATOM      3  C   UNL d   1      -0.396  -0.165  -0.082  0.00  0.00     0.043 A 
ATOM      4 CL   UNL d   1      -2.115  -0.387  -0.105  0.00  0.00    -0.084 Cl
ATOM      5  C   UNL d   1       2.373   0.009   0.041  0.00  0.00     0.019 A 
ATOM      6  C   UNL d   1       1.769  -1.241  -0.050  0.00  0.00     0.003 A 
ATOM      7  C   UNL d   1       0.384  -1.327  -0.090  0.00  0.00     0.024 A 
ENDROOT
BRANCH   1   8
ATOM      8  C   UNL d   1      -0.668   2.357  -0.060  0.00  0.00     0.164 C 
BRANCH   8   9
ATOM      9  N   UNL d   1      -1.248   2.844   1.185  0.00  0.00    -0.353 N 
ATOM     10  C   UNL d   1      -0.906   2.431   2.457  0.00  0.00     0.251 C 
ATOM     11  O   UNL d   1      -0.146   1.513   2.715  0.00  0.00    -0.268 OA
ATOM     12  H   UNL d   1      -1.966   3.547   1.088  0.00  0.00     0.163 HD
BRANCH  10  13
ATOM     13  C   UNL d   1      -1.539   3.159   3.586  0.00  0.00     0.032 A 
ATOM     14  C   UNL d   1      -1.807   2.433   4.756  0.00  0.00     0.018 A 
ATOM     15  C   UNL d   1      -2.298   3.078   5.893  0.00  0.00     0.025 A 
ATOM     16  C   UNL d   1      -2.515   4.453   5.860  0.00  0.00     0.034 A 
ATOM     17  C   UNL d   1      -2.262   5.185   4.697  0.00  0.00     0.025 A 
ATOM     18 CL   UNL d   1      -3.070   5.261   7.275  0.00  0.00    -0.084 Cl
ATOM     19  C   UNL d   1      -1.773   4.539   3.556  0.00  0.00     0.018 A 
ENDBRANCH  10  13
ENDBRANCH   8   9
ENDBRANCH   1   8
BRANCH   2  20
ATOM     20  S   UNL d   1       2.523   2.683   0.440  0.00  0.00    -0.090 SA
BRANCH  20  21
ATOM     21  C   UNL d   1       2.876   3.450  -1.126  0.00  0.00     0.005 A 
ATOM     22  C   UNL d   1       3.194   4.817  -1.095  0.00  0.00     0.020 A 
ATOM     23  C   UNL d   1       3.384   5.537  -2.276  0.00  0.00     0.025 A 
ATOM     24  C   UNL d   1       3.272   4.887  -3.500  0.00  0.00     0.034 A 
ATOM     25  C   UNL d   1       3.034   3.515  -3.547  0.00  0.00     0.025 A 
ATOM     26 CL   UNL d   1       3.400   5.787  -4.960  0.00  0.00    -0.084 Cl
ATOM     27  C   UNL d   1       2.844   2.795  -2.361  0.00  0.00     0.020 A 
ENDBRANCH  20  21
ENDBRANCH   2  20
TORSDOF 5
