REMARK  12 active torsions:
REMARK  status: ('A' for Active; 'I' for Inactive)
REMARK    1  A    between atoms: C_1  and  O_7 
REMARK    2  A    between atoms: C_2  and  O_8 
REMARK    3  A    between atoms: C_3  and  O_10 
REMARK    4  A    between atoms: C_4  and  O_9 
REMARK    5  A    between atoms: C_11  and  O_7 
REMARK    6  A    between atoms: C_12  and  O_8 
REMARK    7  A    between atoms: C_13  and  O_9 
REMARK    8  A    between atoms: C_14  and  O_10 
REMARK    9  A    between atoms: C_22  and  C_11 
REMARK   10  A    between atoms: C_20  and  C_12 
REMARK   11  A    between atoms: C_21  and  C_13 
REMARK   12  A    between atoms: C_23  and  C_14 
ROOT
ATOM      1  C   UNL d   1       0.863   1.263  -0.156  0.00  0.00     0.220 C 
ATOM      2  C   UNL d   1       1.724   0.019   0.191  0.00  0.00     0.202 C 
ATOM      3  C   UNL d   1      -0.597   1.108   0.383  0.00  0.00     0.308 C 
ATOM      4  C   UNL d   1       0.984  -1.265  -0.239  0.00  0.00     0.220 C 
ATOM      5  C   UNL d   1      -0.351  -1.234   0.465  0.00  0.00     0.072 C 
ATOM      6  O   UNL d   1      -1.185  -0.190   0.120  0.00  0.00    -0.320 OA
ATOM      7  C   UNL d   1      -0.731  -2.121   1.393  0.00  0.00     0.049 C 
ENDROOT
BRANCH   1   8
ATOM      8  O   UNL d   1       0.797   1.494  -1.602  0.00  0.00    -0.304 OA
BRANCH   8   9
ATOM      9  C   UNL d   1       1.970   1.771  -2.230  0.00  0.00     0.293 C 
ATOM     10  O   UNL d   1       3.083   1.712  -1.733  0.00  0.00    -0.259 OA
BRANCH   9  11
ATOM     11  C   UNL d   1       1.767   2.172  -3.645  0.00  0.00     0.039 A 
ATOM     12  C   UNL d   1       2.901   2.297  -4.464  0.00  0.00     0.017 A 
ATOM     13  C   UNL d   1       2.776   2.750  -5.778  0.00  0.00     0.001 A 
ATOM     14  C   UNL d   1       1.519   3.075  -6.282  0.00  0.00     0.000 A 
ATOM     15  C   UNL d   1       0.385   2.937  -5.479  0.00  0.00     0.001 A 
ATOM     16  C   UNL d   1       0.506   2.486  -4.162  0.00  0.00     0.017 A 
ENDBRANCH   9  11
ENDBRANCH   8   9
ENDBRANCH   1   8
BRANCH   2  17
ATOM     17  O   UNL d   1       2.048  -0.100   1.611  0.00  0.00    -0.306 OA
BRANCH  17  18
ATOM     18  C   UNL d   1       2.785   0.891   2.171  0.00  0.00     0.293 C 
ATOM     19  O   UNL d   1       3.071   1.954   1.647  0.00  0.00    -0.259 OA
BRANCH  18  20
ATOM     20  C   UNL d   1       3.242   0.531   3.538  0.00  0.00     0.039 A 
ATOM     21  C   UNL d   1       3.875   1.524   4.301  0.00  0.00     0.017 A 
ATOM     22  C   UNL d   1       4.393   1.224   5.562  0.00  0.00     0.001 A 
ATOM     23  C   UNL d   1       4.283  -0.069   6.068  0.00  0.00     0.000 A 
ATOM     24  C   UNL d   1       3.645  -1.060   5.320  0.00  0.00     0.001 A 
ATOM     25  C   UNL d   1       3.122  -0.763   4.058  0.00  0.00     0.017 A 
ENDBRANCH  18  20
ENDBRANCH  17  18
ENDBRANCH   2  17
BRANCH   3  26
ATOM     26  O   UNL d   1      -0.745   1.411   1.793  0.00  0.00    -0.282 OA
BRANCH  26  27
ATOM     27  C   UNL d   1      -0.956   2.728   2.051  0.00  0.00     0.295 C 
ATOM     28  O   UNL d   1      -0.789   3.627   1.247  0.00  0.00    -0.259 OA
BRANCH  27  29
ATOM     29  C   UNL d   1      -1.501   2.978   3.423  0.00  0.00     0.039 A 
ATOM     30  C   UNL d   1      -1.650   4.316   3.825  0.00  0.00     0.017 A 
ATOM     31  C   UNL d   1      -2.223   4.634   5.061  0.00  0.00     0.001 A 
ATOM     32  C   UNL d   1      -2.656   3.617   5.907  0.00  0.00     0.000 A 
ATOM     33  C   UNL d   1      -2.511   2.283   5.518  0.00  0.00     0.001 A 
ATOM     34  C   UNL d   1      -1.935   1.960   4.282  0.00  0.00     0.017 A 
ENDBRANCH  27  29
ENDBRANCH  26  27
ENDBRANCH   3  26
BRANCH   4  35
ATOM     35  O   UNL d   1       0.733  -1.292  -1.670  0.00  0.00    -0.302 OA
BRANCH  35  36
ATOM     36  C   UNL d   1       1.037  -2.442  -2.324  0.00  0.00     0.294 C 
ATOM     37  O   UNL d   1       1.607  -3.401  -1.826  0.00  0.00    -0.259 OA
BRANCH  36  38
ATOM     38  C   UNL d   1       0.569  -2.442  -3.746  0.00  0.00     0.039 A 
ATOM     39  C   UNL d   1       0.759  -3.612  -4.504  0.00  0.00     0.017 A 
ATOM     40  C   UNL d   1       0.331  -3.685  -5.835  0.00  0.00     0.001 A 
ATOM     41  C   UNL d   1      -0.289  -2.585  -6.425  0.00  0.00     0.000 A 
ATOM     42  C   UNL d   1      -0.479  -1.418  -5.683  0.00  0.00     0.001 A 
ATOM     43  C   UNL d   1      -0.058  -1.347  -4.350  0.00  0.00     0.017 A 
ENDBRANCH  36  38
ENDBRANCH  35  36
ENDBRANCH   4  35
TORSDOF 12
