REMARK  5 active torsions:
REMARK  status: ('A' for Active; 'I' for Inactive)
REMARK    1  A    between atoms: S_5  and  C_13 
REMARK    2  A    between atoms: C_9  and  S_5 
REMARK    3  A    between atoms: S_19  and  C_6 
REMARK    4  A    between atoms: C_13  and  C_25 
REMARK    5  A    between atoms: C_25  and  S_19 
ROOT
ATOM      1  S   UNL d   1       0.386  -2.789   0.238  0.00  0.00    -0.091 SA
ENDROOT
BRANCH   1   2
ATOM      2  C   UNL d   1       0.057  -1.094   0.186  0.00  0.00     0.162 A 
ATOM      3  N   UNL d   1      -1.204  -0.574   0.309  0.00  0.00    -0.314 N 
ATOM      4  C   UNL d   1      -1.035   0.788   0.349  0.00  0.00     0.158 A 
ATOM      5  C   UNL d   1      -2.438  -1.315   0.323  0.00  0.00     0.160 C 
ATOM      6  N   UNL d   1       0.241   1.065   0.150  0.00  0.00    -0.281 N 
ATOM      7  C   UNL d   1      -2.049   1.768   0.584  0.00  0.00     0.120 A 
ATOM      8  N   UNL d   1       0.932  -0.124   0.065  0.00  0.00    -0.278 N 
ATOM      9  HN  UNL d   1       0.646   1.998   0.074  1.00  0.00     0.188 HD
ATOM     10  HN  UNL d   1       1.937  -0.231  -0.068  1.00  0.00     0.189 HD
ATOM     11  O   UNL d   1      -3.219   1.502   1.253  0.00  0.00    -0.319 OA
ATOM     12  C   UNL d   1      -2.043   3.110   0.236  0.00  0.00     0.043 A 
ATOM     13  C   UNL d   1      -3.933   2.653   1.321  0.00  0.00     0.142 A 
ATOM     14  C   UNL d   1      -3.257   3.673   0.700  0.00  0.00     0.027 A 
ENDBRANCH   1   2
BRANCH   1  15
ATOM     15  C   UNL d   1       2.147  -2.839  -0.216  0.00  0.00     0.098 C 
BRANCH  15  16
ATOM     16  C   UNL d   1       2.685  -4.265  -0.247  0.00  0.00     0.156 C 
BRANCH  16  17
ATOM     17  S   UNL d   1       2.118  -5.184  -1.669  0.00  0.00     0.177 S 
ATOM     18  O   UNL d   1       0.704  -5.487  -1.561  0.00  0.00    -0.223 OA
ATOM     19  O   UNL d   1       2.627  -4.493  -2.841  0.00  0.00    -0.223 OA
BRANCH  17  20
ATOM     20  C   UNL d   1       2.965  -6.752  -1.602  0.00  0.00     0.081 A 
ATOM     21  C   UNL d   1       2.798  -7.647  -0.540  0.00  0.00     0.057 A 
ATOM     22  C   UNL d   1       3.493  -8.864  -0.547  0.00  0.00     0.049 A 
ATOM     23 CL   UNL d   1       1.754  -7.378   0.806  0.00  0.00    -0.083 Cl
ATOM     24  C   UNL d   1       4.318  -9.196  -1.619  0.00  0.00     0.035 A 
ATOM     25  C   UNL d   1       4.456  -8.328  -2.697  0.00  0.00     0.025 A 
ATOM     26 CL   UNL d   1       5.164 -10.693  -1.612  0.00  0.00    -0.084 Cl
ATOM     27  C   UNL d   1       3.782  -7.105  -2.690  0.00  0.00     0.027 A 
ENDBRANCH  17  20
ENDBRANCH  16  17
ENDBRANCH  15  16
ENDBRANCH   1  15
TORSDOF 5
