REMARK  3 active torsions:
REMARK  status: ('A' for Active; 'I' for Inactive)
REMARK    1  A    between atoms: N_4  and  C_3 
REMARK    2  A    between atoms: C_16  and  C_7 
REMARK    3  A    between atoms: C_14  and  C_10 
ROOT
ATOM      1  N   UNL d   1       1.435  -0.506   0.255  0.00  0.00    -0.319 N 
ATOM      2  HN  UNL d   1       2.340  -0.863   0.560  1.00  0.00     0.169 HD
ATOM      3  C   UNL d   1       0.355  -1.222   0.029  0.00  0.00     0.188 A 
ATOM      4  C   UNL d   1       1.118   0.837  -0.001  0.00  0.00     0.123 A 
ATOM      5  N   UNL d   1      -0.151   1.139  -0.319  0.00  0.00    -0.309 N 
ATOM      6  HN  UNL d   1      -0.528   2.073  -0.480  1.00  0.00     0.176 HD
ATOM      7  S   UNL d   1      -0.998  -0.298  -0.402  0.00  0.00     0.026 SA
ENDROOT
BRANCH   3   8
ATOM      8  N   UNL d   1       0.289  -2.607   0.115  0.00  0.00    -0.243 N 
ATOM      9  N   UNL d   1      -0.827  -3.277  -0.265  0.00  0.00    -0.291 N 
ATOM     10  C   UNL d   1      -0.525  -4.570  -0.091  0.00  0.00     0.067 A 
ATOM     11  HN  UNL d   1      -1.704  -2.883  -0.607  1.00  0.00     0.187 HD
ATOM     12  C   UNL d   1       0.775  -4.736   0.432  0.00  0.00     0.051 A 
ATOM     13  C   UNL d   1       1.281  -3.465   0.533  0.00  0.00     0.121 A 
BRANCH  10  14
ATOM     14  C   UNL d   1      -1.494  -5.664  -0.434  0.00  0.00     0.033 A 
ATOM     15  S   UNL d   1      -1.197  -7.328  -0.181  0.00  0.00    -0.100 SA
ATOM     16  C   UNL d   1      -2.726  -7.763  -0.810  0.00  0.00     0.050 A 
ATOM     17  C   UNL d   1      -3.446  -6.665  -1.221  0.00  0.00     0.008 A 
ATOM     18  C   UNL d   1      -2.733  -5.449  -1.004  0.00  0.00     0.021 A 
ENDBRANCH  10  14
ENDBRANCH   3   8
BRANCH   4  19
ATOM     19  C   UNL d   1       2.176   1.853   0.016  0.00  0.00     0.009 A 
ATOM     20  C   UNL d   1       3.507   1.487   0.274  0.00  0.00     0.015 A 
ATOM     21  C   UNL d   1       4.533   2.433   0.206  0.00  0.00     0.001 A 
ATOM     22  C   UNL d   1       4.240   3.758  -0.114  0.00  0.00     0.000 A 
ATOM     23  C   UNL d   1       2.921   4.141  -0.350  0.00  0.00     0.001 A 
ATOM     24  C   UNL d   1       1.895   3.195  -0.283  0.00  0.00     0.015 A 
ENDBRANCH   4  19
TORSDOF 3
