REMARK  8 active torsions:
REMARK  status: ('A' for Active; 'I' for Inactive)
REMARK    1  A    between atoms: C_4  and  N_1 
REMARK       I    between atoms: C_5  and  N_1 
REMARK    2  A    between atoms: C_2  and  C_6 
REMARK       I    between atoms: N_16  and  C_2 
REMARK    3  A    between atoms: N_3  and  C_11 
REMARK    4  A    between atoms: O_8  and  C_7 
REMARK    5  A    between atoms: C_18  and  O_8 
REMARK    6  A    between atoms: C_11  and  C_17 
REMARK    7  A    between atoms: C_17  and  C_18 
REMARK    8  A    between atoms: O_19  and  C_17 
ROOT
ATOM      1  C   UNL d   1       4.008   1.537   2.104  0.00  0.00     0.170 C 
ENDROOT
BRANCH   1   2
ATOM      2  C   UNL d   1       4.411   0.352   3.019  0.00  0.00     0.306 C 
BRANCH   2   3
ATOM      3  N   UNL d   1       4.896  -0.917   2.389  0.00  0.00     0.091 N 
ATOM      4  C   UNL d   1       5.329  -1.818   3.482  0.00  0.00     0.273 C 
ATOM      5  C   UNL d   1       5.750  -3.223   3.034  0.00  0.00     0.044 C 
ATOM      6  C   UNL d   1       4.778  -3.883   2.054  0.00  0.00     0.081 C 
ATOM      7  C   UNL d   1       4.339  -2.881   0.990  0.00  0.00     0.044 C 
ATOM      8  C   UNL d   1       3.846  -1.568   1.597  0.00  0.00     0.273 C 
BRANCH   6   9
ATOM      9  C   UNL d   1       3.577  -4.550   2.720  0.00  0.00     0.219 C 
ATOM     10  O   UNL d   1       2.406  -4.292   2.460  0.00  0.00    -0.273 OA
ATOM     11  N   UNL d   1       3.870  -5.544   3.604  0.00  0.00    -0.370 N 
ATOM     12  H   UNL d   1       4.808  -5.874   3.782  0.00  0.00     0.159 HD
ATOM     13  H   UNL d   1       3.091  -6.068   3.984  0.00  0.00     0.159 HD
ENDBRANCH   6   9
ENDBRANCH   2   3
ENDBRANCH   1   2
BRANCH   1  14
ATOM     14  C   UNL d   1       2.635   1.495   1.424  0.00  0.00     0.209 C 
BRANCH  14  15
ATOM     15  O   UNL d   1       1.581   1.131   2.320  0.00  0.00    -0.346 OA
BRANCH  15  16
ATOM     16  C   UNL d   1       0.342   1.615   1.975  0.00  0.00     0.095 A 
ATOM     17  C   UNL d   1      -0.596   1.920   2.978  0.00  0.00     0.068 A 
ATOM     18  C   UNL d   1      -1.893   2.305   2.594  0.00  0.00     0.032 A 
ATOM     19  C   UNL d   1      -2.250   2.441   1.250  0.00  0.00     0.002 A 
ATOM     20  C   UNL d   1      -1.323   2.145   0.266  0.00  0.00     0.003 A 
ATOM     21  C   UNL d   1      -0.046   1.711   0.625  0.00  0.00     0.039 A 
BRANCH  17  22
ATOM     22  N   UNL d   1      -0.383   1.869   4.377  0.00  0.00    -0.325 N 
ATOM     23  C   UNL d   1       0.799   1.963   5.074  0.00  0.00     0.218 C 
ATOM     24  O   UNL d   1       1.923   2.207   4.632  0.00  0.00    -0.274 OA
ATOM     25  C   UNL d   1       0.606   1.821   6.569  0.00  0.00     0.117 C 
ATOM     26  H   UNL d   1      -1.224   1.945   4.936  0.00  0.00     0.169 HD
ENDBRANCH  17  22
ENDBRANCH  15  16
ENDBRANCH  14  15
ENDBRANCH   1  14
BRANCH   1  27
ATOM     27  O   UNL d   1       5.017   1.735   1.096  0.00  0.00    -0.392 OA
ATOM     28  H   UNL d   1       5.330   0.836   0.871  0.00  0.00     0.210 HD
ENDBRANCH   1  27
TORSDOF 8
