REMARK  6 active torsions:
REMARK  status: ('A' for Active; 'I' for Inactive)
REMARK    1  A    between atoms: C_6  and  C_1 
REMARK    2  A    between atoms: C_11  and  N_2 
REMARK    3  A    between atoms: C_19  and  C_3 
REMARK       I    between atoms: N_9  and  C_6 
REMARK    4  A    between atoms: C_8  and  C_10 
REMARK    5  A    between atoms: C_18  and  N_9 
REMARK    6  A    between atoms: C_24  and  C_19 
ROOT
ATOM      1  C   UNL d   1      -0.188   1.073  -0.026  0.00  0.00     0.073 C 
ATOM      2  N   UNL d   1       0.719  -0.959   0.162  0.00  0.00    -0.260 N 
ATOM      3  C   UNL d   1       1.038   0.409   0.090  0.00  0.00     0.051 C 
ATOM      4  N   UNL d   1      -0.609  -1.142   0.355  0.00  0.00    -0.304 N 
ATOM      5  HN  UNL d   1      -1.087  -2.001   0.627  1.00  0.00     0.186 HD
ATOM      6  C   UNL d   1      -1.147   0.043   0.112  0.00  0.00     0.126 C 
ENDROOT
BRANCH   1   7
ATOM      7  C   UNL d   1      -0.624   2.467  -0.161  0.00  0.00     0.259 C 
ATOM      8  N   UNL d   1       0.298   3.456   0.124  0.00  0.00    -0.323 N 
ATOM      9  H   UNL d   1       1.254   3.175   0.264  0.00  0.00     0.169 HD
ATOM     10  O   UNL d   1      -1.791   2.686  -0.471  0.00  0.00    -0.267 OA
BRANCH   8  11
ATOM     11  C   UNL d   1       0.008   4.823   0.367  0.00  0.00     0.035 A 
ATOM     12  C   UNL d   1      -1.285   5.355   0.388  0.00  0.00     0.030 A 
ATOM     13  C   UNL d   1      -1.514   6.684   0.763  0.00  0.00     0.018 A 
ATOM     14  C   UNL d   1      -0.449   7.518   1.122  0.00  0.00     0.048 A 
ATOM     15  C   UNL d   1       0.853   7.005   1.049  0.00  0.00     0.018 A 
ATOM     16  C   UNL d   1       1.078   5.672   0.676  0.00  0.00     0.030 A 
BRANCH  14  17
ATOM     17  C   UNL d   1      -0.729   8.924   1.599  0.00  0.00     0.417 C 
ATOM     18  F   UNL d   1       0.396   9.608   1.958  0.00  0.00    -0.166 F 
ATOM     19  F   UNL d   1      -1.343   9.686   0.653  0.00  0.00    -0.166 F 
ATOM     20  F   UNL d   1      -1.544   8.951   2.689  0.00  0.00    -0.166 F 
ENDBRANCH  14  17
ENDBRANCH   8  11
ENDBRANCH   1   7
BRANCH   3  21
ATOM     21  C   UNL d   1       2.439   0.917   0.271  0.00  0.00     0.060 C 
BRANCH  21  22
ATOM     22  C   UNL d   1       3.068   1.471  -1.008  0.00  0.00     0.002 C 
ATOM     23  C   UNL d   1       4.480   1.983  -0.748  0.00  0.00     0.005 C 
ENDBRANCH  21  22
ENDBRANCH   3  21
BRANCH   2  24
ATOM     24  C   UNL d   1       1.516  -2.135   0.024  0.00  0.00     0.056 A 
ATOM     25  C   UNL d   1       1.079  -3.320   0.643  0.00  0.00     0.031 A 
ATOM     26  C   UNL d   1       1.745  -4.527   0.425  0.00  0.00     0.002 A 
ATOM     27  C   UNL d   1       2.838  -4.567  -0.435  0.00  0.00     0.000 A 
ATOM     28  C   UNL d   1       3.279  -3.398  -1.054  0.00  0.00     0.002 A 
ATOM     29  C   UNL d   1       2.630  -2.180  -0.818  0.00  0.00     0.031 A 
ENDBRANCH   2  24
TORSDOF 6
