REMARK  2 active torsions:
REMARK  status: ('A' for Active; 'I' for Inactive)
REMARK    1  A    between atoms: N_8  and  C_1 
REMARK       I    between atoms: C_7  and  N_8 
REMARK       I    between atoms: N_9  and  C_7 
REMARK    2  A    between atoms: C_11  and  N_9 
ROOT
ATOM      1  C   UNL d   1      -2.913  -2.025   0.091  0.00  0.00     0.325 C 
ATOM      2  N   UNL d   1      -1.556  -2.267  -0.022  0.00  0.00    -0.305 N 
ATOM      3  N   UNL d   1      -3.655  -2.994  -0.572  0.00  0.00    -0.309 N 
ATOM      4  O   UNL d   1      -3.401  -1.072   0.681  0.00  0.00    -0.247 OA
ATOM      5  H   UNL d   1      -1.260  -3.166  -0.361  0.00  0.00     0.171 HD
ATOM      6  H   UNL d   1      -3.169  -3.829  -0.855  0.00  0.00     0.170 HD
ENDROOT
BRANCH   2   7
ATOM      7  C   UNL d   1      -0.537  -1.388   0.322  0.00  0.00     0.077 A 
ATOM      8  C   UNL d   1      -0.493  -0.023   0.744  0.00  0.00     0.050 A 
ATOM      9  N   UNL d   1       0.772   0.396   0.909  0.00  0.00    -0.301 N 
ATOM     10  C   UNL d   1      -1.579   0.966   0.959  0.00  0.00     0.072 C 
ATOM     11  N   UNL d   1       1.519  -0.661   0.578  0.00  0.00    -0.305 N 
ATOM     12  HN  UNL d   1       1.090   1.314   1.219  1.00  0.00     0.187 HD
ATOM     13  C   UNL d   1       0.789  -1.760   0.240  0.00  0.00     0.141 A 
ATOM     14  C   UNL d   1       2.954  -0.522   0.517  0.00  0.00     0.177 C 
ENDBRANCH   2   7
BRANCH   3  15
ATOM     15  C   UNL d   1      -5.037  -2.940  -0.867  0.00  0.00     0.036 A 
ATOM     16  C   UNL d   1      -5.838  -1.817  -0.633  0.00  0.00     0.032 A 
ATOM     17  C   UNL d   1      -7.185  -1.807  -1.007  0.00  0.00     0.044 A 
ATOM     18  C   UNL d   1      -7.735  -2.927  -1.613  0.00  0.00     0.116 A 
ATOM     19  C   UNL d   1      -6.964  -4.059  -1.844  0.00  0.00     0.044 A 
ATOM     20  F   UNL d   1      -9.021  -2.913  -1.986  0.00  0.00    -0.206 F 
ATOM     21  C   UNL d   1      -5.615  -4.066  -1.472  0.00  0.00     0.032 A 
ENDBRANCH   3  15
TORSDOF 2
