REMARK  1 active torsions:
REMARK  status: ('A' for Active; 'I' for Inactive)
REMARK    1  A    between atoms: C_11  and  C_6 
ROOT
ATOM      1  C   UNL d   1       1.727   1.555   0.316  0.00  0.00     0.026 C 
ATOM      2  N   UNL d   1       0.908   1.541  -0.692  0.00  0.00    -0.357 N 
ATOM      3  HN  UNL d   1       1.077   2.165  -1.482  1.00  0.00     0.166 HD
ATOM      4  C   UNL d   1       1.678   0.515   1.418  0.00  0.00     0.055 C 
ATOM      5  S   UNL d   1       1.131  -1.819  -0.029  0.00  0.00    -0.117 SA
ATOM      6  C   UNL d   1       2.373  -0.671   0.682  0.00  0.00     0.095 C 
ATOM      7  C   UNL d   1       2.927   2.432   0.306  0.00  0.00    -0.007 A 
ATOM      8  C   UNL d   1      -0.213   0.679  -0.716  0.00  0.00     0.049 A 
ATOM      9  C   UNL d   1      -0.241  -0.722  -0.483  0.00  0.00     0.028 A 
ATOM     10  C   UNL d   1       2.206   0.995   2.777  0.00  0.00     0.017 C 
ATOM     11  C   UNL d   1       3.559   2.716   1.521  0.00  0.00    -0.046 A 
ATOM     12  C   UNL d   1       2.907   2.341   2.812  0.00  0.00     0.040 C 
ATOM     13  C   UNL d   1       3.487   2.861  -0.902  0.00  0.00     0.014 A 
ATOM     14  C   UNL d   1      -1.425   1.336  -0.994  0.00  0.00     0.031 A 
ATOM     15  C   UNL d   1      -1.484  -1.389  -0.519  0.00  0.00     0.021 A 
ATOM     16  C   UNL d   1       4.757   3.439   1.518  0.00  0.00     0.008 A 
ATOM     17  C   UNL d   1       4.691   3.570  -0.894  0.00  0.00     0.001 A 
ATOM     18  C   UNL d   1      -2.645   0.663  -1.002  0.00  0.00     0.002 A 
ATOM     19  C   UNL d   1      -2.675  -0.702  -0.761  0.00  0.00     0.002 A 
ATOM     20  C   UNL d   1       5.327   3.854   0.312  0.00  0.00     0.001 A 
ENDROOT
BRANCH   6  21
ATOM     21  C   UNL d   1       3.500  -1.359   1.429  0.00  0.00    -0.043 A 
ATOM     22  C   UNL d   1       4.828  -1.063   1.061  0.00  0.00     0.010 A 
ATOM     23  C   UNL d   1       5.905  -1.552   1.800  0.00  0.00     0.019 A 
ATOM     24  C   UNL d   1       5.664  -2.340   2.920  0.00  0.00     0.011 A 
ATOM     25  C   UNL d   1       4.359  -2.668   3.286  0.00  0.00     0.019 A 
ATOM     26 BR   UNL d   1       7.117  -2.937   3.970  0.00  0.00    -0.051 Br
ATOM     27  C   UNL d   1       3.280  -2.191   2.535  0.00  0.00     0.010 A 
ENDBRANCH   6  21
TORSDOF 1
