REMARK  3 active torsions:
REMARK  status: ('A' for Active; 'I' for Inactive)
REMARK    1  A    between atoms: N_2  and  S_1 
REMARK    2  A    between atoms: C_3  and  S_1 
REMARK    3  A    between atoms: C_4  and  N_2 
ROOT
ATOM      1  S   UNL d   1       1.051  -0.004  -0.074  0.00  0.00     0.246 S 
ATOM      2  O   UNL d   1       1.802  -1.185   0.289  0.00  0.00    -0.206 OA
ATOM      3  O   UNL d   1       1.654   1.313  -0.077  0.00  0.00    -0.206 OA
ENDROOT
BRANCH   1   4
ATOM      4  N   UNL d   1      -0.338  -0.018   0.908  0.00  0.00    -0.178 NA
ATOM      5  H   UNL d   1      -0.250  -0.849   1.502  0.00  0.00     0.146 HD
BRANCH   4   6
ATOM      6  C   UNL d   1      -0.552   1.168   1.691  0.00  0.00     0.061 A 
ATOM      7  C   UNL d   1       0.051   1.320   2.948  0.00  0.00     0.141 A 
ATOM      8  C   UNL d   1      -0.149   2.469   3.705  0.00  0.00     0.086 A 
ATOM      9  F   UNL d   1       0.813   0.335   3.445  0.00  0.00    -0.204 F 
ATOM     10  C   UNL d   1      -0.946   3.480   3.184  0.00  0.00     0.119 A 
ATOM     11  C   UNL d   1      -1.528   3.362   1.923  0.00  0.00     0.044 A 
ATOM     12  F   UNL d   1      -1.165   4.586   3.906  0.00  0.00    -0.206 F 
ATOM     13  C   UNL d   1      -1.323   2.204   1.167  0.00  0.00     0.030 A 
ENDBRANCH   4   6
ENDBRANCH   1   4
BRANCH   1  14
ATOM     14  C   UNL d   1       0.367  -0.285  -1.699  0.00  0.00     0.076 A 
ATOM     15  C   UNL d   1       0.004   0.804  -2.505  0.00  0.00     0.034 A 
ATOM     16  C   UNL d   1      -0.443   0.583  -3.817  0.00  0.00    -0.021 A 
ATOM     17  C   UNL d   1      -0.838   1.715  -4.718  0.00  0.00     0.051 C 
ATOM     18  C   UNL d   1      -0.499  -0.730  -4.303  0.00  0.00     0.128 A 
ATOM     19  C   UNL d   1      -0.122  -1.822  -3.516  0.00  0.00    -0.021 A 
ATOM     20  F   UNL d   1      -0.909  -0.937  -5.565  0.00  0.00    -0.205 F 
ATOM     21  C   UNL d   1       0.309  -1.591  -2.202  0.00  0.00     0.034 A 
ATOM     22  C   UNL d   1      -0.143  -3.218  -4.063  0.00  0.00     0.051 C 
ENDBRANCH   1  14
TORSDOF 3
