REMARK  3 active torsions:
REMARK  status: ('A' for Active; 'I' for Inactive)
REMARK    1  A    between atoms: C_18  and  C_8 
REMARK    2  A    between atoms: C_12  and  S_16 
REMARK    3  A    between atoms: S_16  and  C_18 
ROOT
ATOM      1  C   UNL d   1      -0.649   0.829  -0.279  0.00  0.00     0.178 A 
ATOM      2  C   UNL d   1      -1.451  -0.083  -0.918  0.00  0.00     0.048 A 
ATOM      3  C   UNL d   1      -2.091   0.378  -2.098  0.00  0.00    -0.040 A 
ATOM      4  O   UNL d   1      -0.386   2.087  -0.581  0.00  0.00    -0.256 OA
ATOM      5  N   UNL d   1      -0.139   0.195   0.810  0.00  0.00    -0.279 N 
ATOM      6  N   UNL d   1      -0.589  -1.065   0.945  0.00  0.00    -0.301 N 
ATOM      7  HN  UNL d   1      -0.368  -1.730   1.687  1.00  0.00     0.186 HD
ATOM      8  C   UNL d   1      -1.399  -1.253  -0.119  0.00  0.00     0.050 A 
ATOM      9  C   UNL d   1      -1.013   2.571  -1.691  0.00  0.00     0.290 A 
ATOM     10  C   UNL d   1      -1.883   1.653  -2.482  0.00  0.00     0.090 A 
ATOM     11  O   UNL d   1      -0.880   3.734  -2.059  0.00  0.00    -0.260 OA
ATOM     12  C   UNL d   1      -2.926  -0.570  -2.894  0.00  0.00     0.049 C 
ATOM     13  H   UNL d   1       0.497   0.568   1.507  0.00  0.00     0.189 HD
ENDROOT
BRANCH   8  14
ATOM     14  C   UNL d   1      -2.141  -2.544  -0.236  0.00  0.00     0.139 C 
BRANCH  14  15
ATOM     15  S   UNL d   1      -1.210  -3.822  -1.157  0.00  0.00    -0.122 SA
BRANCH  15  16
ATOM     16  C   UNL d   1      -2.306  -5.210  -0.840  0.00  0.00     0.023 A 
ATOM     17  C   UNL d   1      -3.587  -5.330  -1.397  0.00  0.00     0.052 A 
ATOM     18  C   UNL d   1      -4.436  -6.362  -0.993  0.00  0.00     0.049 A 
ATOM     19 CL   UNL d   1      -4.194  -4.243  -2.599  0.00  0.00    -0.083 Cl
ATOM     20  C   UNL d   1      -4.009  -7.301  -0.051  0.00  0.00     0.041 A 
ATOM     21  C   UNL d   1      -2.713  -7.240   0.477  0.00  0.00    -0.039 A 
ATOM     22 CL   UNL d   1      -5.147  -8.509   0.426  0.00  0.00    -0.084 Cl
ATOM     23  C   UNL d   1      -1.867  -6.192   0.061  0.00  0.00     0.028 A 
ATOM     24  C   UNL d   1      -2.166  -8.244   1.456  0.00  0.00     0.050 C 
ENDBRANCH  15  16
ENDBRANCH  14  15
ENDBRANCH   8  14
TORSDOF 3
