REMARK  5 active torsions:
REMARK  status: ('A' for Active; 'I' for Inactive)
REMARK    1  A    between atoms: C_4  and  N_1 
REMARK    2  A    between atoms: C_2  and  N_3 
REMARK    3  A    between atoms: N_5  and  C_2 
REMARK    4  A    between atoms: C_10  and  N_5 
REMARK    5  A    between atoms: N_6  and  C_7 
ROOT
ATOM      1  N   UNL d   1      -4.823   1.464   5.668  0.00  0.00    -0.356 N 
ATOM      2  N   UNL d   1      -2.124   1.648   4.450  0.00  0.00    -0.366 N 
ATOM      3  C   UNL d   1      -3.781   0.434   5.823  0.00  0.00     0.145 C 
ATOM      4  C   UNL d   1      -2.329   0.908   5.693  0.00  0.00     0.144 C 
ATOM      5  C   UNL d   1      -4.020   3.094   3.873  0.00  0.00     0.040 C 
ATOM      6  C   UNL d   1      -5.015   2.003   4.313  0.00  0.00     0.127 C 
ATOM      7  C   UNL d   1      -2.603   3.023   4.440  0.00  0.00     0.126 C 
ENDROOT
BRANCH   1   8
ATOM      8  C   UNL d   1      -5.414   2.088   6.753  0.00  0.00     0.174 C 
ATOM      9  S   UNL d   1      -4.595   2.654   8.096  0.00  0.00    -0.041 SA
BRANCH   8  10
ATOM     10  N   UNL d   1      -6.762   2.317   6.660  0.00  0.00    -0.332 N 
ATOM     11  H   UNL d   1      -7.098   3.109   7.203  0.00  0.00     0.168 HD
BRANCH  10  12
ATOM     12  C   UNL d   1      -7.768   1.324   6.459  0.00  0.00     0.056 A 
ATOM     13  C   UNL d   1      -9.116   1.725   6.417  0.00  0.00     0.062 A 
ATOM     14  C   UNL d   1     -10.148   0.782   6.369  0.00  0.00     0.050 A 
ATOM     15 CL   UNL d   1      -9.549   3.398   6.422  0.00  0.00    -0.082 Cl
ATOM     16  C   UNL d   1      -9.839  -0.576   6.380  0.00  0.00     0.035 A 
ATOM     17  C   UNL d   1      -8.511  -0.992   6.404  0.00  0.00     0.026 A 
ATOM     18 CL   UNL d   1     -11.104  -1.741   6.395  0.00  0.00    -0.084 Cl
ATOM     19  C   UNL d   1      -7.477  -0.046   6.434  0.00  0.00     0.033 A 
ENDBRANCH  10  12
ENDBRANCH   8  10
ENDBRANCH   1   8
BRANCH   2  20
ATOM     20  C   UNL d   1      -1.334   1.172   3.432  0.00  0.00     0.103 A 
ATOM     21  C   UNL d   1      -1.304  -0.190   3.118  0.00  0.00     0.051 A 
ATOM     22  C   UNL d   1      -0.495  -0.671   2.087  0.00  0.00     0.041 A 
ATOM     23  C   UNL d   1       0.295   0.235   1.391  0.00  0.00     0.118 A 
ATOM     24  C   UNL d   1       0.225   1.570   1.731  0.00  0.00     0.125 A 
ATOM     25  N   UNL d   1      -0.584   2.045   2.716  0.00  0.00    -0.350 N 
ATOM     26  HN  UNL d   1      -0.626   3.045   2.914  1.00  0.00     0.166 HD
BRANCH  23  27
ATOM     27  N   UNL d   1       1.175  -0.206   0.320  0.00  0.00    -0.114 N 
ATOM     28  O   UNL d   1       1.876   0.649  -0.240  0.00  0.00    -0.532 OA
ATOM     29  O   UNL d   1       1.173  -1.409   0.031  0.00  0.00    -0.532 OA
ENDBRANCH  23  27
ENDBRANCH   2  20
TORSDOF 5
