REMARK  4 active torsions:
REMARK  status: ('A' for Active; 'I' for Inactive)
REMARK    1  A    between atoms: C_8  and  C_1 
REMARK    2  A    between atoms: N_6  and  C_2 
REMARK    3  A    between atoms: C_10  and  C_8 
REMARK    4  A    between atoms: N_12  and  C_9 
ROOT
ATOM      1  C   UNL d   1      -0.343  -1.646   0.003  0.00  0.00     0.056 A 
ATOM      2  C   UNL d   1       1.043  -1.438  -0.074  0.00  0.00     0.090 A 
ATOM      3  S   UNL d   1       1.409   0.236  -0.155  0.00  0.00    -0.076 SA
ATOM      4  C   UNL d   1      -1.075  -0.373   0.094  0.00  0.00    -0.032 A 
ATOM      5  C   UNL d   1      -0.216   0.708  -0.021  0.00  0.00    -0.012 A 
ATOM      6  C   UNL d   1      -2.555  -0.175   0.270  0.00  0.00     0.050 C 
ATOM      7  C   UNL d   1      -0.545   2.168  -0.034  0.00  0.00     0.057 C 
ENDROOT
BRANCH   1   8
ATOM      8  C   UNL d   1      -0.884  -3.026   0.039  0.00  0.00     0.195 C 
ATOM      9  O   UNL d   1      -0.278  -3.971   0.540  0.00  0.00    -0.287 OA
BRANCH   8  10
ATOM     10  C   UNL d   1      -2.245  -3.328  -0.495  0.00  0.00     0.015 A 
ATOM     11  C   UNL d   1      -2.983  -4.347   0.130  0.00  0.00     0.017 A 
ATOM     12  C   UNL d   1      -4.311  -4.585  -0.231  0.00  0.00     0.025 A 
ATOM     13  C   UNL d   1      -4.905  -3.805  -1.219  0.00  0.00     0.034 A 
ATOM     14  C   UNL d   1      -4.164  -2.834  -1.893  0.00  0.00     0.025 A 
ATOM     15 CL   UNL d   1      -6.567  -4.028  -1.600  0.00  0.00    -0.084 Cl
ATOM     16  C   UNL d   1      -2.823  -2.620  -1.556  0.00  0.00     0.017 A 
ENDBRANCH   8  10
ENDBRANCH   1   8
BRANCH   2  17
ATOM     17  N   UNL d   1       2.013  -2.402  -0.195  0.00  0.00    -0.346 N 
ATOM     18  C   UNL d   1       3.175  -2.252   0.361  0.00  0.00     0.178 C 
ATOM     19  HN  UNL d   1       1.816  -3.248  -0.729  1.00  0.00     0.167 HD
BRANCH  18  20
ATOM     20  N   UNL d   1       4.186  -3.184   0.336  0.00  0.00    -0.386 N 
ATOM     21  C   UNL d   1       3.971  -4.513  -0.219  0.00  0.00     0.149 C 
ATOM     22  C   UNL d   1       5.489  -2.949   0.928  0.00  0.00     0.149 C 
ENDBRANCH  18  20
ENDBRANCH   2  17
TORSDOF 4
