REMARK  1 active torsions:
REMARK  status: ('A' for Active; 'I' for Inactive)
REMARK    1  A    between atoms: S_9  and  C_2 
ROOT
ATOM      1  C   UNL d   1       0.524   0.634  -0.039  0.00  0.00     0.042 A 
ATOM      2  C   UNL d   1       1.888   0.862  -0.085  0.00  0.00     0.056 A 
ATOM      3  S   UNL d   1       2.777  -0.604  -0.070  0.00  0.00    -0.071 SA
ATOM      4  C   UNL d   1       0.222  -0.784   0.009  0.00  0.00    -0.015 A 
ATOM      5  C   UNL d   1       1.367  -1.559   0.017  0.00  0.00     0.093 A 
ATOM      6  C   UNL d   1      -0.546   1.641  -0.020  0.00  0.00     0.162 C 
ATOM      7  C   UNL d   1       1.408  -2.986   0.096  0.00  0.00     0.107 C 
ATOM      8  N   UNL d   1       1.406  -4.146   0.164  0.00  0.00    -0.191 NA
ATOM      9  O   UNL d   1      -0.357   2.842  -0.195  0.00  0.00    -0.292 OA
ATOM     10  C   UNL d   1      -1.194  -1.290   0.077  0.00  0.00     0.042 C 
ATOM     11  C   UNL d   1      -1.944   1.117   0.284  0.00  0.00     0.084 C 
ATOM     12  C   UNL d   1      -2.192  -0.229  -0.396  0.00  0.00     0.012 C 
ENDROOT
BRANCH   2  13
ATOM     13  S   UNL d   1       2.755   2.396  -0.068  0.00  0.00    -0.126 SA
ATOM     14  C   UNL d   1       2.880   2.736  -1.838  0.00  0.00     0.096 C 
ENDBRANCH   2  13
TORSDOF 1
