REMARK  5 active torsions:
REMARK  status: ('A' for Active; 'I' for Inactive)
REMARK    1  A    between atoms: S_2  and  N_1 
REMARK    2  A    between atoms: C_8  and  S_2 
REMARK    3  A    between atoms: S_5  and  C_3 
REMARK    4  A    between atoms: C_12  and  C_4 
REMARK    5  A    between atoms: C_11  and  S_5 
ROOT
ATOM      1  N   UNL d   1       0.963  -0.605  -0.009  0.00  0.00    -0.175 N 
ATOM      2  C   UNL d   1      -0.238   1.246  -0.030  0.00  0.00     0.111 A 
ATOM      3  C   UNL d   1       1.090   0.801  -0.059  0.00  0.00     0.102 A 
ATOM      4  N   UNL d   1      -0.343  -1.015  -0.096  0.00  0.00    -0.294 N 
ATOM      5  HN  UNL d   1      -0.692  -1.971  -0.158  1.00  0.00     0.187 HD
ATOM      6  C   UNL d   1      -1.051   0.105  -0.082  0.00  0.00     0.134 A 
ENDROOT
BRANCH   1   7
ATOM      7  S   UNL d   1       2.247  -1.809   0.178  0.00  0.00     0.284 S 
ATOM      8  O   UNL d   1       3.434  -1.057   0.527  0.00  0.00    -0.198 OA
ATOM      9  O   UNL d   1       1.695  -2.807   1.069  0.00  0.00    -0.198 OA
BRANCH   7  10
ATOM     10  C   UNL d   1       2.435  -2.582  -1.419  0.00  0.00     0.103 A 
ATOM     11  C   UNL d   1       3.683  -3.014  -1.884  0.00  0.00     0.059 A 
ATOM     12  C   UNL d   1       3.800  -3.557  -3.174  0.00  0.00     0.049 A 
ATOM     13 CL   UNL d   1       5.126  -3.002  -0.941  0.00  0.00    -0.083 Cl
ATOM     14  C   UNL d   1       2.675  -3.726  -3.975  0.00  0.00     0.035 A 
ATOM     15  C   UNL d   1       1.419  -3.395  -3.482  0.00  0.00     0.025 A 
ATOM     16 CL   UNL d   1       2.834  -4.373  -5.557  0.00  0.00    -0.084 Cl
ATOM     17  C   UNL d   1       1.296  -2.825  -2.211  0.00  0.00     0.029 A 
ENDBRANCH   7  10
ENDBRANCH   1   7
BRANCH   3  18
ATOM     18  C   UNL d   1       2.331   1.603  -0.107  0.00  0.00    -0.005 A 
ATOM     19  C   UNL d   1       2.463   2.755   0.689  0.00  0.00     0.015 A 
ATOM     20  C   UNL d   1       3.573   3.601   0.582  0.00  0.00     0.024 A 
ATOM     21  C   UNL d   1       4.614   3.262  -0.270  0.00  0.00     0.034 A 
ATOM     22  C   UNL d   1       4.530   2.110  -1.043  0.00  0.00     0.024 A 
ATOM     23 CL   UNL d   1       6.003   4.271  -0.368  0.00  0.00    -0.084 Cl
ATOM     24  C   UNL d   1       3.376   1.313  -0.995  0.00  0.00     0.015 A 
ENDBRANCH   3  18
BRANCH   2  25
ATOM     25  S   UNL d   1      -0.933   2.831  -0.028  0.00  0.00     0.210 S 
ATOM     26  O   UNL d   1      -0.004   3.655  -0.770  0.00  0.00    -0.217 OA
ATOM     27  O   UNL d   1      -2.295   2.633  -0.457  0.00  0.00    -0.217 OA
BRANCH  25  28
ATOM     28  C   UNL d   1      -1.007   3.412   1.656  0.00  0.00     0.064 A 
ATOM     29  C   UNL d   1      -0.859   4.783   1.905  0.00  0.00     0.025 A 
ATOM     30  C   UNL d   1      -1.026   5.275   3.201  0.00  0.00     0.025 A 
ATOM     31  C   UNL d   1      -1.330   4.401   4.244  0.00  0.00     0.034 A 
ATOM     32  C   UNL d   1      -1.438   3.030   4.005  0.00  0.00     0.025 A 
ATOM     33 CL   UNL d   1      -1.605   5.014   5.827  0.00  0.00    -0.084 Cl
ATOM     34  C   UNL d   1      -1.275   2.528   2.709  0.00  0.00     0.025 A 
ENDBRANCH  25  28
ENDBRANCH   2  25
TORSDOF 5
