REMARK  6 active torsions:
REMARK  status: ('A' for Active; 'I' for Inactive)
REMARK    1  A    between atoms: C_2  and  S_1 
REMARK    2  A    between atoms: C_3  and  S_1 
REMARK    3  A    between atoms: C_5  and  C_4 
REMARK    4  A    between atoms: C_21  and  C_10 
REMARK    5  A    between atoms: C_16  and  O_20 
REMARK    6  A    between atoms: O_20  and  C_21 
ROOT
ATOM      1  C   UNL d   1       0.881   3.168  -0.880  0.00  0.00     0.147 C 
ATOM      2  C   UNL d   1      -0.058   2.203  -0.808  0.00  0.00     0.072 C 
ATOM      3  C   UNL d   1       1.577   3.556  -2.046  0.00  0.00     0.112 C 
ATOM      4  N   UNL d   1       2.169   3.897  -2.986  0.00  0.00    -0.191 NA
ENDROOT
BRANCH   1   5
ATOM      5  S   UNL d   1       1.426   3.835   0.621  0.00  0.00     0.223 S 
ATOM      6  O   UNL d   1       2.533   3.030   1.107  0.00  0.00    -0.216 OA
ATOM      7  O   UNL d   1       0.298   4.119   1.489  0.00  0.00    -0.216 OA
BRANCH   5   8
ATOM      8  C   UNL d   1       2.167   5.432   0.317  0.00  0.00     0.105 A 
ATOM      9  S   UNL d   1       1.182   6.627  -0.413  0.00  0.00    -0.090 SA
ATOM     10  C   UNL d   1       2.437   7.791  -0.354  0.00  0.00     0.051 A 
ATOM     11  C   UNL d   1       3.578   7.292   0.233  0.00  0.00     0.009 A 
ATOM     12  C   UNL d   1       3.423   5.929   0.618  0.00  0.00     0.032 A 
ENDBRANCH   5   8
ENDBRANCH   1   5
BRANCH   2  13
ATOM     13  C   UNL d   1      -0.495   1.450  -1.934  0.00  0.00     0.077 A 
ATOM     14  O   UNL d   1      -0.346   1.861  -3.237  0.00  0.00    -0.313 OA
ATOM     15  C   UNL d   1      -0.827   0.894  -4.062  0.00  0.00     0.078 A 
ATOM     16  C   UNL d   1      -1.304  -0.158  -3.318  0.00  0.00     0.038 A 
ATOM     17  C   UNL d   1      -1.113   0.205  -1.962  0.00  0.00     0.040 A 
BRANCH  15  18
ATOM     18  C   UNL d   1      -0.750   1.163  -5.519  0.00  0.00     0.243 C 
BRANCH  18  19
ATOM     19  O   UNL d   1      -1.530   2.332  -5.802  0.00  0.00    -0.315 OA
BRANCH  19  20
ATOM     20  C   UNL d   1      -2.866   2.123  -5.923  0.00  0.00     0.255 C 
ATOM     21  O   UNL d   1      -3.428   1.039  -5.854  0.00  0.00    -0.266 OA
ATOM     22  C   UNL d   1      -3.582   3.419  -6.157  0.00  0.00     0.126 C 
ENDBRANCH  19  20
ENDBRANCH  18  19
ENDBRANCH  15  18
ENDBRANCH   2  13
TORSDOF 6
