REMARK  5 active torsions:
REMARK  status: ('A' for Active; 'I' for Inactive)
REMARK    1  A    between atoms: N_3  and  C_9 
REMARK    2  A    between atoms: N_12  and  C_4 
REMARK    3  A    between atoms: C_10  and  C_5 
REMARK       I    between atoms: C_8  and  N_11 
REMARK    4  A    between atoms: C_16  and  C_8 
REMARK    5  A    between atoms: N_11  and  N_12 
ROOT
ATOM      1  N   UNL d   1       1.433  -0.670   0.034  0.00  0.00    -0.334 N 
ATOM      2  HN  UNL d   1       2.321  -1.170   0.056  1.00  0.00     0.168 HD
ATOM      3  C   UNL d   1       0.247  -1.244   0.009  0.00  0.00     0.163 A 
ATOM      4  C   UNL d   1       1.302   0.710   0.026  0.00  0.00     0.051 A 
ATOM      5  S   UNL d   1      -1.086  -0.157  -0.021  0.00  0.00    -0.062 SA
ATOM      6  C   UNL d   1      -0.000   1.169   0.018  0.00  0.00     0.083 A 
ENDROOT
BRANCH   3   7
ATOM      7  N   UNL d   1       0.049  -2.582   0.020  0.00  0.00    -0.277 N 
ATOM      8  H   UNL d   1      -0.900  -2.946   0.146  0.00  0.00     0.189 HD
BRANCH   7   9
ATOM      9  N   UNL d   1       1.040  -3.443   0.512  0.00  0.00    -0.264 N 
ATOM     10  C   UNL d   1       0.624  -4.640   1.057  0.00  0.00     0.270 C 
ATOM     11  O   UNL d   1      -0.559  -4.979   1.071  0.00  0.00    -0.266 OA
ATOM     12  H   UNL d   1       1.946  -3.009   0.657  0.00  0.00     0.190 HD
BRANCH  10  13
ATOM     13  C   UNL d   1       1.678  -5.531   1.640  0.00  0.00     0.033 A 
ATOM     14  C   UNL d   1       3.050  -5.248   1.555  0.00  0.00     0.019 A 
ATOM     15  C   UNL d   1       3.991  -6.145   2.077  0.00  0.00     0.025 A 
ATOM     16  C   UNL d   1       3.568  -7.327   2.680  0.00  0.00     0.034 A 
ATOM     17  C   UNL d   1       2.210  -7.619   2.778  0.00  0.00     0.025 A 
ATOM     18 CL   UNL d   1       4.731  -8.437   3.292  0.00  0.00    -0.084 Cl
ATOM     19  C   UNL d   1       1.269  -6.723   2.262  0.00  0.00     0.019 A 
ENDBRANCH  10  13
ENDBRANCH   7   9
ENDBRANCH   3   7
BRANCH   4  20
ATOM     20  C   UNL d   1       2.476   1.573   0.011  0.00  0.00    -0.006 A 
ATOM     21  C   UNL d   1       3.625   1.159  -0.680  0.00  0.00     0.049 A 
ATOM     22  C   UNL d   1       4.767   1.972  -0.686  0.00  0.00     0.103 A 
ATOM     23  C   UNL d   1       4.778   3.196  -0.005  0.00  0.00     0.036 A 
ATOM     24  C   UNL d   1       3.636   3.607   0.681  0.00  0.00     0.003 A 
ATOM     25  C   UNL d   1       2.493   2.802   0.688  0.00  0.00     0.014 A 
BRANCH  22  26
ATOM     26  N   UNL d   1       5.968   1.536  -1.409  0.00  0.00    -0.116 N 
ATOM     27  O   UNL d   1       5.921   0.451  -2.007  0.00  0.00    -0.532 OA
ATOM     28  O   UNL d   1       6.960   2.278  -1.378  0.00  0.00    -0.532 OA
ENDBRANCH  22  26
ENDBRANCH   4  20
TORSDOF 5
