REMARK  5 active torsions:
REMARK  status: ('A' for Active; 'I' for Inactive)
REMARK    1  A    between atoms: N_4  and  C_1 
REMARK    2  A    between atoms: S_2  and  N_4 
REMARK    3  A    between atoms: C_9  and  S_2 
REMARK    4  A    between atoms: C_12  and  C_5 
REMARK    5  A    between atoms: C_13  and  C_14 
ROOT
ATOM      1  C   UNL d   1      -1.112   1.118  -0.246  0.00  0.00     0.149 C 
ATOM      2  C   UNL d   1      -0.484  -0.027  -0.670  0.00  0.00     0.085 C 
ATOM      3  C   UNL d   1      -1.300  -1.097  -0.199  0.00  0.00     0.079 C 
ATOM      4  N   UNL d   1      -2.463  -0.610   0.277  0.00  0.00    -0.297 N 
ATOM      5  HN  UNL d   1      -3.282  -1.139   0.576  1.00  0.00     0.187 HD
ATOM      6  N   UNL d   1      -2.308   0.720   0.271  0.00  0.00    -0.283 N 
ATOM      7 BR   UNL d   1       1.200  -0.130  -1.487  0.00  0.00    -0.044 Br
ATOM      8  H   UNL d   1      -3.054   1.295   0.650  0.00  0.00     0.188 HD
ENDROOT
BRANCH   1   9
ATOM      9  N   UNL d   1      -0.578   2.384  -0.201  0.00  0.00    -0.263 N 
ATOM     10  H   UNL d   1      -0.303   2.874  -1.040  0.00  0.00     0.180 HD
BRANCH   9  11
ATOM     11  S   UNL d   1      -0.150   3.054   1.218  0.00  0.00     0.264 S 
ATOM     12  O   UNL d   1       0.296   4.411   0.978  0.00  0.00    -0.200 OA
ATOM     13  O   UNL d   1      -1.179   2.800   2.213  0.00  0.00    -0.200 OA
BRANCH  11  14
ATOM     14  C   UNL d   1       1.308   2.120   1.707  0.00  0.00     0.079 A 
ATOM     15  C   UNL d   1       2.562   2.499   1.226  0.00  0.00     0.026 A 
ATOM     16  C   UNL d   1       3.702   1.795   1.637  0.00  0.00     0.008 A 
ATOM     17  C   UNL d   1       3.598   0.728   2.530  0.00  0.00    -0.062 A 
ATOM     18  C   UNL d   1       2.331   0.363   3.019  0.00  0.00     0.008 A 
ATOM     19  C   UNL d   1       4.834   0.010   2.999  0.00  0.00     0.048 C 
ATOM     20  C   UNL d   1       1.192   1.067   2.615  0.00  0.00     0.026 A 
ENDBRANCH  11  14
ENDBRANCH   9  11
ENDBRANCH   1   9
BRANCH   3  21
ATOM     21  C   UNL d   1      -1.017  -2.530  -0.071  0.00  0.00    -0.007 A 
ATOM     22  C   UNL d   1       0.255  -2.977   0.304  0.00  0.00     0.014 A 
ATOM     23  C   UNL d   1       0.491  -4.331   0.545  0.00  0.00     0.009 A 
ATOM     24  C   UNL d   1      -0.530  -5.291   0.452  0.00  0.00    -0.051 A 
ATOM     25  C   UNL d   1      -1.805  -4.833   0.071  0.00  0.00     0.009 A 
ATOM     26  C   UNL d   1      -2.040  -3.474  -0.184  0.00  0.00     0.014 A 
BRANCH  24  27
ATOM     27  C   UNL d   1      -0.230  -6.761   0.788  0.00  0.00    -0.024 C 
ATOM     28  C   UNL d   1      -1.465  -7.684   0.717  0.00  0.00     0.019 C 
ATOM     29  C   UNL d   1       0.819  -7.308  -0.203  0.00  0.00     0.019 C 
ATOM     30  C   UNL d   1       0.330  -6.865   2.226  0.00  0.00     0.019 C 
ENDBRANCH  24  27
ENDBRANCH   3  21
TORSDOF 5
