REMARK  9 active torsions:
REMARK  status: ('A' for Active; 'I' for Inactive)
REMARK    1  A    between atoms: C_14  and  N_1 
REMARK    2  A    between atoms: S_8  and  C_2 
REMARK    3  A    between atoms: O_13  and  C_3 
REMARK    4  A    between atoms: C_12  and  S_8 
REMARK    5  A    between atoms: C_9  and  C_12 
REMARK       I    between atoms: N_10  and  C_9 
REMARK    6  A    between atoms: C_15  and  N_10 
REMARK    7  A    between atoms: C_22  and  C_14 
REMARK    8  A    between atoms: C_24  and  C_22 
REMARK    9  A    between atoms: C_23  and  C_24 
ROOT
ATOM      1  N   UNL d   1      -0.276  -1.284   0.097  0.00  0.00    -0.291 N 
ATOM      2  C   UNL d   1       0.974  -0.752  -0.087  0.00  0.00     0.165 A 
ATOM      3  C   UNL d   1      -1.047  -0.215   0.489  0.00  0.00     0.240 A 
ATOM      4  N   UNL d   1       0.978   0.514   0.263  0.00  0.00    -0.277 N 
ATOM      5  HN  UNL d   1       1.785   1.137   0.253  1.00  0.00     0.189 HD
ATOM      6  N   UNL d   1      -0.295   0.848   0.643  0.00  0.00    -0.263 N 
ATOM      7  HN  UNL d   1      -0.602   1.759   0.985  1.00  0.00     0.190 HD
ENDROOT
BRANCH   2   8
ATOM      8  S   UNL d   1       2.341  -1.617  -0.690  0.00  0.00    -0.083 SA
BRANCH   8   9
ATOM      9  C   UNL d   1       3.523  -0.266  -0.961  0.00  0.00     0.185 C 
BRANCH   9  10
ATOM     10  C   UNL d   1       4.299   0.071   0.302  0.00  0.00     0.231 C 
ATOM     11  N   UNL d   1       3.608   0.883   1.187  0.00  0.00    -0.327 N 
ATOM     12  H   UNL d   1       2.605   0.969   1.038  0.00  0.00     0.169 HD
ATOM     13  O   UNL d   1       5.442  -0.353   0.462  0.00  0.00    -0.272 OA
BRANCH  11  14
ATOM     14  C   UNL d   1       4.120   1.483   2.354  0.00  0.00     0.034 A 
ATOM     15  C   UNL d   1       5.487   1.637   2.602  0.00  0.00     0.031 A 
ATOM     16  C   UNL d   1       5.928   2.266   3.770  0.00  0.00     0.026 A 
ATOM     17  C   UNL d   1       5.002   2.732   4.699  0.00  0.00     0.034 A 
ATOM     18  C   UNL d   1       3.637   2.588   4.462  0.00  0.00     0.026 A 
ATOM     19 CL   UNL d   1       5.547   3.491   6.143  0.00  0.00    -0.084 Cl
ATOM     20  C   UNL d   1       3.198   1.977   3.284  0.00  0.00     0.031 A 
ENDBRANCH  11  14
ENDBRANCH   9  10
ENDBRANCH   8   9
ENDBRANCH   2   8
BRANCH   1  21
ATOM     21  C   UNL d   1      -0.714  -2.648  -0.094  0.00  0.00     0.135 C 
BRANCH  21  22
ATOM     22  C   UNL d   1      -0.074  -3.700   0.819  0.00  0.00     0.020 C 
BRANCH  22  23
ATOM     23  C   UNL d   1      -0.222  -3.413   2.315  0.00  0.00     0.001 C 
BRANCH  23  24
ATOM     24  C   UNL d   1       0.437  -4.524   3.139  0.00  0.00    -0.004 C 
ATOM     25  C   UNL d   1       0.350  -4.256   4.632  0.00  0.00     0.005 C 
ENDBRANCH  23  24
ENDBRANCH  22  23
ENDBRANCH  21  22
ENDBRANCH   1  21
BRANCH   3  26
ATOM     26  O   UNL d   1      -2.354  -0.209   0.694  0.00  0.00    -0.331 OA
ATOM     27  H   UNL d   1      -2.768  -0.904   0.162  0.00  0.00     0.221 HD
ENDBRANCH   3  26
TORSDOF 9
