REMARK  2 active torsions:
REMARK  status: ('A' for Active; 'I' for Inactive)
REMARK    1  A    between atoms: C_2  and  C_1 
REMARK       I    between atoms: N_6  and  C_2 
REMARK    2  A    between atoms: C_10  and  N_6 
ROOT
ATOM      1  C   UNL d   1      -1.392   2.096  -0.070  0.00  0.00     0.281 C 
ATOM      2  N   UNL d   1      -0.714   3.302   0.032  0.00  0.00    -0.321 N 
ATOM      3  O   UNL d   1      -0.869   1.008  -0.287  0.00  0.00    -0.265 OA
ATOM      4  H   UNL d   1      -1.284   4.120   0.217  0.00  0.00     0.169 HD
ENDROOT
BRANCH   1   5
ATOM      5  C   UNL d   1      -2.824   2.202   0.105  0.00  0.00     0.167 A 
ATOM      6  O   UNL d   1      -3.401   3.414   0.350  0.00  0.00    -0.233 OA
ATOM      7  N   UNL d   1      -4.773   3.255   0.478  0.00  0.00    -0.272 N 
ATOM      8  C   UNL d   1      -4.996   1.949   0.308  0.00  0.00     0.117 A 
ATOM      9  HN  UNL d   1      -5.465   3.981   0.663  1.00  0.00     0.194 HD
ATOM     10  C   UNL d   1      -3.809   1.240   0.071  0.00  0.00     0.064 A 
ENDBRANCH   1   5
BRANCH   2  11
ATOM     11  C   UNL d   1       0.678   3.515  -0.084  0.00  0.00     0.035 A 
ATOM     12  C   UNL d   1       1.604   2.500  -0.337  0.00  0.00     0.029 A 
ATOM     13  C   UNL d   1       2.970   2.784  -0.430  0.00  0.00     0.002 A 
ATOM     14  C   UNL d   1       3.426   4.089  -0.274  0.00  0.00     0.000 A 
ATOM     15  C   UNL d   1       2.514   5.112  -0.025  0.00  0.00     0.002 A 
ATOM     16  C   UNL d   1       1.147   4.827   0.069  0.00  0.00     0.029 A 
ENDBRANCH   2  11
TORSDOF 2
