REMARK  1 active torsions:
REMARK  status: ('A' for Active; 'I' for Inactive)
REMARK    1  A    between atoms: C_10  and  N_1 
ROOT
ATOM      1  N   UNL d   1      -2.404  -0.701   0.034  0.00  0.00    -0.241 N 
ATOM      2  C   UNL d   1      -1.353  -1.580   0.229  0.00  0.00     0.284 A 
ATOM      3  C   UNL d   1      -1.927   0.576  -0.212  0.00  0.00     0.284 A 
ATOM      4  C   UNL d   1      -0.472   0.497  -0.148  0.00  0.00     0.134 A 
ATOM      5  C   UNL d   1      -0.127  -0.797   0.112  0.00  0.00     0.134 A 
ATOM      6  N   UNL d   1       1.143  -1.230   0.245  0.00  0.00    -0.358 N 
ATOM      7  HN  UNL d   1       1.391  -2.201   0.432  1.00  0.00     0.165 HD
ATOM      8  N   UNL d   1       0.413   1.505  -0.287  0.00  0.00    -0.358 N 
ATOM      9  HN  UNL d   1       0.145   2.471  -0.475  1.00  0.00     0.165 HD
ATOM     10  O   UNL d   1      -2.522   1.623  -0.404  0.00  0.00    -0.265 OA
ATOM     11  O   UNL d   1      -1.349  -2.783   0.423  0.00  0.00    -0.265 OA
ATOM     12  C   UNL d   1       1.702   1.097  -0.149  0.00  0.00     0.105 A 
ATOM     13  C   UNL d   1       2.058  -0.234   0.104  0.00  0.00     0.105 A 
ENDROOT
BRANCH   1  14
ATOM     14  C   UNL d   1      -3.782  -1.052   0.101  0.00  0.00     0.046 A 
ATOM     15  C   UNL d   1      -4.773  -0.245  -0.481  0.00  0.00     0.030 A 
ATOM     16  C   UNL d   1      -6.129  -0.583  -0.399  0.00  0.00     0.002 A 
ATOM     17  C   UNL d   1      -6.524  -1.731   0.279  0.00  0.00     0.000 A 
ATOM     18  C   UNL d   1      -5.562  -2.547   0.862  0.00  0.00     0.002 A 
ATOM     19  C   UNL d   1      -4.205  -2.216   0.764  0.00  0.00     0.030 A 
ENDBRANCH   1  14
TORSDOF 1
