REMARK  6 active torsions:
REMARK  status: ('A' for Active; 'I' for Inactive)
REMARK    1  A    between atoms: C_7  and  C_1 
REMARK    2  A    between atoms: C_12  and  N_2 
REMARK    3  A    between atoms: C_22  and  C_3 
REMARK       I    between atoms: N_11  and  C_7 
REMARK    4  A    between atoms: C_8  and  C_14 
REMARK    5  A    between atoms: C_14  and  N_11 
REMARK    6  A    between atoms: C_26  and  C_22 
ROOT
ATOM      1  C   UNL d   1      -0.562   2.600   0.120  0.00  0.00     0.255 C 
ATOM      2  N   UNL d   1       0.056   3.539  -0.681  0.00  0.00    -0.352 N 
ATOM      3  O   UNL d   1      -1.517   2.915   0.828  0.00  0.00    -0.268 OA
ATOM      4  H   UNL d   1       0.625   3.238  -1.458  0.00  0.00     0.163 HD
ENDROOT
BRANCH   1   5
ATOM      5  C   UNL d   1      -0.145   1.201   0.035  0.00  0.00     0.073 A 
ATOM      6  C   UNL d   1       1.080   0.518  -0.040  0.00  0.00     0.051 A 
ATOM      7  N   UNL d   1       0.746  -0.853   0.021  0.00  0.00    -0.260 N 
ATOM      8  N   UNL d   1      -0.569  -1.041   0.272  0.00  0.00    -0.304 N 
ATOM      9  C   UNL d   1      -1.098   0.172   0.220  0.00  0.00     0.126 A 
ATOM     10  HN  UNL d   1      -1.048  -1.922   0.460  1.00  0.00     0.186 HD
BRANCH   6  11
ATOM     11  C   UNL d   1       2.530   0.931   0.043  0.00  0.00     0.060 C 
BRANCH  11  12
ATOM     12  C   UNL d   1       2.828   2.416   0.016  0.00  0.00     0.002 C 
ATOM     13  C   UNL d   1       4.317   2.718   0.007  0.00  0.00     0.005 C 
ENDBRANCH  11  12
ENDBRANCH   6  11
BRANCH   7  14
ATOM     14  C   UNL d   1       1.557  -2.022  -0.107  0.00  0.00     0.056 A 
ATOM     15  C   UNL d   1       1.206  -3.168   0.630  0.00  0.00     0.031 A 
ATOM     16  C   UNL d   1       1.920  -4.358   0.478  0.00  0.00     0.002 A 
ATOM     17  C   UNL d   1       2.976  -4.423  -0.427  0.00  0.00     0.000 A 
ATOM     18  C   UNL d   1       3.324  -3.295  -1.171  0.00  0.00     0.002 A 
ATOM     19  C   UNL d   1       2.619  -2.096  -1.013  0.00  0.00     0.031 A 
ENDBRANCH   7  14
ENDBRANCH   1   5
BRANCH   2  20
ATOM     20  C   UNL d   1      -0.452   4.893  -0.690  0.00  0.00     0.164 C 
BRANCH  20  21
ATOM     21  C   UNL d   1       0.364   5.976  -1.367  0.00  0.00    -0.004 A 
ATOM     22  C   UNL d   1       1.558   5.803  -2.087  0.00  0.00     0.088 A 
ATOM     23  C   UNL d   1       2.275   6.911  -2.575  0.00  0.00     0.003 A 
ATOM     24  O   UNL d   1       2.006   4.531  -2.312  0.00  0.00    -0.325 OA
ATOM     25  C   UNL d   1       3.598   6.710  -3.250  0.00  0.00     0.212 C 
ATOM     26  C   UNL d   1       1.745   8.198  -2.447  0.00  0.00     0.054 A 
ATOM     27  O   UNL d   1       4.136   5.444  -2.893  0.00  0.00    -0.362 OA
ATOM     28  C   UNL d   1       3.166   4.441  -3.142  0.00  0.00     0.345 C 
ATOM     29  C   UNL d   1       0.537   8.373  -1.794  0.00  0.00     0.117 A 
ATOM     30  C   UNL d   1      -0.140   7.289  -1.246  0.00  0.00     0.054 A 
ATOM     31  F   UNL d   1       0.019   9.602  -1.681  0.00  0.00    -0.206 F 
ENDBRANCH  20  21
ENDBRANCH   2  20
TORSDOF 6
