REMARK  3 active torsions:
REMARK  status: ('A' for Active; 'I' for Inactive)
REMARK    1  A    between atoms: C_2  and  S_1 
REMARK    2  A    between atoms: C_3  and  S_1 
REMARK    3  A    between atoms: C_13  and  C_6 
ROOT
ATOM      1  C   UNL d   1       0.651   1.494   0.699  0.00  0.00     0.064 A 
ATOM      2  C   UNL d   1      -0.030   3.979   1.881  0.00  0.00    -0.026 A 
ATOM      3  C   UNL d   1      -0.071   1.520   1.890  0.00  0.00     0.025 A 
ATOM      4  C   UNL d   1       1.067   2.684   0.106  0.00  0.00     0.025 A 
ATOM      5  C   UNL d   1       0.727   3.908   0.694  0.00  0.00     0.014 A 
ATOM      6  C   UNL d   1      -0.411   2.753   2.465  0.00  0.00     0.014 A 
ENDROOT
BRANCH   1   7
ATOM      7  S   UNL d   1       1.147  -0.063  -0.010  0.00  0.00     0.206 S 
ATOM      8  O   UNL d   1       1.213  -1.015   1.082  0.00  0.00    -0.217 OA
ATOM      9  O   UNL d   1       2.320   0.189  -0.833  0.00  0.00    -0.217 OA
BRANCH   7  10
ATOM     10  C   UNL d   1      -0.138  -0.598  -1.118  0.00  0.00     0.064 A 
ATOM     11  C   UNL d   1      -0.482   0.201  -2.211  0.00  0.00     0.024 A 
ATOM     12  C   UNL d   1      -1.473  -0.232  -3.095  0.00  0.00     0.008 A 
ATOM     13  C   UNL d   1      -2.117  -1.462  -2.898  0.00  0.00    -0.062 A 
ATOM     14  C   UNL d   1      -1.748  -2.260  -1.807  0.00  0.00     0.008 A 
ATOM     15  C   UNL d   1      -3.190  -1.907  -3.849  0.00  0.00     0.048 C 
ATOM     16  C   UNL d   1      -0.760  -1.833  -0.917  0.00  0.00     0.024 A 
ENDBRANCH   7  10
ENDBRANCH   1   7
BRANCH   2  17
ATOM     17  C   UNL d   1      -0.425   5.286   2.474  0.00  0.00    -0.026 A 
ATOM     18  C   UNL d   1      -0.614   6.430   1.673  0.00  0.00     0.012 A 
ATOM     19  C   UNL d   1      -1.033   7.650   2.215  0.00  0.00     0.001 A 
ATOM     20  C   UNL d   1      -1.286   7.757   3.577  0.00  0.00     0.000 A 
ATOM     21  C   UNL d   1      -1.093   6.652   4.399  0.00  0.00     0.001 A 
ATOM     22  C   UNL d   1      -0.657   5.438   3.855  0.00  0.00     0.012 A 
ENDBRANCH   2  17
TORSDOF 3
