REMARK  4 active torsions:
REMARK  status: ('A' for Active; 'I' for Inactive)
REMARK    1  A    between atoms: C_2  and  C_1 
REMARK    2  A    between atoms: O_8  and  C_1 
REMARK    3  A    between atoms: C_14  and  O_8 
REMARK    4  A    between atoms: C_10  and  C_11 
ROOT
ATOM      1  C   UNL d   1       0.427  -1.047   0.826  0.00  0.00     0.157 A 
ATOM      2  O   UNL d   1      -2.337  -1.947   1.162  0.00  0.00    -0.310 OA
ATOM      3  C   UNL d   1      -0.505  -0.507   1.893  0.00  0.00    -0.006 A 
ATOM      4  C   UNL d   1      -0.236  -2.059  -0.081  0.00  0.00    -0.006 A 
ATOM      5  C   UNL d   1      -1.809  -0.995   1.997  0.00  0.00     0.083 A 
ATOM      6  C   UNL d   1      -1.554  -2.457   0.158  0.00  0.00     0.083 A 
ATOM      7  C   UNL d   1       0.476  -2.675  -1.124  0.00  0.00     0.011 A 
ATOM      8  C   UNL d   1      -0.068   0.452   2.824  0.00  0.00     0.011 A 
ATOM      9  C   UNL d   1      -2.666  -0.530   2.999  0.00  0.00     0.038 A 
ATOM     10  C   UNL d   1      -2.155  -3.439  -0.634  0.00  0.00     0.038 A 
ATOM     11  C   UNL d   1      -0.128  -3.653  -1.917  0.00  0.00     0.001 A 
ATOM     12  C   UNL d   1      -0.928   0.923   3.818  0.00  0.00     0.001 A 
ATOM     13  C   UNL d   1      -1.444  -4.037  -1.672  0.00  0.00     0.003 A 
ATOM     14  C   UNL d   1      -2.228   0.431   3.907  0.00  0.00     0.003 A 
ENDROOT
BRANCH   1  15
ATOM     15  C   UNL d   1       1.139   0.068   0.064  0.00  0.00     0.277 C 
ATOM     16  O   UNL d   1       2.357   0.212   0.067  0.00  0.00    -0.264 OA
BRANCH  15  17
ATOM     17  O   UNL d   1       0.226   0.892  -0.594  0.00  0.00    -0.278 OA
BRANCH  17  18
ATOM     18  C   UNL d   1       0.622   2.186  -0.991  0.00  0.00     0.079 A 
ATOM     19  C   UNL d   1       0.068   2.695  -2.160  0.00  0.00     0.038 A 
ATOM     20  C   UNL d   1       0.273   4.041  -2.498  0.00  0.00     0.011 A 
ATOM     21  C   UNL d   1       1.019   4.906  -1.670  0.00  0.00    -0.050 A 
ATOM     22  C   UNL d   1       1.595   4.346  -0.516  0.00  0.00     0.011 A 
ATOM     23  C   UNL d   1       1.393   3.005  -0.171  0.00  0.00     0.038 A 
BRANCH  21  24
ATOM     24  C   UNL d   1       1.155   6.403  -2.013  0.00  0.00    -0.024 C 
ATOM     25  C   UNL d   1       1.970   7.203  -0.969  0.00  0.00     0.019 C 
ATOM     26  C   UNL d   1       1.856   6.577  -3.375  0.00  0.00     0.019 C 
ATOM     27  C   UNL d   1      -0.243   7.059  -2.084  0.00  0.00     0.019 C 
ENDBRANCH  21  24
ENDBRANCH  17  18
ENDBRANCH  15  17
ENDBRANCH   1  15
TORSDOF 4
