REMARK  7 active torsions:
REMARK  status: ('A' for Active; 'I' for Inactive)
REMARK    1  A    between atoms: C_6  and  C_1 
REMARK       I    between atoms: N_8  and  C_6 
REMARK    2  A    between atoms: C_17  and  C_7 
REMARK    3  A    between atoms: N_12  and  N_8 
REMARK    4  A    between atoms: C_9  and  C_14 
REMARK       I    between atoms: C_13  and  N_12 
REMARK    5  A    between atoms: C_27  and  C_13 
REMARK    6  A    between atoms: O_20  and  C_17 
REMARK    7  A    between atoms: C_21  and  O_20 
ROOT
ATOM      1  C   UNL d   1      -0.571  -0.849   0.553  0.00  0.00     0.098 A 
ATOM      2  C   UNL d   1      -0.554  -0.499  -0.794  0.00  0.00     0.028 A 
ATOM      3  N   UNL d   1       0.129   0.676  -1.091  0.00  0.00    -0.354 N 
ATOM      4  HN  UNL d   1       0.218   1.070  -2.027  1.00  0.00     0.166 HD
ATOM      5  S   UNL d   1       0.308   0.344   1.443  0.00  0.00    -0.067 SA
ATOM      6  C   UNL d   1       0.646   1.212  -0.006  0.00  0.00     0.076 A 
ATOM      7  C   UNL d   1      -1.170  -1.206  -1.951  0.00  0.00     0.070 C 
ENDROOT
BRANCH   6   8
ATOM      8  C   UNL d   1       1.399   2.522   0.005  0.00  0.00     0.240 C 
BRANCH   8   9
ATOM      9  O   UNL d   1       2.801   2.244  -0.109  0.00  0.00    -0.345 OA
BRANCH   9  10
ATOM     10  C   UNL d   1       3.630   3.337  -0.080  0.00  0.00     0.069 A 
ATOM     11  C   UNL d   1       4.924   3.098   0.388  0.00  0.00     0.037 A 
ATOM     12  C   UNL d   1       5.855   4.140   0.494  0.00  0.00     0.012 A 
ATOM     13  C   UNL d   1       5.521   5.448   0.110  0.00  0.00    -0.035 A 
ATOM     14  C   UNL d   1       4.232   5.667  -0.407  0.00  0.00     0.012 A 
ATOM     15  C   UNL d   1       3.296   4.625  -0.498  0.00  0.00     0.037 A 
BRANCH  13  16
ATOM     16  C   UNL d   1       6.523   6.574   0.286  0.00  0.00     0.141 C 
ATOM     17  S   UNL d   1       5.902   7.877   1.398  0.00  0.00    -0.148 SA
ATOM     18  C   UNL d   1       6.831   9.229   0.647  0.00  0.00     0.085 C 
ATOM     19  C   UNL d   1       6.776   9.055  -0.858  0.00  0.00     0.085 C 
ATOM     20  S   UNL d   1       7.061   7.314  -1.291  0.00  0.00    -0.148 SA
ENDBRANCH  13  16
ENDBRANCH   9  10
ENDBRANCH   8   9
ENDBRANCH   6   8
BRANCH   1  21
ATOM     21  C   UNL d   1      -1.197  -2.010   1.184  0.00  0.00     0.279 C 
ATOM     22  N   UNL d   1      -1.081  -2.125   2.562  0.00  0.00    -0.263 N 
ATOM     23  H   UNL d   1      -0.619  -1.433   3.146  0.00  0.00     0.190 HD
ATOM     24  O   UNL d   1      -1.813  -2.879   0.560  0.00  0.00    -0.265 OA
BRANCH  22  25
ATOM     25  N   UNL d   1      -1.676  -3.220   3.226  0.00  0.00    -0.267 N 
ATOM     26  C   UNL d   1      -1.546  -3.311   4.595  0.00  0.00     0.235 C 
ATOM     27  O   UNL d   1      -0.950  -2.456   5.251  0.00  0.00    -0.272 OA
ATOM     28  H   UNL d   1      -2.085  -3.950   2.640  0.00  0.00     0.190 HD
BRANCH  26  29
ATOM     29  C   UNL d   1      -2.211  -4.530   5.204  0.00  0.00     0.100 C 
ATOM     30  C   UNL d   1      -2.038  -4.601   6.715  0.00  0.00     0.014 C 
ENDBRANCH  26  29
ENDBRANCH  22  25
ENDBRANCH   1  21
TORSDOF 7
