REMARK  3 active torsions:
REMARK  status: ('A' for Active; 'I' for Inactive)
REMARK    1  A    between atoms: C_5  and  C_1 
REMARK    2  A    between atoms: C_9  and  N_4 
REMARK    3  A    between atoms: C_12  and  C_5 
ROOT
ATOM      1  C   UNL d   1       1.175   0.627  -0.143  0.00  0.00     0.150 C 
ATOM      2  N   UNL d   1       1.148  -0.677  -0.176  0.00  0.00    -0.287 N 
ATOM      3  HN  UNL d   1       2.004  -1.211  -0.328  1.00  0.00     0.188 HD
ATOM      4  N   UNL d   1      -0.053  -1.316  -0.002  0.00  0.00    -0.267 N 
ATOM      5  C   UNL d   1      -0.079   1.440   0.064  0.00  0.00     0.205 C 
ATOM      6  C   UNL d   1      -1.354   0.710   0.026  0.00  0.00     0.076 C 
ATOM      7  C   UNL d   1      -1.247  -0.620   0.016  0.00  0.00     0.120 C 
ATOM      8  O   UNL d   1      -0.033   2.637   0.293  0.00  0.00    -0.286 OA
ENDROOT
BRANCH   1   9
ATOM      9  C   UNL d   1       2.528   1.260  -0.334  0.00  0.00     0.214 C 
ATOM     10  O   UNL d   1       2.649   2.127  -1.189  0.00  0.00    -0.285 OA
BRANCH   9  11
ATOM     11  C   UNL d   1       3.695   0.744   0.430  0.00  0.00     0.017 A 
ATOM     12  C   UNL d   1       4.976   0.943  -0.102  0.00  0.00     0.015 A 
ATOM     13  C   UNL d   1       6.092   0.397   0.533  0.00  0.00     0.001 A 
ATOM     14  C   UNL d   1       5.937  -0.337   1.708  0.00  0.00     0.000 A 
ATOM     15  C   UNL d   1       4.668  -0.514   2.259  0.00  0.00     0.001 A 
ATOM     16  C   UNL d   1       3.547   0.028   1.625  0.00  0.00     0.015 A 
ENDBRANCH   9  11
ENDBRANCH   1   9
BRANCH   4  17
ATOM     17  C   UNL d   1       0.052  -2.738   0.154  0.00  0.00     0.057 A 
ATOM     18  C   UNL d   1       1.183  -3.427  -0.323  0.00  0.00     0.055 A 
ATOM     19  C   UNL d   1       1.305  -4.808  -0.168  0.00  0.00     0.036 A 
ATOM     20 CL   UNL d   1       2.698  -5.617  -0.777  0.00  0.00    -0.084 Cl
ATOM     21  C   UNL d   1       0.314  -5.536   0.478  0.00  0.00     0.024 A 
ATOM     22  C   UNL d   1      -0.808  -4.878   0.972  0.00  0.00     0.004 A 
ATOM     23  C   UNL d   1      -0.937  -3.494   0.812  0.00  0.00     0.031 A 
ENDBRANCH   4  17
TORSDOF 3
