REMARK  2 active torsions:
REMARK  status: ('A' for Active; 'I' for Inactive)
REMARK    1  A    between atoms: C_3  and  C_1 
REMARK       I    between atoms: N_6  and  C_3 
REMARK    2  A    between atoms: C_4  and  C_5 
REMARK       I    between atoms: N_7  and  C_4 
ROOT
ATOM      1  C   UNL d   1      -0.834  -1.137  -0.103  0.00  0.00     0.045 C 
ATOM      2  C   UNL d   1       0.783  -1.158   0.049  0.00  0.00    -0.020 C 
ATOM      3  C   UNL d   1       1.219   0.355  -0.030  0.00  0.00     0.087 C 
ATOM      4  C   UNL d   1      -1.150   0.290   0.395  0.00  0.00     0.020 C 
ATOM      5  C   UNL d   1      -0.072   1.145  -0.249  0.00  0.00     0.016 C 
ATOM      6  C   UNL d   1      -1.475  -2.240   0.766  0.00  0.00     0.026 C 
ATOM      7  C   UNL d   1       1.205  -1.688   1.454  0.00  0.00     0.017 C 
ATOM      8  C   UNL d   1       1.522  -2.079  -0.944  0.00  0.00     0.017 C 
ENDROOT
BRANCH   1   9
ATOM      9  C   UNL d   1      -1.383  -1.296  -1.565  0.00  0.00     0.229 C 
ATOM     10  N   UNL d   1      -2.732  -1.116  -1.854  0.00  0.00    -0.347 N 
ATOM     11  C   UNL d   1      -3.846  -0.788  -0.955  0.00  0.00     0.152 C 
ATOM     12  C   UNL d   1      -3.170  -1.206  -3.257  0.00  0.00     0.152 C 
ATOM     13  C   UNL d   1      -4.980  -1.800  -1.143  0.00  0.00     0.187 C 
ATOM     14  O   UNL d   1      -5.439  -1.793  -2.503  0.00  0.00    -0.388 OA
ATOM     15  C   UNL d   1      -4.373  -2.147  -3.400  0.00  0.00     0.187 C 
ATOM     16  O   UNL d   1      -0.628  -1.617  -2.483  0.00  0.00    -0.272 OA
ENDBRANCH   1   9
BRANCH   3  17
ATOM     17  C   UNL d   1       2.293   0.719  -1.063  0.00  0.00     0.224 C 
ATOM     18  N   UNL d   1       3.619   0.514  -0.726  0.00  0.00    -0.348 N 
ATOM     19  C   UNL d   1       4.147   0.080   0.570  0.00  0.00     0.152 C 
ATOM     20  C   UNL d   1       4.654   0.673  -1.753  0.00  0.00     0.152 C 
ATOM     21  C   UNL d   1       5.334   0.942   1.003  0.00  0.00     0.187 C 
ATOM     22  O   UNL d   1       6.347   0.979  -0.009  0.00  0.00    -0.388 OA
ATOM     23  C   UNL d   1       5.816   1.523  -1.230  0.00  0.00     0.187 C 
ATOM     24  O   UNL d   1       1.976   1.175  -2.164  0.00  0.00    -0.273 OA
ENDBRANCH   3  17
TORSDOF 2
