REMARK  4 active torsions:
REMARK  status: ('A' for Active; 'I' for Inactive)
REMARK    1  A    between atoms: O_10  and  C_1 
REMARK    2  A    between atoms: O_17  and  C_2 
REMARK    3  A    between atoms: C_5  and  C_11 
REMARK    4  A    between atoms: C_13  and  O_10 
ROOT
ATOM      1  C   UNL d   1      -0.781   1.113  -0.098  0.00  0.00     0.148 A 
ATOM      2  C   UNL d   1      -1.312  -0.147  -0.310  0.00  0.00     0.178 A 
ATOM      3  N   UNL d   1      -0.604  -1.284  -0.258  0.00  0.00    -0.325 N 
ATOM      4  HN  UNL d   1      -1.043  -2.197  -0.375  1.00  0.00     0.169 HD
ATOM      5  N   UNL d   1       1.350   0.019   0.104  0.00  0.00    -0.347 N 
ATOM      6  HN  UNL d   1       2.359   0.062   0.244  1.00  0.00     0.167 HD
ATOM      7  C   UNL d   1       0.599   1.141   0.057  0.00  0.00     0.045 A 
ATOM      8  C   UNL d   1       0.713  -1.156  -0.042  0.00  0.00     0.079 A 
ATOM      9  C   UNL d   1       1.343   2.443   0.146  0.00  0.00     0.071 C 
ATOM     10  C   UNL d   1       1.524  -2.411   0.029  0.00  0.00     0.089 C 
ENDROOT
BRANCH   1  11
ATOM     11  O   UNL d   1      -1.454   2.303  -0.140  0.00  0.00    -0.304 OA
BRANCH  11  12
ATOM     12  C   UNL d   1      -2.669   2.454   0.489  0.00  0.00     0.077 A 
ATOM     13  C   UNL d   1      -3.125   1.697   1.573  0.00  0.00     0.053 A 
ATOM     14  C   UNL d   1      -4.431   1.877   2.063  0.00  0.00     0.050 A 
ATOM     15  C   UNL d   1      -5.242   2.874   1.496  0.00  0.00     0.016 A 
ATOM     16  C   UNL d   1      -4.761   3.672   0.460  0.00  0.00     0.004 A 
ATOM     17  C   UNL d   1      -3.479   3.460  -0.042  0.00  0.00     0.037 A 
BRANCH  14  18
ATOM     18  C   UNL d   1      -4.989   0.995   3.154  0.00  0.00     0.417 C 
ATOM     19  F   UNL d   1      -4.094   0.093   3.641  0.00  0.00    -0.166 F 
ATOM     20  F   UNL d   1      -5.424   1.708   4.229  0.00  0.00    -0.166 F 
ATOM     21  F   UNL d   1      -6.061   0.269   2.730  0.00  0.00    -0.166 F 
ENDBRANCH  14  18
ENDBRANCH  11  12
ENDBRANCH   1  11
BRANCH   2  22
ATOM     22  O   UNL d   1      -2.622  -0.350  -0.643  0.00  0.00    -0.344 OA
ATOM     23  H   UNL d   1      -2.988   0.501  -0.923  0.00  0.00     0.219 HD
ENDBRANCH   2  22
TORSDOF 4
