REMARK  3 active torsions:
REMARK  status: ('A' for Active; 'I' for Inactive)
REMARK    1  A    between atoms: C_8  and  C_1 
REMARK    2  A    between atoms: O_14  and  C_6 
REMARK    3  A    between atoms: C_15  and  C_8 
ROOT
ATOM      1  C   UNL d   1       2.402  -0.558  -0.104  0.00  0.00     0.065 A 
ATOM      2  N   UNL d   1      -0.026  -0.709  -0.017  0.00  0.00    -0.274 N 
ATOM      3  C   UNL d   1       1.183  -1.396  -0.008  0.00  0.00     0.264 A 
ATOM      4  N   UNL d   1       1.032   1.406  -0.231  0.00  0.00    -0.322 N 
ATOM      5  HN  UNL d   1       0.974   2.421  -0.313  1.00  0.00     0.169 HD
ATOM      6  C   UNL d   1       2.228   0.761  -0.233  0.00  0.00     0.153 A 
ATOM      7  C   UNL d   1      -0.033   0.674  -0.119  0.00  0.00     0.116 A 
ATOM      8  C   UNL d   1      -1.216  -1.427   0.054  0.00  0.00     0.102 A 
ATOM      9  O   UNL d   1       1.278  -2.623   0.057  0.00  0.00    -0.267 OA
ATOM     10  C   UNL d   1      -1.363   1.347  -0.103  0.00  0.00     0.049 A 
ATOM     11  C   UNL d   1      -2.409  -0.819   0.040  0.00  0.00     0.018 A 
ATOM     12  C   UNL d   1      -2.481   0.616  -0.030  0.00  0.00     0.005 A 
ENDROOT
BRANCH   1  13
ATOM     13  C   UNL d   1       3.737  -1.248  -0.078  0.00  0.00     0.087 C 
BRANCH  13  14
ATOM     14  C   UNL d   1       4.271  -1.399   1.329  0.00  0.00    -0.054 A 
ATOM     15  C   UNL d   1       3.952  -2.526   2.099  0.00  0.00     0.007 A 
ATOM     16  C   UNL d   1       4.383  -2.621   3.423  0.00  0.00     0.001 A 
ATOM     17  C   UNL d   1       5.135  -1.593   3.990  0.00  0.00     0.000 A 
ATOM     18  C   UNL d   1       5.466  -0.472   3.231  0.00  0.00     0.001 A 
ATOM     19  C   UNL d   1       5.037  -0.375   1.907  0.00  0.00     0.007 A 
ENDBRANCH  13  14
ENDBRANCH   1  13
BRANCH   6  20
ATOM     20  O   UNL d   1       3.308   1.597  -0.358  0.00  0.00    -0.345 OA
ATOM     21  H   UNL d   1       2.882   2.473  -0.390  0.00  0.00     0.219 HD
ENDBRANCH   6  20
TORSDOF 3
