REMARK  10 active torsions:
REMARK  status: ('A' for Active; 'I' for Inactive)
REMARK    1  A    between atoms: C_9  and  N_1 
REMARK    2  A    between atoms: C_13  and  C_2 
REMARK    3  A    between atoms: S_10  and  C_5 
REMARK    4  A    between atoms: C_8  and  C_11 
REMARK    5  A    between atoms: C_19  and  C_9 
REMARK    6  A    between atoms: C_20  and  S_10 
REMARK    7  A    between atoms: C_12  and  C_20 
REMARK       I    between atoms: N_14  and  C_12 
REMARK    8  A    between atoms: C_23  and  N_14 
REMARK    9  A    between atoms: O_26  and  C_19 
REMARK   10  A    between atoms: O_27  and  C_19 
ROOT
ATOM      1  N   UNL d   1      -0.189  -1.157  -0.097  0.00  0.00    -0.306 N 
ATOM      2  C   UNL d   1       0.963  -0.441  -0.418  0.00  0.00     0.134 C 
ATOM      3  N   UNL d   1       0.641   0.843  -0.445  0.00  0.00    -0.283 N 
ATOM      4  HN  UNL d   1       1.246   1.600  -0.763  1.00  0.00     0.188 HD
ATOM      5  C   UNL d   1      -1.095  -0.209   0.301  0.00  0.00     0.163 C 
ATOM      6  N   UNL d   1      -0.643   0.990   0.025  0.00  0.00    -0.278 N 
ATOM      7  HN  UNL d   1      -1.149   1.868   0.138  1.00  0.00     0.189 HD
ENDROOT
BRANCH   5   8
ATOM      8  S   UNL d   1      -2.506  -0.566   1.214  0.00  0.00    -0.083 SA
BRANCH   8   9
ATOM      9  C   UNL d   1      -3.507   0.947   1.099  0.00  0.00     0.185 C 
BRANCH   9  10
ATOM     10  C   UNL d   1      -4.844   0.713   1.816  0.00  0.00     0.231 C 
ATOM     11  N   UNL d   1      -5.614   1.863   1.958  0.00  0.00    -0.327 N 
ATOM     12  H   UNL d   1      -5.361   2.670   1.402  0.00  0.00     0.169 HD
ATOM     13  O   UNL d   1      -5.202  -0.400   2.199  0.00  0.00    -0.272 OA
BRANCH  11  14
ATOM     14  C   UNL d   1      -6.784   1.974   2.749  0.00  0.00     0.034 A 
ATOM     15  C   UNL d   1      -7.160   1.024   3.700  0.00  0.00     0.030 A 
ATOM     16  C   UNL d   1      -8.297   1.204   4.494  0.00  0.00     0.018 A 
ATOM     17  C   UNL d   1      -9.089   2.348   4.356  0.00  0.00     0.048 A 
ATOM     18  C   UNL d   1      -8.726   3.299   3.390  0.00  0.00     0.018 A 
ATOM     19  C   UNL d   1      -7.580   3.118   2.600  0.00  0.00     0.030 A 
BRANCH  17  20
ATOM     20  C   UNL d   1     -10.294   2.566   5.239  0.00  0.00     0.417 C 
ATOM     21  F   UNL d   1     -10.491   1.572   6.150  0.00  0.00    -0.166 F 
ATOM     22  F   UNL d   1     -10.204   3.717   5.963  0.00  0.00    -0.166 F 
ATOM     23  F   UNL d   1     -11.453   2.659   4.532  0.00  0.00    -0.166 F 
ENDBRANCH  17  20
ENDBRANCH  11  14
ENDBRANCH   9  10
ENDBRANCH   8   9
ENDBRANCH   5   8
BRANCH   1  24
ATOM     24  C   UNL d   1      -0.289  -2.603  -0.070  0.00  0.00     0.193 C 
BRANCH  24  25
ATOM     25  C   UNL d   1      -1.617  -3.308  -0.398  0.00  0.00     0.276 C 
BRANCH  25  26
ATOM     26  O   UNL d   1      -2.004  -2.960  -1.731  0.00  0.00    -0.364 OA
ATOM     27  C   UNL d   1      -3.309  -3.437  -2.041  0.00  0.00     0.204 C 
ENDBRANCH  25  26
BRANCH  25  28
ATOM     28  O   UNL d   1      -1.441  -4.734  -0.323  0.00  0.00    -0.364 OA
ATOM     29  C   UNL d   1      -1.205  -5.213   0.996  0.00  0.00     0.204 C 
ENDBRANCH  25  28
ENDBRANCH  24  25
ENDBRANCH   1  24
BRANCH   2  30
ATOM     30  C   UNL d   1       2.307  -0.983  -0.690  0.00  0.00     0.009 A 
ATOM     31  C   UNL d   1       3.136  -0.334  -1.615  0.00  0.00     0.015 A 
ATOM     32  C   UNL d   1       4.403  -0.841  -1.926  0.00  0.00     0.001 A 
ATOM     33  C   UNL d   1       4.864  -2.003  -1.312  0.00  0.00     0.000 A 
ATOM     34  C   UNL d   1       4.076  -2.636  -0.357  0.00  0.00     0.001 A 
ATOM     35  C   UNL d   1       2.820  -2.113  -0.031  0.00  0.00     0.015 A 
ENDBRANCH   2  30
TORSDOF 10
