REMARK  10 active torsions:
REMARK  status: ('A' for Active; 'I' for Inactive)
REMARK    1  A    between atoms: C_1  and  O_4 
REMARK    2  A    between atoms: C_2  and  O_16 
REMARK    3  A    between atoms: C_3  and  O_18 
REMARK    4  A    between atoms: C_8  and  O_4 
REMARK    5  A    between atoms: C_6  and  O_17 
REMARK    6  A    between atoms: C_7  and  C_11 
REMARK    7  A    between atoms: C_13  and  C_8 
REMARK    8  A    between atoms: C_9  and  O_10 
REMARK    9  A    between atoms: C_15  and  C_9 
REMARK   10  A    between atoms: O_10  and  C_11 
ROOT
ATOM      1  C   UNL d   1      -0.479  -1.512   0.020  0.00  0.00     0.218 C 
ATOM      2  C   UNL d   1       0.740  -0.656   0.382  0.00  0.00     0.183 C 
ATOM      3  C   UNL d   1      -1.754  -0.724   0.399  0.00  0.00     0.291 C 
ATOM      4  O   UNL d   1      -1.796   0.506  -0.337  0.00  0.00    -0.348 OA
ATOM      5  C   UNL d   1       0.645   0.723  -0.291  0.00  0.00     0.180 C 
ATOM      6  C   UNL d   1      -0.710   1.391  -0.006  0.00  0.00     0.180 C 
ENDROOT
BRANCH   6   7
ATOM      7  C   UNL d   1      -0.906   2.690  -0.807  0.00  0.00     0.213 C 
BRANCH   7   8
ATOM      8  O   UNL d   1       0.104   3.671  -0.531  0.00  0.00    -0.315 OA
BRANCH   8   9
ATOM      9  C   UNL d   1      -0.055   4.368   0.621  0.00  0.00     0.293 C 
ATOM     10  O   UNL d   1      -0.988   4.272   1.395  0.00  0.00    -0.259 OA
BRANCH   9  11
ATOM     11  C   UNL d   1       1.086   5.302   0.798  0.00  0.00     0.039 A 
ATOM     12  C   UNL d   1       2.365   5.004   0.307  0.00  0.00     0.017 A 
ATOM     13  C   UNL d   1       3.416   5.900   0.512  0.00  0.00     0.001 A 
ATOM     14  C   UNL d   1       3.193   7.092   1.201  0.00  0.00     0.000 A 
ATOM     15  C   UNL d   1       1.922   7.388   1.697  0.00  0.00     0.001 A 
ATOM     16  C   UNL d   1       0.871   6.489   1.505  0.00  0.00     0.017 A 
ENDBRANCH   9  11
ENDBRANCH   8   9
ENDBRANCH   7   8
ENDBRANCH   6   7
BRANCH   5  17
ATOM     17  O   UNL d   1       1.762   1.504   0.153  0.00  0.00    -0.390 OA
ATOM     18  H   UNL d   1       1.688   1.607   1.120  0.00  0.00     0.210 HD
ENDBRANCH   5  17
BRANCH   3  19
ATOM     19  O   UNL d   1      -1.807  -0.480   1.810  0.00  0.00    -0.363 OA
ATOM     20  C   UNL d   1      -3.011   0.171   2.202  0.00  0.00     0.204 C 
ENDBRANCH   3  19
BRANCH   2  21
ATOM     21  O   UNL d   1       1.965  -1.286  -0.022  0.00  0.00    -0.390 OA
ATOM     22  H   UNL d   1       2.582  -0.575  -0.283  0.00  0.00     0.210 HD
ENDBRANCH   2  21
BRANCH   1  23
ATOM     23  O   UNL d   1      -0.435  -2.781   0.714  0.00  0.00    -0.304 OA
BRANCH  23  24
ATOM     24  C   UNL d   1       0.215  -3.781   0.059  0.00  0.00     0.293 C 
ATOM     25  O   UNL d   1       0.672  -3.724  -1.072  0.00  0.00    -0.259 OA
BRANCH  24  26
ATOM     26  C   UNL d   1       0.270  -5.023   0.880  0.00  0.00     0.039 A 
ATOM     27  C   UNL d   1       1.074  -6.081   0.428  0.00  0.00     0.017 A 
ATOM     28  C   UNL d   1       1.112  -7.290   1.125  0.00  0.00     0.001 A 
ATOM     29  C   UNL d   1       0.348  -7.451   2.280  0.00  0.00     0.000 A 
ATOM     30  C   UNL d   1      -0.443  -6.399   2.745  0.00  0.00     0.001 A 
ATOM     31  C   UNL d   1      -0.481  -5.186   2.051  0.00  0.00     0.017 A 
ENDBRANCH  24  26
ENDBRANCH  23  24
ENDBRANCH   1  23
TORSDOF 10
