REMARK  4 active torsions:
REMARK  status: ('A' for Active; 'I' for Inactive)
REMARK    1  A    between atoms: C_3  and  S_1 
REMARK    2  A    between atoms: N_4  and  S_1 
REMARK    3  A    between atoms: S_2  and  C_3 
REMARK    4  A    between atoms: C_12  and  N_4 
ROOT
ATOM      1  C   UNL d   1       2.485   4.169  -0.482  0.00  0.00     0.103 A 
ATOM      2  C   UNL d   1       2.105   2.833  -0.613  0.00  0.00     0.064 A 
ATOM      3  C   UNL d   1       1.541   5.188  -0.655  0.00  0.00     0.102 A 
ATOM      4  C   UNL d   1       0.775   2.521  -0.900  0.00  0.00     0.025 A 
ATOM      5  O   UNL d   1       3.804   4.412  -0.195  0.00  0.00    -0.346 OA
ATOM      6  O   UNL d   1       1.849   6.521  -0.575  0.00  0.00    -0.346 OA
ATOM      7  C   UNL d   1       0.210   4.870  -0.916  0.00  0.00     0.041 A 
ATOM      8  C   UNL d   1      -0.175   3.533  -1.037  0.00  0.00     0.027 A 
ATOM      9  C   UNL d   1       4.001   5.758   0.257  0.00  0.00     0.202 C 
ATOM     10  C   UNL d   1       3.263   6.741  -0.637  0.00  0.00     0.202 C 
ENDROOT
BRANCH   4  11
ATOM     11  N   UNL d   1       0.360   1.162  -1.027  0.00  0.00    -0.185 NA
ATOM     12  H   UNL d   1       0.990   0.573  -1.581  0.00  0.00     0.146 HD
BRANCH  11  13
ATOM     13  S   UNL d   1      -0.050   0.321   0.396  0.00  0.00     0.227 S 
ATOM     14  O   UNL d   1       0.231  -1.059   0.073  0.00  0.00    -0.210 OA
ATOM     15  O   UNL d   1       0.571   0.980   1.524  0.00  0.00    -0.210 OA
BRANCH  13  16
ATOM     16  C   UNL d   1      -1.787   0.578   0.448  0.00  0.00     0.297 C 
BRANCH  16  17
ATOM     17  S   UNL d   1      -2.568  -0.221   1.807  0.00  0.00     0.155 S 
ATOM     18  O   UNL d   1      -3.971   0.158   1.740  0.00  0.00    -0.227 OA
ATOM     19  O   UNL d   1      -2.213  -1.625   1.825  0.00  0.00    -0.227 OA
ATOM     20  C   UNL d   1      -1.920   0.539   3.280  0.00  0.00     0.162 C 
ENDBRANCH  16  17
ENDBRANCH  13  16
ENDBRANCH  11  13
ENDBRANCH   4  11
TORSDOF 4
