REMARK  5 active torsions:
REMARK  status: ('A' for Active; 'I' for Inactive)
REMARK    1  A    between atoms: C_7  and  C_1 
REMARK    2  A    between atoms: N_8  and  C_2 
REMARK    3  A    between atoms: C_6  and  C_4 
REMARK       I    between atoms: N_23  and  C_7 
REMARK       I    between atoms: C_9  and  N_8 
REMARK    4  A    between atoms: C_11  and  C_9 
REMARK    5  A    between atoms: C_10  and  C_12 
ROOT
ATOM      1  C   UNL d   1       0.035   1.126  -0.646  0.00  0.00     0.100 C 
ATOM      2  C   UNL d   1       1.261   0.792  -0.081  0.00  0.00     0.059 C 
ATOM      3  S   UNL d   1      -1.036  -0.223  -0.643  0.00  0.00    -0.082 SA
ATOM      4  C   UNL d   1       0.187  -1.309  -0.175  0.00  0.00     0.018 C 
ATOM      5  C   UNL d   1       1.350  -0.634   0.123  0.00  0.00     0.051 C 
ENDROOT
BRANCH   2   6
ATOM      6  N   UNL d   1       2.357   1.607   0.239  0.00  0.00    -0.322 N 
ATOM      7  C   UNL d   1       2.329   2.970   0.451  0.00  0.00     0.245 C 
ATOM      8  O   UNL d   1       1.334   3.681   0.441  0.00  0.00    -0.268 OA
ATOM      9  H   UNL d   1       3.201   1.111   0.497  0.00  0.00     0.169 HD
BRANCH   7  10
ATOM     10  C   UNL d   1       3.690   3.544   0.667  0.00  0.00     0.075 C 
ATOM     11  C   UNL d   1       3.819   4.880   0.783  0.00  0.00     0.017 C 
BRANCH  11  12
ATOM     12  C   UNL d   1       5.038   5.635   0.799  0.00  0.00    -0.029 A 
ATOM     13  C   UNL d   1       6.316   5.118   0.733  0.00  0.00     0.061 A 
ATOM     14  S   UNL d   1       7.513   6.341   0.627  0.00  0.00    -0.113 SA
ATOM     15  C   UNL d   1       6.336   7.577   0.701  0.00  0.00     0.050 A 
ATOM     16  C   UNL d   1       5.062   7.067   0.824  0.00  0.00     0.019 A 
ENDBRANCH  11  12
ENDBRANCH   7  10
ENDBRANCH   2   6
BRANCH   1  17
ATOM     17  C   UNL d   1      -0.490   2.315  -1.293  0.00  0.00     0.258 C 
ATOM     18  O   UNL d   1      -1.657   2.702  -1.238  0.00  0.00    -0.267 OA
ATOM     19  N   UNL d   1       0.374   2.972  -2.128  0.00  0.00    -0.365 N 
ATOM     20  H   UNL d   1       1.369   2.847  -2.027  0.00  0.00     0.159 HD
ATOM     21  H   UNL d   1       0.043   3.865  -2.465  0.00  0.00     0.159 HD
ENDBRANCH   1  17
BRANCH   4  22
ATOM     22  C   UNL d   1       0.007  -2.804  -0.111  0.00  0.00    -0.012 A 
ATOM     23  C   UNL d   1      -1.193  -3.435  -0.383  0.00  0.00     0.062 A 
ATOM     24  S   UNL d   1      -1.082  -5.139  -0.277  0.00  0.00    -0.113 SA
ATOM     25  C   UNL d   1       0.572  -5.055   0.139  0.00  0.00     0.050 A 
ATOM     26  C   UNL d   1       1.027  -3.756   0.204  0.00  0.00     0.020 A 
ENDBRANCH   4  22
TORSDOF 5
