REMARK  4 active torsions:
REMARK  status: ('A' for Active; 'I' for Inactive)
REMARK    1  A    between atoms: C_7  and  N_12 
REMARK    2  A    between atoms: N_9  and  C_13 
REMARK    3  A    between atoms: C_11  and  N_23 
REMARK    4  A    between atoms: C_16  and  O_19 
ROOT
ATOM      1  C   UNL d   1      -0.105   0.661  -0.017  0.00  0.00     0.004 A 
ATOM      2  C   UNL d   1      -0.084  -0.736  -0.057  0.00  0.00     0.047 A 
ATOM      3  C   UNL d   1       1.169   1.407   0.031  0.00  0.00     0.094 A 
ATOM      4  C   UNL d   1      -1.356   1.310  -0.019  0.00  0.00     0.016 A 
ATOM      5  C   UNL d   1       1.217  -1.445  -0.110  0.00  0.00     0.264 A 
ATOM      6  C   UNL d   1      -1.279  -1.480  -0.056  0.00  0.00     0.054 A 
ATOM      7  C   UNL d   1       2.358   0.755   0.020  0.00  0.00     0.109 A 
ATOM      8  C   UNL d   1      -2.551   0.582  -0.036  0.00  0.00     0.037 A 
ATOM      9  N   UNL d   1       2.384  -0.658  -0.048  0.00  0.00    -0.267 N 
ATOM     10  O   UNL d   1       1.194  -2.672  -0.186  0.00  0.00    -0.267 OA
ATOM     11  C   UNL d   1      -2.509  -0.815  -0.042  0.00  0.00     0.103 A 
ATOM     12  C   UNL d   1       1.140   2.837   0.076  0.00  0.00     0.103 C 
ATOM     13  N   UNL d   1       1.118   3.998   0.085  0.00  0.00    -0.191 NA
ENDROOT
BRANCH   7  14
ATOM     14  N   UNL d   1       3.563   1.463   0.022  0.00  0.00    -0.287 NA
ATOM     15  H   UNL d   1       4.311   0.966  -0.460  0.00  0.00     0.125 HD
ATOM     16  H   UNL d   1       3.518   2.433  -0.280  0.00  0.00     0.125 HD
ENDBRANCH   7  14
BRANCH   9  17
ATOM     17  C   UNL d   1       3.635  -1.364  -0.075  0.00  0.00     0.046 A 
ATOM     18  C   UNL d   1       4.569  -1.179   0.958  0.00  0.00     0.066 A 
ATOM     19  C   UNL d   1       5.855  -1.707   0.852  0.00  0.00     0.070 A 
ATOM     20  C   UNL d   1       6.202  -2.432  -0.289  0.00  0.00     0.037 A 
ATOM     21  C   UNL d   1       5.270  -2.652  -1.305  0.00  0.00     0.005 A 
ATOM     22  C   UNL d   1       3.982  -2.130  -1.194  0.00  0.00     0.030 A 
BRANCH  19  23
ATOM     23  O   UNL d   1       6.859  -1.559   1.770  0.00  0.00    -0.356 OA
ATOM     24  C   UNL d   1       6.545  -0.834   2.953  0.00  0.00     0.210 C 
ENDBRANCH  19  23
ENDBRANCH   9  17
BRANCH  11  25
ATOM     25  N   UNL d   1      -3.764  -1.580  -0.041  0.00  0.00    -0.116 N 
ATOM     26  O   UNL d   1      -3.686  -2.814   0.002  0.00  0.00    -0.532 OA
ATOM     27  O   UNL d   1      -4.824  -0.940  -0.078  0.00  0.00    -0.532 OA
ENDBRANCH  11  25
TORSDOF 4
