REMARK  8 active torsions:
REMARK  status: ('A' for Active; 'I' for Inactive)
REMARK    1  A    between atoms: O_9  and  C_1 
REMARK    2  A    between atoms: O_10  and  C_2 
REMARK    3  A    between atoms: N_4  and  C_14 
REMARK    4  A    between atoms: C_7  and  N_4 
REMARK    5  A    between atoms: C_11  and  C_6 
REMARK    6  A    between atoms: C_12  and  C_7 
REMARK    7  A    between atoms: C_13  and  C_11 
REMARK    8  A    between atoms: C_14  and  C_13 
ROOT
ATOM      1  C   UNL d   1      -3.534  -2.102  -0.074  0.00  0.00     0.040 C 
ENDROOT
BRANCH   1   2
ATOM      2  C   UNL d   1      -2.006  -2.232  -0.008  0.00  0.00     0.040 C 
BRANCH   2   3
ATOM      3  C   UNL d   1      -1.357  -0.867  -0.122  0.00  0.00    -0.055 A 
ATOM      4  C   UNL d   1      -1.523   0.084   0.901  0.00  0.00     0.046 A 
ATOM      5  C   UNL d   1      -1.021   1.392   0.798  0.00  0.00     0.101 A 
ATOM      6  C   UNL d   1      -0.324   1.737  -0.355  0.00  0.00     0.099 A 
ATOM      7  C   UNL d   1      -0.123   0.794  -1.371  0.00  0.00     0.040 A 
ATOM      8  C   UNL d   1      -0.629  -0.502  -1.254  0.00  0.00     0.010 A 
BRANCH   5   9
ATOM      9  O   UNL d   1      -1.324   2.138   1.904  0.00  0.00    -0.353 OA
ATOM     10  C   UNL d   1      -1.108   3.535   1.919  0.00  0.00     0.210 C 
ENDBRANCH   5   9
BRANCH   6  11
ATOM     11  O   UNL d   1       0.218   2.965  -0.616  0.00  0.00    -0.358 OA
ATOM     12  H   UNL d   1       0.560   3.318   0.219  0.00  0.00     0.217 HD
ENDBRANCH   6  11
ENDBRANCH   2   3
ENDBRANCH   1   2
BRANCH   1  13
ATOM     13  C   UNL d   1      -4.318  -3.431  -0.048  0.00  0.00     0.217 C 
ATOM     14  C   UNL d   1      -5.813  -3.090  -0.150  0.00  0.00     0.042 C 
BRANCH  13  15
ATOM     15  N   UNL d   1      -4.010  -4.185   1.174  0.00  0.00     0.091 N 
ATOM     16  H   UNL d   1      -4.307  -3.660   1.997  0.00  0.00     0.316 HD
BRANCH  15  17
ATOM     17  C   UNL d   1      -4.634  -5.510   1.213  0.00  0.00     0.308 C 
BRANCH  17  18
ATOM     18  C   UNL d   1      -4.338  -6.227   2.510  0.00  0.00    -0.030 A 
ATOM     19  C   UNL d   1      -5.373  -6.557   3.398  0.00  0.00     0.009 A 
ATOM     20  C   UNL d   1      -5.102  -7.240   4.585  0.00  0.00     0.001 A 
ATOM     21  C   UNL d   1      -3.793  -7.598   4.899  0.00  0.00     0.000 A 
ATOM     22  C   UNL d   1      -2.754  -7.273   4.027  0.00  0.00     0.001 A 
ATOM     23  C   UNL d   1      -3.026  -6.593   2.838  0.00  0.00     0.009 A 
ENDBRANCH  17  18
ENDBRANCH  15  17
ENDBRANCH  13  15
ENDBRANCH   1  13
TORSDOF 8
