REMARK  6 active torsions:
REMARK  status: ('A' for Active; 'I' for Inactive)
REMARK       I    between atoms: N_3  and  C_1 
REMARK    1  A    between atoms: C_10  and  C_1 
REMARK    2  A    between atoms: C_2  and  C_9 
REMARK       I    between atoms: N_5  and  C_2 
REMARK    3  A    between atoms: C_13  and  N_3 
REMARK    4  A    between atoms: C_9  and  N_4 
REMARK    5  A    between atoms: C_20  and  N_5 
REMARK    6  A    between atoms: C_6  and  C_7 
ROOT
ATOM      1  N   UNL d   1       1.185  -5.271  -0.418  0.00  0.00     0.097 N 
ATOM      2  C   UNL d   1       0.920  -2.482  -0.485  0.00  0.00     0.088 C 
ATOM      3  C   UNL d   1       1.153  -3.200  -1.820  0.00  0.00     0.055 C 
ATOM      4  C   UNL d   1       0.287  -3.286   0.664  0.00  0.00     0.055 C 
ATOM      5  C   UNL d   1       0.041  -4.761   0.358  0.00  0.00     0.275 C 
ATOM      6  C   UNL d   1       1.005  -4.719  -1.783  0.00  0.00     0.275 C 
ENDROOT
BRANCH   1   7
ATOM      7  C   UNL d   1       1.176  -6.751  -0.531  0.00  0.00     0.374 C 
BRANCH   7   8
ATOM      8  C   UNL d   1       1.326  -7.534   0.782  0.00  0.00     0.250 C 
ATOM      9  N   UNL d   1       2.056  -6.918   1.788  0.00  0.00    -0.326 N 
ATOM     10  H   UNL d   1       2.289  -5.944   1.620  0.00  0.00     0.169 HD
ATOM     11  O   UNL d   1       0.858  -8.669   0.839  0.00  0.00    -0.271 OA
BRANCH   9  12
ATOM     12  C   UNL d   1       2.475  -7.513   3.008  0.00  0.00     0.034 A 
ATOM     13  C   UNL d   1       2.316  -8.875   3.290  0.00  0.00     0.030 A 
ATOM     14  C   UNL d   1       2.832  -9.444   4.462  0.00  0.00     0.017 A 
ATOM     15  C   UNL d   1       3.531  -8.657   5.376  0.00  0.00     0.009 A 
ATOM     16  C   UNL d   1       3.644  -7.283   5.143  0.00  0.00     0.017 A 
ATOM     17  C   UNL d   1       3.122  -6.718   3.964  0.00  0.00     0.030 A 
BRANCH  15  18
ATOM     18  C   UNL d   1       4.153  -9.329   6.552  0.00  0.00     0.155 C 
ATOM     19  O   UNL d   1       3.628 -10.336   7.026  0.00  0.00    -0.293 OA
ATOM     20  C   UNL d   1       5.451  -8.795   7.096  0.00  0.00     0.096 C 
ENDBRANCH  15  18
ENDBRANCH   9  12
ENDBRANCH   7   8
ENDBRANCH   1   7
BRANCH   2  21
ATOM     21  N   UNL d   1       0.380  -1.133  -0.662  0.00  0.00    -0.352 N 
ATOM     22  C   UNL d   1      -0.957  -0.802  -0.818  0.00  0.00     0.252 C 
ATOM     23  O   UNL d   1      -1.852  -1.630  -0.837  0.00  0.00    -0.268 OA
ATOM     24  H   UNL d   1       1.065  -0.434  -0.905  0.00  0.00     0.163 HD
BRANCH  22  25
ATOM     25  C   UNL d   1      -1.261   0.671  -0.980  0.00  0.00     0.032 A 
ATOM     26  C   UNL d   1      -0.291   1.673  -0.784  0.00  0.00     0.017 A 
ATOM     27  C   UNL d   1      -0.609   3.022  -0.980  0.00  0.00     0.001 A 
ATOM     28  C   UNL d   1      -1.898   3.392  -1.349  0.00  0.00     0.000 A 
ATOM     29  C   UNL d   1      -2.880   2.415  -1.508  0.00  0.00     0.001 A 
ATOM     30  C   UNL d   1      -2.563   1.061  -1.325  0.00  0.00     0.017 A 
ENDBRANCH  22  25
ENDBRANCH   2  21
TORSDOF 6
