REMARK  4 active torsions:
REMARK  status: ('A' for Active; 'I' for Inactive)
REMARK    1  A    between atoms: C_3  and  C_1 
REMARK    2  A    between atoms: C_2  and  C_3 
REMARK    3  A    between atoms: N_8  and  C_4 
REMARK    4  A    between atoms: O_13  and  C_5 
ROOT
ATOM      1  C   UNL d   1      -0.698   1.158  -0.005  0.00  0.00     0.050 A 
ATOM      2  C   UNL d   1      -1.477  -0.020  -0.024  0.00  0.00     0.080 A 
ATOM      3  C   UNL d   1       0.695   1.022   0.013  0.00  0.00     0.060 A 
ATOM      4  C   UNL d   1      -0.887  -1.286  -0.022  0.00  0.00     0.040 A 
ATOM      5  C   UNL d   1       1.272  -0.249   0.013  0.00  0.00     0.117 A 
ATOM      6  C   UNL d   1       0.497  -1.402  -0.000  0.00  0.00     0.045 A 
ATOM      7  F   UNL d   1       2.607  -0.359   0.033  0.00  0.00    -0.206 F 
ENDROOT
BRANCH   1   8
ATOM      8  C   UNL d   1      -1.388   2.484   0.030  0.00  0.00     0.186 C 
ATOM      9  O   UNL d   1      -2.620   2.501   0.067  0.00  0.00    -0.287 OA
BRANCH   8  10
ATOM     10  C   UNL d   1      -0.607   3.753   0.025  0.00  0.00     0.072 C 
ATOM     11  C   UNL d   1      -1.220   4.899   0.357  0.00  0.00     0.088 C 
BRANCH  11  12
ATOM     12  N   UNL d   1      -0.727   6.196   0.438  0.00  0.00    -0.398 N 
ATOM     13  C   UNL d   1       0.639   6.597   0.112  0.00  0.00     0.148 C 
ATOM     14  C   UNL d   1      -1.585   7.313   0.851  0.00  0.00     0.148 C 
ENDBRANCH  11  12
ENDBRANCH   8  10
ENDBRANCH   1   8
BRANCH   2  15
ATOM     15  O   UNL d   1      -2.849  -0.018  -0.041  0.00  0.00    -0.360 OA
ATOM     16  H   UNL d   1      -3.152   0.919  -0.016  0.00  0.00     0.217 HD
ENDBRANCH   2  15
TORSDOF 4
