REMARK  4 active torsions:
REMARK  status: ('A' for Active; 'I' for Inactive)
REMARK    1  A    between atoms: C_8  and  C_1 
REMARK    2  A    between atoms: C_12  and  C_7 
REMARK       I    between atoms: C_9  and  N_10 
REMARK    3  A    between atoms: C_15  and  C_9 
REMARK    4  A    between atoms: N_10  and  C_11 
ROOT
ATOM      1  C   UNL d   1      -0.271  -2.871   0.383  0.00  0.00     0.043 A 
ATOM      2  C   UNL d   1      -1.150  -2.946  -0.720  0.00  0.00     0.049 A 
ATOM      3  C   UNL d   1      -0.155  -4.052   1.189  0.00  0.00     0.018 A 
ATOM      4  C   UNL d   1      -1.713  -4.224  -1.026  0.00  0.00     0.030 A 
ATOM      5  C   UNL d   1      -0.766  -5.267   0.893  0.00  0.00     0.001 A 
ATOM      6  C   UNL d   1      -1.527  -5.362  -0.246  0.00  0.00     0.002 A 
ENDROOT
BRANCH   1   7
ATOM      7  C   UNL d   1       0.622  -1.795   0.850  0.00  0.00     0.177 A 
ATOM      8  O   UNL d   1       1.811  -2.270   1.396  0.00  0.00    -0.273 OA
ATOM      9  C   UNL d   1       2.294  -1.197   2.090  0.00  0.00     0.174 A 
ATOM     10  N   UNL d   1       1.559  -0.121   1.897  0.00  0.00    -0.277 N 
ATOM     11  N   UNL d   1       0.468  -0.517   1.125  0.00  0.00    -0.277 N 
ATOM     12  HN  UNL d   1       1.750   0.819   2.245  1.00  0.00     0.189 HD
ATOM     13  HN  UNL d   1      -0.307   0.075   0.827  1.00  0.00     0.189 HD
BRANCH   9  14
ATOM     14  C   UNL d   1       3.411  -1.444   3.009  0.00  0.00     0.018 A 
ATOM     15  C   UNL d   1       3.956  -2.729   3.191  0.00  0.00     0.041 A 
ATOM     16  C   UNL d   1       4.973  -2.961   4.135  0.00  0.00     0.056 A 
ATOM     17 CL   UNL d   1       5.559  -4.577   4.303  0.00  0.00    -0.083 Cl
ATOM     18  C   UNL d   1       5.462  -1.906   4.913  0.00  0.00     0.055 A 
ATOM     19  C   UNL d   1       4.931  -0.626   4.740  0.00  0.00     0.026 A 
ATOM     20 CL   UNL d   1       6.699  -2.118   6.097  0.00  0.00    -0.083 Cl
ATOM     21  C   UNL d   1       3.917  -0.398   3.802  0.00  0.00     0.017 A 
ENDBRANCH   9  14
ENDBRANCH   1   7
BRANCH   2  22
ATOM     22  N   UNL d   1      -1.679  -1.975  -1.618  0.00  0.00    -0.322 N 
ATOM     23  C   UNL d   1      -1.704  -0.600  -1.621  0.00  0.00     0.256 C 
ATOM     24  O   UNL d   1      -1.007   0.135  -0.941  0.00  0.00    -0.267 OA
ATOM     25  H   UNL d   1      -2.321  -2.383  -2.276  0.00  0.00     0.169 HD
BRANCH  23  26
ATOM     26  C   UNL d   1      -2.760   0.028  -2.524  0.00  0.00     0.032 A 
ATOM     27  C   UNL d   1      -3.114   1.365  -2.282  0.00  0.00     0.018 A 
ATOM     28  C   UNL d   1      -4.134   1.993  -3.017  0.00  0.00     0.025 A 
ATOM     29  C   UNL d   1      -4.811   1.289  -4.004  0.00  0.00     0.034 A 
ATOM     30  C   UNL d   1      -4.467  -0.033  -4.277  0.00  0.00     0.025 A 
ATOM     31 CL   UNL d   1      -6.081   2.042  -4.889  0.00  0.00    -0.084 Cl
ATOM     32  C   UNL d   1      -3.441  -0.658  -3.549  0.00  0.00     0.018 A 
ENDBRANCH  23  26
ENDBRANCH   2  22
TORSDOF 4
