REMARK  4 active torsions:
REMARK  status: ('A' for Active; 'I' for Inactive)
REMARK    1  A    between atoms: C_4  and  C_1 
REMARK    2  A    between atoms: N_6  and  N_2 
REMARK    3  A    between atoms: O_10  and  C_4 
REMARK       I    between atoms: C_5  and  N_6 
REMARK    4  A    between atoms: C_9  and  C_5 
ROOT
ATOM      1  C   UNL d   1       0.257   1.039  -3.520  0.00  0.00     0.270 C 
ATOM      2  N   UNL d   1       0.997   0.631  -2.412  0.00  0.00    -0.265 N 
ATOM      3  O   UNL d   1      -0.946   1.280  -3.516  0.00  0.00    -0.266 OA
ATOM      4  H   UNL d   1       1.906   0.196  -2.558  0.00  0.00     0.190 HD
ENDROOT
BRANCH   2   5
ATOM      5  N   UNL d   1       0.358   0.509  -1.211  0.00  0.00    -0.296 N 
ATOM      6  C   UNL d   1       0.993   0.099  -0.153  0.00  0.00     0.095 C 
ATOM      7  C   UNL d   1       0.252  -0.085   1.137  0.00  0.00     0.077 C 
ATOM      8  HN  UNL d   1      -0.633   0.743  -1.143  1.00  0.00     0.187 HD
BRANCH   6   9
ATOM      9  C   UNL d   1       2.495  -0.137  -0.093  0.00  0.00     0.190 C 
ATOM     10  O   UNL d   1       2.989  -1.099   0.454  0.00  0.00    -0.645 OA
BRANCH   9  11
ATOM     11  O   UNL d   1       3.168   0.849  -0.714  0.00  0.00    -0.772 OA
ATOM     12  H   UNL d   1       2.554   1.563  -0.996  0.00  0.00     0.167 HD
ENDBRANCH   9  11
ENDBRANCH   6   9
ENDBRANCH   2   5
BRANCH   1  13
ATOM     13  C   UNL d   1       1.024   1.171  -4.786  0.00  0.00     0.033 A 
ATOM     14  C   UNL d   1       0.374   0.923  -6.002  0.00  0.00     0.017 A 
ATOM     15  C   UNL d   1       1.063   1.073  -7.207  0.00  0.00     0.001 A 
ATOM     16  C   UNL d   1       2.395   1.486  -7.202  0.00  0.00     0.000 A 
ATOM     17  C   UNL d   1       3.041   1.754  -5.995  0.00  0.00     0.001 A 
ATOM     18  C   UNL d   1       2.358   1.600  -4.787  0.00  0.00     0.017 A 
ENDBRANCH   1  13
TORSDOF 4
