REMARK  4 active torsions:
REMARK  status: ('A' for Active; 'I' for Inactive)
REMARK    1  A    between atoms: C_4  and  N_1 
REMARK       I    between atoms: C_2  and  N_8 
REMARK       I    between atoms: N_10  and  C_2 
REMARK    2  A    between atoms: C_3  and  C_6 
REMARK       I    between atoms: N_5  and  C_3 
REMARK    3  A    between atoms: N_8  and  N_5 
REMARK    4  A    between atoms: C_14  and  N_10 
ROOT
ATOM      1  C   UNL d   1       0.435  -1.794   4.682  0.00  0.00     0.270 C 
ATOM      2  N   UNL d   1      -0.285  -2.799   5.296  0.00  0.00    -0.262 N 
ATOM      3  O   UNL d   1      -0.095  -0.798   4.199  0.00  0.00    -0.266 OA
ATOM      4  H   UNL d   1       0.147  -3.479   5.920  0.00  0.00     0.190 HD
ENDROOT
BRANCH   2   5
ATOM      5  N   UNL d   1      -1.652  -2.580   5.567  0.00  0.00    -0.248 N 
ATOM      6  C   UNL d   1      -2.183  -3.345   6.593  0.00  0.00     0.339 C 
ATOM      7  N   UNL d   1      -3.543  -3.165   6.747  0.00  0.00    -0.308 N 
ATOM      8  O   UNL d   1      -1.451  -4.075   7.258  0.00  0.00    -0.245 OA
ATOM      9  H   UNL d   1      -3.961  -2.445   6.175  0.00  0.00     0.170 HD
ATOM     10  H   UNL d   1      -2.216  -2.317   4.763  0.00  0.00     0.192 HD
BRANCH   7  11
ATOM     11  C   UNL d   1      -4.386  -3.843   7.651  0.00  0.00     0.036 A 
ATOM     12  C   UNL d   1      -3.939  -4.829   8.536  0.00  0.00     0.031 A 
ATOM     13  C   UNL d   1      -4.835  -5.504   9.369  0.00  0.00     0.026 A 
ATOM     14  C   UNL d   1      -6.189  -5.194   9.328  0.00  0.00     0.034 A 
ATOM     15  C   UNL d   1      -6.650  -4.198   8.472  0.00  0.00     0.026 A 
ATOM     16 CL   UNL d   1      -7.295  -6.053  10.327  0.00  0.00    -0.084 Cl
ATOM     17  C   UNL d   1      -5.750  -3.521   7.638  0.00  0.00     0.031 A 
ENDBRANCH   7  11
ENDBRANCH   2   5
BRANCH   1  18
ATOM     18  C   UNL d   1       1.922  -1.968   4.611  0.00  0.00     0.036 A 
ATOM     19  C   UNL d   1       2.687  -0.889   4.138  0.00  0.00     0.053 A 
ATOM     20  C   UNL d   1       4.076  -1.024   4.003  0.00  0.00     0.103 A 
ATOM     21  C   UNL d   1       4.714  -2.225   4.337  0.00  0.00     0.036 A 
ATOM     22  C   UNL d   1       3.956  -3.293   4.813  0.00  0.00     0.003 A 
ATOM     23  C   UNL d   1       2.569  -3.168   4.948  0.00  0.00     0.017 A 
BRANCH  20  24
ATOM     24  N   UNL d   1       4.873   0.100   3.493  0.00  0.00    -0.116 N 
ATOM     25  O   UNL d   1       4.284   1.162   3.249  0.00  0.00    -0.532 OA
ATOM     26  O   UNL d   1       6.090  -0.081   3.338  0.00  0.00    -0.532 OA
ENDBRANCH  20  24
ENDBRANCH   1  18
TORSDOF 4
