REMARK  2 active torsions:
REMARK  status: ('A' for Active; 'I' for Inactive)
REMARK    1  A    between atoms: C_10  and  C_6 
REMARK    2  A    between atoms: N_9  and  C_8 
ROOT
ATOM      1  C   UNL d   1      -1.034  -2.918  -0.353  0.00  0.00     0.045 A 
ATOM      2  C   UNL d   1       0.446  -2.833  -0.082  0.00  0.00     0.257 A 
ATOM      3  N   UNL d   1       0.964  -4.025  -0.568  0.00  0.00    -0.322 N 
ATOM      4  C   UNL d   1      -1.278  -4.183  -1.049  0.00  0.00     0.006 A 
ATOM      5  C   UNL d   1      -0.031  -4.817  -1.133  0.00  0.00     0.046 A 
ATOM      6  C   UNL d   1      -1.857  -1.958   0.093  0.00  0.00     0.029 C 
ATOM      7  O   UNL d   1       1.053  -1.930   0.457  0.00  0.00    -0.267 OA
ATOM      8  C   UNL d   1      -2.399  -4.782  -1.593  0.00  0.00     0.015 A 
ATOM      9  C   UNL d   1       0.135  -6.058  -1.714  0.00  0.00     0.030 A 
ATOM     10  C   UNL d   1      -2.253  -6.037  -2.196  0.00  0.00     0.001 A 
ATOM     11  C   UNL d   1      -1.000  -6.673  -2.249  0.00  0.00     0.002 A 
ATOM     12  H   UNL d   1       1.944  -4.254  -0.513  0.00  0.00     0.169 HD
ENDROOT
BRANCH   6  13
ATOM     13  C   UNL d   1      -3.317  -1.985   0.004  0.00  0.00    -0.035 A 
ATOM     14  C   UNL d   1      -4.067  -2.532   1.042  0.00  0.00     0.013 A 
ATOM     15  C   UNL d   1      -5.468  -2.561   0.968  0.00  0.00     0.030 A 
ATOM     16  C   UNL d   1      -6.174  -2.044  -0.131  0.00  0.00     0.029 A 
ATOM     17  C   UNL d   1      -5.386  -1.505  -1.164  0.00  0.00     0.030 A 
ATOM     18  C   UNL d   1      -3.983  -1.473  -1.105  0.00  0.00     0.013 A 
BRANCH  16  19
ATOM     19  N   UNL d   1      -7.558  -2.036  -0.186  0.00  0.00    -0.390 N 
ATOM     20  C   UNL d   1      -8.284  -2.103  -1.451  0.00  0.00     0.149 C 
ATOM     21  C   UNL d   1      -8.395  -2.147   1.005  0.00  0.00     0.149 C 
ENDBRANCH  16  19
ENDBRANCH   6  13
TORSDOF 2
