REMARK  4 active torsions:
REMARK  status: ('A' for Active; 'I' for Inactive)
REMARK    1  A    between atoms: C_4  and  C_1 
REMARK       I    between atoms: N_10  and  C_4 
REMARK    2  A    between atoms: C_5  and  C_12 
REMARK       I    between atoms: C_9  and  N_11 
REMARK    3  A    between atoms: C_13  and  C_9 
REMARK    4  A    between atoms: N_11  and  N_10 
ROOT
ATOM      1  C   UNL d   1       5.475  -0.762  -0.036  0.00  0.00     0.270 C 
ATOM      2  N   UNL d   1       4.135  -0.983  -0.276  0.00  0.00    -0.263 N 
ATOM      3  O   UNL d   1       5.931   0.338   0.264  0.00  0.00    -0.266 OA
ATOM      4  H   UNL d   1       3.769  -1.836  -0.694  0.00  0.00     0.190 HD
ENDROOT
BRANCH   2   5
ATOM      5  N   UNL d   1       3.248   0.100  -0.205  0.00  0.00    -0.262 N 
ATOM      6  C   UNL d   1       1.906  -0.117  -0.439  0.00  0.00     0.287 C 
ATOM      7  O   UNL d   1       1.460  -1.221  -0.749  0.00  0.00    -0.264 OA
ATOM      8  H   UNL d   1       3.603   1.009   0.092  0.00  0.00     0.190 HD
BRANCH   6   9
ATOM      9  C   UNL d   1       1.066   1.074  -0.288  0.00  0.00     0.109 A 
ATOM     10  N   UNL d   1       1.591   2.333   0.020  0.00  0.00    -0.349 N 
ATOM     11  C   UNL d   1       0.622   3.224   0.073  0.00  0.00     0.047 A 
ATOM     12  HN  UNL d   1       2.579   2.532   0.180  1.00  0.00     0.166 HD
ATOM     13  C   UNL d   1       0.809   4.676   0.350  0.00  0.00     0.076 C 
ATOM     14  S   UNL d   1      -0.961   2.619  -0.216  0.00  0.00    -0.087 SA
ATOM     15  C   UNL d   1      -0.309   1.055  -0.445  0.00  0.00     0.086 A 
ENDBRANCH   6   9
ENDBRANCH   2   5
BRANCH   1  16
ATOM     16  C   UNL d   1       6.377  -1.939  -0.184  0.00  0.00     0.033 A 
ATOM     17  C   UNL d   1       7.706  -1.714  -0.564  0.00  0.00     0.018 A 
ATOM     18  C   UNL d   1       8.600  -2.783  -0.680  0.00  0.00     0.017 A 
ATOM     19  C   UNL d   1       8.184  -4.094  -0.402  0.00  0.00     0.048 A 
ATOM     20  C   UNL d   1       6.851  -4.314  -0.018  0.00  0.00     0.017 A 
ATOM     21  C   UNL d   1       5.952  -3.244   0.091  0.00  0.00     0.018 A 
BRANCH  19  22
ATOM     22  C   UNL d   1       9.171  -5.235  -0.505  0.00  0.00     0.417 C 
ATOM     23  F   UNL d   1       8.643  -6.444  -0.170  0.00  0.00    -0.166 F 
ATOM     24  F   UNL d   1       9.667  -5.381  -1.765  0.00  0.00    -0.166 F 
ATOM     25  F   UNL d   1      10.252  -5.062   0.305  0.00  0.00    -0.166 F 
ENDBRANCH  19  22
ENDBRANCH   1  16
TORSDOF 4
