REMARK  5 active torsions:
REMARK  status: ('A' for Active; 'I' for Inactive)
REMARK    1  A    between atoms: S_2  and  C_1 
REMARK    2  A    between atoms: N_16  and  S_2 
REMARK    3  A    between atoms: N_3  and  C_17 
REMARK    4  A    between atoms: C_14  and  C_7 
REMARK    5  A    between atoms: C_27  and  N_16 
ROOT
ATOM      1  C   UNL d   1       3.019   0.892   5.213  0.00  0.00     0.057 A 
ATOM      2  C   UNL d   1       3.622  -0.126   2.680  0.00  0.00     0.023 A 
ATOM      3  C   UNL d   1       2.001   0.681   4.275  0.00  0.00     0.033 A 
ATOM      4  C   UNL d   1       4.353   0.645   4.857  0.00  0.00     0.033 A 
ATOM      5  C   UNL d   1       4.646   0.107   3.599  0.00  0.00     0.027 A 
ATOM      6  C   UNL d   1       2.302   0.168   3.013  0.00  0.00     0.027 A 
ENDROOT
BRANCH   1   7
ATOM      7  N   UNL d   1       2.715   1.347   6.528  0.00  0.00    -0.255 N 
ATOM      8  C   UNL d   1       1.573   1.118   7.292  0.00  0.00     0.076 C 
ATOM      9  C   UNL d   1       1.659   1.997   8.353  0.00  0.00     0.069 C 
ATOM     10  C   UNL d   1       0.568   0.113   7.048  0.00  0.00     0.033 A 
ATOM     11  C   UNL d   1       2.927   2.617   8.249  0.00  0.00     0.135 C 
ATOM     12  N   UNL d   1       3.604   2.138   7.188  0.00  0.00    -0.289 N 
ATOM     13  HN  UNL d   1       4.573   2.327   6.934  1.00  0.00     0.187 HD
ATOM     14  S   UNL d   1      -1.082   0.384   7.433  0.00  0.00    -0.100 SA
ATOM     15  C   UNL d   1       0.752  -1.160   6.536  0.00  0.00     0.021 A 
ATOM     16  C   UNL d   1      -1.545  -1.158   6.857  0.00  0.00     0.050 A 
ATOM     17  C   UNL d   1      -0.470  -1.879   6.393  0.00  0.00     0.008 A 
BRANCH  11  18
ATOM     18  C   UNL d   1       3.482   3.642   9.204  0.00  0.00     0.434 C 
ATOM     19  F   UNL d   1       4.724   4.084   8.879  0.00  0.00    -0.165 F 
ATOM     20  F   UNL d   1       2.680   4.741   9.268  0.00  0.00    -0.165 F 
ATOM     21  F   UNL d   1       3.557   3.154  10.473  0.00  0.00    -0.165 F 
ENDBRANCH  11  18
ENDBRANCH   1   7
BRANCH   2  22
ATOM     22  N   UNL d   1       3.911  -0.739   1.423  0.00  0.00    -0.180 NA
ATOM     23  H   UNL d   1       3.283  -0.459   0.669  0.00  0.00     0.146 HD
BRANCH  22  24
ATOM     24  S   UNL d   1       3.968  -2.443   1.428  0.00  0.00     0.263 S 
ATOM     25  O   UNL d   1       4.781  -2.910   2.532  0.00  0.00    -0.204 OA
ATOM     26  O   UNL d   1       4.217  -2.863   0.066  0.00  0.00    -0.204 OA
BRANCH  24  27
ATOM     27  C   UNL d   1       2.361  -3.052   1.763  0.00  0.00     0.161 A 
ATOM     28  N   UNL d   1       1.217  -2.575   1.134  0.00  0.00    -0.335 N 
ATOM     29  C   UNL d   1       0.227  -3.328   1.581  0.00  0.00     0.079 A 
ATOM     30  HN  UNL d   1       1.155  -1.806   0.467  1.00  0.00     0.168 HD
ATOM     31  C   UNL d   1      -1.189  -3.269   1.133  0.00  0.00     0.089 C 
ATOM     32  N   UNL d   1       0.684  -4.221   2.524  0.00  0.00    -0.348 N 
ATOM     33  C   UNL d   1       2.032  -4.050   2.657  0.00  0.00     0.135 A 
ATOM     34  C   UNL d   1      -0.109  -5.202   3.227  0.00  0.00     0.156 C 
ENDBRANCH  24  27
ENDBRANCH  22  24
ENDBRANCH   2  22
TORSDOF 5
