REMARK  4 active torsions:
REMARK  status: ('A' for Active; 'I' for Inactive)
REMARK    1  A    between atoms: O_13  and  C_3 
REMARK    2  A    between atoms: C_14  and  C_4 
REMARK    3  A    between atoms: C_8  and  C_11 
REMARK    4  A    between atoms: N_9  and  O_13 
ROOT
ATOM      1  N   UNL d   1       1.573  -0.617  -0.020  0.00  0.00    -0.313 N 
ATOM      2  HN  UNL d   1       0.601  -0.920   0.043  1.00  0.00     0.170 HD
ATOM      3  C   UNL d   1       2.624  -1.409  -0.038  0.00  0.00     0.230 A 
ATOM      4  C   UNL d   1       2.010   0.712  -0.101  0.00  0.00     0.124 A 
ATOM      5  N   UNL d   1       3.329   0.943  -0.188  0.00  0.00    -0.308 N 
ATOM      6  HN  UNL d   1       3.781   1.855  -0.260  1.00  0.00     0.176 HD
ATOM      7  S   UNL d   1       4.091  -0.534  -0.156  0.00  0.00     0.034 SA
ENDROOT
BRANCH   3   8
ATOM      8  O   UNL d   1       2.632  -2.745   0.022  0.00  0.00    -0.210 OA
BRANCH   8   9
ATOM      9  N   UNL d   1       1.327  -3.255   0.118  0.00  0.00    -0.262 N 
ATOM     10  C   UNL d   1       1.336  -4.557   0.198  0.00  0.00     0.045 C 
ATOM     11  C   UNL d   1       2.620  -5.364   0.142  0.00  0.00     0.071 C 
ATOM     12  HN  UNL d   1       0.483  -2.683   0.125  1.00  0.00     0.194 HD
BRANCH  10  13
ATOM     13  C   UNL d   1       0.053  -5.233   0.321  0.00  0.00     0.029 A 
ATOM     14  S   UNL d   1      -0.102  -6.743   1.117  0.00  0.00    -0.100 SA
ATOM     15  C   UNL d   1      -1.787  -6.801   0.842  0.00  0.00     0.050 A 
ATOM     16  C   UNL d   1      -2.237  -5.689   0.168  0.00  0.00     0.008 A 
ATOM     17  C   UNL d   1      -1.180  -4.776  -0.115  0.00  0.00     0.021 A 
ENDBRANCH  10  13
ENDBRANCH   8   9
ENDBRANCH   3   8
BRANCH   4  18
ATOM     18  C   UNL d   1       1.043   1.818  -0.076  0.00  0.00     0.009 A 
ATOM     19  C   UNL d   1      -0.332   1.566   0.044  0.00  0.00     0.015 A 
ATOM     20  C   UNL d   1      -1.249   2.621   0.090  0.00  0.00     0.001 A 
ATOM     21  C   UNL d   1      -0.804   3.939   0.015  0.00  0.00     0.000 A 
ATOM     22  C   UNL d   1       0.557   4.207  -0.113  0.00  0.00     0.001 A 
ATOM     23  C   UNL d   1       1.474   3.153  -0.159  0.00  0.00     0.015 A 
ENDBRANCH   4  18
TORSDOF 4
