REMARK  4 active torsions:
REMARK  status: ('A' for Active; 'I' for Inactive)
REMARK    1  A    between atoms: C_8  and  C_1 
REMARK    2  A    between atoms: N_9  and  N_6 
REMARK    3  A    between atoms: O_14  and  C_8 
REMARK    4  A    between atoms: C_18  and  O_14 
ROOT
ATOM      1  C   UNL d   1      -1.400   0.405   0.029  0.00  0.00     0.105 A 
ATOM      2  C   UNL d   1       1.083   0.840  -0.004  0.00  0.00     0.166 A 
ATOM      3  S   UNL d   1      -0.394   1.829   0.006  0.00  0.00    -0.044 SA
ATOM      4  N   UNL d   1       0.730  -0.512   0.004  0.00  0.00    -0.333 N 
ATOM      5  C   UNL d   1      -0.670  -0.735   0.025  0.00  0.00     0.033 A 
ATOM      6  N   UNL d   1       2.172   1.524  -0.014  0.00  0.00    -0.280 N 
ATOM      7  HN  UNL d   1       2.156   2.543  -0.022  1.00  0.00     0.189 HD
ATOM      8  C   UNL d   1       1.769  -1.527   0.000  0.00  0.00     0.158 C 
ATOM      9  C   UNL d   1      -1.281  -2.106   0.037  0.00  0.00     0.070 C 
ENDROOT
BRANCH   6  10
ATOM     10  N   UNL d   1       3.362   0.825  -0.014  0.00  0.00    -0.308 N 
ATOM     11  C   UNL d   1       4.401   1.608  -0.022  0.00  0.00    -0.004 C 
ATOM     12  C   UNL d   1       4.362   3.122  -0.032  0.00  0.00     0.064 C 
ATOM     13  C   UNL d   1       5.766   0.971  -0.020  0.00  0.00     0.064 C 
ATOM     14  HN  UNL d   1       3.421  -0.193  -0.009  1.00  0.00     0.186 HD
ENDBRANCH   6  10
BRANCH   1  15
ATOM     15  C   UNL d   1      -2.880   0.544   0.047  0.00  0.00     0.302 C 
ATOM     16  O   UNL d   1      -3.664  -0.393   0.080  0.00  0.00    -0.259 OA
BRANCH  15  17
ATOM     17  O   UNL d   1      -3.230   1.858   0.015  0.00  0.00    -0.317 OA
BRANCH  17  18
ATOM     18  C   UNL d   1      -4.626   2.175   0.021  0.00  0.00     0.174 C 
ATOM     19  C   UNL d   1      -5.182   2.107  -1.388  0.00  0.00     0.034 C 
ENDBRANCH  17  18
ENDBRANCH  15  17
ENDBRANCH   1  15
TORSDOF 4
