REMARK  4 active torsions:
REMARK  status: ('A' for Active; 'I' for Inactive)
REMARK    1  A    between atoms: N_2  and  C_1 
REMARK    2  A    between atoms: C_16  and  C_8 
REMARK    3  A    between atoms: C_17  and  C_9 
REMARK    4  A    between atoms: N_14  and  C_11 
ROOT
ATOM      1  C   UNL d   1       1.416   0.860   0.039  0.00  0.00     0.134 A 
ATOM      2  N   UNL d   1       1.452  -0.527   0.029  0.00  0.00    -0.334 N 
ATOM      3  HN  UNL d   1       2.314  -1.069   0.097  1.00  0.00     0.168 HD
ATOM      4  C   UNL d   1       0.114   1.371  -0.087  0.00  0.00     0.062 A 
ATOM      5  C   UNL d   1       0.259  -1.070  -0.076  0.00  0.00     0.086 A 
ATOM      6  S   UNL d   1      -1.011   0.073  -0.198  0.00  0.00    -0.067 SA
ENDROOT
BRANCH   1   7
ATOM      7  N   UNL d   1       2.635   1.580   0.158  0.00  0.00    -0.259 N 
ATOM      8  C   UNL d   1       3.875   1.014  -0.217  0.00  0.00     0.333 A 
ATOM      9  N   UNL d   1       4.980   1.852  -0.269  0.00  0.00    -0.294 N 
ATOM     10  O   UNL d   1       4.026  -0.163  -0.532  0.00  0.00    -0.246 OA
ATOM     11  C   UNL d   1       4.905   3.099   0.092  0.00  0.00     0.108 A 
ATOM     12  HN  UNL d   1       5.872   1.482  -0.598  1.00  0.00     0.172 HD
ATOM     13  C   UNL d   1       3.632   3.687   0.560  0.00  0.00     0.066 A 
ATOM     14  C   UNL d   1       2.578   2.877   0.600  0.00  0.00     0.107 A 
BRANCH  11  15
ATOM     15  N   UNL d   1       6.012   3.932   0.051  0.00  0.00    -0.367 N 
ATOM     16  C   UNL d   1       6.297   4.907   1.101  0.00  0.00     0.124 C 
ATOM     17  C   UNL d   1       6.492   6.274   0.459  0.00  0.00     0.020 C 
ATOM     18  C   UNL d   1       7.617   6.216  -0.575  0.00  0.00     0.003 C 
ATOM     19  C   UNL d   1       7.387   5.090  -1.587  0.00  0.00     0.020 C 
ATOM     20  C   UNL d   1       7.101   3.744  -0.907  0.00  0.00     0.124 C 
ENDBRANCH  11  15
ENDBRANCH   1   7
BRANCH   4  21
ATOM     21  C   UNL d   1      -0.420   2.743  -0.170  0.00  0.00    -0.015 A 
ATOM     22  C   UNL d   1       0.130   3.672  -1.068  0.00  0.00     0.013 A 
ATOM     23  C   UNL d   1      -0.181   5.031  -0.964  0.00  0.00     0.001 A 
ATOM     24  C   UNL d   1      -1.099   5.465  -0.010  0.00  0.00     0.000 A 
ATOM     25  C   UNL d   1      -1.728   4.541   0.821  0.00  0.00     0.001 A 
ATOM     26  C   UNL d   1      -1.387   3.188   0.746  0.00  0.00     0.013 A 
ENDBRANCH   4  21
BRANCH   5  27
ATOM     27  C   UNL d   1       0.006  -2.528  -0.109  0.00  0.00    -0.002 A 
ATOM     28  C   UNL d   1       1.105  -3.406  -0.118  0.00  0.00     0.014 A 
ATOM     29  C   UNL d   1       0.924  -4.791  -0.172  0.00  0.00     0.001 A 
ATOM     30  C   UNL d   1      -0.350  -5.332  -0.213  0.00  0.00     0.000 A 
ATOM     31  C   UNL d   1      -1.457  -4.480  -0.197  0.00  0.00     0.001 A 
ATOM     32  C   UNL d   1      -1.280  -3.093  -0.141  0.00  0.00     0.014 A 
ENDBRANCH   5  27
TORSDOF 4
