REMARK  3 active torsions:
REMARK  status: ('A' for Active; 'I' for Inactive)
REMARK    1  A    between atoms: O_12  and  C_8 
REMARK    2  A    between atoms: S_9  and  O_12 
REMARK    3  A    between atoms: C_13  and  S_9 
ROOT
ATOM      1  C   UNL d   1       0.025   0.745  -0.070  0.00  0.00     0.134 A 
ATOM      2  C   UNL d   1      -0.008  -0.614  -0.080  0.00  0.00     0.112 A 
ATOM      3  N   UNL d   1       1.278   1.378   0.095  0.00  0.00    -0.288 N 
ATOM      4  N   UNL d   1       2.435  -0.683  -0.010  0.00  0.00    -0.270 N 
ATOM      5  C   UNL d   1       2.498   0.686   0.037  0.00  0.00     0.332 C 
ATOM      6  C   UNL d   1       1.263  -1.389   0.065  0.00  0.00     0.268 C 
ATOM      7  N   UNL d   1      -1.212   1.431  -0.241  0.00  0.00    -0.303 N 
ATOM      8  C   UNL d   1      -1.264  -1.351  -0.241  0.00  0.00     0.114 A 
ATOM      9  C   UNL d   1      -2.418  -0.705  -0.392  0.00  0.00     0.114 A 
ATOM     10  C   UNL d   1      -2.441   0.762  -0.374  0.00  0.00     0.251 A 
ATOM     11  O   UNL d   1       3.584   1.272   0.046  0.00  0.00    -0.246 OA
ATOM     12  O   UNL d   1       1.268  -2.609   0.234  0.00  0.00    -0.267 OA
ATOM     13  O   UNL d   1      -3.535   1.312  -0.471  0.00  0.00    -0.268 OA
ATOM     14  C   UNL d   1       1.467   2.808   0.276  0.00  0.00     0.163 C 
ATOM     15  C   UNL d   1       3.667  -1.453   0.008  0.00  0.00     0.164 C 
ATOM     16  C   UNL d   1      -1.372   2.876  -0.256  0.00  0.00     0.161 C 
ENDROOT
BRANCH   8  17
ATOM     17  O   UNL d   1      -1.152  -2.724  -0.174  0.00  0.00    -0.228 OA
BRANCH  17  18
ATOM     18  S   UNL d   1      -2.222  -3.802  -0.747  0.00  0.00     0.303 S 
ATOM     19  O   UNL d   1      -3.318  -3.913   0.196  0.00  0.00    -0.193 OA
ATOM     20  O   UNL d   1      -2.467  -3.490  -2.144  0.00  0.00    -0.193 OA
BRANCH  18  21
ATOM     21  C   UNL d   1      -1.345  -5.349  -0.698  0.00  0.00     0.086 A 
ATOM     22  C   UNL d   1      -0.418  -5.594   0.322  0.00  0.00     0.026 A 
ATOM     23  C   UNL d   1       0.298  -6.792   0.324  0.00  0.00     0.008 A 
ATOM     24  C   UNL d   1       0.104  -7.741  -0.692  0.00  0.00    -0.062 A 
ATOM     25  C   UNL d   1      -0.830  -7.482  -1.703  0.00  0.00     0.008 A 
ATOM     26  C   UNL d   1       0.883  -9.025  -0.674  0.00  0.00     0.048 C 
ATOM     27  C   UNL d   1      -1.550  -6.286  -1.712  0.00  0.00     0.026 A 
ENDBRANCH  18  21
ENDBRANCH  17  18
ENDBRANCH   8  17
TORSDOF 3
