REMARK  3 active torsions:
REMARK  status: ('A' for Active; 'I' for Inactive)
REMARK    1  A    between atoms: N_9  and  C_1 
REMARK    2  A    between atoms: C_7  and  C_2 
REMARK    3  A    between atoms: C_8  and  N_3 
ROOT
ATOM      1  C   UNL d   1       1.014  -0.802  -0.014  0.00  0.00     0.133 C 
ATOM      2  C   UNL d   1      -0.313  -1.204   0.009  0.00  0.00     0.036 C 
ATOM      3  N   UNL d   1       1.000   0.601   0.064  0.00  0.00    -0.240 N 
ATOM      4  N   UNL d   1      -0.251   1.067   0.330  0.00  0.00    -0.302 N 
ATOM      5  HN  UNL d   1      -0.527   2.022   0.558  1.00  0.00     0.186 HD
ATOM      6  C   UNL d   1      -1.032  -0.006   0.226  0.00  0.00     0.123 C 
ENDROOT
BRANCH   2   7
ATOM      7  C   UNL d   1      -0.803  -2.577  -0.030  0.00  0.00    -0.021 A 
ATOM      8  C   UNL d   1      -1.931  -2.939   0.725  0.00  0.00     0.014 A 
ATOM      9  C   UNL d   1      -2.394  -4.258   0.730  0.00  0.00     0.024 A 
ATOM     10  C   UNL d   1      -1.731  -5.228  -0.016  0.00  0.00     0.034 A 
ATOM     11  C   UNL d   1      -0.624  -4.885  -0.787  0.00  0.00     0.024 A 
ATOM     12 CL   UNL d   1      -2.282  -6.857   0.015  0.00  0.00    -0.084 Cl
ATOM     13  C   UNL d   1      -0.171  -3.561  -0.803  0.00  0.00     0.014 A 
ENDBRANCH   2   7
BRANCH   1  14
ATOM     14  N   UNL d   1       2.159  -1.550  -0.003  0.00  0.00    -0.383 N 
ATOM     15  H   UNL d   1       2.081  -2.523   0.292  0.00  0.00     0.157 HD
ATOM     16  H   UNL d   1       3.006  -1.135   0.383  0.00  0.00     0.157 HD
ENDBRANCH   1  14
BRANCH   3  17
ATOM     17  C   UNL d   1       2.088   1.516  -0.040  0.00  0.00     0.058 A 
ATOM     18  C   UNL d   1       3.230   1.204  -0.788  0.00  0.00     0.031 A 
ATOM     19  C   UNL d   1       4.293   2.108  -0.851  0.00  0.00     0.002 A 
ATOM     20  C   UNL d   1       4.222   3.321  -0.167  0.00  0.00     0.000 A 
ATOM     21  C   UNL d   1       3.078   3.647   0.560  0.00  0.00     0.002 A 
ATOM     22  C   UNL d   1       2.004   2.756   0.610  0.00  0.00     0.031 A 
ENDBRANCH   3  17
TORSDOF 3
