REMARK  8 active torsions:
REMARK  status: ('A' for Active; 'I' for Inactive)
REMARK       I    between atoms: N_6  and  C_1 
REMARK    1  A    between atoms: O_9  and  C_1 
REMARK    2  A    between atoms: C_14  and  C_2 
REMARK    3  A    between atoms: N_15  and  C_2 
REMARK    4  A    between atoms: C_3  and  C_10 
REMARK    5  A    between atoms: N_4  and  O_9 
REMARK    6  A    between atoms: C_18  and  N_6 
REMARK    7  A    between atoms: O_16  and  C_14 
REMARK    8  A    between atoms: C_17  and  O_16 
ROOT
ATOM      1  C   UNL d   1      -1.648   1.305  -1.644  0.00  0.00     0.120 C 
ATOM      2  N   UNL d   1      -1.325   1.191  -0.380  0.00  0.00    -0.242 N 
ATOM      3  HN  UNL d   1      -1.791   0.589   0.299  1.00  0.00     0.196 HD
ENDROOT
BRANCH   1   4
ATOM      4  C   UNL d   1      -0.908   2.221  -2.655  0.00  0.00     0.253 C 
BRANCH   4   5
ATOM      5  O   UNL d   1       0.482   1.990  -2.795  0.00  0.00    -0.344 OA
BRANCH   5   6
ATOM      6  C   UNL d   1       0.900   1.165  -3.797  0.00  0.00     0.069 A 
ATOM      7  C   UNL d   1       2.194   1.418  -4.255  0.00  0.00     0.037 A 
ATOM      8  C   UNL d   1       2.772   0.619  -5.244  0.00  0.00     0.012 A 
ATOM      9  C   UNL d   1       2.071  -0.465  -5.791  0.00  0.00    -0.035 A 
ATOM     10  C   UNL d   1       0.767  -0.711  -5.321  0.00  0.00     0.012 A 
ATOM     11  C   UNL d   1       0.186   0.097  -4.332  0.00  0.00     0.037 A 
BRANCH   9  12
ATOM     12  C   UNL d   1       2.745  -1.340  -6.830  0.00  0.00     0.141 C 
ATOM     13  S   UNL d   1       1.831  -1.391  -8.406  0.00  0.00    -0.148 SA
ATOM     14  C   UNL d   1       2.072  -3.155  -8.729  0.00  0.00     0.085 C 
ATOM     15  C   UNL d   1       1.966  -3.881  -7.404  0.00  0.00     0.085 C 
ATOM     16  S   UNL d   1       3.042  -3.034  -6.221  0.00  0.00    -0.148 SA
ENDBRANCH   9  12
ENDBRANCH   5   6
ENDBRANCH   4   5
ENDBRANCH   1   4
BRANCH   1  17
ATOM     17  N   UNL d   1      -2.739   0.611  -2.113  0.00  0.00    -0.386 N 
ATOM     18  H   UNL d   1      -3.361   0.282  -1.382  0.00  0.00     0.157 HD
ATOM     19  H   UNL d   1      -3.224   0.996  -2.916  0.00  0.00     0.157 HD
ENDBRANCH   1  17
BRANCH   2  20
ATOM     20  O   UNL d   1      -0.228   2.034  -0.108  0.00  0.00    -0.179 OA
BRANCH  20  21
ATOM     21  C   UNL d   1       0.237   2.002   1.188  0.00  0.00     0.387 C 
ATOM     22  N   UNL d   1      -0.378   1.084   2.023  0.00  0.00    -0.301 N 
ATOM     23  H   UNL d   1      -1.029   0.482   1.538  0.00  0.00     0.171 HD
ATOM     24  O   UNL d   1       1.155   2.753   1.504  0.00  0.00    -0.236 OA
BRANCH  22  25
ATOM     25  C   UNL d   1      -0.081   0.871   3.390  0.00  0.00     0.036 A 
ATOM     26  C   UNL d   1       0.679   1.763   4.155  0.00  0.00     0.029 A 
ATOM     27  C   UNL d   1       0.974   1.499   5.497  0.00  0.00     0.002 A 
ATOM     28  C   UNL d   1       0.510   0.334   6.096  0.00  0.00     0.000 A 
ATOM     29  C   UNL d   1      -0.264  -0.556   5.354  0.00  0.00     0.002 A 
ATOM     30  C   UNL d   1      -0.570  -0.284   4.010  0.00  0.00     0.029 A 
ENDBRANCH  22  25
ENDBRANCH  20  21
ENDBRANCH   2  20
TORSDOF 8
