REMARK  7 active torsions:
REMARK  status: ('A' for Active; 'I' for Inactive)
REMARK    1  A    between atoms: C_3  and  C_1 
REMARK    2  A    between atoms: C_13  and  N_2 
REMARK    3  A    between atoms: C_23  and  N_6 
REMARK    4  A    between atoms: S_18  and  C_7 
REMARK    5  A    between atoms: C_14  and  C_16 
REMARK    6  A    between atoms: C_22  and  S_18 
REMARK    7  A    between atoms: C_25  and  C_22 
ROOT
ATOM      1  C   UNL d   1      -0.140  -1.264   0.262  0.00  0.00     0.158 C 
ATOM      2  N   UNL d   1       1.163  -0.755   0.199  0.00  0.00    -0.274 N 
ATOM      3  N   UNL d   1      -0.995  -0.269   0.388  0.00  0.00    -0.281 N 
ATOM      4  HN  UNL d   1      -2.000  -0.360   0.531  1.00  0.00     0.188 HD
ATOM      5  C   UNL d   1       0.972   0.623   0.119  0.00  0.00     0.168 C 
ATOM      6  N   UNL d   1      -0.302   0.911   0.295  0.00  0.00    -0.278 N 
ATOM      7  HN  UNL d   1      -0.702   1.847   0.351  1.00  0.00     0.189 HD
ENDROOT
BRANCH   2   8
ATOM      8  C   UNL d   1       2.387  -1.496   0.278  0.00  0.00     0.044 A 
ATOM      9  C   UNL d   1       3.540  -1.082  -0.401  0.00  0.00     0.046 A 
ATOM     10  C   UNL d   1       4.757  -1.768  -0.246  0.00  0.00     0.050 A 
ATOM     11  C   UNL d   1       4.793  -2.923   0.541  0.00  0.00     0.016 A 
ATOM     12  C   UNL d   1       3.643  -3.368   1.189  0.00  0.00     0.003 A 
ATOM     13  C   UNL d   1       2.454  -2.648   1.078  0.00  0.00     0.030 A 
BRANCH  10  14
ATOM     14  C   UNL d   1       6.018  -1.255  -0.904  0.00  0.00     0.417 C 
ATOM     15  F   UNL d   1       5.830  -0.121  -1.633  0.00  0.00    -0.166 F 
ATOM     16  F   UNL d   1       6.987  -0.959   0.005  0.00  0.00    -0.166 F 
ATOM     17  F   UNL d   1       6.566  -2.163  -1.758  0.00  0.00    -0.166 F 
ENDBRANCH  10  14
ENDBRANCH   2   8
BRANCH   1  18
ATOM     18  C   UNL d   1      -0.545  -2.632   0.085  0.00  0.00     0.098 A 
ATOM     19  N   UNL d   1      -1.626  -3.246   0.674  0.00  0.00    -0.289 N 
ATOM     20  N   UNL d   1      -1.692  -4.573   0.409  0.00  0.00    -0.303 N 
ATOM     21  C   UNL d   1      -0.693  -4.794  -0.445  0.00  0.00     0.024 A 
ATOM     22  HN  UNL d   1      -2.358  -5.251   0.780  1.00  0.00     0.186 HD
ATOM     23  C   UNL d   1       0.021  -3.610  -0.715  0.00  0.00     0.061 A 
ATOM     24  C   UNL d   1      -0.430  -6.157  -0.966  0.00  0.00     0.070 C 
BRANCH  19  25
ATOM     25  C   UNL d   1      -2.627  -2.689   1.568  0.00  0.00     0.145 C 
ATOM     26  C   UNL d   1      -3.882  -2.260   0.829  0.00  0.00     0.028 C 
ENDBRANCH  19  25
ENDBRANCH   1  18
BRANCH   5  27
ATOM     27  S   UNL d   1       2.230   1.813  -0.061  0.00  0.00    -0.087 SA
BRANCH  27  28
ATOM     28  C   UNL d   1       1.501   3.300   0.660  0.00  0.00     0.121 C 
BRANCH  28  29
ATOM     29  C   UNL d   1       2.351   4.556   0.554  0.00  0.00    -0.049 A 
ATOM     30  C   UNL d   1       3.087   4.898  -0.593  0.00  0.00     0.008 A 
ATOM     31  C   UNL d   1       3.757   6.125  -0.679  0.00  0.00     0.001 A 
ATOM     32  C   UNL d   1       3.688   7.037   0.370  0.00  0.00     0.000 A 
ATOM     33  C   UNL d   1       2.965   6.717   1.515  0.00  0.00     0.001 A 
ATOM     34  C   UNL d   1       2.304   5.489   1.605  0.00  0.00     0.008 A 
ENDBRANCH  28  29
ENDBRANCH  27  28
ENDBRANCH   5  27
TORSDOF 7
