REMARK  3 active torsions:
REMARK  status: ('A' for Active; 'I' for Inactive)
REMARK    1  A    between atoms: C_7  and  C_1 
REMARK    2  A    between atoms: S_9  and  C_3 
REMARK    3  A    between atoms: O_11  and  C_7 
ROOT
ATOM      1  C   UNL d   1      -0.323   1.250  -0.001  0.00  0.00     0.127 A 
ATOM      2  N   UNL d   1       0.966   0.738  -0.003  0.00  0.00    -0.326 N 
ATOM      3  C   UNL d   1       0.864  -0.634  -0.008  0.00  0.00     0.143 A 
ATOM      4  N   UNL d   1      -0.386  -1.029  -0.010  0.00  0.00    -0.344 N 
ATOM      5  HN  UNL d   1      -0.732  -1.988  -0.015  1.00  0.00     0.167 HD
ATOM      6  C   UNL d   1      -1.124   0.121  -0.006  0.00  0.00     0.126 A 
ATOM      7  C   UNL d   1       2.202   1.487   0.002  0.00  0.00     0.159 C 
ENDROOT
BRANCH   1   8
ATOM      8  C   UNL d   1      -0.722   2.636   0.005  0.00  0.00     0.311 C 
ATOM      9  O   UNL d   1       0.032   3.599   0.007  0.00  0.00    -0.258 OA
BRANCH   8  10
ATOM     10  O   UNL d   1      -2.082   2.733   0.007  0.00  0.00    -0.321 OA
ATOM     11  C   UNL d   1      -2.562   4.079   0.012  0.00  0.00     0.213 C 
ENDBRANCH   8  10
ENDBRANCH   1   8
BRANCH   3  12
ATOM     12  S   UNL d   1       2.204  -1.733  -0.012  0.00  0.00    -0.107 SA
ATOM     13  H   UNL d   1       3.230  -0.875  -0.014  0.00  0.00     0.110 HD
ENDBRANCH   3  12
TORSDOF 3
