REMARK  5 active torsions:
REMARK  status: ('A' for Active; 'I' for Inactive)
REMARK    1  A    between atoms: C_9  and  N_1 
REMARK    2  A    between atoms: N_6  and  C_10 
REMARK    3  A    between atoms: C_7  and  C_8 
REMARK       I    between atoms: N_11  and  C_7 
REMARK    4  A    between atoms: C_8  and  C_9 
REMARK    5  A    between atoms: C_16  and  N_11 
ROOT
ATOM      1  C   UNL d   1       4.000  -3.963   0.174  0.00  0.00     0.223 C 
ATOM      2  N   UNL d   1       3.106  -4.962  -0.153  0.00  0.00    -0.327 N 
ATOM      3  O   UNL d   1       5.160  -4.144   0.548  0.00  0.00    -0.273 OA
ATOM      4  H   UNL d   1       2.214  -4.705  -0.559  0.00  0.00     0.169 HD
ENDROOT
BRANCH   1   5
ATOM      5  C   UNL d   1       3.558  -2.524  -0.045  0.00  0.00     0.123 C 
BRANCH   5   6
ATOM      6  C   UNL d   1       2.079  -2.191   0.067  0.00  0.00     0.138 C 
BRANCH   6   7
ATOM      7  N   UNL d   1       1.235  -2.597  -1.048  0.00  0.00    -0.355 N 
ATOM      8  C   UNL d   1       1.617  -2.658  -2.363  0.00  0.00     0.099 A 
ATOM      9  C   UNL d   1       0.553  -3.133  -3.108  0.00  0.00    -0.034 A 
ATOM     10  C   UNL d   1       0.539  -3.380  -4.572  0.00  0.00     0.050 C 
ATOM     11  C   UNL d   1      -0.536  -3.317  -2.204  0.00  0.00    -0.002 A 
ATOM     12  C   UNL d   1      -0.085  -2.978  -0.922  0.00  0.00     0.045 A 
ATOM     13  C   UNL d   1      -1.873  -3.734  -2.365  0.00  0.00     0.014 A 
ATOM     14  C   UNL d   1      -0.929  -3.048   0.199  0.00  0.00     0.030 A 
ATOM     15  C   UNL d   1      -2.250  -3.470   0.012  0.00  0.00     0.002 A 
ATOM     16  C   UNL d   1      -2.717  -3.806  -1.254  0.00  0.00     0.001 A 
ENDBRANCH   6   7
ENDBRANCH   5   6
ENDBRANCH   1   5
BRANCH   2  17
ATOM     17  C   UNL d   1       3.392  -6.348  -0.209  0.00  0.00     0.034 A 
ATOM     18  C   UNL d   1       4.562  -6.921   0.280  0.00  0.00     0.032 A 
ATOM     19  C   UNL d   1       4.857  -8.270   0.034  0.00  0.00     0.031 A 
ATOM     20  C   UNL d   1       4.001  -9.089  -0.707  0.00  0.00     0.030 A 
ATOM     21  C   UNL d   1       2.782  -8.522  -1.103  0.00  0.00     0.031 A 
ATOM     22  C   UNL d   1       2.470  -7.177  -0.850  0.00  0.00     0.032 A 
BRANCH  20  23
ATOM     23  N   UNL d   1       4.351 -10.372  -1.062  0.00  0.00    -0.377 N 
ATOM     24  C   UNL d   1       4.027 -10.918  -2.389  0.00  0.00     0.149 C 
ATOM     25  C   UNL d   1       5.293 -11.507  -3.042  0.00  0.00     0.187 C 
ATOM     26  O   UNL d   1       5.956 -12.451  -2.185  0.00  0.00    -0.388 OA
ATOM     27  C   UNL d   1       6.348 -11.811  -0.958  0.00  0.00     0.187 C 
ATOM     28  C   UNL d   1       5.130 -11.268  -0.198  0.00  0.00     0.149 C 
ENDBRANCH  20  23
ENDBRANCH   2  17
TORSDOF 5
