REMARK  4 active torsions:
REMARK  status: ('A' for Active; 'I' for Inactive)
REMARK    1  A    between atoms: N_2  and  C_1 
REMARK    2  A    between atoms: O_15  and  C_1 
REMARK       I    between atoms: C_6  and  N_2 
REMARK    3  A    between atoms: C_5  and  C_6 
REMARK    4  A    between atoms: O_17  and  C_9 
ROOT
ATOM      1  C   UNL d   1      -1.782   0.068  -0.080  0.00  0.00     0.269 C 
ATOM      2  C   UNL d   1      -0.850  -1.166  -0.140  0.00  0.00     0.224 C 
ATOM      3  C   UNL d   1      -0.795   1.216  -0.365  0.00  0.00     0.224 C 
ATOM      4  C   UNL d   1       0.533  -0.683  -0.066  0.00  0.00     0.029 A 
ATOM      5  C   UNL d   1       0.561   0.702  -0.181  0.00  0.00     0.029 A 
ATOM      6  O   UNL d   1      -1.041   2.351  -0.739  0.00  0.00    -0.286 OA
ATOM      7  O   UNL d   1      -1.151  -2.341  -0.242  0.00  0.00    -0.286 OA
ATOM      8  C   UNL d   1       1.745   1.417  -0.133  0.00  0.00     0.016 A 
ATOM      9  C   UNL d   1       1.696  -1.416   0.090  0.00  0.00     0.016 A 
ATOM     10  C   UNL d   1       2.902  -0.711   0.156  0.00  0.00     0.001 A 
ATOM     11  C   UNL d   1       2.926   0.695   0.049  0.00  0.00     0.001 A 
ENDROOT
BRANCH   1  12
ATOM     12  N   UNL d   1      -2.852   0.084  -1.046  0.00  0.00    -0.312 N 
ATOM     13  C   UNL d   1      -4.041  -0.575  -0.836  0.00  0.00     0.257 C 
ATOM     14  O   UNL d   1      -4.244  -1.166   0.221  0.00  0.00    -0.267 OA
ATOM     15  H   UNL d   1      -2.662   0.514  -1.939  0.00  0.00     0.166 HD
BRANCH  13  16
ATOM     16  C   UNL d   1      -5.030  -0.494  -1.915  0.00  0.00     0.072 A 
ATOM     17  C   UNL d   1      -6.188  -1.340  -2.101  0.00  0.00     0.090 A 
ATOM     18  C   UNL d   1      -6.973  -0.949  -3.163  0.00  0.00     0.087 A 
ATOM     19  S   UNL d   1      -6.328   0.391  -3.989  0.00  0.00    -0.110 SA
ATOM     20  C   UNL d   1      -5.021   0.494  -2.892  0.00  0.00     0.069 A 
BRANCH  17  21
ATOM     21  O   UNL d   1      -6.626  -2.376  -1.343  0.00  0.00    -0.354 OA
ATOM     22  C   UNL d   1      -5.654  -3.389  -1.113  0.00  0.00     0.210 C 
ENDBRANCH  17  21
ENDBRANCH  13  16
ENDBRANCH   1  12
BRANCH   1  23
ATOM     23  O   UNL d   1      -2.300   0.271   1.215  0.00  0.00    -0.358 OA
ATOM     24  H   UNL d   1      -3.025  -0.385   1.302  0.00  0.00     0.213 HD
ENDBRANCH   1  23
TORSDOF 4
