REMARK  6 active torsions:
REMARK  status: ('A' for Active; 'I' for Inactive)
REMARK       I    between atoms: N_2  and  C_1 
REMARK    1  A    between atoms: O_6  and  C_1 
REMARK    2  A    between atoms: C_3  and  C_8 
REMARK       I    between atoms: N_5  and  C_3 
REMARK    3  A    between atoms: N_4  and  C_7 
REMARK    4  A    between atoms: C_18  and  N_5 
REMARK    5  A    between atoms: C_19  and  O_6 
REMARK    6  A    between atoms: C_22  and  C_19 
ROOT
ATOM      1  C   UNL d   1       0.684   0.114   0.313  0.00  0.00     0.363 C 
ATOM      2  N   UNL d   1       0.078   0.459  -0.881  0.00  0.00    -0.328 N 
ATOM      3  C   UNL d   1      -1.877   0.222  -3.016  0.00  0.00     0.081 C 
ATOM      4  O   UNL d   1       1.538  -0.765   0.410  0.00  0.00    -0.238 OA
ATOM      5  C   UNL d   1      -0.924   1.510  -1.034  0.00  0.00     0.129 C 
ATOM      6  C   UNL d   1       0.434  -0.269  -2.092  0.00  0.00     0.129 C 
ATOM      7  C   UNL d   1      -2.187   0.973  -1.713  0.00  0.00     0.034 C 
ATOM      8  C   UNL d   1      -0.823  -0.869  -2.727  0.00  0.00     0.034 C 
ENDROOT
BRANCH   3   9
ATOM      9  C   UNL d   1      -1.407   1.109  -4.179  0.00  0.00     0.226 C 
ATOM     10  N   UNL d   1      -2.260   2.148  -4.514  0.00  0.00    -0.327 N 
ATOM     11  H   UNL d   1      -3.064   2.313  -3.925  0.00  0.00     0.169 HD
ATOM     12  O   UNL d   1      -0.369   0.835  -4.779  0.00  0.00    -0.273 OA
BRANCH  10  13
ATOM     13  C   UNL d   1      -2.137   2.993  -5.646  0.00  0.00     0.034 A 
ATOM     14  C   UNL d   1      -1.179   2.809  -6.637  0.00  0.00     0.032 A 
ATOM     15  C   UNL d   1      -1.158   3.619  -7.778  0.00  0.00     0.031 A 
ATOM     16  C   UNL d   1      -2.084   4.644  -7.991  0.00  0.00     0.030 A 
ATOM     17  C   UNL d   1      -3.009   4.856  -6.959  0.00  0.00     0.031 A 
ATOM     18  C   UNL d   1      -3.045   4.041  -5.808  0.00  0.00     0.032 A 
BRANCH  16  19
ATOM     19  N   UNL d   1      -2.067   5.385  -9.150  0.00  0.00    -0.377 N 
ATOM     20  C   UNL d   1      -2.536   6.773  -9.251  0.00  0.00     0.149 C 
ATOM     21  C   UNL d   1      -1.457   7.626  -9.952  0.00  0.00     0.187 C 
ATOM     22  O   UNL d   1      -1.047   7.071 -11.215  0.00  0.00    -0.388 OA
ATOM     23  C   UNL d   1      -0.540   5.737 -11.033  0.00  0.00     0.187 C 
ATOM     24  C   UNL d   1      -1.620   4.826 -10.439  0.00  0.00     0.149 C 
ENDBRANCH  16  19
ENDBRANCH  10  13
ENDBRANCH   3   9
BRANCH   1  25
ATOM     25  O   UNL d   1       0.183   0.791   1.379  0.00  0.00    -0.299 OA
BRANCH  25  26
ATOM     26  C   UNL d   1       0.455   0.191   2.651  0.00  0.00     0.219 C 
BRANCH  26  27
ATOM     27  C   UNL d   1       1.458   0.974   3.458  0.00  0.00    -0.034 A 
ATOM     28  C   UNL d   1       1.038   1.999   4.316  0.00  0.00     0.009 A 
ATOM     29  C   UNL d   1       1.957   2.664   5.128  0.00  0.00     0.001 A 
ATOM     30  C   UNL d   1       3.307   2.321   5.082  0.00  0.00     0.000 A 
ATOM     31  C   UNL d   1       3.741   1.322   4.211  0.00  0.00     0.001 A 
ATOM     32  C   UNL d   1       2.822   0.655   3.398  0.00  0.00     0.009 A 
ENDBRANCH  26  27
ENDBRANCH  25  26
ENDBRANCH   1  25
TORSDOF 6
