REMARK  1 active torsions:
REMARK  status: ('A' for Active; 'I' for Inactive)
REMARK    1  A    between atoms: C_6  and  C_1 
ROOT
ATOM      1  C   UNL d   1       0.960   0.575   0.007  0.00  0.00     0.118 A 
ATOM      2  N   UNL d   1       0.959  -0.722   0.143  0.00  0.00    -0.295 N 
ATOM      3  HN  UNL d   1       1.772  -1.337   0.172  1.00  0.00     0.187 HD
ATOM      4  N   UNL d   1      -0.362  -1.090   0.241  0.00  0.00    -0.265 N 
ATOM      5  C   UNL d   1      -1.264  -0.035   0.158  0.00  0.00     0.243 A 
ATOM      6  C   UNL d   1      -0.409   1.185   0.017  0.00  0.00     0.168 A 
ATOM      7  O   UNL d   1      -2.482  -0.065   0.190  0.00  0.00    -0.271 OA
ATOM      8  C   UNL d   1      -0.749  -2.468   0.405  0.00  0.00     0.181 C 
ENDROOT
BRANCH   1   9
ATOM      9  C   UNL d   1       2.172   1.438  -0.149  0.00  0.00     0.430 C 
ATOM     10  F   UNL d   1       1.846   2.755  -0.259  0.00  0.00    -0.165 F 
ATOM     11  F   UNL d   1       3.020   1.343   0.908  0.00  0.00    -0.165 F 
ATOM     12  F   UNL d   1       2.890   1.131  -1.261  0.00  0.00    -0.165 F 
ENDBRANCH   1   9
TORSDOF 1
