REMARK  4 active torsions:
REMARK  status: ('A' for Active; 'I' for Inactive)
REMARK    1  A    between atoms: C_7  and  C_1 
REMARK    2  A    between atoms: C_15  and  N_2 
REMARK    3  A    between atoms: C_8  and  C_6 
REMARK       I    between atoms: N_9  and  C_7 
REMARK    4  A    between atoms: C_16  and  N_9 
ROOT
ATOM      1  C   UNL d   1      -0.416  -1.138  -0.011  0.00  0.00     0.120 A 
ATOM      2  N   UNL d   1       0.749  -0.441  -0.242  0.00  0.00    -0.287 N 
ATOM      3  C   UNL d   1      -1.381  -0.147   0.133  0.00  0.00     0.069 A 
ATOM      4  N   UNL d   1       0.585   0.897  -0.269  0.00  0.00    -0.297 N 
ATOM      5  HN  UNL d   1       1.303   1.610  -0.397  1.00  0.00     0.187 HD
ATOM      6  C   UNL d   1      -0.721   1.081  -0.092  0.00  0.00     0.067 A 
ENDROOT
BRANCH   1   7
ATOM      7  C   UNL d   1      -0.543  -2.588  -0.009  0.00  0.00     0.270 C 
ATOM      8  N   UNL d   1      -1.743  -3.056   0.484  0.00  0.00    -0.352 N 
ATOM      9  H   UNL d   1      -2.426  -2.377   0.782  0.00  0.00     0.163 HD
ATOM     10  O   UNL d   1       0.332  -3.338  -0.424  0.00  0.00    -0.266 OA
BRANCH   8  11
ATOM     11  C   UNL d   1      -2.198  -4.443   0.443  0.00  0.00     0.076 C 
ATOM     12  C   UNL d   1      -2.565  -4.878  -0.972  0.00  0.00     0.032 C 
ATOM     13  C   UNL d   1      -1.238  -5.433   1.099  0.00  0.00     0.032 C 
ENDBRANCH   8  11
ENDBRANCH   1   7
BRANCH   2  14
ATOM     14  C   UNL d   1       2.091  -0.932  -0.499  0.00  0.00     0.145 C 
ATOM     15  C   UNL d   1       2.409  -0.927  -1.984  0.00  0.00     0.028 C 
ENDBRANCH   2  14
BRANCH   6  16
ATOM     16  C   UNL d   1      -1.331   2.449  -0.185  0.00  0.00     0.033 A 
ATOM     17  S   UNL d   1      -2.982   2.808   0.053  0.00  0.00    -0.100 SA
ATOM     18  C   UNL d   1      -2.739   4.464  -0.314  0.00  0.00     0.050 A 
ATOM     19  C   UNL d   1      -1.422   4.740  -0.608  0.00  0.00     0.008 A 
ATOM     20  C   UNL d   1      -0.606   3.576  -0.520  0.00  0.00     0.021 A 
ENDBRANCH   6  16
TORSDOF 4
