REMARK  2 active torsions:
REMARK  status: ('A' for Active; 'I' for Inactive)
REMARK    1  A    between atoms: N_17  and  C_7 
REMARK    2  A    between atoms: C_8  and  N_17 
ROOT
ATOM      1  S   UNL d   1       0.860  -1.628  -0.072  0.00  0.00     0.270 S 
ATOM      2  C   UNL d   1       2.056  -0.460  -0.502  0.00  0.00     0.147 C 
ATOM      3  N   UNL d   1       1.269  -1.959   1.547  0.00  0.00    -0.275 N 
ATOM      4  C   UNL d   1       1.620  -0.862   2.360  0.00  0.00     0.066 A 
ATOM      5  C   UNL d   1       2.008   0.361   1.839  0.00  0.00     0.084 A 
ATOM      6  C   UNL d   1       2.220   0.667   0.436  0.00  0.00     0.215 C 
ATOM      7  C   UNL d   1       2.938  -0.716  -1.482  0.00  0.00     0.135 C 
ATOM      8  S   UNL d   1       2.329   1.516   3.051  0.00  0.00    -0.096 SA
ATOM      9  O   UNL d   1      -0.448  -0.997  -0.071  0.00  0.00    -0.200 OA
ATOM     10  O   UNL d   1       1.076  -2.847  -0.830  0.00  0.00    -0.200 OA
ATOM     11  C   UNL d   1       1.664  -0.854   3.784  0.00  0.00     0.039 A 
ATOM     12  C   UNL d   1       2.026   0.377   4.289  0.00  0.00     0.053 A 
ATOM     13  O   UNL d   1       2.607   1.761   0.013  0.00  0.00    -0.285 OA
ATOM     14  C   UNL d   1       1.065  -3.319   2.058  0.00  0.00     0.170 C 
ENDROOT
BRANCH   7  15
ATOM     15  N   UNL d   1       4.077  -0.025  -1.811  0.00  0.00    -0.200 N 
ATOM     16  H   UNL d   1       4.328   0.818  -1.307  0.00  0.00     0.183 HD
BRANCH  15  17
ATOM     17  C   UNL d   1       5.005  -0.382  -2.780  0.00  0.00     0.682 A 
ATOM     18  N   UNL d   1       4.746  -1.422  -3.588  0.00  0.00    -0.196 N 
ATOM     19  C   UNL d   1       5.643  -1.716  -4.545  0.00  0.00     0.024 A 
ATOM     20  HN  UNL d   1       3.894  -1.973  -3.480  1.00  0.00     0.184 HD
ATOM     21  C   UNL d   1       5.302  -2.847  -5.464  0.00  0.00     0.068 C 
ATOM     22  C   UNL d   1       6.814  -1.006  -4.692  0.00  0.00     0.050 A 
ATOM     23  C   UNL d   1       7.019   0.030  -3.803  0.00  0.00     0.024 A 
ATOM     24  N   UNL d   1       6.121   0.355  -2.851  0.00  0.00    -0.196 N 
ATOM     25  C   UNL d   1       8.268   0.854  -3.880  0.00  0.00     0.068 C 
ATOM     26  HN  UNL d   1       6.285   1.132  -2.210  1.00  0.00     0.184 HD
ENDBRANCH  15  17
ENDBRANCH   7  15
TORSDOF 2
