REMARK  7 active torsions:
REMARK  status: ('A' for Active; 'I' for Inactive)
REMARK    1  A    between atoms: C_2  and  S_1 
REMARK    2  A    between atoms: N_11  and  S_1 
REMARK    3  A    between atoms: C_8  and  C_15 
REMARK    4  A    between atoms: C_14  and  N_11 
REMARK    5  A    between atoms: C_12  and  C_14 
REMARK       I    between atoms: N_22  and  C_12 
REMARK       I    between atoms: C_13  and  N_16 
REMARK    6  A    between atoms: C_18  and  C_13 
REMARK    7  A    between atoms: N_16  and  N_22 
ROOT
ATOM      1  C   UNL d   1       0.434  -4.040   0.790  0.00  0.00     0.249 C 
ATOM      2  N   UNL d   1      -0.498  -3.848   1.790  0.00  0.00    -0.266 N 
ATOM      3  O   UNL d   1       0.796  -5.165   0.444  0.00  0.00    -0.270 OA
ATOM      4  H   UNL d   1      -0.938  -2.947   1.968  0.00  0.00     0.190 HD
ENDROOT
BRANCH   1   5
ATOM      5  C   UNL d   1       1.000  -2.782   0.148  0.00  0.00     0.208 C 
BRANCH   5   6
ATOM      6  N   UNL d   1       0.529  -1.504   0.721  0.00  0.00    -0.207 NA
ATOM      7  H   UNL d   1      -0.484  -1.357   0.733  0.00  0.00     0.140 HD
BRANCH   6   8
ATOM      8  S   UNL d   1       1.259  -0.100   0.106  0.00  0.00     0.244 S 
ATOM      9  O   UNL d   1       0.763   1.021   0.868  0.00  0.00    -0.206 OA
ATOM     10  O   UNL d   1       2.677  -0.362  -0.020  0.00  0.00    -0.206 OA
BRANCH   8  11
ATOM     11  C   UNL d   1       0.595   0.034  -1.515  0.00  0.00     0.104 A 
ATOM     12  C   UNL d   1      -0.798   0.086  -1.746  0.00  0.00     0.089 A 
ATOM     13  N   UNL d   1      -1.781  -0.006  -0.834  0.00  0.00    -0.309 N 
ATOM     14  C   UNL d   1      -1.325   0.229  -3.155  0.00  0.00     0.068 A 
ATOM     15  S   UNL d   1      -3.215   0.178  -1.656  0.00  0.00     0.068 SA
ATOM     16  HN  UNL d   1      -1.669  -0.159   0.168  1.00  0.00     0.176 HD
ATOM     17  N   UNL d   1      -2.663   0.281  -3.217  0.00  0.00    -0.310 N 
ATOM     18  HN  UNL d   1      -3.231   0.368  -4.060  1.00  0.00     0.176 HD
ATOM     19  C   UNL d   1      -0.443   0.290  -4.261  0.00  0.00     0.032 A 
ATOM     20  C   UNL d   1       0.931   0.221  -3.966  0.00  0.00     0.004 A 
ATOM     21  C   UNL d   1       1.433   0.103  -2.649  0.00  0.00     0.027 A 
ENDBRANCH   8  11
ENDBRANCH   6   8
ENDBRANCH   5   6
ENDBRANCH   1   5
BRANCH   2  22
ATOM     22  N   UNL d   1      -1.121  -4.971   2.349  0.00  0.00    -0.263 N 
ATOM     23  C   UNL d   1      -2.421  -4.860   2.803  0.00  0.00     0.270 C 
ATOM     24  O   UNL d   1      -3.064  -3.817   2.752  0.00  0.00    -0.266 OA
ATOM     25  H   UNL d   1      -0.531  -5.782   2.515  0.00  0.00     0.190 HD
BRANCH  23  26
ATOM     26  C   UNL d   1      -2.996  -6.090   3.419  0.00  0.00     0.034 A 
ATOM     27  C   UNL d   1      -3.906  -5.958   4.479  0.00  0.00     0.033 A 
ATOM     28  C   UNL d   1      -4.414  -7.097   5.129  0.00  0.00     0.048 A 
ATOM     29  C   UNL d   1      -4.033  -8.369   4.670  0.00  0.00     0.016 A 
ATOM     30  C   UNL d   1      -3.160  -8.502   3.589  0.00  0.00     0.002 A 
ATOM     31  C   UNL d   1      -2.638  -7.367   2.967  0.00  0.00     0.017 A 
BRANCH  28  32
ATOM     32  C   UNL d   1      -5.324  -6.981   6.330  0.00  0.00     0.417 C 
ATOM     33  F   UNL d   1      -5.597  -5.696   6.687  0.00  0.00    -0.166 F 
ATOM     34  F   UNL d   1      -6.530  -7.581   6.133  0.00  0.00    -0.166 F 
ATOM     35  F   UNL d   1      -4.793  -7.569   7.435  0.00  0.00    -0.166 F 
ENDBRANCH  28  32
ENDBRANCH  23  26
ENDBRANCH   2  22
TORSDOF 7
