REMARK  6 active torsions:
REMARK  status: ('A' for Active; 'I' for Inactive)
REMARK    1  A    between atoms: C_2  and  C_1 
REMARK    2  A    between atoms: C_3  and  C_5 
REMARK    3  A    between atoms: S_6  and  C_4 
REMARK    4  A    between atoms: C_12  and  S_6 
REMARK    5  A    between atoms: C_8  and  C_9 
REMARK    6  A    between atoms: C_9  and  C_12 
ROOT
ATOM      1  C   UNL d   1       3.193   0.403   1.210  0.00  0.00     0.164 C 
ENDROOT
BRANCH   1   2
ATOM      2  C   UNL d   1       4.424   0.215   2.085  0.00  0.00     0.169 C 
ATOM      3  O   UNL d   1       5.272   1.083   2.280  0.00  0.00    -0.291 OA
BRANCH   2   4
ATOM      4  C   UNL d   1       4.608  -1.117   2.755  0.00  0.00     0.011 A 
ATOM      5  C   UNL d   1       3.717  -2.184   2.569  0.00  0.00     0.031 A 
ATOM      6  C   UNL d   1       3.893  -3.398   3.261  0.00  0.00     0.048 A 
ATOM      7  C   UNL d   1       4.994  -3.542   4.120  0.00  0.00     0.016 A 
ATOM      8  C   UNL d   1       5.895  -2.493   4.292  0.00  0.00     0.002 A 
ATOM      9  C   UNL d   1       5.701  -1.287   3.617  0.00  0.00     0.015 A 
BRANCH   6  10
ATOM     10  C   UNL d   1       2.901  -4.528   3.116  0.00  0.00     0.417 C 
ATOM     11  F   UNL d   1       1.893  -4.252   2.243  0.00  0.00    -0.166 F 
ATOM     12  F   UNL d   1       3.476  -5.678   2.671  0.00  0.00    -0.166 F 
ATOM     13  F   UNL d   1       2.297  -4.839   4.296  0.00  0.00    -0.166 F 
ENDBRANCH   6  10
ENDBRANCH   2   4
ENDBRANCH   1   2
BRANCH   1  14
ATOM     14  S   UNL d   1       3.025   2.112   0.595  0.00  0.00    -0.104 SA
BRANCH  14  15
ATOM     15  C   UNL d   1       1.484   2.005  -0.303  0.00  0.00     0.085 A 
ATOM     16  C   UNL d   1       0.927   3.069  -1.010  0.00  0.00     0.081 A 
ATOM     17  C   UNL d   1      -0.308   2.845  -1.657  0.00  0.00     0.020 A 
ATOM     18  C   UNL d   1      -0.934   1.608  -1.590  0.00  0.00     0.018 A 
ATOM     19  C   UNL d   1      -0.305   0.618  -0.874  0.00  0.00     0.089 A 
ATOM     20  N   UNL d   1       0.874   0.790  -0.240  0.00  0.00    -0.360 N 
ATOM     21  HN  UNL d   1       1.301   0.022   0.279  1.00  0.00     0.166 HD
BRANCH  16  22
ATOM     22  C   UNL d   1       1.526   4.439  -1.146  0.00  0.00     0.420 C 
ATOM     23  F   UNL d   1       2.718   4.667  -0.542  0.00  0.00    -0.166 F 
ATOM     24  F   UNL d   1       0.684   5.401  -0.662  0.00  0.00    -0.166 F 
ATOM     25  F   UNL d   1       1.718   4.769  -2.459  0.00  0.00    -0.166 F 
ENDBRANCH  16  22
ENDBRANCH  14  15
ENDBRANCH   1  14
TORSDOF 6
