REMARK  4 active torsions:
REMARK  status: ('A' for Active; 'I' for Inactive)
REMARK    1  A    between atoms: C_4  and  C_1 
REMARK    2  A    between atoms: C_10  and  N_2 
REMARK    3  A    between atoms: C_6  and  C_3 
REMARK    4  A    between atoms: O_13  and  C_6 
ROOT
ATOM      1  C   UNL d   1       1.157   1.242  -0.333  0.00  0.00     0.136 C 
ATOM      2  N   UNL d   1      -0.325   1.107  -0.175  0.00  0.00    -0.338 N 
ATOM      3  C   UNL d   1       1.920  -0.055  -0.694  0.00  0.00     0.111 C 
ATOM      4  C   UNL d   1      -0.959  -0.105  -0.424  0.00  0.00     0.220 C 
ATOM      5  C   UNL d   1       1.296  -1.151   0.183  0.00  0.00     0.027 C 
ATOM      6  C   UNL d   1      -0.163  -1.370  -0.177  0.00  0.00     0.104 C 
ATOM      7  O   UNL d   1      -2.132  -0.204  -0.786  0.00  0.00    -0.273 OA
ENDROOT
BRANCH   1   8
ATOM      8  C   UNL d   1       1.593   2.480  -1.116  0.00  0.00    -0.013 A 
ATOM      9  C   UNL d   1       2.759   3.205  -0.789  0.00  0.00     0.042 A 
ATOM     10 CL   UNL d   1       3.820   2.720   0.487  0.00  0.00    -0.084 Cl
ATOM     11  C   UNL d   1       3.123   4.348  -1.509  0.00  0.00     0.024 A 
ATOM     12  C   UNL d   1       2.338   4.789  -2.571  0.00  0.00     0.002 A 
ATOM     13  C   UNL d   1       1.193   4.080  -2.922  0.00  0.00     0.001 A 
ATOM     14  C   UNL d   1       0.827   2.936  -2.208  0.00  0.00     0.011 A 
ENDBRANCH   1   8
BRANCH   2  15
ATOM     15  C   UNL d   1      -1.059   2.225   0.504  0.00  0.00     0.088 C 
ATOM     16  C   UNL d   1      -0.690   2.338   2.002  0.00  0.00     0.025 C 
ATOM     17  C   UNL d   1      -1.471   1.378   2.888  0.00  0.00     0.002 C 
ATOM     18  C   UNL d   1      -2.965   1.625   2.758  0.00  0.00     0.000 C 
ATOM     19  C   UNL d   1      -3.425   1.469   1.315  0.00  0.00     0.002 C 
ATOM     20  C   UNL d   1      -2.595   2.307   0.330  0.00  0.00     0.025 C 
ENDBRANCH   2  15
BRANCH   3  21
ATOM     21  C   UNL d   1       1.984  -0.531  -2.140  0.00  0.00     0.146 C 
ATOM     22  O   UNL d   1       1.743  -1.678  -2.486  0.00  0.00    -0.650 OA
BRANCH  21  23
ATOM     23  O   UNL d   1       2.487   0.338  -3.039  0.00  0.00    -0.776 OA
ATOM     24  H   UNL d   1       2.874   1.160  -2.691  0.00  0.00     0.167 HD
ENDBRANCH  21  23
ENDBRANCH   3  21
TORSDOF 4
