REMARK  6 active torsions:
REMARK  status: ('A' for Active; 'I' for Inactive)
REMARK       I    between atoms: N_2  and  C_1 
REMARK    1  A    between atoms: C_3  and  C_1 
REMARK    2  A    between atoms: C_4  and  N_2 
REMARK       I    between atoms: N_6  and  C_3 
REMARK    3  A    between atoms: C_13  and  N_6 
REMARK    4  A    between atoms: C_12  and  C_13 
REMARK    5  A    between atoms: O_17  and  C_12 
REMARK    6  A    between atoms: O_18  and  C_12 
ROOT
ATOM      1  C   UNL d   1       1.147   0.117  -0.009  0.00  0.00     0.314 C 
ATOM      2  N   UNL d   1       0.549   1.256  -0.501  0.00  0.00    -0.317 N 
ATOM      3  O   UNL d   1       2.258  -0.325  -0.272  0.00  0.00    -0.262 OA
ATOM      4  H   UNL d   1      -0.243   1.606   0.035  0.00  0.00     0.169 HD
ENDROOT
BRANCH   1   5
ATOM      5  C   UNL d   1       0.301  -0.577   1.084  0.00  0.00     0.309 C 
ATOM      6  N   UNL d   1       1.018  -1.457   1.858  0.00  0.00    -0.348 N 
ATOM      7  H   UNL d   1       1.991  -1.617   1.604  0.00  0.00     0.163 HD
ATOM      8  O   UNL d   1      -0.878  -0.307   1.221  0.00  0.00    -0.262 OA
BRANCH   6   9
ATOM      9  C   UNL d   1       0.424  -2.210   2.939  0.00  0.00     0.183 C 
BRANCH   9  10
ATOM     10  C   UNL d   1      -0.581  -3.310   2.507  0.00  0.00     0.275 C 
BRANCH  10  11
ATOM     11  O   UNL d   1       0.124  -4.222   1.650  0.00  0.00    -0.364 OA
ATOM     12  C   UNL d   1      -0.747  -5.165   1.040  0.00  0.00     0.204 C 
ENDBRANCH  10  11
BRANCH  10  13
ATOM     13  O   UNL d   1      -1.063  -4.035   3.644  0.00  0.00    -0.364 OA
ATOM     14  C   UNL d   1      -1.901  -3.275   4.501  0.00  0.00     0.204 C 
ENDBRANCH  10  13
ENDBRANCH   9  10
ENDBRANCH   6   9
ENDBRANCH   1   5
BRANCH   2  15
ATOM     15  C   UNL d   1       1.109   2.104  -1.477  0.00  0.00     0.057 A 
ATOM     16  C   UNL d   1       0.845   3.483  -1.435  0.00  0.00     0.062 A 
ATOM     17  C   UNL d   1       1.393   4.343  -2.391  0.00  0.00     0.050 A 
ATOM     18 CL   UNL d   1      -0.101   4.169  -0.159  0.00  0.00    -0.082 Cl
ATOM     19  C   UNL d   1       2.172   3.818  -3.416  0.00  0.00     0.035 A 
ATOM     20  C   UNL d   1       2.424   2.449  -3.488  0.00  0.00     0.026 A 
ATOM     21 CL   UNL d   1       2.834   4.869  -4.607  0.00  0.00    -0.084 Cl
ATOM     22  C   UNL d   1       1.903   1.595  -2.510  0.00  0.00     0.033 A 
ENDBRANCH   2  15
TORSDOF 6
