REMARK  2 active torsions:
REMARK  status: ('A' for Active; 'I' for Inactive)
REMARK    1  A    between atoms: C_2  and  C_1 
REMARK       I    between atoms: N_5  and  C_2 
REMARK    2  A    between atoms: C_11  and  N_5 
ROOT
ATOM      1  C   UNL d   1       1.232  -1.584  -0.207  0.00  0.00     0.067 A 
ATOM      2  C   UNL d   1       2.038  -0.456  -0.286  0.00  0.00     0.090 A 
ATOM      3  C   UNL d   1       1.509   0.826  -0.156  0.00  0.00    -0.020 A 
ATOM      4  C   UNL d   1      -0.145  -1.377   0.007  0.00  0.00     0.039 A 
ATOM      5  O   UNL d   1       3.401  -0.446  -0.471  0.00  0.00    -0.349 OA
ATOM      6  C   UNL d   1       0.158   1.035   0.066  0.00  0.00     0.029 A 
ATOM      7  C   UNL d   1      -0.668  -0.084   0.144  0.00  0.00     0.012 A 
ATOM      8 BR   UNL d   1      -2.520   0.143   0.452  0.00  0.00    -0.051 Br
ATOM      9  C   UNL d   1       3.705   0.939  -0.777  0.00  0.00     0.180 C 
ATOM     10  C   UNL d   1       2.596   1.829  -0.222  0.00  0.00     0.068 C 
ENDROOT
BRANCH   1  11
ATOM     11  C   UNL d   1       1.708  -2.992  -0.338  0.00  0.00     0.259 C 
ATOM     12  N   UNL d   1       3.074  -3.202  -0.313  0.00  0.00    -0.323 N 
ATOM     13  H   UNL d   1       3.658  -2.377  -0.211  0.00  0.00     0.169 HD
ATOM     14  O   UNL d   1       0.850  -3.868  -0.428  0.00  0.00    -0.267 OA
BRANCH  12  15
ATOM     15  C   UNL d   1       3.739  -4.449  -0.343  0.00  0.00     0.035 A 
ATOM     16  C   UNL d   1       3.091  -5.672  -0.546  0.00  0.00     0.029 A 
ATOM     17  C   UNL d   1       3.804  -6.875  -0.520  0.00  0.00     0.002 A 
ATOM     18  C   UNL d   1       5.176  -6.869  -0.293  0.00  0.00     0.000 A 
ATOM     19  C   UNL d   1       5.838  -5.657  -0.107  0.00  0.00     0.002 A 
ATOM     20  C   UNL d   1       5.125  -4.454  -0.139  0.00  0.00     0.029 A 
ENDBRANCH  12  15
ENDBRANCH   1  11
TORSDOF 2
