REMARK  6 active torsions:
REMARK  status: ('A' for Active; 'I' for Inactive)
REMARK    1  A    between atoms: C_15  and  C_6 
REMARK    2  A    between atoms: C_14  and  C_7 
REMARK       I    between atoms: C_8  and  N_11 
REMARK    3  A    between atoms: C_12  and  C_8 
REMARK       I    between atoms: C_9  and  N_10 
REMARK    4  A    between atoms: C_13  and  C_9 
REMARK    5  A    between atoms: N_10  and  C_23 
REMARK    6  A    between atoms: N_11  and  C_22 
ROOT
ATOM      1  O   UNL d   1      -0.866  -0.025  -0.035  0.00  0.00    -0.273 OA
ATOM      2  N   UNL d   1       1.260   0.693  -0.014  0.00  0.00    -0.277 N 
ATOM      3  HN  UNL d   1       2.070   1.312  -0.030  1.00  0.00     0.189 HD
ATOM      4  N   UNL d   1       1.276  -0.674   0.100  0.00  0.00    -0.277 N 
ATOM      5  HN  UNL d   1       2.102  -1.268   0.176  1.00  0.00     0.189 HD
ATOM      6  C   UNL d   1       0.020  -1.071   0.092  0.00  0.00     0.174 A 
ATOM      7  C   UNL d   1      -0.008   1.050  -0.098  0.00  0.00     0.174 A 
ENDROOT
BRANCH   6   8
ATOM      8  C   UNL d   1      -0.495  -2.434   0.160  0.00  0.00     0.017 A 
ATOM      9  C   UNL d   1       0.419  -3.498   0.104  0.00  0.00     0.018 A 
ATOM     10  C   UNL d   1      -0.014  -4.827   0.125  0.00  0.00     0.030 A 
ATOM     11  C   UNL d   1      -1.376  -5.130   0.197  0.00  0.00     0.034 A 
ATOM     12  C   UNL d   1      -2.291  -4.079   0.291  0.00  0.00     0.030 A 
ATOM     13  C   UNL d   1      -1.855  -2.741   0.272  0.00  0.00     0.018 A 
BRANCH  11  14
ATOM     14  N   UNL d   1      -1.722  -6.495   0.137  0.00  0.00    -0.325 N 
ATOM     15  C   UNL d   1      -2.986  -7.057   0.043  0.00  0.00     0.255 C 
ATOM     16  O   UNL d   1      -4.038  -6.414   0.080  0.00  0.00    -0.270 OA
ATOM     17  H   UNL d   1      -0.946  -7.149   0.082  0.00  0.00     0.169 HD
BRANCH  15  18
ATOM     18  C   UNL d   1      -3.018  -8.582  -0.152  0.00  0.00     0.270 C 
ATOM     19 CL   UNL d   1      -1.389  -9.288  -0.333  0.00  0.00    -0.098 Cl
ATOM     20 CL   UNL d   1      -3.843  -9.333   1.228  0.00  0.00    -0.098 Cl
ENDBRANCH  15  18
ENDBRANCH  11  14
ENDBRANCH   6   8
BRANCH   7  21
ATOM     21  C   UNL d   1      -0.559   2.396  -0.199  0.00  0.00     0.017 A 
ATOM     22  C   UNL d   1       0.307   3.490  -0.053  0.00  0.00     0.018 A 
ATOM     23  C   UNL d   1      -0.169   4.804  -0.100  0.00  0.00     0.030 A 
ATOM     24  C   UNL d   1      -1.529   5.060  -0.292  0.00  0.00     0.034 A 
ATOM     25  C   UNL d   1      -2.393   3.979  -0.478  0.00  0.00     0.030 A 
ATOM     26  C   UNL d   1      -1.914   2.657  -0.431  0.00  0.00     0.018 A 
BRANCH  24  27
ATOM     27  N   UNL d   1      -1.930   6.410  -0.255  0.00  0.00    -0.325 N 
ATOM     28  C   UNL d   1      -3.218   6.923  -0.263  0.00  0.00     0.255 C 
ATOM     29  O   UNL d   1      -4.237   6.241  -0.380  0.00  0.00    -0.270 OA
ATOM     30  H   UNL d   1      -1.185   7.093  -0.130  0.00  0.00     0.169 HD
BRANCH  28  31
ATOM     31  C   UNL d   1      -3.324   8.446  -0.079  0.00  0.00     0.270 C 
ATOM     32 CL   UNL d   1      -1.745   9.215   0.239  0.00  0.00    -0.098 Cl
ATOM     33 CL   UNL d   1      -4.054   9.162  -1.530  0.00  0.00    -0.098 Cl
ENDBRANCH  28  31
ENDBRANCH  24  27
ENDBRANCH   7  21
TORSDOF 6
