REMARK  1 active torsions:
REMARK  status: ('A' for Active; 'I' for Inactive)
REMARK    1  A    between atoms: O_11  and  C_2 
ROOT
ATOM      1  C   UNL d   1       0.019  -0.798   0.008  0.00  0.00     0.028 A 
ATOM      2  C   UNL d   1       1.271  -1.460   0.013  0.00  0.00     0.096 A 
ATOM      3  N   UNL d   1       1.197   1.311  -0.053  0.00  0.00    -0.358 N 
ATOM      4  HN  UNL d   1       1.173   2.331  -0.079  1.00  0.00     0.166 HD
ATOM      5  C   UNL d   1       2.469  -0.733  -0.011  0.00  0.00     0.062 A 
ATOM      6  C   UNL d   1       0.055   0.612  -0.029  0.00  0.00     0.045 A 
ATOM      7  C   UNL d   1       2.389   0.657  -0.041  0.00  0.00     0.025 A 
ATOM      8  C   UNL d   1      -1.245  -1.441   0.043  0.00  0.00     0.058 A 
ATOM      9  C   UNL d   1      -1.139   1.324  -0.046  0.00  0.00     0.033 A 
ATOM     10  I   UNL d   1       4.322  -1.739  -0.026  0.00  0.00    -0.040 I 
ATOM     11  C   UNL d   1      -2.418  -0.696   0.019  0.00  0.00     0.117 A 
ATOM     12  C   UNL d   1      -2.378   0.685  -0.028  0.00  0.00     0.044 A 
ATOM     13  F   UNL d   1      -3.599  -1.326   0.040  0.00  0.00    -0.206 F 
ATOM     14  C   UNL d   1       3.592   1.554  -0.081  0.00  0.00     0.069 C 
ENDROOT
BRANCH   2  15
ATOM     15  O   UNL d   1       1.353  -2.832   0.041  0.00  0.00    -0.358 OA
ATOM     16  H   UNL d   1       0.498  -3.234  -0.170  0.00  0.00     0.217 HD
ENDBRANCH   2  15
TORSDOF 1
