REMARK  2 active torsions:
REMARK  status: ('A' for Active; 'I' for Inactive)
REMARK    1  A    between atoms: S_9  and  C_1 
REMARK    2  A    between atoms: C_10  and  N_4 
ROOT
ATOM      1  C   UNL d   1       2.337   0.005   0.072  0.00  0.00     0.145 A 
ATOM      2  N   UNL d   1       1.631  -1.099   0.083  0.00  0.00    -0.335 N 
ATOM      3  HN  UNL d   1       1.980  -2.057   0.119  1.00  0.00     0.168 HD
ATOM      4  N   UNL d   1       1.554   1.135   0.003  0.00  0.00    -0.322 N 
ATOM      5  C   UNL d   1       0.328  -0.690   0.036  0.00  0.00     0.062 A 
ATOM      6  C   UNL d   1       0.235   0.704  -0.005  0.00  0.00     0.063 A 
ATOM      7  C   UNL d   1      -0.834  -1.475   0.028  0.00  0.00     0.055 A 
ATOM      8  C   UNL d   1      -1.004   1.358  -0.048  0.00  0.00     0.034 A 
ATOM      9  C   UNL d   1      -2.069  -0.830  -0.016  0.00  0.00     0.036 A 
ATOM     10  C   UNL d   1      -2.157   0.562  -0.050  0.00  0.00     0.026 A 
ATOM     11 CL   UNL d   1      -3.513  -1.770  -0.024  0.00  0.00    -0.084 Cl
ENDROOT
BRANCH   4  12
ATOM     12  C   UNL d   1       2.022   2.518  -0.072  0.00  0.00     0.084 C 
ATOM     13  C   UNL d   1       1.650   3.191  -1.394  0.00  0.00     0.032 C 
ATOM     14  C   UNL d   1       1.598   3.355   1.136  0.00  0.00     0.032 C 
ENDBRANCH   4  12
BRANCH   1  15
ATOM     15  S   UNL d   1       4.066  -0.000   0.138  0.00  0.00    -0.107 SA
ATOM     16  H   UNL d   1       4.200  -1.334   0.132  0.00  0.00     0.110 HD
ENDBRANCH   1  15
TORSDOF 2
