REMARK  6 active torsions:
REMARK  status: ('A' for Active; 'I' for Inactive)
REMARK    1  A    between atoms: C_9  and  C_1 
REMARK    2  A    between atoms: N_7  and  C_2 
REMARK    3  A    between atoms: S_3  and  N_7 
REMARK    4  A    between atoms: C_10  and  S_3 
REMARK    5  A    between atoms: C_13  and  C_5 
REMARK    6  A    between atoms: C_8  and  C_14 
REMARK       I    between atoms: N_25  and  C_9 
ROOT
ATOM      1  C   UNL d   1      -0.004   1.268   0.032  0.00  0.00     0.100 A 
ATOM      2  C   UNL d   1       1.322   0.869  -0.002  0.00  0.00     0.066 A 
ATOM      3  S   UNL d   1      -1.066  -0.075   0.080  0.00  0.00    -0.082 SA
ATOM      4  C   UNL d   1       0.205  -1.210   0.064  0.00  0.00     0.018 A 
ATOM      5  C   UNL d   1       1.430  -0.562   0.036  0.00  0.00     0.051 A 
ENDROOT
BRANCH   2   6
ATOM      6  N   UNL d   1       2.439   1.726  -0.001  0.00  0.00    -0.279 N 
ATOM      7  H   UNL d   1       3.053   1.685   0.815  0.00  0.00     0.179 HD
BRANCH   6   8
ATOM      8  S   UNL d   1       3.426   1.942  -1.365  0.00  0.00     0.263 S 
ATOM      9  O   UNL d   1       4.592   2.668  -0.911  0.00  0.00    -0.200 OA
ATOM     10  O   UNL d   1       3.564   0.668  -2.042  0.00  0.00    -0.200 OA
BRANCH   8  11
ATOM     11  C   UNL d   1       2.495   3.044  -2.402  0.00  0.00     0.079 A 
ATOM     12  C   UNL d   1       2.037   4.261  -1.892  0.00  0.00     0.026 A 
ATOM     13  C   UNL d   1       1.324   5.132  -2.720  0.00  0.00     0.018 A 
ATOM     14  C   UNL d   1       1.050   4.786  -4.059  0.00  0.00     0.048 A 
ATOM     15  C   UNL d   1       1.535   3.569  -4.559  0.00  0.00     0.018 A 
ATOM     16  C   UNL d   1       2.256   2.699  -3.735  0.00  0.00     0.026 A 
BRANCH  14  17
ATOM     17  C   UNL d   1       0.233   5.700  -4.942  0.00  0.00     0.417 C 
ATOM     18  F   UNL d   1      -0.216   6.820  -4.309  0.00  0.00    -0.166 F 
ATOM     19  F   UNL d   1       0.926   6.137  -6.029  0.00  0.00    -0.166 F 
ATOM     20  F   UNL d   1      -0.878   5.082  -5.432  0.00  0.00    -0.166 F 
ENDBRANCH  14  17
ENDBRANCH   8  11
ENDBRANCH   6   8
ENDBRANCH   2   6
BRANCH   1  21
ATOM     21  C   UNL d   1      -0.584   2.597   0.083  0.00  0.00     0.258 C 
ATOM     22  O   UNL d   1      -0.024   3.600   0.519  0.00  0.00    -0.267 OA
ATOM     23  N   UNL d   1      -1.867   2.698  -0.395  0.00  0.00    -0.365 N 
ATOM     24  H   UNL d   1      -2.383   1.886  -0.693  0.00  0.00     0.159 HD
ATOM     25  H   UNL d   1      -2.347   3.580  -0.300  0.00  0.00     0.159 HD
ENDBRANCH   1  21
BRANCH   4  26
ATOM     26  C   UNL d   1      -0.107  -2.649   0.056  0.00  0.00    -0.019 A 
ATOM     27  C   UNL d   1       0.737  -3.543  -0.621  0.00  0.00     0.016 A 
ATOM     28  C   UNL d   1       0.464  -4.913  -0.629  0.00  0.00     0.043 A 
ATOM     29  C   UNL d   1      -0.657  -5.398   0.033  0.00  0.00     0.116 A 
ATOM     30  C   UNL d   1      -1.521  -4.538   0.694  0.00  0.00     0.043 A 
ATOM     31  F   UNL d   1      -0.907  -6.713   0.034  0.00  0.00    -0.206 F 
ATOM     32  C   UNL d   1      -1.247  -3.168   0.705  0.00  0.00     0.016 A 
ENDBRANCH   4  26
TORSDOF 6
