REMARK  2 active torsions:
REMARK  status: ('A' for Active; 'I' for Inactive)
REMARK    1  A    between atoms: C_2  and  C_1 
REMARK    2  A    between atoms: C_4  and  N_3 
ROOT
ATOM      1  C   UNL d   1      -1.544  -2.500   0.083  0.00  0.00     0.135 A 
ATOM      2  N   UNL d   1      -2.386  -4.343   0.635  0.00  0.00    -0.232 N 
ATOM      3  N   UNL d   1      -1.555  -3.372   1.099  0.00  0.00    -0.275 N 
ATOM      4  HN  UNL d   1      -1.066  -3.320   1.993  1.00  0.00     0.189 HD
ATOM      5  N   UNL d   1      -2.345  -2.832  -0.975  0.00  0.00    -0.335 N 
ATOM      6  HN  UNL d   1      -2.506  -2.312  -1.838  1.00  0.00     0.168 HD
ATOM      7  C   UNL d   1      -2.855  -3.982  -0.605  0.00  0.00     0.210 A 
ENDROOT
BRANCH   1   8
ATOM      8  C   UNL d   1      -0.715  -1.302   0.048  0.00  0.00     0.050 A 
ATOM      9  C   UNL d   1      -0.630  -0.353  -1.003  0.00  0.00     0.037 A 
ATOM     10  N   UNL d   1       0.262   0.610  -0.720  0.00  0.00    -0.303 N 
ATOM     11  C   UNL d   1      -1.363  -0.324  -2.294  0.00  0.00     0.070 C 
ATOM     12  N   UNL d   1       0.738   0.271   0.490  0.00  0.00    -0.307 N 
ATOM     13  HN  UNL d   1       0.519   1.415  -1.292  1.00  0.00     0.186 HD
ATOM     14  C   UNL d   1       0.174  -0.858   1.002  0.00  0.00     0.127 A 
ATOM     15  C   UNL d   1       1.763   1.082   1.098  0.00  0.00     0.177 C 
ENDBRANCH   1   8
BRANCH   2  16
ATOM     16  C   UNL d   1      -2.683  -5.531   1.345  0.00  0.00     0.150 A 
ATOM     17  N   UNL d   1      -3.465  -6.460   0.785  0.00  0.00    -0.243 N 
ATOM     18  O   UNL d   1      -3.540  -7.475   1.730  0.00  0.00    -0.241 OA
ATOM     19  HN  UNL d   1      -3.908  -6.430  -0.133  1.00  0.00     0.196 HD
ATOM     20  C   UNL d   1      -2.814  -7.126   2.830  0.00  0.00     0.076 A 
ATOM     21  C   UNL d   1      -2.238  -5.894   2.628  0.00  0.00     0.086 A 
ATOM     22  C   UNL d   1      -2.809  -8.095   3.940  0.00  0.00     0.079 C 
ENDBRANCH   2  16
TORSDOF 2
