REMARK  3 active torsions:
REMARK  status: ('A' for Active; 'I' for Inactive)
REMARK    1  A    between atoms: N_2  and  C_1 
REMARK    2  A    between atoms: N_5  and  C_3 
REMARK    3  A    between atoms: C_12  and  N_5 
ROOT
ATOM      1  C   UNL d   1       1.613   1.232  -0.203  0.00  0.00     0.130 A 
ATOM      2  C   UNL d   1       2.434   0.095  -0.032  0.00  0.00     0.061 A 
ATOM      3  C   UNL d   1       0.208   1.168  -0.222  0.00  0.00     0.062 A 
ATOM      4  C   UNL d   1       1.752  -1.128   0.106  0.00  0.00     0.033 A 
ATOM      5  C   UNL d   1      -0.410  -0.065  -0.085  0.00  0.00     0.036 A 
ATOM      6  C   UNL d   1       0.355  -1.214   0.067  0.00  0.00     0.026 A 
ATOM      7 CL   UNL d   1      -2.125  -0.177  -0.097  0.00  0.00    -0.084 Cl
ENDROOT
BRANCH   2   8
ATOM      8  N   UNL d   1       3.815   0.165   0.091  0.00  0.00    -0.384 N 
ATOM      9  H   UNL d   1       4.291   1.004  -0.241  0.00  0.00     0.160 HD
BRANCH   8  10
ATOM     10  C   UNL d   1       4.638  -0.861   0.729  0.00  0.00     0.073 C 
ATOM     11  C   UNL d   1       5.093  -1.914  -0.279  0.00  0.00     0.031 C 
ATOM     12  C   UNL d   1       5.856  -0.202   1.377  0.00  0.00     0.031 C 
ENDBRANCH   8  10
ENDBRANCH   2   8
BRANCH   1  13
ATOM     13  N   UNL d   1       2.206   2.551  -0.344  0.00  0.00    -0.113 N 
ATOM     14  O   UNL d   1       3.051   2.708  -1.230  0.00  0.00    -0.532 OA
ATOM     15  O   UNL d   1       1.796   3.437   0.425  0.00  0.00    -0.532 OA
ENDBRANCH   1  13
TORSDOF 3
