REMARK  4 active torsions:
REMARK  status: ('A' for Active; 'I' for Inactive)
REMARK    1  A    between atoms: C_6  and  C_1 
REMARK    2  A    between atoms: C_7  and  C_2 
REMARK    3  A    between atoms: C_10  and  N_3 
REMARK       I    between atoms: N_9  and  C_7 
REMARK    4  A    between atoms: C_11  and  N_9 
ROOT
ATOM      1  C   UNL d   1       1.037  -0.535   0.390  0.00  0.00     0.157 A 
ATOM      2  C   UNL d   1      -0.199  -1.135   0.117  0.00  0.00     0.082 A 
ATOM      3  N   UNL d   1       0.904   0.816   0.068  0.00  0.00    -0.251 N 
ATOM      4  N   UNL d   1      -0.353   1.091  -0.363  0.00  0.00    -0.303 N 
ATOM      5  HN  UNL d   1      -0.712   1.988  -0.688  1.00  0.00     0.186 HD
ATOM      6  C   UNL d   1      -1.014  -0.053  -0.274  0.00  0.00     0.127 A 
ENDROOT
BRANCH   2   7
ATOM      7  C   UNL d   1      -0.697  -2.513   0.139  0.00  0.00     0.255 C 
ATOM      8  N   UNL d   1       0.218  -3.520   0.346  0.00  0.00    -0.352 N 
ATOM      9  H   UNL d   1       1.195  -3.297   0.481  0.00  0.00     0.163 HD
ATOM     10  O   UNL d   1      -1.883  -2.746  -0.073  0.00  0.00    -0.268 OA
BRANCH   8  11
ATOM     11  C   UNL d   1      -0.104  -4.909   0.251  0.00  0.00     0.084 A 
ATOM     12  C   UNL d   1      -0.036  -5.798   1.460  0.00  0.00     0.027 A 
ATOM     13  C   UNL d   1       0.996  -5.935   0.380  0.00  0.00     0.027 A 
ENDBRANCH   8  11
ENDBRANCH   2   7
BRANCH   1  14
ATOM     14  C   UNL d   1       2.322  -1.085   0.845  0.00  0.00     0.435 C 
ATOM     15  F   UNL d   1       2.367  -2.440   0.791  0.00  0.00    -0.165 F 
ATOM     16  F   UNL d   1       3.365  -0.662   0.097  0.00  0.00    -0.165 F 
ATOM     17  F   UNL d   1       2.578  -0.765   2.137  0.00  0.00    -0.165 F 
ENDBRANCH   1  14
BRANCH   3  18
ATOM     18  C   UNL d   1       1.829   1.911   0.098  0.00  0.00     0.057 A 
ATOM     19  C   UNL d   1       1.623   2.977  -0.802  0.00  0.00     0.033 A 
ATOM     20  C   UNL d   1       2.472   4.089  -0.809  0.00  0.00     0.026 A 
ATOM     21  C   UNL d   1       3.523   4.157   0.098  0.00  0.00     0.034 A 
ATOM     22  C   UNL d   1       3.737   3.117   0.998  0.00  0.00     0.026 A 
ATOM     23 CL   UNL d   1       4.543   5.541   0.129  0.00  0.00    -0.084 Cl
ATOM     24  C   UNL d   1       2.895   1.996   0.999  0.00  0.00     0.033 A 
ENDBRANCH   3  18
TORSDOF 4
