REMARK  4 active torsions:
REMARK  status: ('A' for Active; 'I' for Inactive)
REMARK    1  A    between atoms: N_8  and  C_3 
REMARK    2  A    between atoms: O_10  and  C_4 
REMARK    3  A    between atoms: O_13  and  C_5 
REMARK       I    between atoms: C_11  and  N_8 
REMARK    4  A    between atoms: C_14  and  O_10 
ROOT
ATOM      1  N   UNL d   1      -0.601   1.268  -0.087  0.00  0.00    -0.167 N 
ATOM      2  HN  UNL d   1      -1.015   2.197  -0.166  1.00  0.00     0.186 HD
ATOM      3  C   UNL d   1      -1.344   0.174   0.058  0.00  0.00     0.687 A 
ATOM      4  C   UNL d   1       1.358  -0.155  -0.022  0.00  0.00     0.149 A 
ATOM      5  C   UNL d   1       0.723   1.074  -0.121  0.00  0.00     0.191 A 
ATOM      6  N   UNL d   1      -0.846  -1.063   0.180  0.00  0.00    -0.193 N 
ATOM      7  HN  UNL d   1      -1.465  -1.870   0.260  1.00  0.00     0.184 HD
ATOM      8  C   UNL d   1       0.504  -1.219   0.197  0.00  0.00     0.061 A 
ATOM      9  C   UNL d   1       0.935  -2.625   0.486  0.00  0.00     0.072 C 
ENDROOT
BRANCH   4  10
ATOM     10  O   UNL d   1       2.728  -0.121  -0.045  0.00  0.00    -0.304 OA
BRANCH  10  11
ATOM     11  C   UNL d   1       3.452  -1.148  -0.596  0.00  0.00     0.076 C 
ATOM     12  C   UNL d   1       3.035  -1.922  -1.678  0.00  0.00     0.039 C 
ATOM     13  C   UNL d   1       3.776  -3.046  -2.051  0.00  0.00     0.026 C 
ATOM     14  C   UNL d   1       4.974  -3.337  -1.398  0.00  0.00     0.034 C 
ATOM     15  C   UNL d   1       5.458  -2.489  -0.405  0.00  0.00     0.026 C 
ATOM     16 CL   UNL d   1       5.847  -4.760  -1.807  0.00  0.00    -0.084 Cl
ATOM     17  C   UNL d   1       4.696  -1.390  -0.004  0.00  0.00     0.039 C 
ENDBRANCH  10  11
ENDBRANCH   4  10
BRANCH   5  18
ATOM     18  O   UNL d   1       1.456   2.228  -0.249  0.00  0.00    -0.344 OA
ATOM     19  H   UNL d   1       2.390   1.975  -0.172  0.00  0.00     0.219 HD
ENDBRANCH   5  18
BRANCH   3  20
ATOM     20  N   UNL d   1      -2.727   0.220   0.091  0.00  0.00    -0.160 N 
ATOM     21  C   UNL d   1      -3.496   1.343   0.243  0.00  0.00     0.231 C 
ATOM     22  O   UNL d   1      -3.105   2.487   0.436  0.00  0.00    -0.273 OA
ATOM     23  C   UNL d   1      -4.975   1.045   0.207  0.00  0.00     0.118 C 
ATOM     24  H   UNL d   1      -3.146  -0.698   0.112  0.00  0.00     0.187 HD
ENDBRANCH   3  20
TORSDOF 4
