REMARK  4 active torsions:
REMARK  status: ('A' for Active; 'I' for Inactive)
REMARK    1  A    between atoms: C_3  and  C_1 
REMARK    2  A    between atoms: C_4  and  C_1 
REMARK    3  A    between atoms: C_10  and  C_3 
REMARK    4  A    between atoms: N_5  and  C_4 
ROOT
ATOM      1  C   UNL d   1       0.928   0.069   0.001  0.00  0.00     0.096 C 
ATOM      2  C   UNL d   1       0.225   1.218   0.093  0.00  0.00     0.060 C 
ATOM      3  S   UNL d   1      -1.517   1.277   0.222  0.00  0.00    -0.121 SA
ATOM      4  S   UNL d   1       1.024   2.779   0.168  0.00  0.00    -0.121 SA
ATOM      5  C   UNL d   1      -1.220   3.610  -1.278  0.00  0.00     0.021 C 
ATOM      6  C   UNL d   1       0.304   3.544  -1.320  0.00  0.00     0.081 C 
ATOM      7  C   UNL d   1      -1.890   2.240  -1.273  0.00  0.00     0.081 C 
ENDROOT
BRANCH   1   8
ATOM      8  C   UNL d   1       0.301  -1.288  -0.222  0.00  0.00     0.178 C 
ATOM      9  O   UNL d   1      -0.652  -1.375  -1.002  0.00  0.00    -0.291 OA
BRANCH   8  10
ATOM     10  C   UNL d   1       0.928  -2.578   0.388  0.00  0.00     0.015 C 
ATOM     11  C   UNL d   1       1.385  -2.402   1.842  0.00  0.00     0.023 C 
ATOM     12  C   UNL d   1      -0.147  -3.692   0.382  0.00  0.00     0.023 C 
ATOM     13  C   UNL d   1       2.086  -3.073  -0.496  0.00  0.00     0.023 C 
ENDBRANCH   8  10
ENDBRANCH   1   8
BRANCH   1  14
ATOM     14  C   UNL d   1       2.448   0.069   0.001  0.00  0.00    -0.031 C 
BRANCH  14  15
ATOM     15  N   UNL d   1       3.709   0.069   0.001  0.00  0.00    -0.365 N 
ATOM     16  HN2 UNL d   1       2.689   0.069   0.001  1.00  0.00     0.165 HD
ATOM     17  HN1 UNL d   1       4.729   0.069   0.001  1.00  0.00     0.165 HD
ENDBRANCH  14  15
ENDBRANCH   1  14
TORSDOF 4
