REMARK  3 active torsions:
REMARK  status: ('A' for Active; 'I' for Inactive)
REMARK    1  A    between atoms: N_2  and  S_1 
REMARK    2  A    between atoms: C_4  and  S_1 
REMARK    3  A    between atoms: C_10  and  C_6 
ROOT
ATOM      1  N   UNL d   1       0.539   1.481   0.340  0.00  0.00    -0.175 N 
ATOM      2  C   UNL d   1      -0.708   1.827   0.848  0.00  0.00     0.103 A 
ATOM      3  C   UNL d   1      -1.776   0.962   1.245  0.00  0.00     0.105 A 
ATOM      4  C   UNL d   1      -2.835  -0.841   1.968  0.00  0.00     0.089 A 
ATOM      5  O   UNL d   1      -1.600  -0.297   1.746  0.00  0.00    -0.307 OA
ATOM      6  N   UNL d   1       1.307   2.591   0.075  0.00  0.00    -0.295 N 
ATOM      7  HN  UNL d   1       2.269   2.620  -0.263  1.00  0.00     0.187 HD
ATOM      8  C   UNL d   1      -3.133   1.241   1.223  0.00  0.00     0.042 A 
ATOM      9  C   UNL d   1      -3.809   0.091   1.690  0.00  0.00     0.041 A 
ATOM     10  C   UNL d   1      -0.733   3.211   0.854  0.00  0.00     0.054 A 
ATOM     11  C   UNL d   1       0.511   3.619   0.360  0.00  0.00     0.111 A 
ENDROOT
BRANCH   1  12
ATOM     12  S   UNL d   1       1.083  -0.135   0.023  0.00  0.00     0.285 S 
ATOM     13  O   UNL d   1       2.187   0.010  -0.924  0.00  0.00    -0.198 OA
ATOM     14  O   UNL d   1      -0.070  -0.932  -0.343  0.00  0.00    -0.198 OA
BRANCH  12  15
ATOM     15  C   UNL d   1       1.795  -0.826   1.478  0.00  0.00     0.120 A 
ATOM     16  C   UNL d   1       1.914  -0.131   2.672  0.00  0.00     0.142 A 
ATOM     17  C   UNL d   1       2.440  -0.758   3.802  0.00  0.00     0.086 A 
ATOM     18  F   UNL d   1       1.527   1.144   2.787  0.00  0.00    -0.204 F 
ATOM     19  C   UNL d   1       2.860  -2.081   3.719  0.00  0.00     0.119 A 
ATOM     20  C   UNL d   1       2.777  -2.784   2.522  0.00  0.00     0.044 A 
ATOM     21  F   UNL d   1       3.346  -2.691   4.807  0.00  0.00    -0.206 F 
ATOM     22  C   UNL d   1       2.248  -2.154   1.395  0.00  0.00     0.031 A 
ENDBRANCH  12  15
ENDBRANCH   1  12
BRANCH   4  23
ATOM     23  C   UNL d   1      -2.859  -2.227   2.403  0.00  0.00     0.036 A 
ATOM     24  C   UNL d   1      -3.879  -2.714   3.234  0.00  0.00     0.132 A 
ATOM     25  C   UNL d   1      -3.929  -4.053   3.611  0.00  0.00     0.085 A 
ATOM     26  F   UNL d   1      -4.837  -1.893   3.689  0.00  0.00    -0.205 F 
ATOM     27  C   UNL d   1      -2.955  -4.922   3.142  0.00  0.00     0.119 A 
ATOM     28  C   UNL d   1      -1.934  -4.474   2.312  0.00  0.00     0.043 A 
ATOM     29  F   UNL d   1      -3.002  -6.215   3.486  0.00  0.00    -0.206 F 
ATOM     30  C   UNL d   1      -1.885  -3.128   1.946  0.00  0.00     0.020 A 
ENDBRANCH   4  23
TORSDOF 3
