REMARK  6 active torsions:
REMARK  status: ('A' for Active; 'I' for Inactive)
REMARK    1  A    between atoms: C_3  and  C_1 
REMARK    2  A    between atoms: C_12  and  C_2 
REMARK       I    between atoms: C_9  and  N_6 
REMARK    3  A    between atoms: C_17  and  C_8 
REMARK       I    between atoms: N_14  and  C_9 
REMARK    4  A    between atoms: O_19  and  C_12 
REMARK    5  A    between atoms: C_20  and  N_14 
REMARK    6  A    between atoms: C_23  and  O_19 
ROOT
ATOM      1  C   UNL d   1       0.113   1.250   0.004  0.00  0.00     0.069 A 
ATOM      2  C   UNL d   1       1.407   0.750  -0.041  0.00  0.00     0.129 A 
ATOM      3  N   UNL d   1       1.485  -0.654   0.002  0.00  0.00    -0.344 N 
ATOM      4  HN  UNL d   1       2.356  -1.183  -0.040  1.00  0.00     0.167 HD
ATOM      5  S   UNL d   1      -0.980  -0.065   0.251  0.00  0.00    -0.067 SA
ATOM      6  C   UNL d   1       0.291  -1.199   0.103  0.00  0.00     0.085 A 
ENDROOT
BRANCH   1   7
ATOM      7  C   UNL d   1      -0.394   2.598   0.020  0.00  0.00     0.082 C 
ATOM      8  N   UNL d   1      -1.582   3.003  -0.581  0.00  0.00    -0.205 N 
ATOM      9  C   UNL d   1      -2.360   2.328  -1.551  0.00  0.00     0.342 C 
ATOM     10  N   UNL d   1      -2.022   4.201  -0.067  0.00  0.00    -0.301 N 
ATOM     11  N   UNL d   1      -3.698   2.582  -1.364  0.00  0.00    -0.337 N 
ATOM     12  O   UNL d   1      -1.835   1.564  -2.351  0.00  0.00    -0.245 OA
ATOM     13  H   UNL d   1      -3.918   3.316  -0.689  0.00  0.00     0.164 HD
ATOM     14  C   UNL d   1      -0.965   4.654   0.612  0.00  0.00     0.110 C 
ATOM     15  HN  UNL d   1      -2.937   4.638  -0.177  1.00  0.00     0.186 HD
ATOM     16  C   UNL d   1       0.071   3.707   0.698  0.00  0.00     0.052 C 
BRANCH  11  17
ATOM     17  C   UNL d   1      -4.778   1.942  -2.095  0.00  0.00     0.078 C 
ATOM     18  C   UNL d   1      -5.008   2.628  -3.435  0.00  0.00     0.032 C 
ATOM     19  C   UNL d   1      -4.590   0.432  -2.267  0.00  0.00     0.032 C 
ENDBRANCH  11  17
ENDBRANCH   1   7
BRANCH   2  20
ATOM     20  C   UNL d   1       2.635   1.538  -0.154  0.00  0.00     0.311 C 
ATOM     21  O   UNL d   1       2.689   2.683  -0.593  0.00  0.00    -0.258 OA
BRANCH  20  22
ATOM     22  O   UNL d   1       3.716   0.832   0.293  0.00  0.00    -0.317 OA
BRANCH  22  23
ATOM     23  C   UNL d   1       5.005   1.407   0.053  0.00  0.00     0.175 C 
ATOM     24  C   UNL d   1       5.556   0.804  -1.225  0.00  0.00     0.034 C 
ENDBRANCH  22  23
ENDBRANCH  20  22
ENDBRANCH   2  20
BRANCH   6  25
ATOM     25  C   UNL d   1       0.030  -2.650   0.080  0.00  0.00    -0.002 A 
ATOM     26  C   UNL d   1       1.003  -3.509  -0.457  0.00  0.00     0.014 A 
ATOM     27  C   UNL d   1       0.792  -4.890  -0.516  0.00  0.00     0.001 A 
ATOM     28  C   UNL d   1      -0.395  -5.435  -0.035  0.00  0.00     0.000 A 
ATOM     29  C   UNL d   1      -1.370  -4.603   0.508  0.00  0.00     0.001 A 
ATOM     30  C   UNL d   1      -1.159  -3.222   0.564  0.00  0.00     0.014 A 
ENDBRANCH   6  25
TORSDOF 6
