REMARK  5 active torsions:
REMARK  status: ('A' for Active; 'I' for Inactive)
REMARK    1  A    between atoms: N_3  and  S_1 
REMARK    2  A    between atoms: C_5  and  S_1 
REMARK    3  A    between atoms: C_8  and  N_3 
REMARK    4  A    between atoms: C_6  and  O_16 
REMARK    5  A    between atoms: O_16  and  C_21 
ROOT
ATOM      1  C   UNL d   1      -1.363   4.630   4.236  0.00  0.00     0.099 A 
ATOM      2  C   UNL d   1      -1.197   5.352   5.434  0.00  0.00     0.088 A 
ATOM      3  N   UNL d   1      -2.069   6.683   8.621  0.00  0.00    -0.191 NA
ATOM      4  C   UNL d   1      -2.123   6.117   7.611  0.00  0.00     0.101 C 
ATOM      5  C   UNL d   1      -2.241   5.400   6.370  0.00  0.00     0.069 A 
ATOM      6 CL   UNL d   1       0.296   6.185   5.730  0.00  0.00    -0.080 Cl
ATOM      7  C   UNL d   1      -2.596   4.024   3.958  0.00  0.00     0.039 A 
ATOM      8  C   UNL d   1      -3.448   4.737   6.099  0.00  0.00     0.024 A 
ATOM      9  C   UNL d   1      -3.625   4.058   4.892  0.00  0.00     0.004 A 
ENDROOT
BRANCH   1  10
ATOM     10  O   UNL d   1      -0.323   4.616   3.330  0.00  0.00    -0.309 OA
BRANCH  10  11
ATOM     11  C   UNL d   1      -0.092   3.492   2.567  0.00  0.00     0.076 A 
ATOM     12  C   UNL d   1       0.404   3.720   1.279  0.00  0.00     0.039 A 
ATOM     13  C   UNL d   1       0.730   2.646   0.445  0.00  0.00     0.027 A 
ATOM     14  C   UNL d   1       0.560   1.339   0.910  0.00  0.00     0.074 A 
ATOM     15  C   UNL d   1       0.070   1.102   2.199  0.00  0.00     0.027 A 
ATOM     16  C   UNL d   1      -0.240   2.181   3.032  0.00  0.00     0.039 A 
BRANCH  14  17
ATOM     17  S   UNL d   1       1.107  -0.021  -0.092  0.00  0.00     0.241 S 
ATOM     18  O   UNL d   1       2.418   0.318  -0.595  0.00  0.00    -0.206 OA
ATOM     19  O   UNL d   1       0.849  -1.257   0.613  0.00  0.00    -0.206 OA
BRANCH  17  20
ATOM     20  N   UNL d   1       0.075   0.030  -1.436  0.00  0.00    -0.210 NA
ATOM     21  H   UNL d   1       0.655  -0.005  -2.280  0.00  0.00     0.140 HD
BRANCH  20  22
ATOM     22  C   UNL d   1      -1.135  -0.816  -1.429  0.00  0.00     0.086 C 
ATOM     23  C   UNL d   1      -1.861  -0.711  -2.767  0.00  0.00     0.160 C 
ATOM     24  S   UNL d   1      -3.467  -1.397  -2.425  0.00  0.00     0.146 S 
ATOM     25  O   UNL d   1      -3.400  -2.829  -2.633  0.00  0.00    -0.228 OA
ATOM     26  O   UNL d   1      -4.473  -0.569  -3.051  0.00  0.00    -0.228 OA
ATOM     27  C   UNL d   1      -3.456  -1.083  -0.670  0.00  0.00     0.142 C 
ATOM     28  C   UNL d   1      -2.153  -0.346  -0.387  0.00  0.00     0.036 C 
ENDBRANCH  20  22
ENDBRANCH  17  20
ENDBRANCH  14  17
ENDBRANCH  10  11
ENDBRANCH   1  10
TORSDOF 5
