REMARK  4 active torsions:
REMARK  status: ('A' for Active; 'I' for Inactive)
REMARK    1  A    between atoms: C_10  and  N_1 
REMARK    2  A    between atoms: C_9  and  C_4 
REMARK    3  A    between atoms: C_7  and  C_13 
REMARK    4  A    between atoms: O_21  and  C_9 
ROOT
ATOM      1  N   UNL d   1      -1.855  -4.140   4.061  0.00  0.00    -0.355 N 
ATOM      2  HN  UNL d   1      -1.759  -3.236   4.523  1.00  0.00     0.166 HD
ATOM      3  C   UNL d   1      -2.062  -6.608   2.825  0.00  0.00     0.052 A 
ATOM      4  C   UNL d   1      -2.362  -5.186   4.734  0.00  0.00     0.044 A 
ATOM      5  C   UNL d   1      -2.481  -6.472   4.173  0.00  0.00     0.008 A 
ATOM      6  C   UNL d   1      -1.470  -4.282   2.772  0.00  0.00     0.044 A 
ATOM      7  C   UNL d   1      -1.567  -5.503   2.125  0.00  0.00     0.049 A 
ATOM      8  C   UNL d   1      -3.000  -7.511   4.986  0.00  0.00     0.015 A 
ATOM      9  C   UNL d   1      -2.793  -4.970   6.038  0.00  0.00     0.037 A 
ATOM     10  C   UNL d   1      -3.419  -7.273   6.296  0.00  0.00     0.007 A 
ATOM     11  C   UNL d   1      -3.333  -5.991   6.830  0.00  0.00    -0.060 A 
ATOM     12  C   UNL d   1      -3.789  -5.728   8.235  0.00  0.00     0.048 C 
ENDROOT
BRANCH   6  13
ATOM     13  C   UNL d   1      -0.971  -3.055   2.114  0.00  0.00    -0.009 A 
ATOM     14  C   UNL d   1      -0.317  -2.052   2.860  0.00  0.00     0.016 A 
ATOM     15  C   UNL d   1       0.130  -0.866   2.264  0.00  0.00     0.037 A 
ATOM     16  C   UNL d   1      -0.075  -0.665   0.896  0.00  0.00     0.102 A 
ATOM     17  C   UNL d   1      -0.705  -1.646   0.126  0.00  0.00     0.037 A 
ATOM     18  C   UNL d   1      -1.149  -2.825   0.735  0.00  0.00     0.016 A 
BRANCH  16  19
ATOM     19  N   UNL d   1       0.352   0.590   0.266  0.00  0.00    -0.116 N 
ATOM     20  O   UNL d   1       0.119   0.735  -0.943  0.00  0.00    -0.532 OA
ATOM     21  O   UNL d   1       0.916   1.430   0.979  0.00  0.00    -0.532 OA
ENDBRANCH  16  19
ENDBRANCH   6  13
BRANCH   3  22
ATOM     22  C   UNL d   1      -2.224  -7.892   2.087  0.00  0.00     0.177 C 
ATOM     23  O   UNL d   1      -3.160  -8.650   2.239  0.00  0.00    -0.646 OA
BRANCH  22  24
ATOM     24  O   UNL d   1      -1.234  -8.140   1.194  0.00  0.00    -0.773 OA
ATOM     25  H   UNL d   1      -0.449  -7.566   1.243  0.00  0.00     0.167 HD
ENDBRANCH  22  24
ENDBRANCH   3  22
TORSDOF 4
