REMARK  4 active torsions:
REMARK  status: ('A' for Active; 'I' for Inactive)
REMARK    1  A    between atoms: C_2  and  N_1 
REMARK       I    between atoms: C_3  and  N_1 
REMARK       I    between atoms: N_11  and  C_3 
REMARK    2  A    between atoms: C_13  and  N_11 
REMARK    3  A    between atoms: C_14  and  C_13 
REMARK    4  A    between atoms: C_15  and  C_14 
ROOT
ATOM      1  N   UNL d   1       0.893   0.069   0.197  0.00  0.00    -0.333 N 
ATOM      2  C   UNL d   1       0.300   0.549  -0.980  0.00  0.00     0.318 C 
ATOM      3  O   UNL d   1       0.907   1.250  -1.790  0.00  0.00    -0.247 OA
ATOM      4  N   UNL d   1      -0.997   0.169  -1.192  0.00  0.00    -0.343 N 
ATOM      5  C   UNL d   1       2.348   0.122   0.169  0.00  0.00     0.155 C 
ATOM      6  H   UNL d   1      -1.320  -0.653  -0.716  0.00  0.00     0.164 HD
ENDROOT
BRANCH   1   7
ATOM      7  C   UNL d   1       0.226  -0.836   1.156  0.00  0.00     0.096 C 
ATOM      8  C   UNL d   1       0.986  -1.270   2.457  0.00  0.00     0.031 C 
ATOM      9  C   UNL d   1       1.294  -0.077   3.339  0.00  0.00    -0.024 C 
ATOM     10  C   UNL d   1      -0.183  -1.839   3.278  0.00  0.00     0.019 C 
ATOM     11  C   UNL d   1       0.129   0.380   3.817  0.00  0.00    -0.026 C 
ATOM     12  C   UNL d   1      -0.954  -0.518   3.277  0.00  0.00     0.010 C 
ATOM     13  C   UNL d   1      -1.101  -0.256   1.765  0.00  0.00     0.034 C 
ENDBRANCH   1   7
BRANCH   4  14
ATOM     14  C   UNL d   1      -1.707   0.519  -2.407  0.00  0.00     0.124 C 
BRANCH  14  15
ATOM     15  C   UNL d   1      -1.397  -0.424  -3.573  0.00  0.00     0.019 C 
BRANCH  15  16
ATOM     16  C   UNL d   1      -1.801  -1.873  -3.285  0.00  0.00    -0.003 C 
ATOM     17  C   UNL d   1      -1.521  -2.781  -4.472  0.00  0.00     0.005 C 
ENDBRANCH  15  16
ENDBRANCH  14  15
ENDBRANCH   4  14
TORSDOF 4
