REMARK  6 active torsions:
REMARK  status: ('A' for Active; 'I' for Inactive)
REMARK    1  A    between atoms: C_6  and  S_1 
REMARK    2  A    between atoms: C_10  and  S_1 
REMARK    3  A    between atoms: C_2  and  C_3 
REMARK    4  A    between atoms: C_18  and  C_6 
REMARK    5  A    between atoms: C_9  and  S_16 
REMARK    6  A    between atoms: S_16  and  C_18 
ROOT
ATOM      1  S   UNL d   1       0.281  -1.042  -4.151  0.00  0.00    -0.111 SA
ENDROOT
BRANCH   1   2
ATOM      2  C   UNL d   1       0.809  -0.029  -5.520  0.00  0.00     0.069 A 
ATOM      3  N   UNL d   1       0.956   1.300  -5.337  0.00  0.00    -0.360 N 
ATOM      4  C   UNL d   1       1.280   2.048  -6.423  0.00  0.00     0.105 A 
ATOM      5  HN  UNL d   1       0.828   1.726  -4.419  1.00  0.00     0.166 HD
ATOM      6  C   UNL d   1       1.471   1.532  -7.697  0.00  0.00     0.063 A 
ATOM      7  C   UNL d   1       1.327   0.152  -7.856  0.00  0.00     0.020 A 
ATOM      8  C   UNL d   1       0.987  -0.636  -6.758  0.00  0.00     0.038 A 
BRANCH   6   9
ATOM      9  C   UNL d   1       1.806   2.419  -8.857  0.00  0.00     0.418 C 
ATOM     10  F   UNL d   1       1.873   3.740  -8.537  0.00  0.00    -0.166 F 
ATOM     11  F   UNL d   1       3.006   2.109  -9.419  0.00  0.00    -0.166 F 
ATOM     12  F   UNL d   1       0.891   2.325  -9.862  0.00  0.00    -0.166 F 
ENDBRANCH   6   9
ENDBRANCH   1   2
BRANCH   1  13
ATOM     13  C   UNL d   1       0.813  -0.035  -2.720  0.00  0.00     0.096 C 
BRANCH  13  14
ATOM     14  C   UNL d   1       0.353  -0.741  -1.454  0.00  0.00     0.156 C 
BRANCH  14  15
ATOM     15  S   UNL d   1       0.928   0.122  -0.010  0.00  0.00     0.176 S 
ATOM     16  O   UNL d   1       0.359   1.455  -0.013  0.00  0.00    -0.223 OA
ATOM     17  O   UNL d   1       2.362  -0.075   0.098  0.00  0.00    -0.223 OA
BRANCH  15  18
ATOM     18  C   UNL d   1       0.169  -0.773   1.333  0.00  0.00     0.059 A 
ATOM     19  C   UNL d   1       0.829  -1.868   1.897  0.00  0.00     0.023 A 
ATOM     20  C   UNL d   1       0.246  -2.541   2.974  0.00  0.00     0.002 A 
ATOM     21  C   UNL d   1      -0.981  -2.114   3.485  0.00  0.00     0.000 A 
ATOM     22  C   UNL d   1      -1.630  -1.013   2.924  0.00  0.00     0.002 A 
ATOM     23  C   UNL d   1      -1.056  -0.335   1.848  0.00  0.00     0.023 A 
ENDBRANCH  15  18
ENDBRANCH  14  15
ENDBRANCH  13  14
ENDBRANCH   1  13
TORSDOF 6
