REMARK  2 active torsions:
REMARK  status: ('A' for Active; 'I' for Inactive)
REMARK    1  A    between atoms: N_9  and  C_1 
REMARK    2  A    between atoms: C_7  and  C_2 
ROOT
ATOM      1  C   UNL d   1       2.524  -0.740  -0.156  0.00  0.00     0.092 A 
ATOM      2  C   UNL d   1       2.434   0.606  -0.128  0.00  0.00     0.111 A 
ATOM      3  C   UNL d   1       1.242  -1.504  -0.020  0.00  0.00     0.208 A 
ATOM      4  O   UNL d   1       1.264   1.339  -0.030  0.00  0.00    -0.307 OA
ATOM      5  C   UNL d   1      -0.003  -0.728  -0.019  0.00  0.00     0.050 A 
ATOM      6  C   UNL d   1       0.072   0.661  -0.028  0.00  0.00     0.090 A 
ATOM      7  O   UNL d   1       1.242  -2.726   0.101  0.00  0.00    -0.285 OA
ATOM      8  C   UNL d   1      -1.244  -1.375  -0.012  0.00  0.00     0.018 A 
ATOM      9  C   UNL d   1      -1.100   1.418  -0.031  0.00  0.00     0.038 A 
ATOM     10  C   UNL d   1      -2.415  -0.618  -0.022  0.00  0.00     0.001 A 
ATOM     11  C   UNL d   1      -2.343   0.776  -0.033  0.00  0.00     0.003 A 
ENDROOT
BRANCH   2  12
ATOM     12  C   UNL d   1       3.645   1.433  -0.230  0.00  0.00    -0.000 A 
ATOM     13  C   UNL d   1       4.096   1.862  -1.485  0.00  0.00     0.016 A 
ATOM     14  C   UNL d   1       5.312   2.541  -1.601  0.00  0.00     0.024 A 
ATOM     15  C   UNL d   1       6.076   2.793  -0.463  0.00  0.00     0.034 A 
ATOM     16  C   UNL d   1       5.626   2.390   0.794  0.00  0.00     0.024 A 
ATOM     17 CL   UNL d   1       7.595   3.586  -0.612  0.00  0.00    -0.084 Cl
ATOM     18  C   UNL d   1       4.409   1.714   0.911  0.00  0.00     0.016 A 
ENDBRANCH   2  12
BRANCH   1  19
ATOM     19  N   UNL d   1       3.675  -1.506  -0.278  0.00  0.00    -0.297 NA
ATOM     20  H   UNL d   1       4.514  -1.059   0.080  0.00  0.00     0.124 HD
ATOM     21  H   UNL d   1       3.525  -2.454   0.071  0.00  0.00     0.124 HD
ENDBRANCH   1  19
TORSDOF 2
