REMARK  3 active torsions:
REMARK  status: ('A' for Active; 'I' for Inactive)
REMARK    1  A    between atoms: C_14  and  C_5 
REMARK    2  A    between atoms: O_15  and  C_9 
REMARK    3  A    between atoms: C_12  and  C_14 
ROOT
ATOM      1  C   UNL d   1       0.245  -0.510   0.008  0.00  0.00     0.099 A 
ATOM      2  C   UNL d   1       0.048   0.883   0.035  0.00  0.00     0.005 A 
ATOM      3  C   UNL d   1      -1.324   1.411   0.015  0.00  0.00    -0.043 A 
ATOM      4  O   UNL d   1      -0.875  -1.391   0.001  0.00  0.00    -0.274 OA
ATOM      5  C   UNL d   1       1.519  -1.115  -0.029  0.00  0.00     0.013 A 
ATOM      6  C   UNL d   1      -2.166  -0.914   0.001  0.00  0.00     0.288 A 
ATOM      7  C   UNL d   1      -2.345   0.534  -0.001  0.00  0.00     0.090 A 
ATOM      8  C   UNL d   1       1.191   1.689   0.048  0.00  0.00     0.017 A 
ATOM      9  C   UNL d   1       2.625  -0.261  -0.006  0.00  0.00     0.075 A 
ATOM     10  O   UNL d   1      -3.131  -1.663   0.002  0.00  0.00    -0.260 OA
ATOM     11  C   UNL d   1       2.469   1.121   0.021  0.00  0.00     0.038 A 
ATOM     12  C   UNL d   1      -1.631   2.880  -0.015  0.00  0.00     0.049 C 
ENDROOT
BRANCH   5  13
ATOM     13  C   UNL d   1       1.650  -2.617  -0.139  0.00  0.00     0.070 C 
BRANCH  13  14
ATOM     14  C   UNL d   1       1.635  -3.409   1.143  0.00  0.00    -0.032 C 
ATOM     15  C   UNL d   1       1.607  -2.958   2.402  0.00  0.00     0.007 C 
ENDBRANCH  13  14
ENDBRANCH   5  13
BRANCH   9  16
ATOM     16  O   UNL d   1       3.912  -0.716  -0.015  0.00  0.00    -0.360 OA
ATOM     17  H   UNL d   1       3.949  -1.516   0.537  0.00  0.00     0.217 HD
ENDBRANCH   9  16
TORSDOF 3
