REMARK  4 active torsions:
REMARK  status: ('A' for Active; 'I' for Inactive)
REMARK    1  A    between atoms: C_6  and  C_1 
REMARK    2  A    between atoms: C_7  and  C_2 
REMARK    3  A    between atoms: C_3  and  C_11 
REMARK    4  A    between atoms: O_21  and  C_16 
ROOT
ATOM      1  C   UNL d   1      -0.805   1.056   6.219  0.00  0.00     0.055 C 
ATOM      2  C   UNL d   1      -0.234   1.791   5.242  0.00  0.00     0.034 C 
ATOM      3  C   UNL d   1      -1.191  -0.312   6.059  0.00  0.00     0.100 C 
ATOM      4  N   UNL d   1      -1.488  -1.427   5.942  0.00  0.00    -0.191 NA
ENDROOT
BRANCH   1   5
ATOM      5  C   UNL d   1      -1.095   1.675   7.525  0.00  0.00    -0.015 A 
ATOM      6  C   UNL d   1      -2.366   2.211   7.779  0.00  0.00     0.015 A 
ATOM      7  C   UNL d   1      -2.689   2.677   9.055  0.00  0.00     0.037 A 
ATOM      8  C   UNL d   1      -1.747   2.608  10.073  0.00  0.00     0.065 A 
ATOM      9  C   UNL d   1      -0.470   2.112   9.833  0.00  0.00     0.037 A 
ATOM     10  C   UNL d   1      -0.142   1.648   8.555  0.00  0.00     0.015 A 
BRANCH   8  11
ATOM     11  O   UNL d   1      -2.125   3.026  11.314  0.00  0.00    -0.361 OA
ATOM     12  H   UNL d   1      -1.426   2.796  11.948  0.00  0.00     0.217 HD
ENDBRANCH   8  11
ENDBRANCH   1   5
BRANCH   2  13
ATOM     13  C   UNL d   1       0.102   1.351   3.872  0.00  0.00    -0.035 A 
ATOM     14  C   UNL d   1      -0.113   2.235   2.806  0.00  0.00     0.012 A 
ATOM     15  C   UNL d   1       0.192   1.861   1.490  0.00  0.00     0.017 A 
ATOM     16  C   UNL d   1       0.722   0.594   1.211  0.00  0.00     0.048 A 
ATOM     17  C   UNL d   1       0.966  -0.278   2.278  0.00  0.00     0.017 A 
ATOM     18  C   UNL d   1       0.675   0.104   3.593  0.00  0.00     0.012 A 
BRANCH  16  19
ATOM     19  C   UNL d   1       1.029   0.192  -0.211  0.00  0.00     0.417 C 
ATOM     20  F   UNL d   1       1.500  -1.081  -0.331  0.00  0.00    -0.166 F 
ATOM     21  F   UNL d   1       1.970   0.992  -0.785  0.00  0.00    -0.166 F 
ATOM     22  F   UNL d   1      -0.064   0.262  -1.021  0.00  0.00    -0.166 F 
ENDBRANCH  16  19
ENDBRANCH   2  13
TORSDOF 4
