REMARK  1 active torsions:
REMARK  status: ('A' for Active; 'I' for Inactive)
REMARK    1  A    between atoms: C_2  and  C_1 
ROOT
ATOM      1  C   UNL d   1       0.004  -1.754   0.011  0.00  0.00    -0.025 A 
ATOM      2  C   UNL d   1       1.072  -1.042   0.589  0.00  0.00     0.019 A 
ATOM      3  C   UNL d   1      -1.046  -0.999  -0.544  0.00  0.00     0.019 A 
ATOM      4  C   UNL d   1       1.092   0.360   0.633  0.00  0.00    -0.061 A 
ATOM      5  C   UNL d   1      -1.034   0.404  -0.540  0.00  0.00    -0.061 A 
ATOM      6  C   UNL d   1       0.037   1.075   0.059  0.00  0.00     0.013 A 
ATOM      7  C   UNL d   1      -2.153   1.182  -1.169  0.00  0.00     0.048 C 
ATOM      8  C   UNL d   1       2.224   1.090   1.293  0.00  0.00     0.048 C 
ENDROOT
BRANCH   1   9
ATOM      9  C   UNL d   1      -0.016  -3.238  -0.009  0.00  0.00    -0.025 A 
ATOM     10  C   UNL d   1       0.543  -3.994   1.039  0.00  0.00     0.019 A 
ATOM     11  C   UNL d   1       0.538  -5.396   1.028  0.00  0.00    -0.061 A 
ATOM     12  C   UNL d   1       1.171  -6.174   2.144  0.00  0.00     0.048 C 
ATOM     13  C   UNL d   1      -0.065  -6.067  -0.040  0.00  0.00     0.013 A 
ATOM     14  C   UNL d   1      -0.643  -5.351  -1.093  0.00  0.00    -0.061 A 
ATOM     15  C   UNL d   1      -0.599  -3.950  -1.073  0.00  0.00     0.019 A 
ATOM     16  C   UNL d   1      -1.307  -6.081  -2.223  0.00  0.00     0.048 C 
ENDBRANCH   1   9
TORSDOF 1
