REMARK  3 active torsions:
REMARK  status: ('A' for Active; 'I' for Inactive)
REMARK       I    between atoms: N_2  and  C_1 
REMARK    1  A    between atoms: C_5  and  C_1 
REMARK       I    between atoms: C_3  and  N_2 
REMARK       I    between atoms: N_6  and  C_3 
REMARK    2  A    between atoms: N_4  and  C_7 
REMARK    3  A    between atoms: C_9  and  N_8 
ROOT
ATOM      1  C   UNL d   1      -0.973   1.132   0.220  0.00  0.00     0.264 C 
ATOM      2  N   UNL d   1       0.330   1.603   0.294  0.00  0.00    -0.275 N 
ATOM      3  C   UNL d   1       1.002   1.768   1.485  0.00  0.00     0.325 C 
ATOM      4  N   UNL d   1       2.388   1.819   1.405  0.00  0.00    -0.331 N 
ATOM      5  N   UNL d   1       5.165   1.276   1.564  0.00  0.00    -0.364 N 
ATOM      6  O   UNL d   1      -1.757   1.030   1.152  0.00  0.00    -0.267 OA
ATOM      7  O   UNL d   1       0.435   1.894   2.566  0.00  0.00    -0.247 OA
ATOM      8  C   UNL d   1       3.228   1.795   0.194  0.00  0.00     0.147 C 
ATOM      9  C   UNL d   1       3.141   2.055   2.661  0.00  0.00     0.147 C 
ATOM     10  C   UNL d   1       4.379   1.135   2.795  0.00  0.00     0.144 C 
ATOM     11  C   UNL d   1       4.432   0.853   0.366  0.00  0.00     0.144 C 
ATOM     12  H   UNL d   1       0.852   1.611  -0.554  0.00  0.00     0.173 HD
ENDROOT
BRANCH   1  13
ATOM     13  C   UNL d   1      -1.458   0.721  -1.115  0.00  0.00     0.092 A 
ATOM     14  C   UNL d   1      -2.736   1.146  -1.493  0.00  0.00     0.133 A 
ATOM     15  F   UNL d   1      -3.408   2.046  -0.761  0.00  0.00    -0.205 F 
ATOM     16  C   UNL d   1      -3.346   0.667  -2.651  0.00  0.00     0.043 A 
ATOM     17  C   UNL d   1      -2.679  -0.249  -3.456  0.00  0.00     0.005 A 
ATOM     18  C   UNL d   1      -1.391  -0.662  -3.109  0.00  0.00     0.025 A 
ATOM     19  C   UNL d   1      -0.779  -0.182  -1.941  0.00  0.00     0.052 A 
ATOM     20 CL   UNL d   1       0.800  -0.787  -1.584  0.00  0.00    -0.083 Cl
ENDBRANCH   1  13
BRANCH   5  21
ATOM     21  C   UNL d   1       6.525   1.038   1.592  0.00  0.00     0.103 A 
ATOM     22  N   UNL d   1       7.078   0.284   2.565  0.00  0.00    -0.350 N 
ATOM     23  C   UNL d   1       8.432   0.130   2.563  0.00  0.00     0.125 A 
ATOM     24  HN  UNL d   1       6.500  -0.156   3.280  1.00  0.00     0.166 HD
ATOM     25  C   UNL d   1       9.265   0.729   1.633  0.00  0.00     0.118 A 
ATOM     26  C   UNL d   1       8.702   1.523   0.643  0.00  0.00     0.041 A 
ATOM     27  C   UNL d   1       7.320   1.669   0.627  0.00  0.00     0.051 A 
BRANCH  25  28
ATOM     28  N   UNL d   1      10.706   0.537   1.699  0.00  0.00    -0.114 N 
ATOM     29  O   UNL d   1      11.149  -0.199   2.590  0.00  0.00    -0.532 OA
ATOM     30  O   UNL d   1      11.403   1.121   0.856  0.00  0.00    -0.532 OA
ENDBRANCH  25  28
ENDBRANCH   5  21
TORSDOF 3
