REMARK  6 active torsions:
REMARK  status: ('A' for Active; 'I' for Inactive)
REMARK    1  A    between atoms: C_2  and  S_1 
REMARK    2  A    between atoms: C_3  and  S_1 
REMARK    3  A    between atoms: N_6  and  C_30 
REMARK    4  A    between atoms: N_8  and  C_31 
REMARK    5  A    between atoms: C_32  and  C_20 
REMARK    6  A    between atoms: C_33  and  C_21 
ROOT
ATOM      1  S   UNL d   1       1.079   0.187  -0.011  0.00  0.00     0.206 S 
ATOM      2  O   UNL d   1       0.346   1.212   0.706  0.00  0.00    -0.217 OA
ATOM      3  O   UNL d   1       2.515   0.306  -0.192  0.00  0.00    -0.217 OA
ENDROOT
BRANCH   1   4
ATOM      4  C   UNL d   1       0.354   0.049  -1.630  0.00  0.00     0.064 A 
ATOM      5  C   UNL d   1      -0.940   0.528  -1.852  0.00  0.00     0.026 A 
ATOM      6  C   UNL d   1      -1.499   0.430  -3.134  0.00  0.00     0.031 A 
ATOM      7  C   UNL d   1      -0.788  -0.156  -4.188  0.00  0.00     0.032 A 
ATOM      8  C   UNL d   1       0.527  -0.590  -3.945  0.00  0.00     0.031 A 
ATOM      9  C   UNL d   1       1.101  -0.483  -2.678  0.00  0.00     0.026 A 
BRANCH   7  10
ATOM     10  N   UNL d   1      -1.296  -0.429  -5.470  0.00  0.00    -0.365 N 
ATOM     11  C   UNL d   1      -2.571  -0.448  -5.689  0.00  0.00     0.100 C 
ATOM     12  HN  UNL d   1      -0.650  -0.615  -6.237  1.00  0.00     0.165 HD
BRANCH  11  13
ATOM     13  C   UNL d   1      -3.128  -1.024  -6.926  0.00  0.00    -0.018 A 
ATOM     14  C   UNL d   1      -4.514  -1.197  -6.975  0.00  0.00     0.052 A 
ATOM     15  C   UNL d   1      -4.993  -2.080  -7.914  0.00  0.00     0.105 A 
ATOM     16  O   UNL d   1      -6.276  -2.529  -7.990  0.00  0.00    -0.323 OA
ATOM     17  C   UNL d   1      -4.165  -2.712  -8.817  0.00  0.00     0.105 A 
ATOM     18  C   UNL d   1      -6.077  -3.691  -8.819  0.00  0.00     0.352 C 
ATOM     19  O   UNL d   1      -4.834  -3.643  -9.552  0.00  0.00    -0.323 OA
ATOM     20  C   UNL d   1      -2.810  -2.462  -8.865  0.00  0.00     0.040 A 
ATOM     21  C   UNL d   1      -2.281  -1.615  -7.889  0.00  0.00     0.016 A 
ENDBRANCH  11  13
ENDBRANCH   7  10
ENDBRANCH   1   4
BRANCH   1  22
ATOM     22  C   UNL d   1       0.779  -1.360   0.818  0.00  0.00     0.064 A 
ATOM     23  C   UNL d   1       1.698  -2.403   0.688  0.00  0.00     0.026 A 
ATOM     24  C   UNL d   1       1.483  -3.604   1.371  0.00  0.00     0.031 A 
ATOM     25  C   UNL d   1       0.346  -3.784   2.170  0.00  0.00     0.032 A 
ATOM     26  C   UNL d   1      -0.541  -2.710   2.313  0.00  0.00     0.031 A 
ATOM     27  C   UNL d   1      -0.332  -1.498   1.649  0.00  0.00     0.026 A 
BRANCH  25  28
ATOM     28  N   UNL d   1      -0.014  -4.981   2.817  0.00  0.00    -0.365 N 
ATOM     29  C   UNL d   1       0.390  -6.114   2.346  0.00  0.00     0.100 C 
ATOM     30  HN  UNL d   1      -0.592  -4.954   3.657  1.00  0.00     0.165 HD
BRANCH  29  31
ATOM     31  C   UNL d   1      -0.162  -7.398   2.813  0.00  0.00    -0.018 A 
ATOM     32  C   UNL d   1       0.244  -8.545   2.122  0.00  0.00     0.052 A 
ATOM     33  C   UNL d   1      -0.539  -9.663   2.268  0.00  0.00     0.105 A 
ATOM     34  O   UNL d   1      -0.426 -10.803   1.533  0.00  0.00    -0.323 OA
ATOM     35  C   UNL d   1      -1.629  -9.690   3.112  0.00  0.00     0.105 A 
ATOM     36  C   UNL d   1      -1.716 -11.389   1.800  0.00  0.00     0.352 C 
ATOM     37  O   UNL d   1      -2.336 -10.848   2.986  0.00  0.00    -0.323 OA
ATOM     38  C   UNL d   1      -1.972  -8.611   3.897  0.00  0.00     0.040 A 
ATOM     39  C   UNL d   1      -1.232  -7.436   3.731  0.00  0.00     0.016 A 
ENDBRANCH  29  31
ENDBRANCH  25  28
ENDBRANCH   1  22
TORSDOF 6
