REMARK  5 active torsions:
REMARK  status: ('A' for Active; 'I' for Inactive)
REMARK    1  A    between atoms: C_4  and  C_1 
REMARK    2  A    between atoms: S_6  and  C_2 
REMARK       I    between atoms: C_3  and  N_5 
REMARK    3  A    between atoms: C_9  and  C_3 
REMARK    4  A    between atoms: N_5  and  C_4 
REMARK    5  A    between atoms: C_10  and  S_6 
ROOT
ATOM      1  C   UNL d   1       0.180  -1.130  -0.125  0.00  0.00     0.015 A 
ATOM      2  C   UNL d   1      -1.225  -1.222  -0.083  0.00  0.00     0.016 A 
ATOM      3  C   UNL d   1       0.759   0.149  -0.144  0.00  0.00     0.125 A 
ATOM      4  F   UNL d   1       2.093   0.282  -0.209  0.00  0.00    -0.205 F 
ATOM      5  C   UNL d   1      -1.997  -0.045  -0.067  0.00  0.00     0.019 A 
ATOM      6  C   UNL d   1      -1.393   1.213  -0.059  0.00  0.00     0.004 A 
ATOM      7  C   UNL d   1      -0.009   1.310  -0.101  0.00  0.00     0.043 A 
ENDROOT
BRANCH   1   8
ATOM      8  C   UNL d   1       1.113  -2.313  -0.125  0.00  0.00     0.166 C 
BRANCH   8   9
ATOM      9  N   UNL d   1       0.981  -3.203   1.013  0.00  0.00    -0.352 N 
ATOM     10  C   UNL d   1       0.965  -2.757   2.318  0.00  0.00     0.251 C 
ATOM     11  O   UNL d   1       1.032  -1.575   2.638  0.00  0.00    -0.268 OA
ATOM     12  H   UNL d   1       1.213  -4.170   0.845  0.00  0.00     0.163 HD
BRANCH  10  13
ATOM     13  C   UNL d   1       0.839  -3.797   3.379  0.00  0.00     0.032 A 
ATOM     14  C   UNL d   1       1.116  -3.423   4.701  0.00  0.00     0.017 A 
ATOM     15  C   UNL d   1       1.000  -4.351   5.736  0.00  0.00     0.001 A 
ATOM     16  C   UNL d   1       0.602  -5.656   5.458  0.00  0.00     0.000 A 
ATOM     17  C   UNL d   1       0.303  -6.033   4.148  0.00  0.00     0.001 A 
ATOM     18  C   UNL d   1       0.409  -5.103   3.110  0.00  0.00     0.017 A 
ENDBRANCH  10  13
ENDBRANCH   8   9
ENDBRANCH   1   8
BRANCH   2  19
ATOM     19  S   UNL d   1      -2.086  -2.798  -0.088  0.00  0.00    -0.090 SA
BRANCH  19  20
ATOM     20  C   UNL d   1      -3.112  -2.721   1.376  0.00  0.00     0.005 A 
ATOM     21  C   UNL d   1      -4.392  -3.290   1.321  0.00  0.00     0.020 A 
ATOM     22  C   UNL d   1      -5.229  -3.272   2.442  0.00  0.00     0.025 A 
ATOM     23  C   UNL d   1      -4.787  -2.691   3.627  0.00  0.00     0.034 A 
ATOM     24  C   UNL d   1      -3.514  -2.131   3.702  0.00  0.00     0.025 A 
ATOM     25 CL   UNL d   1      -5.817  -2.665   5.004  0.00  0.00    -0.084 Cl
ATOM     26  C   UNL d   1      -2.681  -2.149   2.580  0.00  0.00     0.020 A 
ENDBRANCH  19  20
ENDBRANCH   2  19
TORSDOF 5
