REMARK  6 active torsions:
REMARK  status: ('A' for Active; 'I' for Inactive)
REMARK       I    between atoms: N_5  and  C_1 
REMARK       I    between atoms: N_6  and  C_1 
REMARK    1  A    between atoms: C_2  and  O_9 
REMARK    2  A    between atoms: C_14  and  N_5 
REMARK    3  A    between atoms: C_15  and  N_6 
REMARK    4  A    between atoms: S_8  and  C_7 
REMARK    5  A    between atoms: C_16  and  S_8 
REMARK    6  A    between atoms: O_9  and  C_18 
ROOT
ATOM      1  C   UNL d   1      -0.986   0.946   0.741  0.00  0.00     0.325 C 
ATOM      2  N   UNL d   1       0.276   1.260   0.271  0.00  0.00    -0.307 N 
ATOM      3  N   UNL d   1      -1.443  -0.270   0.263  0.00  0.00    -0.309 N 
ATOM      4  O   UNL d   1      -1.633   1.677   1.483  0.00  0.00    -0.247 OA
ATOM      5  H   UNL d   1       0.660   0.681  -0.459  0.00  0.00     0.170 HD
ATOM      6  H   UNL d   1      -0.773  -0.862  -0.208  0.00  0.00     0.170 HD
ENDROOT
BRANCH   2   7
ATOM      7  C   UNL d   1       0.978   2.455   0.576  0.00  0.00     0.051 A 
ATOM      8  C   UNL d   1       0.596   3.372   1.554  0.00  0.00     0.118 A 
ATOM      9  N   UNL d   1       1.249   4.530   1.826  0.00  0.00    -0.358 N 
ATOM     10  C   UNL d   1       2.343   4.810   1.093  0.00  0.00     0.074 A 
ATOM     11  HN  UNL d   1       0.924   5.164   2.556  1.00  0.00     0.166 HD
ATOM     12  C   UNL d   1       2.821   3.951   0.111  0.00  0.00     0.039 A 
ATOM     13  C   UNL d   1       2.133   2.759  -0.146  0.00  0.00     0.034 A 
BRANCH  10  14
ATOM     14  S   UNL d   1       3.208   6.308   1.498  0.00  0.00    -0.073 SA
BRANCH  14  15
ATOM     15  C   UNL d   1       2.408   7.505   0.445  0.00  0.00     0.007 A 
ATOM     16  C   UNL d   1       1.026   7.713   0.452  0.00  0.00     0.019 A 
ATOM     17  C   UNL d   1       0.453   8.698  -0.363  0.00  0.00     0.008 A 
ATOM     18  C   UNL d   1       1.256   9.494  -1.190  0.00  0.00    -0.062 A 
ATOM     19  C   UNL d   1       2.639   9.291  -1.187  0.00  0.00     0.008 A 
ATOM     20  C   UNL d   1       0.637  10.544  -2.065  0.00  0.00     0.048 C 
ATOM     21  C   UNL d   1       3.210   8.309  -0.373  0.00  0.00     0.019 A 
ENDBRANCH  14  15
ENDBRANCH  10  14
ENDBRANCH   2   7
BRANCH   3  22
ATOM     22  C   UNL d   1      -2.744  -0.805   0.441  0.00  0.00     0.036 A 
ATOM     23  C   UNL d   1      -3.785  -0.124   1.081  0.00  0.00     0.032 A 
ATOM     24  C   UNL d   1      -5.065  -0.683   1.189  0.00  0.00     0.039 A 
ATOM     25  C   UNL d   1      -5.337  -1.919   0.624  0.00  0.00     0.078 A 
ATOM     26  C   UNL d   1      -4.292  -2.627   0.026  0.00  0.00     0.039 A 
ATOM     27  C   UNL d   1      -3.006  -2.080  -0.071  0.00  0.00     0.032 A 
BRANCH  25  28
ATOM     28  O   UNL d   1      -6.544  -2.549   0.593  0.00  0.00    -0.255 OA
BRANCH  28  29
ATOM     29  C   UNL d   1      -7.731  -1.784   0.751  0.00  0.00     0.530 C 
ATOM     30  F   UNL d   1      -7.598  -0.493   0.379  0.00  0.00    -0.144 F 
ATOM     31  F   UNL d   1      -8.693  -2.332  -0.026  0.00  0.00    -0.144 F 
ATOM     32  F   UNL d   1      -8.145  -1.837   2.034  0.00  0.00    -0.144 F 
ENDBRANCH  28  29
ENDBRANCH  25  28
ENDBRANCH   3  22
TORSDOF 6
