REMARK  5 active torsions:
REMARK  status: ('A' for Active; 'I' for Inactive)
REMARK    1  A    between atoms: C_2  and  S_1 
REMARK    2  A    between atoms: C_16  and  S_1 
REMARK    3  A    between atoms: N_11  and  C_3 
REMARK    4  A    between atoms: C_14  and  N_11 
REMARK    5  A    between atoms: C_20  and  C_16 
ROOT
ATOM      1  C   UNL d   1       0.228   0.378  -1.627  0.00  0.00     0.154 C 
ATOM      2  C   UNL d   1      -0.463  -0.579  -2.268  0.00  0.00     0.123 C 
ATOM      3  C   UNL d   1       0.536   0.313  -0.248  0.00  0.00     0.113 C 
ATOM      4  N   UNL d   1       0.726   0.214   0.891  0.00  0.00    -0.191 NA
ENDROOT
BRANCH   1   5
ATOM      5  S   UNL d   1       0.738   1.784  -2.506  0.00  0.00     0.186 S 
ATOM      6  O   UNL d   1       0.831   1.469  -3.921  0.00  0.00    -0.222 OA
ATOM      7  O   UNL d   1       1.869   2.396  -1.831  0.00  0.00    -0.222 OA
BRANCH   5   8
ATOM      8  C   UNL d   1      -0.661   2.881  -2.300  0.00  0.00     0.146 C 
BRANCH   8   9
ATOM      9  C   UNL d   1      -0.437   4.209  -3.019  0.00  0.00     0.011 C 
ATOM     10  C   UNL d   1      -1.620   5.147  -2.851  0.00  0.00     0.006 C 
ENDBRANCH   8   9
ENDBRANCH   5   8
ENDBRANCH   1   5
BRANCH   2  11
ATOM     11  N   UNL d   1      -1.020  -1.729  -1.751  0.00  0.00    -0.364 N 
ATOM     12  H   UNL d   1      -0.961  -1.876  -0.745  0.00  0.00     0.165 HD
BRANCH  11  13
ATOM     13  C   UNL d   1      -1.703  -2.740  -2.452  0.00  0.00     0.034 A 
ATOM     14  C   UNL d   1      -1.493  -3.003  -3.812  0.00  0.00     0.069 A 
ATOM     15  C   UNL d   1      -2.267  -3.955  -4.482  0.00  0.00     0.104 A 
ATOM     16  O   UNL d   1      -1.990  -4.146  -5.812  0.00  0.00    -0.346 OA
ATOM     17  C   UNL d   1      -3.261  -4.658  -3.801  0.00  0.00     0.102 A 
ATOM     18  C   UNL d   1      -3.062  -4.827  -6.473  0.00  0.00     0.202 C 
ATOM     19  C   UNL d   1      -3.534  -6.019  -5.657  0.00  0.00     0.202 C 
ATOM     20  O   UNL d   1      -4.060  -5.602  -4.392  0.00  0.00    -0.346 OA
ATOM     21  C   UNL d   1      -3.492  -4.399  -2.455  0.00  0.00     0.042 A 
ATOM     22  C   UNL d   1      -2.715  -3.449  -1.786  0.00  0.00     0.032 A 
ENDBRANCH  11  13
ENDBRANCH   2  11
TORSDOF 5
