REMARK  4 active torsions:
REMARK  status: ('A' for Active; 'I' for Inactive)
REMARK    1  A    between atoms: N_2  and  C_1 
REMARK       I    between atoms: C_4  and  N_2 
REMARK       I    between atoms: N_14  and  C_4 
REMARK    2  A    between atoms: C_6  and  C_9 
REMARK    3  A    between atoms: C_7  and  C_10 
REMARK    4  A    between atoms: C_13  and  N_14 
ROOT
ATOM      1  C   UNL d   1      -2.090  -0.893  -0.382  0.00  0.00     0.050 A 
ATOM      2  C   UNL d   1      -2.991  -2.997   0.459  0.00  0.00     0.050 A 
ATOM      3  C   UNL d   1      -3.173  -1.662   0.073  0.00  0.00     0.032 A 
ATOM      4  C   UNL d   1      -0.611  -2.804  -0.059  0.00  0.00     0.037 A 
ATOM      5  C   UNL d   1      -0.814  -1.479  -0.447  0.00  0.00     0.045 A 
ATOM      6  C   UNL d   1      -1.707  -3.560   0.371  0.00  0.00     0.045 A 
ENDROOT
BRANCH   4   7
ATOM      7  N   UNL d   1       0.649  -3.428  -0.014  0.00  0.00    -0.309 N 
ATOM      8  C   UNL d   1       1.874  -2.893  -0.274  0.00  0.00     0.325 C 
ATOM      9  N   UNL d   1       2.979  -3.634   0.039  0.00  0.00    -0.301 N 
ATOM     10  O   UNL d   1       2.073  -1.776  -0.753  0.00  0.00    -0.247 OA
ATOM     11  H   UNL d   1       3.830  -3.125  -0.179  0.00  0.00     0.171 HD
ATOM     12  H   UNL d   1       0.668  -4.388   0.297  0.00  0.00     0.170 HD
BRANCH   9  13
ATOM     13  C   UNL d   1       3.167  -4.854   0.665  0.00  0.00     0.100 A 
ATOM     14  C   UNL d   1       4.390  -5.409   0.995  0.00  0.00     0.074 A 
ATOM     15  C   UNL d   1       4.273  -6.673   1.665  0.00  0.00    -0.031 A 
ATOM     16 CL   UNL d   1       5.907  -4.668   0.668  0.00  0.00    -0.081 Cl
ATOM     17  C   UNL d   1       5.412  -7.496   2.169  0.00  0.00     0.050 C 
ATOM     18  C   UNL d   1       2.943  -7.026   1.795  0.00  0.00     0.060 A 
ATOM     19  S   UNL d   1       1.887  -5.863   1.133  0.00  0.00    -0.082 SA
ENDBRANCH   9  13
ENDBRANCH   4   7
BRANCH   1  20
ATOM     20  C   UNL d   1      -2.266   0.555  -0.776  0.00  0.00     0.417 C 
ATOM     21  F   UNL d   1      -3.532   1.016  -0.576  0.00  0.00    -0.166 F 
ATOM     22  F   UNL d   1      -1.453   1.390  -0.074  0.00  0.00    -0.166 F 
ATOM     23  F   UNL d   1      -1.994   0.776  -2.091  0.00  0.00    -0.166 F 
ENDBRANCH   1  20
BRANCH   2  24
ATOM     24  C   UNL d   1      -4.136  -3.828   0.985  0.00  0.00     0.417 C 
ATOM     25  F   UNL d   1      -5.275  -3.113   1.198  0.00  0.00    -0.166 F 
ATOM     26  F   UNL d   1      -4.478  -4.838   0.139  0.00  0.00    -0.166 F 
ATOM     27  F   UNL d   1      -3.841  -4.421   2.175  0.00  0.00    -0.166 F 
ENDBRANCH   2  24
TORSDOF 4
