REMARK  7 active torsions:
REMARK  status: ('A' for Active; 'I' for Inactive)
REMARK    1  A    between atoms: C_2  and  S_1 
REMARK    2  A    between atoms: O_9  and  S_1 
REMARK    3  A    between atoms: C_17  and  S_15 
REMARK    4  A    between atoms: N_18  and  S_15 
REMARK    5  A    between atoms: C_16  and  O_20 
REMARK    6  A    between atoms: C_21  and  C_16 
REMARK    7  A    between atoms: O_20  and  C_28 
ROOT
ATOM      1  C   UNL d   1       2.010   1.570   1.042  0.00  0.00     0.084 A 
ATOM      2  C   UNL d   1       2.280   2.957   1.108  0.00  0.00    -0.038 A 
ATOM      3  C   UNL d   1       1.571   0.880   2.192  0.00  0.00    -0.038 A 
ATOM      4  C   UNL d   1       1.566   1.560   3.424  0.00  0.00     0.015 A 
ATOM      5  C   UNL d   1       2.201   3.610   2.351  0.00  0.00     0.015 A 
ATOM      6  C   UNL d   1       1.850   2.923   3.511  0.00  0.00    -0.061 A 
ATOM      7  C   UNL d   1       2.639   3.812  -0.078  0.00  0.00     0.050 C 
ATOM      8  C   UNL d   1       1.046  -0.530   2.203  0.00  0.00     0.050 C 
ATOM      9  C   UNL d   1       1.635   3.670   4.794  0.00  0.00     0.048 C 
ENDROOT
BRANCH   1  10
ATOM     10  S   UNL d   1       2.264   0.691  -0.496  0.00  0.00     0.130 S 
ATOM     11  O   UNL d   1       3.414   1.251  -1.177  0.00  0.00    -0.598 OA
ATOM     12  O   UNL d   1       0.981   0.568  -1.153  0.00  0.00    -0.598 OA
BRANCH  10  13
ATOM     13  O   UNL d   1       2.694  -0.810  -0.096  0.00  0.00    -0.292 OA
ATOM     14  H   UNL d   1       2.220  -1.418  -0.702  0.00  0.00     0.232 HD
ENDBRANCH  10  13
ENDBRANCH   1  10
TORSDOF 7
