REMARK  3 active torsions:
REMARK  status: ('A' for Active; 'I' for Inactive)
REMARK    1  A    between atoms: C_4  and  C_3 
REMARK    2  A    between atoms: O_14  and  C_6 
REMARK    3  A    between atoms: O_15  and  C_8 
ROOT
ATOM      1  N   UNL d   1      -1.259   1.169  -0.489  0.00  0.00    -0.355 N 
ATOM      2  HN  UNL d   1      -1.316   2.109  -0.882  1.00  0.00     0.166 HD
ATOM      3  C   UNL d   1      -2.354   0.587   0.067  0.00  0.00     0.043 A 
ATOM      4  C   UNL d   1      -0.099   0.487  -0.516  0.00  0.00     0.043 A 
ATOM      5  C   UNL d   1      -2.308  -0.695   0.604  0.00  0.00     0.031 A 
ATOM      6  C   UNL d   1       0.021  -0.815   0.007  0.00  0.00    -0.009 A 
ATOM      7  C   UNL d   1      -1.110  -1.402   0.575  0.00  0.00     0.016 A 
ATOM      8  C   UNL d   1       1.029   1.069  -1.080  0.00  0.00     0.030 A 
ATOM      9  C   UNL d   1       1.247  -1.499  -0.051  0.00  0.00     0.013 A 
ATOM     10  C   UNL d   1       2.253   0.394  -1.140  0.00  0.00     0.002 A 
ATOM     11  C   UNL d   1       2.361  -0.893  -0.626  0.00  0.00     0.001 A 
ENDROOT
BRANCH   3  12
ATOM     12  C   UNL d   1      -3.607   1.368   0.010  0.00  0.00    -0.007 A 
ATOM     13  C   UNL d   1      -3.853   2.254  -1.059  0.00  0.00     0.053 A 
ATOM     14  C   UNL d   1      -5.071   2.941  -1.206  0.00  0.00     0.102 A 
ATOM     15  C   UNL d   1      -6.068   2.767  -0.231  0.00  0.00     0.101 A 
ATOM     16  C   UNL d   1      -5.820   1.919   0.855  0.00  0.00     0.040 A 
ATOM     17  C   UNL d   1      -4.612   1.232   0.976  0.00  0.00     0.016 A 
BRANCH  14  18
ATOM     18  O   UNL d   1      -5.337   3.760  -2.272  0.00  0.00    -0.353 OA
ATOM     19  C   UNL d   1      -4.336   3.923  -3.267  0.00  0.00     0.210 C 
ENDBRANCH  14  18
BRANCH  15  20
ATOM     20  O   UNL d   1      -7.316   3.328  -0.164  0.00  0.00    -0.353 OA
ATOM     21  C   UNL d   1      -7.734   4.197  -1.204  0.00  0.00     0.210 C 
ENDBRANCH  15  20
ENDBRANCH   3  12
TORSDOF 3
