REMARK  5 active torsions:
REMARK  status: ('A' for Active; 'I' for Inactive)
REMARK    1  A    between atoms: S_5  and  C_1 
REMARK    2  A    between atoms: C_7  and  C_2 
REMARK    3  A    between atoms: C_9  and  C_4 
REMARK    4  A    between atoms: O_8  and  C_7 
REMARK    5  A    between atoms: C_15  and  O_8 
ROOT
ATOM      1  C   UNL d   1       0.354  -1.333   0.001  0.00  0.00     0.111 C 
ATOM      2  C   UNL d   1      -0.607   0.988   0.174  0.00  0.00     0.088 C 
ATOM      3  S   UNL d   1      -1.207  -0.600   0.006  0.00  0.00    -0.071 SA
ATOM      4  C   UNL d   1       1.342  -0.353   0.066  0.00  0.00    -0.001 C 
ATOM      5  C   UNL d   1       0.775   0.970   0.335  0.00  0.00    -0.026 C 
ATOM      6  C   UNL d   1       1.613   2.172   0.677  0.00  0.00     0.050 C 
ENDROOT
BRANCH   2   7
ATOM      7  C   UNL d   1      -1.514   2.141   0.176  0.00  0.00     0.306 C 
ATOM      8  O   UNL d   1      -1.171   3.299   0.388  0.00  0.00    -0.258 OA
BRANCH   7   9
ATOM      9  O   UNL d   1      -2.834   1.745  -0.100  0.00  0.00    -0.275 OA
BRANCH   9  10
ATOM     10  C   UNL d   1      -4.003   2.538   0.027  0.00  0.00     0.079 A 
ATOM     11  C   UNL d   1      -4.016   3.927   0.107  0.00  0.00     0.037 A 
ATOM     12  C   UNL d   1      -5.227   4.588   0.341  0.00  0.00     0.003 A 
ATOM     13  C   UNL d   1      -6.412   3.863   0.475  0.00  0.00     0.000 A 
ATOM     14  C   UNL d   1      -6.400   2.475   0.343  0.00  0.00     0.003 A 
ATOM     15  C   UNL d   1      -5.194   1.812   0.110  0.00  0.00     0.037 A 
ENDBRANCH   9  10
ENDBRANCH   7   9
ENDBRANCH   2   7
BRANCH   1  16
ATOM     16  S   UNL d   1       0.250  -3.113  -0.189  0.00  0.00     0.179 S 
ATOM     17  O   UNL d   1      -0.513  -3.340  -1.397  0.00  0.00    -0.222 OA
ATOM     18  O   UNL d   1       1.579  -3.665  -0.027  0.00  0.00    -0.222 OA
ATOM     19  C   UNL d   1      -0.713  -3.659   1.206  0.00  0.00     0.167 C 
ENDBRANCH   1  16
BRANCH   4  20
ATOM     20  C   UNL d   1       2.756  -0.490  -0.154  0.00  0.00     0.004 C 
ATOM     21  C   UNL d   1       3.598  -1.487   0.125  0.00  0.00     0.012 C 
ENDBRANCH   4  20
TORSDOF 5
