REMARK  0 active torsions:
REMARK  status: ('A' for Active; 'I' for Inactive)
REMARK       I    between atoms: C_8  and  N_6 
REMARK       I    between atoms: N_12  and  C_8 
ROOT
ATOM      1  C   UNL d   1       0.111  -1.155   0.011  0.00  0.00     0.152 A 
ATOM      2  S   UNL d   1       1.763  -0.650  -0.025  0.00  0.00    -0.044 SA
ATOM      3  N   UNL d   1      -0.761  -0.168   0.035  0.00  0.00    -0.339 N 
ATOM      4  HN  UNL d   1      -1.774  -0.291   0.068  1.00  0.00     0.168 HD
ATOM      5  C   UNL d   1       1.259   0.968  -0.011  0.00  0.00     0.077 A 
ATOM      6  N   UNL d   1      -0.175  -2.474   0.013  0.00  0.00    -0.313 N 
ATOM      7  C   UNL d   1      -0.115   1.064   0.008  0.00  0.00     0.032 A 
ATOM      8  C   UNL d   1      -1.389  -3.075   0.003  0.00  0.00     0.150 C 
ATOM      9  N   UNL d   1      -2.550  -2.520   0.018  0.00  0.00    -0.376 N 
ATOM     10  HN  UNL d   1      -3.452  -2.998   0.014  1.00  0.00     0.158 HD
ATOM     11 BR   UNL d   1       2.450   2.410  -0.027  0.00  0.00    -0.041 Br
ATOM     12  N   UNL d   1      -1.324  -4.426  -0.033  0.00  0.00    -0.274 NA
ATOM     13  C   UNL d   1      -0.939   2.301   0.005  0.00  0.00     0.070 C 
ATOM     14  H   UNL d   1       0.603  -3.102  -0.124  0.00  0.00     0.170 HD
ATOM     15  H   UNL d   1      -2.394  -1.498   0.035  0.00  0.00     0.158 HD
ATOM     16  H   UNL d   1      -0.708  -4.837   0.655  0.00  0.00     0.127 HD
ATOM     17  H   UNL d   1      -2.264  -4.798   0.078  0.00  0.00     0.127 HD
ENDROOT
TORSDOF 0
