REMARK  7 active torsions:
REMARK  status: ('A' for Active; 'I' for Inactive)
REMARK    1  A    between atoms: C_12  and  C_1 
REMARK    2  A    between atoms: C_3  and  C_2 
REMARK    3  A    between atoms: C_18  and  C_10 
REMARK    4  A    between atoms: O_19  and  C_12 
REMARK    5  A    between atoms: O_14  and  C_18 
REMARK    6  A    between atoms: C_16  and  O_14 
REMARK    7  A    between atoms: C_23  and  O_19 
ROOT
ATOM      1  C   UNL d   1      -1.440   2.281  -0.041  0.00  0.00     0.075 A 
ATOM      2  N   UNL d   1      -2.368   2.538   0.948  0.00  0.00    -0.349 N 
ATOM      3  HN  UNL d   1      -2.590   1.906   1.717  1.00  0.00     0.166 HD
ATOM      4  C   UNL d   1      -2.926   3.716   0.757  0.00  0.00     0.075 A 
ATOM      5  C   UNL d   1      -1.301   3.278  -0.985  0.00  0.00     0.084 A 
ATOM      6  S   UNL d   1      -2.374   4.571  -0.629  0.00  0.00    -0.084 SA
ENDROOT
BRANCH   1   7
ATOM      7  C   UNL d   1      -0.673   1.007  -0.035  0.00  0.00     0.128 A 
ATOM      8  C   UNL d   1       0.308   0.607  -0.910  0.00  0.00     0.079 A 
ATOM      9  C   UNL d   1       0.666  -0.701  -0.491  0.00  0.00     0.132 A 
ATOM     10  N   UNL d   1      -0.029  -1.053   0.602  0.00  0.00    -0.255 N 
ATOM     11  O   UNL d   1      -0.859   0.015   0.883  0.00  0.00    -0.235 OA
ATOM     12  HN  UNL d   1       0.042  -1.930   1.119  1.00  0.00     0.195 HD
BRANCH   9  13
ATOM     13  C   UNL d   1       1.608  -1.595  -1.157  0.00  0.00     0.311 C 
ATOM     14  O   UNL d   1       2.238  -1.261  -2.155  0.00  0.00    -0.258 OA
BRANCH  13  15
ATOM     15  O   UNL d   1       1.641  -2.845  -0.607  0.00  0.00    -0.317 OA
BRANCH  15  16
ATOM     16  C   UNL d   1       2.260  -3.860  -1.406  0.00  0.00     0.175 C 
ATOM     17  C   UNL d   1       1.228  -4.418  -2.369  0.00  0.00     0.034 C 
ENDBRANCH  15  16
ENDBRANCH  13  15
ENDBRANCH   9  13
ENDBRANCH   1   7
BRANCH   4  18
ATOM     18  C   UNL d   1      -3.912   4.331   1.702  0.00  0.00     0.240 C 
BRANCH  18  19
ATOM     19  O   UNL d   1      -5.224   4.111   1.177  0.00  0.00    -0.343 OA
BRANCH  19  20
ATOM     20  C   UNL d   1      -6.255   4.601   1.940  0.00  0.00     0.090 A 
ATOM     21  C   UNL d   1      -7.410   5.040   1.275  0.00  0.00     0.067 A 
ATOM     22 CL   UNL d   1      -7.513   5.029  -0.450  0.00  0.00    -0.081 Cl
ATOM     23  C   UNL d   1      -8.505   5.526   1.998  0.00  0.00     0.026 A 
ATOM     24  C   UNL d   1      -8.466   5.559   3.390  0.00  0.00     0.002 A 
ATOM     25  C   UNL d   1      -7.332   5.104   4.060  0.00  0.00     0.003 A 
ATOM     26  C   UNL d   1      -6.235   4.623   3.340  0.00  0.00     0.038 A 
ENDBRANCH  19  20
ENDBRANCH  18  19
ENDBRANCH   4  18
TORSDOF 7
