REMARK  3 active torsions:
REMARK  status: ('A' for Active; 'I' for Inactive)
REMARK    1  A    between atoms: C_2  and  S_1 
REMARK    2  A    between atoms: O_3  and  S_1 
REMARK    3  A    between atoms: C_8  and  O_3 
ROOT
ATOM      1  S   UNL d   1       1.037  -0.029  -0.023  0.00  0.00     0.303 S 
ATOM      2  O   UNL d   1       0.375   1.055  -0.720  0.00  0.00    -0.193 OA
ATOM      3  O   UNL d   1       2.483  -0.133   0.003  0.00  0.00    -0.193 OA
ENDROOT
BRANCH   1   4
ATOM      4  C   UNL d   1       0.454  -1.547  -0.740  0.00  0.00     0.090 A 
ATOM      5  C   UNL d   1      -0.350  -1.515  -1.883  0.00  0.00     0.049 A 
ATOM      6  C   UNL d   1      -0.764  -2.716  -2.452  0.00  0.00     0.037 A 
ATOM      7 CL   UNL d   1      -1.747  -2.693  -3.864  0.00  0.00    -0.084 Cl
ATOM      8  C   UNL d   1      -0.387  -3.937  -1.894  0.00  0.00     0.047 A 
ATOM      9  C   UNL d   1       0.417  -3.951  -0.755  0.00  0.00     0.037 A 
ATOM     10  C   UNL d   1       0.846  -2.762  -0.169  0.00  0.00     0.049 A 
ATOM     11 CL   UNL d   1       0.891  -5.455  -0.068  0.00  0.00    -0.084 Cl
ENDBRANCH   1   4
BRANCH   1  12
ATOM     12  O   UNL d   1       0.472  -0.078   1.506  0.00  0.00    -0.228 OA
BRANCH  12  13
ATOM     13  C   UNL d   1       0.761   0.906   2.416  0.00  0.00     0.106 A 
ATOM     14  C   UNL d   1       1.491   2.067   2.163  0.00  0.00     0.065 A 
ATOM     15  C   UNL d   1       1.713   2.973   3.198  0.00  0.00     0.052 A 
ATOM     16 CL   UNL d   1       2.616   4.407   2.921  0.00  0.00    -0.083 Cl
ATOM     17  C   UNL d   1       1.194   2.693   4.452  0.00  0.00     0.111 A 
ATOM     18  N   UNL d   1       0.475   1.581   4.732  0.00  0.00    -0.371 N 
ATOM     19  C   UNL d   1       0.276   0.718   3.707  0.00  0.00     0.125 A 
ATOM     20  HN  UNL d   1       0.102   1.402   5.665  1.00  0.00     0.164 HD
ENDBRANCH  12  13
ENDBRANCH   1  12
TORSDOF 3
