REMARK  4 active torsions:
REMARK  status: ('A' for Active; 'I' for Inactive)
REMARK    1  A    between atoms: O_8  and  C_1 
REMARK    2  A    between atoms: C_5  and  O_8 
REMARK    3  A    between atoms: C_12  and  C_9 
REMARK    4  A    between atoms: O_21  and  C_10 
ROOT
ATOM      1  C   UNL d   1       3.826  -3.269  -0.313  0.00  0.00     0.129 A 
ATOM      2  C   UNL d   1       3.351  -4.020  -1.410  0.00  0.00     0.048 A 
ATOM      3  C   UNL d   1       3.601  -6.105  -0.178  0.00  0.00    -0.030 A 
ATOM      4  C   UNL d   1       4.289  -3.960   0.819  0.00  0.00     0.104 A 
ATOM      5  C   UNL d   1       3.191  -5.410  -1.317  0.00  0.00     0.031 A 
ATOM      6  C   UNL d   1       4.170  -5.362   0.868  0.00  0.00     0.049 A 
ATOM      7 BR   UNL d   1       3.049  -3.298  -3.154  0.00  0.00    -0.048 Br
ENDROOT
BRANCH   1   8
ATOM      8  O   UNL d   1       3.931  -1.894  -0.341  0.00  0.00    -0.283 OA
BRANCH   8   9
ATOM      9  C   UNL d   1       2.926  -1.127  -0.772  0.00  0.00     0.193 C 
ATOM     10  N   UNL d   1       1.670  -1.519  -0.830  0.00  0.00    -0.329 N 
ATOM     11  C   UNL d   1       0.956  -0.643  -1.631  0.00  0.00     0.053 A 
ATOM     12  HN  UNL d   1       1.284  -2.337  -0.360  1.00  0.00     0.168 HD
ATOM     13  C   UNL d   1      -0.362  -0.840  -2.092  0.00  0.00     0.054 A 
ATOM     14  C   UNL d   1       1.650   0.497  -2.039  0.00  0.00     0.035 A 
ATOM     15  C   UNL d   1      -0.928   0.095  -2.959  0.00  0.00     0.036 A 
ATOM     16 CL   UNL d   1      -2.511  -0.174  -3.581  0.00  0.00    -0.084 Cl
ATOM     17  C   UNL d   1      -0.223   1.230  -3.351  0.00  0.00     0.025 A 
ATOM     18  C   UNL d   1       1.075   1.458  -2.881  0.00  0.00     0.023 A 
ATOM     19  S   UNL d   1       3.238   0.446  -1.368  0.00  0.00    -0.044 SA
ENDBRANCH   8   9
ENDBRANCH   1   8
BRANCH   4  20
ATOM     20  O   UNL d   1       4.892  -3.479   1.951  0.00  0.00    -0.353 OA
ATOM     21  C   UNL d   1       5.176  -2.096   2.074  0.00  0.00     0.210 C 
ENDBRANCH   4  20
BRANCH   3  22
ATOM     22  C   UNL d   1       3.472  -7.604  -0.048  0.00  0.00     0.141 C 
ATOM     23  S   UNL d   1       4.191  -8.533  -1.430  0.00  0.00    -0.148 SA
ATOM     24  C   UNL d   1       3.317 -10.060  -1.032  0.00  0.00     0.085 C 
ATOM     25  C   UNL d   1       1.864  -9.703  -0.769  0.00  0.00     0.085 C 
ATOM     26  S   UNL d   1       1.747  -8.148   0.174  0.00  0.00    -0.148 SA
ENDBRANCH   3  22
TORSDOF 4
