REMARK  6 active torsions:
REMARK  status: ('A' for Active; 'I' for Inactive)
REMARK    1  A    between atoms: C_8  and  C_1 
REMARK    2  A    between atoms: S_2  and  C_9 
REMARK    3  A    between atoms: C_10  and  S_2 
REMARK    4  A    between atoms: C_9  and  C_3 
REMARK       I    between atoms: N_12  and  C_8 
REMARK       I    between atoms: C_11  and  N_13 
REMARK    5  A    between atoms: C_20  and  C_11 
REMARK    6  A    between atoms: N_13  and  N_12 
ROOT
ATOM      1  C   UNL d   1      -0.089  -1.190  -0.215  0.00  0.00     0.098 A 
ATOM      2  C   UNL d   1       0.652   1.140  -0.191  0.00  0.00     0.066 A 
ATOM      3  N   UNL d   1      -0.655   1.081  -0.068  0.00  0.00    -0.355 N 
ATOM      4  HN  UNL d   1      -1.265   1.893   0.027  1.00  0.00     0.166 HD
ATOM      5  C   UNL d   1      -1.094  -0.237  -0.086  0.00  0.00     0.028 A 
ATOM      6  S   UNL d   1       1.416  -0.383  -0.425  0.00  0.00    -0.068 SA
ATOM      7  C   UNL d   1      -2.554  -0.475   0.079  0.00  0.00     0.070 C 
ENDROOT
BRANCH   1   8
ATOM      8  C   UNL d   1      -0.205  -2.641  -0.152  0.00  0.00     0.279 C 
ATOM      9  N   UNL d   1       0.955  -3.363  -0.385  0.00  0.00    -0.262 N 
ATOM     10  H   UNL d   1       1.839  -2.927  -0.646  0.00  0.00     0.190 HD
ATOM     11  O   UNL d   1      -1.258  -3.226   0.116  0.00  0.00    -0.265 OA
BRANCH   9  12
ATOM     12  N   UNL d   1       0.945  -4.765  -0.301  0.00  0.00    -0.263 N 
ATOM     13  C   UNL d   1       2.138  -5.431  -0.513  0.00  0.00     0.270 C 
ATOM     14  O   UNL d   1       3.182  -4.835  -0.769  0.00  0.00    -0.266 OA
ATOM     15  H   UNL d   1       0.114  -5.194   0.102  0.00  0.00     0.190 HD
BRANCH  13  16
ATOM     16  C   UNL d   1       2.119  -6.918  -0.409  0.00  0.00     0.033 A 
ATOM     17  C   UNL d   1       0.965  -7.669  -0.668  0.00  0.00     0.017 A 
ATOM     18  C   UNL d   1       1.011  -9.066  -0.614  0.00  0.00     0.001 A 
ATOM     19  C   UNL d   1       2.203  -9.720  -0.301  0.00  0.00     0.000 A 
ATOM     20  C   UNL d   1       3.356  -8.980  -0.046  0.00  0.00     0.001 A 
ATOM     21  C   UNL d   1       3.316  -7.583  -0.105  0.00  0.00     0.017 A 
ENDBRANCH  13  16
ENDBRANCH   9  12
ENDBRANCH   1   8
BRANCH   2  22
ATOM     22  C   UNL d   1       1.456   2.379  -0.012  0.00  0.00     0.212 C 
BRANCH  22  23
ATOM     23  S   UNL d   1       1.376   3.388  -1.461  0.00  0.00     0.196 S 
ATOM     24  O   UNL d   1       2.138   4.601  -1.206  0.00  0.00    -0.221 OA
ATOM     25  O   UNL d   1       1.735   2.565  -2.611  0.00  0.00    -0.221 OA
BRANCH  23  26
ATOM     26  C   UNL d   1      -0.330   3.860  -1.636  0.00  0.00     0.128 A 
ATOM     27  N   UNL d   1      -0.850   4.492  -0.550  0.00  0.00    -0.357 N 
ATOM     28  C   UNL d   1      -2.134   4.896  -0.671  0.00  0.00     0.089 A 
ATOM     29  HN  UNL d   1      -0.308   4.650   0.299  1.00  0.00     0.166 HD
ATOM     30  C   UNL d   1      -2.904   4.698  -1.810  0.00  0.00     0.017 A 
ATOM     31  C   UNL d   1      -2.331   4.045  -2.899  0.00  0.00     0.004 A 
ATOM     32  C   UNL d   1      -1.012   3.615  -2.819  0.00  0.00     0.042 A 
ENDBRANCH  23  26
ENDBRANCH  22  23
ENDBRANCH   2  22
TORSDOF 6
