REMARK  4 active torsions:
REMARK  status: ('A' for Active; 'I' for Inactive)
REMARK    1  A    between atoms: N_5  and  C_1 
REMARK    2  A    between atoms: N_6  and  C_2 
REMARK       I    between atoms: C_7  and  N_5 
REMARK       I    between atoms: C_8  and  N_6 
REMARK    3  A    between atoms: C_18  and  C_7 
REMARK    4  A    between atoms: C_17  and  C_8 
ROOT
ATOM      1  C   UNL d   1      -1.038   1.446   0.157  0.00  0.00     0.045 A 
ATOM      2  C   UNL d   1       1.355  -1.454   0.076  0.00  0.00     0.045 A 
ATOM      3  C   UNL d   1       0.179   0.704   0.099  0.00  0.00     0.003 A 
ATOM      4  C   UNL d   1       0.130  -0.716   0.021  0.00  0.00     0.003 A 
ATOM      5  C   UNL d   1       2.581  -0.783   0.141  0.00  0.00     0.030 A 
ATOM      6  C   UNL d   1      -2.272   0.788   0.138  0.00  0.00     0.030 A 
ATOM      7  C   UNL d   1       1.451   1.325   0.195  0.00  0.00     0.014 A 
ATOM      8  C   UNL d   1      -1.147  -1.332  -0.029  0.00  0.00     0.014 A 
ATOM      9  C   UNL d   1       2.630   0.597   0.201  0.00  0.00     0.003 A 
ATOM     10  C   UNL d   1      -2.326  -0.592   0.030  0.00  0.00     0.003 A 
ENDROOT
BRANCH   1  11
ATOM     11  N   UNL d   1      -1.000   2.861   0.207  0.00  0.00    -0.326 N 
ATOM     12  C   UNL d   1      -1.889   3.665   0.904  0.00  0.00     0.221 C 
ATOM     13  O   UNL d   1      -2.835   3.275   1.578  0.00  0.00    -0.273 OA
ATOM     14  H   UNL d   1      -0.150   3.305  -0.106  0.00  0.00     0.169 HD
BRANCH  12  15
ATOM     15  C   UNL d   1      -1.546   5.137   0.750  0.00  0.00     0.098 C 
ATOM     16  C   UNL d   1      -2.246   6.005   1.780  0.00  0.00     0.014 C 
ENDBRANCH  12  15
ENDBRANCH   1  11
BRANCH   2  17
ATOM     17  N   UNL d   1       1.342  -2.873   0.064  0.00  0.00    -0.326 N 
ATOM     18  C   UNL d   1       2.252  -3.660   0.756  0.00  0.00     0.221 C 
ATOM     19  O   UNL d   1       3.146  -3.253   1.494  0.00  0.00    -0.273 OA
ATOM     20  H   UNL d   1       0.507  -3.332  -0.262  0.00  0.00     0.169 HD
BRANCH  18  21
ATOM     21  C   UNL d   1       2.023  -5.144   0.575  0.00  0.00     0.098 C 
ATOM     22  C   UNL d   1       0.834  -5.636   1.378  0.00  0.00     0.014 C 
ENDBRANCH  18  21
ENDBRANCH   2  17
TORSDOF 4
