REMARK  4 active torsions:
REMARK  status: ('A' for Active; 'I' for Inactive)
REMARK       I    between atoms: N_3  and  C_1 
REMARK       I    between atoms: N_4  and  C_1 
REMARK    1  A    between atoms: C_2  and  N_3 
REMARK    2  A    between atoms: C_5  and  N_4 
REMARK    3  A    between atoms: O_19  and  C_9 
REMARK    4  A    between atoms: O_20  and  C_14 
ROOT
ATOM      1  C   UNL d   1       1.056  -0.193   0.113  0.00  0.00     0.325 C 
ATOM      2  N   UNL d   1       0.419   0.790  -0.619  0.00  0.00    -0.306 N 
ATOM      3  N   UNL d   1       0.142  -1.027   0.725  0.00  0.00    -0.307 N 
ATOM      4  O   UNL d   1       2.273  -0.311   0.203  0.00  0.00    -0.247 OA
ATOM      5  H   UNL d   1      -0.484   1.092  -0.280  0.00  0.00     0.171 HD
ATOM      6  H   UNL d   1      -0.745  -1.122   0.244  0.00  0.00     0.170 HD
ENDROOT
BRANCH   2   7
ATOM      7  C   UNL d   1       1.078   1.684  -1.493  0.00  0.00     0.072 A 
ATOM      8  C   UNL d   1       2.225   1.298  -2.198  0.00  0.00     0.069 A 
ATOM      9  C   UNL d   1       2.829   2.165  -3.110  0.00  0.00     0.070 A 
ATOM     10  C   UNL d   1       2.293   3.442  -3.296  0.00  0.00     0.039 A 
ATOM     11  C   UNL d   1       1.145   3.838  -2.607  0.00  0.00     0.042 A 
ATOM     12  C   UNL d   1       0.541   2.961  -1.706  0.00  0.00     0.095 A 
BRANCH   9  13
ATOM     13  O   UNL d   1       3.925   1.874  -3.876  0.00  0.00    -0.356 OA
ATOM     14  C   UNL d   1       4.359   0.517  -3.873  0.00  0.00     0.210 C 
ENDBRANCH   9  13
BRANCH  12  15
ATOM     15  O   UNL d   1      -0.612   3.374  -1.089  0.00  0.00    -0.354 OA
ATOM     16  C   UNL d   1      -0.406   3.673   0.295  0.00  0.00     0.210 C 
ENDBRANCH  12  15
ENDBRANCH   2   7
BRANCH   3  17
ATOM     17  C   UNL d   1       0.470  -2.072   1.621  0.00  0.00     0.058 A 
ATOM     18  C   UNL d   1      -0.406  -3.163   1.758  0.00  0.00     0.062 A 
ATOM     19  C   UNL d   1      -0.097  -4.228   2.606  0.00  0.00     0.050 A 
ATOM     20 CL   UNL d   1      -1.878  -3.238   0.850  0.00  0.00    -0.082 Cl
ATOM     21  C   UNL d   1       1.083  -4.194   3.343  0.00  0.00     0.035 A 
ATOM     22  C   UNL d   1       1.947  -3.109   3.249  0.00  0.00     0.026 A 
ATOM     23 CL   UNL d   1       1.479  -5.511   4.380  0.00  0.00    -0.084 Cl
ATOM     24  C   UNL d   1       1.639  -2.049   2.392  0.00  0.00     0.033 A 
ENDBRANCH   3  17
TORSDOF 4
