REMARK  0 active torsions:
REMARK  status: ('A' for Active; 'I' for Inactive)
ROOT
ATOM      1  C   UNL d   1      -0.683  -0.822  -0.379  0.00  0.00     0.212 C 
ATOM      2  C   UNL d   1       0.674  -0.908   0.289  0.00  0.00     0.190 C 
ATOM      3  C   UNL d   1      -0.971   0.550  -0.987  0.00  0.00     0.295 C 
ATOM      4  O   UNL d   1      -2.337   0.839  -0.680  0.00  0.00    -0.323 OA
ATOM      5  C   UNL d   1       0.989   0.277   1.183  0.00  0.00     0.180 C 
ATOM      6  O   UNL d   1      -1.735  -1.031   0.571  0.00  0.00    -0.343 OA
ATOM      7  C   UNL d   1      -2.836  -0.276   0.056  0.00  0.00     0.160 C 
ATOM      8  O   UNL d   1       1.702  -0.932  -0.703  0.00  0.00    -0.345 OA
ATOM      9  C   UNL d   1       2.812  -0.248  -0.125  0.00  0.00     0.158 C 
ATOM     10  O   UNL d   1       2.388   0.531   0.994  0.00  0.00    -0.346 OA
ATOM     11  O   UNL d   1      -0.119   1.602  -0.541  0.00  0.00    -0.356 OA
ATOM     12  C   UNL d   1       0.174   1.528   0.851  0.00  0.00     0.205 C 
ATOM     13  C   UNL d   1      -3.675   0.215   1.227  0.00  0.00     0.078 C 
ATOM     14  C   UNL d   1      -3.679  -1.142  -0.881  0.00  0.00     0.078 C 
ATOM     15  C   UNL d   1       3.831  -1.272   0.366  0.00  0.00     0.078 C 
ATOM     16  C   UNL d   1       3.417   0.663  -1.184  0.00  0.00     0.078 C 
ENDROOT
TORSDOF 0
