REMARK  5 active torsions:
REMARK  status: ('A' for Active; 'I' for Inactive)
REMARK    1  A    between atoms: C_2  and  S_1 
REMARK    2  A    between atoms: C_3  and  S_1 
REMARK    3  A    between atoms: C_7  and  C_3 
REMARK    4  A    between atoms: N_10  and  C_4 
REMARK    5  A    between atoms: C_12  and  N_10 
ROOT
ATOM      1  C   UNL d   1       0.497   0.892  -1.348  0.00  0.00     0.154 C 
ATOM      2  C   UNL d   1      -0.079   0.258  -2.385  0.00  0.00     0.124 C 
ATOM      3  C   UNL d   1       0.816   0.253  -0.130  0.00  0.00     0.113 C 
ATOM      4  N   UNL d   1       1.071  -0.325   0.845  0.00  0.00    -0.191 NA
ENDROOT
BRANCH   1   5
ATOM      5  S   UNL d   1       0.964   2.553  -1.545  0.00  0.00     0.192 S 
ATOM      6  O   UNL d   1       1.665   2.682  -2.815  0.00  0.00    -0.222 OA
ATOM      7  O   UNL d   1       1.609   3.046  -0.340  0.00  0.00    -0.222 OA
BRANCH   5   8
ATOM      8  C   UNL d   1      -0.571   3.440  -1.737  0.00  0.00     0.211 C 
BRANCH   8   9
ATOM      9  C   UNL d   1      -1.464   3.192  -0.589  0.00  0.00     0.066 A 
ATOM     10  O   UNL d   1      -2.352   2.167  -0.730  0.00  0.00    -0.326 OA
ATOM     11  C   UNL d   1      -3.088   2.119   0.410  0.00  0.00     0.142 A 
ATOM     12  C   UNL d   1      -2.688   3.104   1.281  0.00  0.00     0.027 A 
ATOM     13  C   UNL d   1      -1.641   3.804   0.634  0.00  0.00     0.035 A 
ENDBRANCH   8   9
ENDBRANCH   5   8
ENDBRANCH   1   5
BRANCH   2  14
ATOM     14  N   UNL d   1      -0.559  -1.029  -2.457  0.00  0.00    -0.350 N 
ATOM     15  H   UNL d   1      -0.822  -1.492  -1.588  0.00  0.00     0.166 HD
BRANCH  14  16
ATOM     16  C   UNL d   1      -1.194  -1.646  -3.541  0.00  0.00     0.104 A 
ATOM     17  N   UNL d   1      -2.093  -2.601  -3.231  0.00  0.00    -0.352 N 
ATOM     18  C   UNL d   1      -2.748  -3.205  -4.248  0.00  0.00     0.089 A 
ATOM     19  HN  UNL d   1      -2.273  -2.860  -2.261  1.00  0.00     0.166 HD
ATOM     20  C   UNL d   1      -2.537  -2.915  -5.586  0.00  0.00     0.017 A 
ATOM     21  C   UNL d   1      -1.592  -1.952  -5.896  0.00  0.00     0.005 A 
ATOM     22  C   UNL d   1      -0.913  -1.307  -4.863  0.00  0.00     0.048 A 
ENDBRANCH  14  16
ENDBRANCH   2  14
TORSDOF 5
