REMARK  5 active torsions:
REMARK  status: ('A' for Active; 'I' for Inactive)
REMARK    1  A    between atoms: S_20  and  C_3 
REMARK    2  A    between atoms: C_6  and  C_14 
REMARK    3  A    between atoms: S_15  and  C_9 
REMARK    4  A    between atoms: C_25  and  S_15 
REMARK    5  A    between atoms: C_24  and  C_25 
ROOT
ATOM      1  C   UNL d   1      -0.859  -0.577  -0.016  0.00  0.00     0.022 A 
ATOM      2  C   UNL d   1       0.601  -0.471   0.004  0.00  0.00     0.054 A 
ATOM      3  C   UNL d   1      -1.624  -1.737   0.006  0.00  0.00     0.053 A 
ATOM      4  N   UNL d   1       1.331  -1.599  -0.007  0.00  0.00    -0.336 N 
ATOM      5  HN  UNL d   1       0.886  -2.516  -0.042  1.00  0.00     0.168 HD
ATOM      6  C   UNL d   1      -1.691   0.602  -0.036  0.00  0.00    -0.037 A 
ATOM      7  S   UNL d   1      -3.308  -1.386  -0.018  0.00  0.00    -0.093 SA
ATOM      8  C   UNL d   1       2.665  -1.478   0.029  0.00  0.00     0.144 A 
ATOM      9  C   UNL d   1      -3.034   0.292  -0.045  0.00  0.00     0.059 A 
ATOM     10  C   UNL d   1       1.175   0.789   0.020  0.00  0.00    -0.015 A 
ATOM     11  N   UNL d   1       3.321  -0.309   0.068  0.00  0.00    -0.346 N 
ATOM     12  HN  UNL d   1       4.340  -0.262   0.103  1.00  0.00     0.167 HD
ATOM     13  C   UNL d   1       2.556   0.799   0.057  0.00  0.00     0.099 A 
ATOM     14  C   UNL d   1      -1.136   1.989  -0.035  0.00  0.00     0.045 A 
ATOM     15  C   UNL d   1       0.399   2.075  -0.022  0.00  0.00     0.047 A 
ENDROOT
BRANCH   8  16
ATOM     16  S   UNL d   1       3.588  -2.989  -0.074  0.00  0.00    -0.089 SA
BRANCH  16  17
ATOM     17  C   UNL d   1       5.087  -2.518   0.840  0.00  0.00     0.121 C 
BRANCH  17  18
ATOM     18  C   UNL d   1       6.033  -3.695   0.968  0.00  0.00    -0.048 A 
ATOM     19  C   UNL d   1       6.991  -3.957  -0.025  0.00  0.00     0.024 A 
ATOM     20  C   UNL d   1       7.852  -5.063   0.070  0.00  0.00     0.048 A 
ATOM     21  C   UNL d   1       7.742  -5.915   1.180  0.00  0.00     0.016 A 
ATOM     22  C   UNL d   1       6.791  -5.669   2.168  0.00  0.00     0.001 A 
ATOM     23  C   UNL d   1       5.939  -4.568   2.063  0.00  0.00     0.008 A 
BRANCH  20  24
ATOM     24  C   UNL d   1       8.881  -5.353  -0.995  0.00  0.00     0.417 C 
ATOM     25  F   UNL d   1       8.884  -4.450  -2.015  0.00  0.00    -0.166 F 
ATOM     26  F   UNL d   1      10.152  -5.359  -0.502  0.00  0.00    -0.166 F 
ATOM     27  F   UNL d   1       8.703  -6.572  -1.577  0.00  0.00    -0.166 F 
ENDBRANCH  20  24
ENDBRANCH  17  18
ENDBRANCH  16  17
ENDBRANCH   8  16
BRANCH   3  28
ATOM     28  S   UNL d   1      -1.131  -3.430   0.082  0.00  0.00    -0.126 SA
ATOM     29  C   UNL d   1      -1.006  -3.789  -1.685  0.00  0.00     0.096 C 
ENDBRANCH   3  28
TORSDOF 5
