REMARK  3 active torsions:
REMARK  status: ('A' for Active; 'I' for Inactive)
REMARK    1  A    between atoms: C_8  and  C_1 
REMARK       I    between atoms: C_2  and  N_13 
REMARK       I    between atoms: N_3  and  C_2 
REMARK    2  A    between atoms: C_5  and  N_3 
REMARK    3  A    between atoms: N_13  and  C_11 
ROOT
ATOM      1  C   UNL d   1       3.245  -4.803  -0.011  0.00  0.00     0.324 C 
ATOM      2  N   UNL d   1       3.461  -6.024   0.571  0.00  0.00    -0.306 N 
ATOM      3  N   UNL d   1       1.974  -4.305  -0.016  0.00  0.00    -0.319 N 
ATOM      4  O   UNL d   1       4.226  -4.160  -0.407  0.00  0.00    -0.247 OA
ATOM      5  H   UNL d   1       4.458  -6.168   0.695  0.00  0.00     0.171 HD
ATOM      6  H   UNL d   1       1.227  -4.936   0.218  0.00  0.00     0.170 HD
ENDROOT
BRANCH   3   7
ATOM      7  C   UNL d   1       1.623  -3.012  -0.325  0.00  0.00     0.094 C 
ATOM      8  C   UNL d   1       0.338  -2.626  -0.302  0.00  0.00     0.036 C 
BRANCH   8   9
ATOM      9  C   UNL d   1      -0.073  -1.263  -0.399  0.00  0.00     0.012 C 
ATOM     10  C   UNL d   1       0.430  -0.138  -1.051  0.00  0.00    -0.044 C 
ATOM     11  C   UNL d   1      -0.282   1.052  -0.665  0.00  0.00     0.015 C 
ATOM     12  C   UNL d   1       1.566  -0.062  -2.021  0.00  0.00     0.049 C 
ATOM     13  C   UNL d   1      -1.339   0.804   0.174  0.00  0.00     0.051 C 
ATOM     14  S   UNL d   1      -1.510  -0.855   0.491  0.00  0.00    -0.102 SA
ENDBRANCH   8   9
ENDBRANCH   3   7
BRANCH   2  15
ATOM     15  C   UNL d   1       2.603  -6.970   1.167  0.00  0.00     0.075 A 
ATOM     16  C   UNL d   1       1.240  -7.124   0.872  0.00  0.00     0.146 A 
ATOM     17  C   UNL d   1       0.432  -8.013   1.570  0.00  0.00     0.086 A 
ATOM     18  F   UNL d   1       0.669  -6.435  -0.126  0.00  0.00    -0.204 F 
ATOM     19  C   UNL d   1       0.993  -8.786   2.570  0.00  0.00     0.119 A 
ATOM     20  C   UNL d   1       2.352  -8.710   2.851  0.00  0.00     0.044 A 
ATOM     21  F   UNL d   1       0.214  -9.618   3.273  0.00  0.00    -0.206 F 
ATOM     22  C   UNL d   1       3.159  -7.814   2.139  0.00  0.00     0.036 A 
ENDBRANCH   2  15
TORSDOF 3
