REMARK  4 active torsions:
REMARK  status: ('A' for Active; 'I' for Inactive)
REMARK    1  A    between atoms: C_7  and  C_1 
REMARK    2  A    between atoms: C_9  and  C_6 
REMARK    3  A    between atoms: S_8  and  C_7 
REMARK    4  A    between atoms: C_11  and  S_8 
ROOT
ATOM      1  C   UNL d   1       0.186  -1.012   0.001  0.00  0.00     0.109 C 
ATOM      2  N   UNL d   1      -0.737   0.004  -0.110  0.00  0.00    -0.292 N 
ATOM      3  C   UNL d   1       1.331  -0.365   0.442  0.00  0.00     0.063 C 
ATOM      4  N   UNL d   1      -0.179   1.230  -0.087  0.00  0.00    -0.302 N 
ATOM      5  HN  UNL d   1      -0.637   2.126  -0.252  1.00  0.00     0.186 HD
ATOM      6  C   UNL d   1       1.109   1.010   0.201  0.00  0.00     0.036 C 
ATOM      7  C   UNL d   1      -2.168  -0.078  -0.268  0.00  0.00     0.178 C 
ENDROOT
BRANCH   1   8
ATOM      8  C   UNL d   1      -0.055  -2.395  -0.348  0.00  0.00     0.241 C 
ATOM      9  O   UNL d   1      -1.093  -2.812  -0.841  0.00  0.00    -0.278 OA
BRANCH   8  10
ATOM     10  S   UNL d   1       1.241  -3.525   0.019  0.00  0.00    -0.046 SA
BRANCH  10  11
ATOM     11  C   UNL d   1       2.498  -3.322  -1.240  0.00  0.00     0.010 A 
ATOM     12  C   UNL d   1       2.785  -2.134  -1.923  0.00  0.00     0.038 A 
ATOM     13  C   UNL d   1       3.940  -2.027  -2.705  0.00  0.00     0.012 A 
ATOM     14 BR   UNL d   1       4.383  -0.367  -3.498  0.00  0.00    -0.051 Br
ATOM     15  C   UNL d   1       4.794  -3.112  -2.870  0.00  0.00     0.019 A 
ATOM     16  C   UNL d   1       4.483  -4.320  -2.256  0.00  0.00     0.003 A 
ATOM     17  C   UNL d   1       3.350  -4.420  -1.442  0.00  0.00     0.019 A 
ENDBRANCH  10  11
ENDBRANCH   8  10
ENDBRANCH   1   8
BRANCH   6  18
ATOM     18  C   UNL d   1       2.122   2.140   0.136  0.00  0.00    -0.007 C 
ATOM     19  C   UNL d   1       3.541   1.657   0.514  0.00  0.00     0.021 C 
ATOM     20  C   UNL d   1       2.186   2.692  -1.304  0.00  0.00     0.021 C 
ATOM     21  C   UNL d   1       1.726   3.276   1.093  0.00  0.00     0.021 C 
ENDBRANCH   6  18
TORSDOF 4
