REMARK  3 active torsions:
REMARK  status: ('A' for Active; 'I' for Inactive)
REMARK    1  A    between atoms: C_7  and  C_2 
REMARK    2  A    between atoms: O_11  and  C_7 
REMARK    3  A    between atoms: O_13  and  C_8 
ROOT
ATOM      1  N   UNL d   1      -0.700  -1.872   0.039  0.00  0.00    -0.348 N 
ATOM      2  C   UNL d   1      -2.034  -1.519  -0.003  0.00  0.00     0.112 A 
ATOM      3  C   UNL d   1       0.352  -0.953   0.010  0.00  0.00     0.081 A 
ATOM      4  C   UNL d   1      -2.451  -0.248  -0.030  0.00  0.00     0.091 A 
ATOM      5  C   UNL d   1      -1.424   0.818  -0.021  0.00  0.00     0.186 A 
ATOM      6  C   UNL d   1       0.012   0.423  -0.010  0.00  0.00     0.043 A 
ATOM      7  C   UNL d   1       1.718  -1.295   0.021  0.00  0.00     0.095 A 
ATOM      8  O   UNL d   1      -1.771   1.995  -0.029  0.00  0.00    -0.287 OA
ATOM      9  C   UNL d   1       0.986   1.429  -0.025  0.00  0.00     0.018 A 
ATOM     10  C   UNL d   1       2.328   1.079  -0.019  0.00  0.00     0.004 A 
ATOM     11  C   UNL d   1       2.683  -0.269   0.004  0.00  0.00     0.039 A 
ATOM     12  H   UNL d   1      -0.550  -2.870   0.014  0.00  0.00     0.166 HD
ENDROOT
BRANCH   2  13
ATOM     13  C   UNL d   1      -2.987  -2.677  -0.023  0.00  0.00     0.309 C 
ATOM     14  O   UNL d   1      -2.577  -3.832  -0.000  0.00  0.00    -0.258 OA
BRANCH  13  15
ATOM     15  O   UNL d   1      -4.284  -2.295  -0.078  0.00  0.00    -0.321 OA
ATOM     16  C   UNL d   1      -5.194  -3.397  -0.109  0.00  0.00     0.213 C 
ENDBRANCH  13  15
ENDBRANCH   2  13
BRANCH   7  17
ATOM     17  O   UNL d   1       2.324  -2.523   0.045  0.00  0.00    -0.354 OA
ATOM     18  C   UNL d   1       1.569  -3.718   0.063  0.00  0.00     0.210 C 
ENDBRANCH   7  17
TORSDOF 3
