REMARK  7 active torsions:
REMARK  status: ('A' for Active; 'I' for Inactive)
REMARK    1  A    between atoms: C_9  and  C_1 
REMARK    2  A    between atoms: C_2  and  C_10 
REMARK    3  A    between atoms: C_3  and  O_8 
REMARK    4  A    between atoms: C_4  and  C_3 
REMARK    5  A    between atoms: N_5  and  C_9 
REMARK    6  A    between atoms: O_8  and  N_5 
REMARK    7  A    between atoms: C_10  and  N_5 
ROOT
ATOM      1  N   UNL d   1      -1.139   2.844   0.169  0.00  0.00    -0.179 NA
ENDROOT
BRANCH   1   2
ATOM      2  C   UNL d   1       0.187   2.297  -0.171  0.00  0.00     0.165 C 
BRANCH   2   3
ATOM      3  C   UNL d   1       0.365   0.806  -0.003  0.00  0.00     0.017 A 
ATOM      4  C   UNL d   1       0.977   0.329   1.165  0.00  0.00     0.125 A 
ATOM      5  F   UNL d   1       1.271   1.180   2.160  0.00  0.00    -0.205 F 
ATOM      6  C   UNL d   1       1.331  -1.009   1.322  0.00  0.00     0.043 A 
ATOM      7  C   UNL d   1       1.065  -1.914   0.302  0.00  0.00     0.005 A 
ATOM      8  C   UNL d   1       0.415  -1.476  -0.852  0.00  0.00     0.024 A 
ATOM      9  C   UNL d   1       0.058  -0.127  -1.002  0.00  0.00     0.044 A 
ATOM     10 CL   UNL d   1      -0.718   0.330  -2.475  0.00  0.00    -0.084 Cl
ENDBRANCH   2   3
ENDBRANCH   1   2
BRANCH   1  11
ATOM     11  O   UNL d   1      -1.308   2.542   1.603  0.00  0.00    -0.224 OA
BRANCH  11  12
ATOM     12  C   UNL d   1      -2.605   2.226   1.932  0.00  0.00     0.280 C 
ATOM     13  O   UNL d   1      -3.602   2.346   1.238  0.00  0.00    -0.263 OA
BRANCH  12  14
ATOM     14  C   UNL d   1      -2.670   1.753   3.344  0.00  0.00     0.087 A 
ATOM     15  C   UNL d   1      -3.948   1.194   3.925  0.00  0.00     0.015 A 
ATOM     16  C   UNL d   1      -3.447   2.535   4.379  0.00  0.00     0.015 A 
ENDBRANCH  12  14
ENDBRANCH  11  12
ENDBRANCH   1  11
BRANCH   1  17
ATOM     17  C   UNL d   1      -1.124   4.328   0.123  0.00  0.00     0.165 C 
BRANCH  17  18
ATOM     18  C   UNL d   1      -0.915   4.935  -1.248  0.00  0.00     0.017 A 
ATOM     19  C   UNL d   1      -2.018   5.090  -2.097  0.00  0.00     0.125 A 
ATOM     20  F   UNL d   1      -3.239   4.729  -1.681  0.00  0.00    -0.205 F 
ATOM     21  C   UNL d   1      -1.899   5.651  -3.369  0.00  0.00     0.043 A 
ATOM     22  C   UNL d   1      -0.655   6.066  -3.832  0.00  0.00     0.005 A 
ATOM     23  C   UNL d   1       0.459   5.928  -3.008  0.00  0.00     0.024 A 
ATOM     24  C   UNL d   1       0.331   5.380  -1.724  0.00  0.00     0.044 A 
ATOM     25 CL   UNL d   1       1.770   5.312  -0.767  0.00  0.00    -0.084 Cl
ENDBRANCH  17  18
ENDBRANCH   1  17
TORSDOF 7
