REMARK  8 active torsions:
REMARK  status: ('A' for Active; 'I' for Inactive)
REMARK    1  A    between atoms: C_2  and  S_1 
REMARK    2  A    between atoms: C_11  and  S_1 
REMARK    3  A    between atoms: C_3  and  C_5 
REMARK    4  A    between atoms: C_4  and  C_6 
REMARK    5  A    between atoms: C_7  and  O_19 
REMARK    6  A    between atoms: N_15  and  C_8 
REMARK    7  A    between atoms: C_16  and  N_15 
REMARK    8  A    between atoms: O_19  and  C_31 
ROOT
ATOM      1  C   UNL d   1       0.470   1.373  -1.061  0.00  0.00     0.159 C 
ATOM      2  C   UNL d   1      -0.363   1.126  -2.091  0.00  0.00     0.123 C 
ATOM      3  C   UNL d   1       0.993   0.340  -0.246  0.00  0.00     0.113 C 
ATOM      4  N   UNL d   1       1.397  -0.549   0.376  0.00  0.00    -0.191 NA
ENDROOT
BRANCH   1   5
ATOM      5  S   UNL d   1       0.836   3.017  -0.662  0.00  0.00     0.218 S 
ATOM      6  O   UNL d   1       0.011   3.425   0.460  0.00  0.00    -0.216 OA
ATOM      7  O   UNL d   1       0.849   3.823  -1.871  0.00  0.00    -0.216 OA
BRANCH   5   8
ATOM      8  C   UNL d   1       2.527   2.997  -0.075  0.00  0.00     0.065 A 
ATOM      9  C   UNL d   1       3.586   3.167  -0.976  0.00  0.00     0.026 A 
ATOM     10  C   UNL d   1       4.905   3.240  -0.501  0.00  0.00     0.038 A 
ATOM     11  C   UNL d   1       5.162   3.185   0.870  0.00  0.00     0.078 A 
ATOM     12  C   UNL d   1       4.093   2.999   1.756  0.00  0.00     0.038 A 
ATOM     13  C   UNL d   1       2.778   2.919   1.295  0.00  0.00     0.026 A 
BRANCH  11  14
ATOM     14  O   UNL d   1       6.373   3.281   1.482  0.00  0.00    -0.255 OA
BRANCH  14  15
ATOM     15  C   UNL d   1       7.463   3.916   0.830  0.00  0.00     0.530 C 
ATOM     16  F   UNL d   1       7.089   4.757  -0.156  0.00  0.00    -0.144 F 
ATOM     17  F   UNL d   1       8.143   4.639   1.749  0.00  0.00    -0.144 F 
ATOM     18  F   UNL d   1       8.298   2.984   0.326  0.00  0.00    -0.144 F 
ENDBRANCH  14  15
ENDBRANCH  11  14
ENDBRANCH   5   8
ENDBRANCH   1   5
BRANCH   2  19
ATOM     19  N   UNL d   1      -0.738  -0.108  -2.577  0.00  0.00    -0.364 N 
ATOM     20  H   UNL d   1      -0.303  -0.921  -2.144  0.00  0.00     0.165 HD
BRANCH  19  21
ATOM     21  C   UNL d   1      -1.754  -0.443  -3.488  0.00  0.00     0.033 A 
ATOM     22  C   UNL d   1      -1.641  -1.664  -4.173  0.00  0.00     0.045 A 
ATOM     23  C   UNL d   1      -2.598  -2.081  -5.113  0.00  0.00     0.050 A 
ATOM     24  C   UNL d   1      -3.690  -1.245  -5.376  0.00  0.00     0.032 A 
ATOM     25  C   UNL d   1      -3.826  -0.014  -4.713  0.00  0.00     0.050 A 
ATOM     26  C   UNL d   1      -2.838   0.386  -3.791  0.00  0.00     0.045 A 
BRANCH  23  27
ATOM     27  C   UNL d   1      -2.435  -3.414  -5.803  0.00  0.00     0.417 C 
ATOM     28  F   UNL d   1      -3.469  -3.729  -6.629  0.00  0.00    -0.166 F 
ATOM     29  F   UNL d   1      -1.311  -3.469  -6.568  0.00  0.00    -0.166 F 
ATOM     30  F   UNL d   1      -2.336  -4.444  -4.917  0.00  0.00    -0.166 F 
ENDBRANCH  23  27
BRANCH  25  31
ATOM     31  C   UNL d   1      -5.030   0.868  -4.948  0.00  0.00     0.417 C 
ATOM     32  F   UNL d   1      -5.902   0.364  -5.865  0.00  0.00    -0.166 F 
ATOM     33  F   UNL d   1      -5.755   1.062  -3.812  0.00  0.00    -0.166 F 
ATOM     34  F   UNL d   1      -4.690   2.107  -5.394  0.00  0.00    -0.166 F 
ENDBRANCH  25  31
ENDBRANCH  19  21
ENDBRANCH   2  19
TORSDOF 8
