REMARK  0 active torsions:
REMARK  status: ('A' for Active; 'I' for Inactive)
ROOT
ATOM      1  N   UNL d   1       0.902   0.475   0.002  0.00  0.00    -0.138 N 
ATOM      2  C   UNL d   1       1.650  -0.678   0.003  0.00  0.00     0.719 A 
ATOM      3  N   UNL d   1       1.045  -1.897   0.005  0.00  0.00    -0.130 N 
ATOM      4  HN  UNL d   1       1.625  -2.736   0.006  1.00  0.00     0.205 HD
ATOM      5  N   UNL d   1      -0.209  -2.022   0.005  0.00  0.00    -0.284 N 
ATOM      6  HN  UNL d   1      -0.636  -2.948   0.007  1.00  0.00     0.187 HD
ATOM      7  C   UNL d   1      -0.489   0.435   0.002  0.00  0.00     0.086 A 
ATOM      8  C   UNL d   1      -1.018  -0.861   0.003  0.00  0.00     0.076 A 
ATOM      9  N   UNL d   1       2.926  -0.341   0.000  0.00  0.00    -0.129 N 
ATOM     10  HN  UNL d   1       3.715  -0.988  -0.001  1.00  0.00     0.205 HD
ATOM     11  N   UNL d   1       3.013   1.036  -0.001  0.00  0.00    -0.281 N 
ATOM     12  HN  UNL d   1       3.871   1.587  -0.002  1.00  0.00     0.188 HD
ATOM     13  C   UNL d   1       1.786   1.508   0.000  0.00  0.00     0.224 A 
ATOM     14  C   UNL d   1      -1.298   1.571   0.001  0.00  0.00     0.034 A 
ATOM     15  C   UNL d   1      -2.408  -1.004   0.003  0.00  0.00     0.040 A 
ATOM     16  C   UNL d   1      -2.686   1.403   0.001  0.00  0.00     0.009 A 
ATOM     17  C   UNL d   1      -3.250   0.119   0.002  0.00  0.00    -0.060 A 
ATOM     18  C   UNL d   1      -4.739  -0.079   0.001  0.00  0.00     0.048 C 
ENDROOT
TORSDOF 0
