REMARK  4 active torsions:
REMARK  status: ('A' for Active; 'I' for Inactive)
REMARK    1  A    between atoms: C_10  and  C_1 
REMARK    2  A    between atoms: C_15  and  C_5 
REMARK    3  A    between atoms: S_16  and  C_9 
REMARK    4  A    between atoms: C_25  and  S_16 
ROOT
ATOM      1  C   UNL d   1      -7.095   5.337  -0.135  0.00  0.00    -0.107 C 
ATOM      2  C   UNL d   1      -8.288   5.479  -0.084  0.00  0.00     0.013 C 
ATOM      3  C   UNL d   1      -5.633   5.143  -0.182  0.00  0.00     0.175 C 
ENDROOT
BRANCH   3   4
ATOM      4  S   UNL d   1      -5.192   3.486   0.424  0.00  0.00    -0.082 SA
BRANCH   4   5
ATOM      5  C   UNL d   1      -3.430   3.526   0.235  0.00  0.00     0.145 A 
ATOM      6  N   UNL d   1      -2.829   2.331   0.120  0.00  0.00    -0.334 N 
ATOM      7  C   UNL d   1      -1.481   2.326   0.071  0.00  0.00     0.071 A 
ATOM      8  HN  UNL d   1      -3.367   1.466   0.072  1.00  0.00     0.168 HD
ATOM      9  C   UNL d   1      -0.729   3.479   0.127  0.00  0.00     0.049 A 
ATOM     10  C   UNL d   1      -1.442   4.649   0.239  0.00  0.00     0.092 A 
ATOM     11  N   UNL d   1      -2.786   4.702   0.293  0.00  0.00    -0.347 N 
ATOM     12  HN  UNL d   1      -3.287   5.587   0.373  1.00  0.00     0.167 HD
BRANCH   7  13
ATOM     13  C   UNL d   1      -0.891   0.999  -0.002  0.00  0.00     0.127 A 
ATOM     14  C   UNL d   1      -1.394  -0.279  -0.069  0.00  0.00     0.074 A 
ATOM     15  C   UNL d   1      -0.257  -1.130  -0.059  0.00  0.00     0.068 A 
ATOM     16  N   UNL d   1       0.867  -0.395  -0.005  0.00  0.00    -0.260 N 
ATOM     17  O   UNL d   1       0.468   0.926   0.022  0.00  0.00    -0.235 OA
ATOM     18  HN  UNL d   1       1.825  -0.744   0.013  1.00  0.00     0.195 HD
BRANCH  15  19
ATOM     19  C   UNL d   1      -0.215  -2.592  -0.094  0.00  0.00    -0.007 A 
ATOM     20  C   UNL d   1      -1.239  -3.328  -0.710  0.00  0.00     0.015 A 
ATOM     21  C   UNL d   1      -1.184  -4.725  -0.755  0.00  0.00     0.024 A 
ATOM     22  C   UNL d   1      -0.108  -5.397  -0.179  0.00  0.00     0.034 A 
ATOM     23  C   UNL d   1       0.912  -4.685   0.445  0.00  0.00     0.024 A 
ATOM     24 CL   UNL d   1      -0.037  -7.115  -0.246  0.00  0.00    -0.084 Cl
ATOM     25  C   UNL d   1       0.860  -3.288   0.485  0.00  0.00     0.015 A 
ENDBRANCH  15  19
ENDBRANCH   7  13
ENDBRANCH   4   5
ENDBRANCH   3   4
TORSDOF 4
