REMARK  5 active torsions:
REMARK  status: ('A' for Active; 'I' for Inactive)
REMARK    1  A    between atoms: C_5  and  N_1 
REMARK    2  A    between atoms: N_6  and  C_2 
REMARK    3  A    between atoms: C_3  and  C_8 
REMARK    4  A    between atoms: C_4  and  C_12 
REMARK       I    between atoms: C_7  and  N_6 
REMARK    5  A    between atoms: C_14  and  C_7 
ROOT
ATOM      1  C   UNL d   1       4.509   1.456   0.071  0.00  0.00     0.062 A 
ATOM      2  C   UNL d   1       3.262   1.897   0.592  0.00  0.00     0.057 A 
ATOM      3  C   UNL d   1       5.749   2.825   1.689  0.00  0.00     0.050 A 
ATOM      4  C   UNL d   1       5.727   1.893   0.642  0.00  0.00     0.048 A 
ATOM      5  C   UNL d   1       3.325   2.818   1.661  0.00  0.00     0.032 A 
ATOM      6  C   UNL d   1       4.534   3.285   2.187  0.00  0.00     0.018 A 
ENDROOT
BRANCH   1   7
ATOM      7  N   UNL d   1       4.549   0.451  -0.938  0.00  0.00    -0.321 N 
ATOM      8  C   UNL d   1       5.524   0.018  -1.817  0.00  0.00     0.256 C 
ATOM      9  O   UNL d   1       5.453  -1.125  -2.273  0.00  0.00    -0.267 OA
ATOM     10  H   UNL d   1       3.756  -0.181  -0.890  0.00  0.00     0.169 HD
BRANCH   8  11
ATOM     11  C   UNL d   1       6.647   0.902  -2.303  0.00  0.00     0.032 A 
ATOM     12  C   UNL d   1       6.574   2.301  -2.325  0.00  0.00     0.018 A 
ATOM     13  C   UNL d   1       7.686   3.069  -2.706  0.00  0.00     0.017 A 
ATOM     14  C   UNL d   1       8.876   2.457  -3.127  0.00  0.00     0.048 A 
ATOM     15  C   UNL d   1       8.902   1.059  -3.232  0.00  0.00     0.017 A 
ATOM     16  C   UNL d   1       7.803   0.294  -2.824  0.00  0.00     0.018 A 
BRANCH  14  17
ATOM     17  C   UNL d   1      10.112   3.268  -3.450  0.00  0.00     0.417 C 
ATOM     18  F   UNL d   1      10.000   4.585  -3.115  0.00  0.00    -0.166 F 
ATOM     19  F   UNL d   1      11.216   2.815  -2.791  0.00  0.00    -0.166 F 
ATOM     20  F   UNL d   1      10.431   3.244  -4.772  0.00  0.00    -0.166 F 
ENDBRANCH  14  17
ENDBRANCH   8  11
ENDBRANCH   1   7
BRANCH   2  21
ATOM     21  N   UNL d   1       2.006   1.481   0.099  0.00  0.00    -0.374 N 
ATOM     22  C   UNL d   1       0.822   1.569   0.984  0.00  0.00     0.162 C 
ATOM     23  C   UNL d   1      -0.442   1.026   0.349  0.00  0.00    -0.034 A 
ATOM     24  C   UNL d   1      -1.399   0.315   1.084  0.00  0.00     0.009 A 
ATOM     25  C   UNL d   1      -0.702   1.333  -0.996  0.00  0.00    -0.049 A 
ATOM     26  C   UNL d   1      -2.587  -0.104   0.479  0.00  0.00     0.001 A 
ATOM     27  C   UNL d   1      -2.856   0.243  -0.844  0.00  0.00     0.001 A 
ATOM     28  C   UNL d   1      -1.928   0.981  -1.575  0.00  0.00     0.008 A 
ATOM     29  C   UNL d   1       0.374   2.049  -1.763  0.00  0.00     0.059 C 
ATOM     30  C   UNL d   1       1.772   1.533  -1.362  0.00  0.00     0.128 C 
ENDBRANCH   2  21
BRANCH   3  31
ATOM     31  C   UNL d   1       7.043   3.324   2.280  0.00  0.00     0.417 C 
ATOM     32  F   UNL d   1       8.151   2.729   1.761  0.00  0.00    -0.166 F 
ATOM     33  F   UNL d   1       7.212   4.662   2.087  0.00  0.00    -0.166 F 
ATOM     34  F   UNL d   1       7.110   3.131   3.627  0.00  0.00    -0.166 F 
ENDBRANCH   3  31
TORSDOF 5
