REMARK  2 active torsions:
REMARK  status: ('A' for Active; 'I' for Inactive)
REMARK    1  A    between atoms: C_7  and  C_2 
REMARK    2  A    between atoms: S_5  and  C_3 
ROOT
ATOM      1  C   UNL d   1       3.481   0.716   1.202  0.00  0.00     0.140 C 
ATOM      2  C   UNL d   1       4.094   0.241   0.103  0.00  0.00     0.054 C 
ATOM      3  C   UNL d   1       3.562   0.130   2.488  0.00  0.00     0.111 C 
ATOM      4  N   UNL d   1       3.612  -0.372   3.534  0.00  0.00    -0.191 NA
ENDROOT
BRANCH   1   5
ATOM      5  S   UNL d   1       2.517   2.153   1.056  0.00  0.00     0.181 S 
ATOM      6  O   UNL d   1       2.631   2.940   2.269  0.00  0.00    -0.222 OA
ATOM      7  O   UNL d   1       2.758   2.784  -0.231  0.00  0.00    -0.222 OA
ATOM      8  C   UNL d   1       0.864   1.505   1.002  0.00  0.00     0.168 C 
ENDBRANCH   1   5
BRANCH   2   9
ATOM      9  C   UNL d   1       4.905  -0.928   0.113  0.00  0.00     0.015 A 
ATOM     10  S   UNL d   1       4.131  -2.477  -0.074  0.00  0.00    -0.082 SA
ATOM     11  C   UNL d   1       5.611  -3.240  -0.086  0.00  0.00     0.057 A 
ATOM     12  C   UNL d   1       6.655  -2.405   0.024  0.00  0.00     0.002 A 
ATOM     13  S   UNL d   1       6.041  -4.847  -0.226  0.00  0.00    -0.093 SA
ATOM     14  C   UNL d   1       6.300  -1.045   0.215  0.00  0.00    -0.032 A 
ATOM     15  C   UNL d   1       7.920  -3.033  -0.090  0.00  0.00    -0.043 A 
ATOM     16  C   UNL d   1       7.226   0.097   0.480  0.00  0.00     0.050 C 
ATOM     17  C   UNL d   1       9.272  -2.407  -0.137  0.00  0.00     0.049 C 
ATOM     18  C   UNL d   1       7.713  -4.409  -0.188  0.00  0.00     0.058 A 
ENDBRANCH   2   9
TORSDOF 2
