REMARK  7 active torsions:
REMARK  status: ('A' for Active; 'I' for Inactive)
REMARK    1  A    between atoms: C_12  and  C_1 
REMARK    2  A    between atoms: N_9  and  C_3 
REMARK    3  A    between atoms: C_13  and  C_4 
REMARK    4  A    between atoms: C_8  and  C_6 
REMARK    5  A    between atoms: C_7  and  N_9 
REMARK    6  A    between atoms: O_16  and  C_8 
REMARK    7  A    between atoms: C_21  and  O_16 
ROOT
ATOM      1  C   UNL d   1       2.398   5.694  -0.944  0.00  0.00     0.135 C 
ATOM      2  C   UNL d   1       1.389   4.801  -0.887  0.00  0.00     0.117 C 
ATOM      3  C   UNL d   1       3.594   5.538  -0.202  0.00  0.00     0.107 C 
ATOM      4  N   UNL d   1       4.553   5.371   0.432  0.00  0.00    -0.191 NA
ENDROOT
BRANCH   1   5
ATOM      5  C   UNL d   1       2.210   6.872  -1.838  0.00  0.00     0.305 C 
ATOM      6  O   UNL d   1       1.243   7.021  -2.569  0.00  0.00    -0.258 OA
BRANCH   5   7
ATOM      7  O   UNL d   1       3.259   7.735  -1.756  0.00  0.00    -0.317 OA
BRANCH   7   8
ATOM      8  C   UNL d   1       3.240   8.838  -2.683  0.00  0.00     0.174 C 
ATOM      9  C   UNL d   1       2.384   9.982  -2.167  0.00  0.00     0.034 C 
ENDBRANCH   7   8
ENDBRANCH   5   7
ENDBRANCH   1   5
BRANCH   2  10
ATOM     10  N   UNL d   1       1.271   3.573  -0.235  0.00  0.00    -0.363 N 
ATOM     11  H   UNL d   1       2.161   3.193   0.086  0.00  0.00     0.165 HD
BRANCH  10  12
ATOM     12  C   UNL d   1       0.126   2.826  -0.138  0.00  0.00     0.053 A 
ATOM     13  C   UNL d   1       0.043   1.445  -0.060  0.00  0.00     0.077 A 
ATOM     14  S   UNL d   1      -1.594   0.920  -0.029  0.00  0.00    -0.088 SA
ATOM     15  C   UNL d   1      -2.224   2.513  -0.048  0.00  0.00    -0.007 A 
ATOM     16  C   UNL d   1      -1.184   3.424  -0.108  0.00  0.00     0.046 A 
BRANCH  13  17
ATOM     17  C   UNL d   1       1.033   0.377  -0.044  0.00  0.00     0.164 C 
ATOM     18  O   UNL d   1       0.865  -0.713  -0.600  0.00  0.00    -0.292 OA
ATOM     19  C   UNL d   1       2.315   0.596   0.713  0.00  0.00     0.097 C 
ENDBRANCH  13  17
BRANCH  15  20
ATOM     20  C   UNL d   1      -3.742   2.747  -0.014  0.00  0.00    -0.018 C 
ATOM     21  C   UNL d   1      -4.359   2.125   1.256  0.00  0.00     0.020 C 
ATOM     22  C   UNL d   1      -4.078   4.253  -0.005  0.00  0.00     0.020 C 
ATOM     23  C   UNL d   1      -4.408   2.126  -1.260  0.00  0.00     0.020 C 
ENDBRANCH  15  20
ENDBRANCH  10  12
ENDBRANCH   2  10
TORSDOF 7
