REMARK  5 active torsions:
REMARK  status: ('A' for Active; 'I' for Inactive)
REMARK    1  A    between atoms: C_2  and  S_1 
REMARK    2  A    between atoms: N_3  and  S_1 
REMARK    3  A    between atoms: C_13  and  N_3 
REMARK    4  A    between atoms: O_5  and  C_4 
REMARK    5  A    between atoms: C_6  and  O_5 
ROOT
ATOM      1  C   UNL d   1       0.349   0.869  -1.169  0.00  0.00     0.113 A 
ATOM      2  C   UNL d   1      -0.737   0.332  -1.861  0.00  0.00     0.099 A 
ATOM      3  C   UNL d   1       0.637   2.243  -1.263  0.00  0.00     0.028 A 
ATOM      4  C   UNL d   1      -1.432   1.149  -2.764  0.00  0.00     0.039 A 
ATOM      5  C   UNL d   1      -0.070   3.048  -2.154  0.00  0.00     0.002 A 
ATOM      6  C   UNL d   1      -1.087   2.493  -2.925  0.00  0.00     0.003 A 
ENDROOT
BRANCH   1   7
ATOM      7  S   UNL d   1       1.497  -0.152  -0.287  0.00  0.00     0.266 S 
ATOM      8  O   UNL d   1       1.474  -1.502  -0.799  0.00  0.00    -0.200 OA
ATOM      9  O   UNL d   1       1.300   0.138   1.118  0.00  0.00    -0.200 OA
BRANCH   7  10
ATOM     10  N   UNL d   1       2.991   0.514  -0.687  0.00  0.00    -0.280 N 
ATOM     11  H   UNL d   1       3.542   0.792   0.121  0.00  0.00     0.179 HD
BRANCH  10  12
ATOM     12  C   UNL d   1       3.644   0.263  -1.924  0.00  0.00     0.044 A 
ATOM     13  C   UNL d   1       3.149   0.756  -3.133  0.00  0.00     0.057 A 
ATOM     14  C   UNL d   1       3.933   0.687  -4.286  0.00  0.00     0.074 A 
ATOM     15 CL   UNL d   1       3.354   1.407  -5.741  0.00  0.00    -0.081 Cl
ATOM     16  C   UNL d   1       5.189   0.092  -4.239  0.00  0.00     0.138 A 
ATOM     17  C   UNL d   1       5.661  -0.462  -3.052  0.00  0.00     0.046 A 
ATOM     18  F   UNL d   1       5.979   0.068  -5.322  0.00  0.00    -0.204 F 
ATOM     19  C   UNL d   1       4.887  -0.375  -1.893  0.00  0.00     0.033 A 
ENDBRANCH  10  12
ENDBRANCH   7  10
ENDBRANCH   1   7
BRANCH   2  20
ATOM     20  O   UNL d   1      -1.130  -0.978  -1.835  0.00  0.00    -0.307 OA
BRANCH  20  21
ATOM     21  C   UNL d   1      -1.620  -1.544  -0.674  0.00  0.00     0.098 A 
ATOM     22  C   UNL d   1      -1.803  -2.943  -0.697  0.00  0.00     0.069 A 
ATOM     23  C   UNL d   1      -2.256  -3.624   0.435  0.00  0.00     0.050 A 
ATOM     24 CL   UNL d   1      -1.495  -3.863  -2.126  0.00  0.00    -0.081 Cl
ATOM     25  C   UNL d   1      -2.533  -2.915   1.599  0.00  0.00     0.035 A 
ATOM     26  C   UNL d   1      -2.383  -1.528   1.631  0.00  0.00     0.026 A 
ATOM     27 CL   UNL d   1      -3.071  -3.752   3.001  0.00  0.00    -0.084 Cl
ATOM     28  C   UNL d   1      -1.943  -0.840   0.494  0.00  0.00     0.041 A 
ENDBRANCH  20  21
ENDBRANCH   2  20
TORSDOF 5
