REMARK  1 active torsions:
REMARK  status: ('A' for Active; 'I' for Inactive)
REMARK    1  A    between atoms: C_8  and  C_7 
ROOT
ATOM      1  C   UNL d   1       1.185   0.095  -0.049  0.00  0.00     0.101 C 
ATOM      2  N   UNL d   1      -0.812  -1.254   0.005  0.00  0.00    -0.275 N 
ATOM      3  N   UNL d   1      -1.026   1.050  -0.006  0.00  0.00    -0.275 N 
ATOM      4  C   UNL d   1       0.553  -1.248  -0.026  0.00  0.00     0.265 C 
ATOM      5  C   UNL d   1       0.313   1.295  -0.137  0.00  0.00     0.265 C 
ATOM      6  C   UNL d   1      -1.629  -0.168   0.008  0.00  0.00     0.329 C 
ATOM      7  C   UNL d   1       2.530   0.141   0.030  0.00  0.00     0.035 C 
ATOM      8  O   UNL d   1       0.718   2.434  -0.344  0.00  0.00    -0.267 OA
ATOM      9  O   UNL d   1       1.191  -2.297  -0.041  0.00  0.00    -0.267 OA
ATOM     10  O   UNL d   1      -2.852  -0.281  -0.005  0.00  0.00    -0.246 OA
ATOM     11  H   UNL d   1      -1.263  -2.158   0.008  0.00  0.00     0.173 HD
ATOM     12  H   UNL d   1      -1.636   1.853  -0.068  0.00  0.00     0.173 HD
ENDROOT
BRANCH   7  13
ATOM     13  C   UNL d   1       3.349   1.361   0.075  0.00  0.00    -0.013 A 
ATOM     14  C   UNL d   1       3.685   2.003   1.281  0.00  0.00     0.045 A 
ATOM     15  C   UNL d   1       4.405   3.200   1.273  0.00  0.00     0.048 A 
ATOM     16 CL   UNL d   1       3.231   1.341   2.814  0.00  0.00    -0.083 Cl
ATOM     17  C   UNL d   1       4.801   3.755   0.059  0.00  0.00     0.035 A 
ATOM     18  C   UNL d   1       4.503   3.116  -1.143  0.00  0.00     0.024 A 
ATOM     19 CL   UNL d   1       5.663   5.244   0.041  0.00  0.00    -0.084 Cl
ATOM     20  C   UNL d   1       3.780   1.921  -1.136  0.00  0.00     0.015 A 
ENDBRANCH   7  13
TORSDOF 1
