REMARK  6 active torsions:
REMARK  status: ('A' for Active; 'I' for Inactive)
REMARK    1  A    between atoms: C_2  and  C_1 
REMARK       I    between atoms: N_4  and  C_1 
REMARK    2  A    between atoms: C_3  and  N_6 
REMARK       I    between atoms: C_5  and  N_4 
REMARK       I    between atoms: N_6  and  C_5 
REMARK    3  A    between atoms: O_18  and  C_7 
REMARK    4  A    between atoms: C_17  and  C_8 
REMARK    5  A    between atoms: C_16  and  C_9 
REMARK    6  A    between atoms: O_20  and  C_10 
ROOT
ATOM      1  C   UNL d   1      -3.022  -2.895  -1.224  0.00  0.00     0.265 C 
ATOM      2  N   UNL d   1      -1.846  -2.582  -0.533  0.00  0.00    -0.275 N 
ATOM      3  C   UNL d   1      -1.299  -1.453   0.015  0.00  0.00     0.327 C 
ATOM      4  N   UNL d   1      -1.763  -0.227  -0.392  0.00  0.00    -0.308 N 
ATOM      5  O   UNL d   1      -3.620  -2.104  -1.945  0.00  0.00    -0.267 OA
ATOM      6  O   UNL d   1      -0.459  -1.629   0.901  0.00  0.00    -0.247 OA
ATOM      7  H   UNL d   1      -1.421  -3.371  -0.051  0.00  0.00     0.173 HD
ATOM      8  H   UNL d   1      -1.897  -0.172  -1.392  0.00  0.00     0.170 HD
ENDROOT
BRANCH   4   9
ATOM      9  C   UNL d   1      -1.298   0.938   0.300  0.00  0.00     0.049 A 
ATOM     10  C   UNL d   1      -0.419   1.859  -0.339  0.00  0.00    -0.027 A 
ATOM     11  C   UNL d   1       0.054   2.955   0.409  0.00  0.00     0.010 A 
ATOM     12  C   UNL d   1      -0.273   3.112   1.751  0.00  0.00     0.001 A 
ATOM     13  C   UNL d   1      -1.124   2.204   2.372  0.00  0.00     0.010 A 
ATOM     14  C   UNL d   1      -1.681   1.125   1.664  0.00  0.00    -0.027 A 
BRANCH  10  15
ATOM     15  C   UNL d   1       0.231   1.566  -1.692  0.00  0.00     0.013 C 
ATOM     16  C   UNL d   1       0.717   2.790  -2.491  0.00  0.00     0.015 C 
ATOM     17  C   UNL d   1       1.436   0.647  -1.446  0.00  0.00     0.015 C 
ENDBRANCH  10  15
BRANCH  14  18
ATOM     18  C   UNL d   1      -2.709   0.212   2.344  0.00  0.00     0.013 C 
ATOM     19  C   UNL d   1      -2.729   0.238   3.880  0.00  0.00     0.015 C 
ATOM     20  C   UNL d   1      -4.119   0.508   1.819  0.00  0.00     0.015 C 
ENDBRANCH  14  18
ENDBRANCH   4   9
BRANCH   1  21
ATOM     21  C   UNL d   1      -3.436  -4.354  -1.054  0.00  0.00     0.100 C 
ATOM     22  C   UNL d   1      -2.446  -5.370  -0.955  0.00  0.00     0.104 C 
ATOM     23  C   UNL d   1      -2.797  -6.651  -0.502  0.00  0.00     0.045 C 
ATOM     24 BR   UNL d   1      -1.522  -7.952   0.045  0.00  0.00    -0.048 Br
ATOM     25  C   UNL d   1      -4.134  -6.981  -0.318  0.00  0.00     0.025 C 
ATOM     26  C   UNL d   1      -5.127  -6.024  -0.538  0.00  0.00     0.039 C 
ATOM     27  C   UNL d   1      -4.794  -4.700  -0.862  0.00  0.00     0.086 C 
BRANCH  22  28
ATOM     28  O   UNL d   1      -1.135  -5.035  -1.210  0.00  0.00    -0.353 OA
ATOM     29  C   UNL d   1      -0.559  -5.797  -2.280  0.00  0.00     0.210 C 
ENDBRANCH  22  28
BRANCH  27  30
ATOM     30  O   UNL d   1      -5.728  -3.700  -0.927  0.00  0.00    -0.355 OA
ATOM     31  C   UNL d   1      -7.109  -4.049  -0.849  0.00  0.00     0.210 C 
ENDBRANCH  27  30
ENDBRANCH   1  21
TORSDOF 6
