REMARK  3 active torsions:
REMARK  status: ('A' for Active; 'I' for Inactive)
REMARK    1  A    between atoms: N_5  and  C_1 
REMARK    2  A    between atoms: C_10  and  C_4 
REMARK       I    between atoms: C_6  and  N_5 
REMARK       I    between atoms: N_9  and  C_6 
REMARK    3  A    between atoms: C_11  and  N_9 
ROOT
ATOM      1  C   UNL d   1       0.098  -0.885  -0.357  0.00  0.00     0.152 A 
ATOM      2  N   UNL d   1       1.173  -0.143  -0.270  0.00  0.00    -0.335 N 
ATOM      3  HN  UNL d   1       2.130  -0.490  -0.211  1.00  0.00     0.168 HD
ATOM      4  C   UNL d   1       0.795   1.200  -0.273  0.00  0.00     0.051 A 
ATOM      5  S   UNL d   1      -1.390  -0.070  -0.546  0.00  0.00    -0.063 SA
ATOM      6  C   UNL d   1      -0.560   1.423  -0.448  0.00  0.00     0.083 A 
ENDROOT
BRANCH   1   7
ATOM      7  N   UNL d   1      -0.058  -2.233  -0.264  0.00  0.00    -0.288 N 
ATOM      8  C   UNL d   1       0.887  -3.186  -0.087  0.00  0.00     0.326 C 
ATOM      9  N   UNL d   1       2.172  -2.911  -0.472  0.00  0.00    -0.306 N 
ATOM     10  O   UNL d   1       0.501  -4.286   0.323  0.00  0.00    -0.247 OA
ATOM     11  H   UNL d   1       2.255  -2.182  -1.174  0.00  0.00     0.171 HD
ATOM     12  H   UNL d   1      -1.004  -2.565  -0.143  0.00  0.00     0.172 HD
BRANCH   9  13
ATOM     13  C   UNL d   1       3.164  -3.924  -0.495  0.00  0.00     0.075 A 
ATOM     14  C   UNL d   1       3.988  -4.051  -1.620  0.00  0.00     0.146 A 
ATOM     15  C   UNL d   1       4.901  -5.096  -1.730  0.00  0.00     0.086 A 
ATOM     16  F   UNL d   1       3.848  -3.200  -2.648  0.00  0.00    -0.204 F 
ATOM     17  C   UNL d   1       5.019  -5.998  -0.680  0.00  0.00     0.119 A 
ATOM     18  C   UNL d   1       4.249  -5.866   0.470  0.00  0.00     0.044 A 
ATOM     19  F   UNL d   1       5.885  -7.016  -0.779  0.00  0.00    -0.206 F 
ATOM     20  C   UNL d   1       3.315  -4.832   0.560  0.00  0.00     0.036 A 
ENDBRANCH   9  13
ENDBRANCH   1   7
BRANCH   4  21
ATOM     21  C   UNL d   1       1.761   2.275  -0.051  0.00  0.00    -0.006 A 
ATOM     22  C   UNL d   1       1.545   3.577  -0.533  0.00  0.00     0.059 A 
ATOM     23  C   UNL d   1       2.485   4.576  -0.288  0.00  0.00     0.155 A 
ATOM     24  F   UNL d   1       2.260   5.812  -0.760  0.00  0.00    -0.203 F 
ATOM     25  C   UNL d   1       3.638   4.302   0.434  0.00  0.00     0.154 A 
ATOM     26  C   UNL d   1       3.866   3.024   0.927  0.00  0.00     0.046 A 
ATOM     27  F   UNL d   1       4.537   5.269   0.663  0.00  0.00    -0.203 F 
ATOM     28  C   UNL d   1       2.930   2.012   0.682  0.00  0.00     0.017 A 
ENDBRANCH   4  21
TORSDOF 3
