REMARK  4 active torsions:
REMARK  status: ('A' for Active; 'I' for Inactive)
REMARK    1  A    between atoms: C_6  and  C_1 
REMARK    2  A    between atoms: C_16  and  N_2 
REMARK    3  A    between atoms: C_7  and  C_3 
REMARK       I    between atoms: N_12  and  C_7 
REMARK    4  A    between atoms: N_14  and  N_12 
ROOT
ATOM      1  C   UNL d   1      -0.216  -1.177   0.118  0.00  0.00     0.103 A 
ATOM      2  N   UNL d   1       1.089  -0.706   0.144  0.00  0.00    -0.253 N 
ATOM      3  C   UNL d   1      -1.052  -0.058   0.182  0.00  0.00     0.087 A 
ATOM      4  N   UNL d   1       1.117   0.652   0.200  0.00  0.00    -0.297 N 
ATOM      5  HN  UNL d   1       1.943   1.247   0.259  1.00  0.00     0.187 HD
ATOM      6  C   UNL d   1      -0.159   1.046   0.160  0.00  0.00     0.040 A 
ATOM      7  C   UNL d   1      -0.403   2.511   0.199  0.00  0.00     0.071 C 
ENDROOT
BRANCH   3   8
ATOM      8  C   UNL d   1      -2.494  -0.088   0.426  0.00  0.00     0.270 C 
ATOM      9  N   UNL d   1      -3.258   0.876  -0.223  0.00  0.00    -0.285 N 
ATOM     10  H   UNL d   1      -2.851   1.515  -0.896  0.00  0.00     0.184 HD
ATOM     11  O   UNL d   1      -2.993  -0.937   1.166  0.00  0.00    -0.266 OA
BRANCH   9  12
ATOM     12  N   UNL d   1      -4.660   0.851  -0.031  0.00  0.00    -0.225 NA
ATOM     13  C   UNL d   1      -5.140   1.932   0.844  0.00  0.00     0.140 C 
ATOM     14  C   UNL d   1      -6.655   1.814   1.073  0.00  0.00     0.183 C 
ATOM     15  O   UNL d   1      -7.368   1.800  -0.172  0.00  0.00    -0.389 OA
ATOM     16  C   UNL d   1      -6.930   0.696  -0.977  0.00  0.00     0.183 C 
ATOM     17  C   UNL d   1      -5.428   0.805  -1.283  0.00  0.00     0.140 C 
ENDBRANCH   9  12
ENDBRANCH   3   8
BRANCH   1  18
ATOM     18  C   UNL d   1      -0.653  -2.610   0.146  0.00  0.00     0.087 A 
ATOM     19  N   UNL d   1       0.091  -3.575   0.699  0.00  0.00    -0.259 N 
ATOM     20  O   UNL d   1      -0.630  -4.746   0.561  0.00  0.00    -0.242 OA
ATOM     21  HN  UNL d   1       1.008  -3.468   1.135  1.00  0.00     0.195 HD
ATOM     22  C   UNL d   1      -1.792  -4.484  -0.089  0.00  0.00     0.074 A 
ATOM     23  C   UNL d   1      -1.852  -3.146  -0.382  0.00  0.00     0.068 A 
ATOM     24  C   UNL d   1      -2.690  -5.629  -0.318  0.00  0.00     0.079 C 
ENDBRANCH   1  18
BRANCH   2  25
ATOM     25  C   UNL d   1       2.338  -1.379   0.009  0.00  0.00     0.057 A 
ATOM     26  C   UNL d   1       2.482  -2.528  -0.772  0.00  0.00     0.031 A 
ATOM     27  C   UNL d   1       3.735  -3.131  -0.909  0.00  0.00     0.002 A 
ATOM     28  C   UNL d   1       4.850  -2.594  -0.265  0.00  0.00     0.000 A 
ATOM     29  C   UNL d   1       4.717  -1.444   0.508  0.00  0.00     0.002 A 
ATOM     30  C   UNL d   1       3.471  -0.827   0.636  0.00  0.00     0.031 A 
ENDBRANCH   2  25
TORSDOF 4
