REMARK  3 active torsions:
REMARK  status: ('A' for Active; 'I' for Inactive)
REMARK    1  A    between atoms: C_2  and  C_1 
REMARK    2  A    between atoms: C_4  and  C_2 
REMARK    3  A    between atoms: N_6  and  C_3 
ROOT
ATOM      1  C   UNL d   1       0.639  -2.124  -1.355  0.00  0.00     0.014 A 
ATOM      2  C   UNL d   1       1.251  -2.982  -0.434  0.00  0.00     0.016 A 
ATOM      3  C   UNL d   1       0.359  -2.594  -2.645  0.00  0.00     0.016 A 
ATOM      4  C   UNL d   1       1.597  -4.285  -0.808  0.00  0.00     0.007 A 
ATOM      5  C   UNL d   1       0.705  -3.896  -3.016  0.00  0.00     0.007 A 
ATOM      6  C   UNL d   1       1.326  -4.752  -2.101  0.00  0.00    -0.062 A 
ATOM      7  C   UNL d   1       1.694  -6.156  -2.484  0.00  0.00     0.048 C 
ENDROOT
BRANCH   1   8
ATOM      8  C   UNL d   1       0.240  -0.728  -1.017  0.00  0.00     0.183 C 
ATOM      9  O   UNL d   1      -0.701  -0.201  -1.603  0.00  0.00    -0.288 OA
BRANCH   8  10
ATOM     10  C   UNL d   1       1.048   0.001   0.001  0.00  0.00     0.072 C 
ATOM     11  C   UNL d   1       0.692   1.228   0.405  0.00  0.00     0.088 C 
BRANCH  11  12
ATOM     12  N   UNL d   1       1.314   2.076   1.314  0.00  0.00    -0.398 N 
ATOM     13  C   UNL d   1       2.552   1.770   2.025  0.00  0.00     0.148 C 
ATOM     14  C   UNL d   1       0.770   3.403   1.618  0.00  0.00     0.148 C 
ENDBRANCH  11  12
ENDBRANCH   8  10
ENDBRANCH   1   8
TORSDOF 3
