REMARK  6 active torsions:
REMARK  status: ('A' for Active; 'I' for Inactive)
REMARK    1  A    between atoms: C_14  and  N_1 
REMARK    2  A    between atoms: C_7  and  C_14 
REMARK    3  A    between atoms: S_16  and  C_9 
REMARK    4  A    between atoms: C_15  and  C_19 
REMARK    5  A    between atoms: C_17  and  C_15 
REMARK    6  A    between atoms: C_19  and  S_16 
ROOT
ATOM      1  C   UNL d   1       0.908  -3.296  -0.014  0.00  0.00     0.161 A 
ATOM      2  O   UNL d   1       1.671  -3.299   1.125  0.00  0.00    -0.270 OA
ATOM      3  C   UNL d   1       2.749  -4.062   0.751  0.00  0.00     0.203 A 
ATOM      4  N   UNL d   1       1.440  -4.023  -0.978  0.00  0.00    -0.279 N 
ATOM      5  HN  UNL d   1       1.049  -4.189  -1.905  1.00  0.00     0.189 HD
ATOM      6  N   UNL d   1       2.632  -4.513  -0.481  0.00  0.00    -0.272 N 
ATOM      7  HN  UNL d   1       3.296  -5.110  -0.975  1.00  0.00     0.189 HD
ENDROOT
BRANCH   1   8
ATOM      8  C   UNL d   1      -0.378  -2.566   0.002  0.00  0.00     0.234 C 
BRANCH   8   9
ATOM      9  N   UNL d   1      -0.161  -1.126   0.069  0.00  0.00    -0.288 N 
ATOM     10  N   UNL d   1      -0.212  -0.532   1.283  0.00  0.00    -0.301 N 
ATOM     11  C   UNL d   1       0.002   0.767   1.033  0.00  0.00     0.041 A 
ATOM     12  HN  UNL d   1      -0.378  -0.974   2.187  1.00  0.00     0.187 HD
ATOM     13  C   UNL d   1       0.048   1.743   2.148  0.00  0.00     0.071 C 
ATOM     14  C   UNL d   1       0.149   0.992  -0.346  0.00  0.00     0.058 A 
ATOM     15  C   UNL d   1       0.023  -0.235  -0.963  0.00  0.00     0.044 A 
ATOM     16 BR   UNL d   1       0.448   2.655  -1.154  0.00  0.00    -0.047 Br
ATOM     17  C   UNL d   1       0.074  -0.586  -2.406  0.00  0.00     0.071 C 
ENDBRANCH   8   9
ENDBRANCH   1   8
BRANCH   3  18
ATOM     18  S   UNL d   1       4.082  -4.400   1.812  0.00  0.00    -0.077 SA
BRANCH  18  19
ATOM     19  C   UNL d   1       5.400  -4.696   0.601  0.00  0.00     0.162 C 
BRANCH  19  20
ATOM     20  C   UNL d   1       6.739  -4.779   1.312  0.00  0.00     0.144 C 
ATOM     21  O   UNL d   1       7.332  -3.732   1.612  0.00  0.00    -0.296 OA
BRANCH  20  22
ATOM     22  C   UNL d   1       7.383  -6.156   1.591  0.00  0.00     0.010 C 
ATOM     23  C   UNL d   1       8.133  -6.607   0.330  0.00  0.00     0.022 C 
ATOM     24  C   UNL d   1       8.396  -6.003   2.745  0.00  0.00     0.022 C 
ATOM     25  C   UNL d   1       6.366  -7.229   1.996  0.00  0.00     0.022 C 
ENDBRANCH  20  22
ENDBRANCH  19  20
ENDBRANCH  18  19
ENDBRANCH   3  18
TORSDOF 6
