REMARK  7 active torsions:
REMARK  status: ('A' for Active; 'I' for Inactive)
REMARK    1  A    between atoms: C_3  and  N_1 
REMARK    2  A    between atoms: S_16  and  C_3 
REMARK    3  A    between atoms: C_4  and  C_20 
REMARK    4  A    between atoms: N_7  and  N_9 
REMARK    5  A    between atoms: N_25  and  C_11 
REMARK    6  A    between atoms: C_12  and  C_15 
REMARK    7  A    between atoms: C_20  and  S_16 
ROOT
ATOM      1  C   UNL d   1       2.484   0.010   0.017  0.00  0.00     0.160 C 
ATOM      2  N   UNL d   1       3.202   0.521   0.978  0.00  0.00    -0.280 N 
ATOM      3  HN  UNL d   1       4.220   0.471   1.000  1.00  0.00     0.189 HD
ENDROOT
BRANCH   1   4
ATOM      4  N   UNL d   1       1.107   0.057   0.020  0.00  0.00    -0.332 N 
ATOM      5  C   UNL d   1       0.479  -1.032  -0.265  0.00  0.00     0.179 C 
ATOM      6  HN  UNL d   1       0.606   0.918   0.237  1.00  0.00     0.168 HD
BRANCH   5   7
ATOM      7  N   UNL d   1      -0.886  -1.202  -0.333  0.00  0.00    -0.386 N 
ATOM      8  C   UNL d   1      -1.475  -2.344  -1.012  0.00  0.00     0.149 C 
ATOM      9  C   UNL d   1      -1.800  -0.125   0.010  0.00  0.00     0.149 C 
ENDBRANCH   5   7
ENDBRANCH   1   4
BRANCH   1  10
ATOM     10  S   UNL d   1       3.288  -0.686  -1.393  0.00  0.00    -0.088 SA
BRANCH  10  11
ATOM     11  C   UNL d   1       5.038  -0.499  -0.971  0.00  0.00     0.123 C 
BRANCH  11  12
ATOM     12  C   UNL d   1       5.884  -1.116  -2.066  0.00  0.00    -0.011 A 
ATOM     13  C   UNL d   1       6.302  -2.458  -2.013  0.00  0.00     0.087 A 
ATOM     14  C   UNL d   1       7.026  -3.030  -3.069  0.00  0.00     0.003 A 
ATOM     15  O   UNL d   1       5.984  -3.181  -0.893  0.00  0.00    -0.325 OA
ATOM     16  C   UNL d   1       7.451  -4.465  -2.991  0.00  0.00     0.212 C 
ATOM     17  C   UNL d   1       7.301  -2.267  -4.209  0.00  0.00     0.054 A 
ATOM     18  O   UNL d   1       7.428  -4.922  -1.645  0.00  0.00    -0.362 OA
ATOM     19  C   UNL d   1       6.184  -4.585  -1.048  0.00  0.00     0.345 C 
ATOM     20  C   UNL d   1       6.877  -0.946  -4.271  0.00  0.00     0.117 A 
ATOM     21  C   UNL d   1       6.180  -0.365  -3.217  0.00  0.00     0.053 A 
ATOM     22  F   UNL d   1       7.131  -0.225  -5.370  0.00  0.00    -0.206 F 
ENDBRANCH  11  12
ENDBRANCH  10  11
ENDBRANCH   1  10
BRANCH   2  23
ATOM     23  N   UNL d   1       2.446   1.147   1.978  0.00  0.00    -0.302 N 
ATOM     24  C   UNL d   1       3.135   1.756   2.899  0.00  0.00     0.033 C 
ATOM     25  C   UNL d   1       4.648   1.719   2.959  0.00  0.00     0.070 C 
ATOM     26  HN  UNL d   1       1.426   1.125   1.985  1.00  0.00     0.186 HD
BRANCH  24  27
ATOM     27  C   UNL d   1       2.391   2.535   3.929  0.00  0.00     0.003 A 
ATOM     28  C   UNL d   1       2.942   3.632   4.579  0.00  0.00     0.101 A 
ATOM     29  N   UNL d   1       2.282   4.388   5.494  0.00  0.00    -0.369 N 
ATOM     30  C   UNL d   1       0.998   4.056   5.770  0.00  0.00     0.005 A 
ATOM     31  HN  UNL d   1       2.736   5.176   5.956  1.00  0.00     0.165 HD
ATOM     32  C   UNL d   1       0.360   2.981   5.159  0.00  0.00     0.025 A 
ATOM     33  C   UNL d   1       0.272   4.922   6.757  0.00  0.00     0.068 C 
ATOM     34  C   UNL d   1       1.066   2.216   4.229  0.00  0.00     0.017 A 
ENDBRANCH  24  27
ENDBRANCH   2  23
TORSDOF 7
