REMARK  4 active torsions:
REMARK  status: ('A' for Active; 'I' for Inactive)
REMARK    1  A    between atoms: C_7  and  C_1 
REMARK    2  A    between atoms: O_10  and  C_8 
REMARK    3  A    between atoms: N_14  and  C_9 
REMARK    4  A    between atoms: C_15  and  O_10 
ROOT
ATOM      1  C   UNL d   1      -1.106   2.492  -0.197  0.00  0.00     0.067 A 
ATOM      2  C   UNL d   1      -1.911   2.716   0.913  0.00  0.00     0.162 A 
ATOM      3  N   UNL d   1      -2.725   3.803   1.014  0.00  0.00    -0.346 N 
ATOM      4  HN  UNL d   1      -3.341   3.925   1.818  1.00  0.00     0.167 HD
ATOM      5  C   UNL d   1      -1.084   3.475  -1.201  0.00  0.00     0.021 A 
ATOM      6  C   UNL d   1      -2.692   4.715   0.020  0.00  0.00     0.090 A 
ATOM      7  C   UNL d   1      -1.884   4.604  -1.092  0.00  0.00     0.018 A 
ENDROOT
BRANCH   1   8
ATOM      8  C   UNL d   1      -0.297   1.297  -0.451  0.00  0.00     0.167 A 
ATOM      9  N   UNL d   1       0.703   1.281  -1.271  0.00  0.00    -0.330 N 
ATOM     10  C   UNL d   1       0.996  -0.048  -1.389  0.00  0.00     0.126 A 
ATOM     11  HN  UNL d   1       1.163   2.071  -1.722  1.00  0.00     0.168 HD
ATOM     12  C   UNL d   1       1.815  -0.604  -2.295  0.00  0.00     0.120 C 
ATOM     13  C   UNL d   1       0.118  -0.841  -0.480  0.00  0.00     0.318 A 
ATOM     14  O   UNL d   1      -0.691   0.121   0.075  0.00  0.00    -0.255 OA
ATOM     15  O   UNL d   1       0.074  -2.040  -0.299  0.00  0.00    -0.257 OA
BRANCH  12  16
ATOM     16  N   UNL d   1       2.605  -0.035  -3.301  0.00  0.00    -0.396 N 
ATOM     17  C   UNL d   1       2.865   1.399  -3.435  0.00  0.00     0.148 C 
ATOM     18  C   UNL d   1       3.339  -0.855  -4.262  0.00  0.00     0.148 C 
ENDBRANCH  12  16
ENDBRANCH   1   8
BRANCH   2  19
ATOM     19  O   UNL d   1      -1.909   1.803   1.954  0.00  0.00    -0.293 OA
BRANCH  19  20
ATOM     20  C   UNL d   1      -2.150   2.263   3.234  0.00  0.00     0.077 A 
ATOM     21  C   UNL d   1      -2.837   1.396   4.085  0.00  0.00     0.038 A 
ATOM     22  C   UNL d   1      -3.048   1.740   5.425  0.00  0.00     0.009 A 
ATOM     23  C   UNL d   1      -2.559   2.949   5.935  0.00  0.00    -0.062 A 
ATOM     24  C   UNL d   1      -1.887   3.823   5.074  0.00  0.00     0.009 A 
ATOM     25  C   UNL d   1      -2.753   3.292   7.383  0.00  0.00     0.048 C 
ATOM     26  C   UNL d   1      -1.668   3.475   3.737  0.00  0.00     0.038 A 
ENDBRANCH  19  20
ENDBRANCH   2  19
TORSDOF 4
