REMARK  8 active torsions:
REMARK  status: ('A' for Active; 'I' for Inactive)
REMARK       I    between atoms: N_3  and  C_1 
REMARK    1  A    between atoms: C_9  and  C_1 
REMARK    2  A    between atoms: C_13  and  N_3 
REMARK    3  A    between atoms: C_14  and  N_3 
REMARK    4  A    between atoms: C_6  and  C_24 
REMARK    5  A    between atoms: N_7  and  C_9 
REMARK    6  A    between atoms: C_23  and  N_10 
REMARK    7  A    between atoms: C_25  and  C_23 
REMARK    8  A    between atoms: C_24  and  C_25 
ROOT
ATOM      1  N   UNL d   1      -1.155   0.427   1.163  0.00  0.00     0.100 N 
ATOM      2  N   UNL d   1      -2.348   1.000   3.884  0.00  0.00     0.091 N 
ATOM      3  C   UNL d   1      -1.696   1.751   1.549  0.00  0.00     0.303 C 
ATOM      4  C   UNL d   1      -1.693  -0.628   2.049  0.00  0.00     0.303 C 
ATOM      5  C   UNL d   1      -1.702   2.054   3.067  0.00  0.00     0.302 C 
ATOM      6  C   UNL d   1      -1.687  -0.281   3.555  0.00  0.00     0.302 C 
ENDROOT
BRANCH   1   7
ATOM      7  C   UNL d   1       0.327   0.383   1.143  0.00  0.00     0.375 C 
BRANCH   7   8
ATOM      8  C   UNL d   1       0.901   1.377   0.131  0.00  0.00     0.253 C 
ATOM      9  N   UNL d   1       1.109   0.992  -1.204  0.00  0.00    -0.312 N 
ATOM     10  O   UNL d   1       1.181   2.511   0.511  0.00  0.00    -0.271 OA
BRANCH   9  11
ATOM     11  C   UNL d   1       0.767  -0.301  -1.709  0.00  0.00     0.037 A 
ATOM     12  C   UNL d   1      -0.558  -0.739  -1.745  0.00  0.00     0.030 A 
ATOM     13  C   UNL d   1      -0.884  -1.987  -2.296  0.00  0.00     0.002 A 
ATOM     14  C   UNL d   1       0.110  -2.795  -2.842  0.00  0.00     0.000 A 
ATOM     15  C   UNL d   1       1.434  -2.380  -2.797  0.00  0.00     0.002 A 
ATOM     16  C   UNL d   1       1.759  -1.154  -2.208  0.00  0.00     0.030 A 
ENDBRANCH   9  11
BRANCH   9  17
ATOM     17  C   UNL d   1       1.496   2.077  -2.139  0.00  0.00     0.093 C 
ATOM     18  C   UNL d   1       1.113   1.951  -3.623  0.00  0.00     0.026 C 
ATOM     19  C   UNL d   1       2.064   1.128  -4.481  0.00  0.00     0.002 C 
ATOM     20  C   UNL d   1       3.552   1.310  -4.177  0.00  0.00     0.000 C 
ATOM     21  C   UNL d   1       3.933   1.592  -2.726  0.00  0.00     0.002 C 
ATOM     22  C   UNL d   1       2.964   2.515  -2.009  0.00  0.00     0.026 C 
ENDBRANCH   9  17
ENDBRANCH   7   8
ENDBRANCH   1   7
BRANCH   2  23
ATOM     23  C   UNL d   1      -3.805   0.983   3.645  0.00  0.00     0.273 C 
BRANCH  23  24
ATOM     24  C   UNL d   1      -4.582  -0.032   4.489  0.00  0.00     0.035 C 
BRANCH  24  25
ATOM     25  C   UNL d   1      -4.429   0.219   5.987  0.00  0.00     0.042 C 
BRANCH  25  26
ATOM     26  C   UNL d   1      -5.126  -0.827   6.798  0.00  0.00    -0.030 A 
ATOM     27  C   UNL d   1      -4.567  -2.061   7.259  0.00  0.00     0.001 A 
ATOM     28  C   UNL d   1      -5.551  -2.715   7.997  0.00  0.00     0.043 A 
ATOM     29  C   UNL d   1      -3.307  -2.678   7.115  0.00  0.00     0.056 A 
ATOM     30  C   UNL d   1      -5.339  -3.952   8.623  0.00  0.00     0.033 A 
ATOM     31  N   UNL d   1      -6.674  -1.922   7.971  0.00  0.00    -0.365 N 
ATOM     32  C   UNL d   1      -4.080  -4.539   8.474  0.00  0.00     0.044 A 
ATOM     33  C   UNL d   1      -3.091  -3.910   7.729  0.00  0.00     0.117 A 
ATOM     34  F   UNL d   1      -1.896  -4.504   7.596  0.00  0.00    -0.206 F 
ATOM     35  C   UNL d   1      -6.431  -0.785   7.241  0.00  0.00     0.096 A 
ATOM     36  H   UNL d   1      -7.549  -2.144   8.418  0.00  0.00     0.165 HD
ENDBRANCH  25  26
ENDBRANCH  24  25
ENDBRANCH  23  24
ENDBRANCH   2  23
TORSDOF 8
