REMARK  5 active torsions:
REMARK  status: ('A' for Active; 'I' for Inactive)
REMARK    1  A    between atoms: C_3  and  C_8 
REMARK    2  A    between atoms: C_15  and  C_5 
REMARK    3  A    between atoms: C_18  and  C_15 
REMARK    4  A    between atoms: O_16  and  C_17 
REMARK    5  A    between atoms: C_17  and  C_18 
ROOT
ATOM      1  N   UNL d   1      -1.550   1.099   0.018  0.00  0.00    -0.344 N 
ATOM      2  HN  UNL d   1      -1.884   2.063   0.018  1.00  0.00     0.167 HD
ATOM      3  N   UNL d   1      -1.489  -1.117   0.019  0.00  0.00    -0.344 N 
ATOM      4  C   UNL d   1      -2.282   0.004   0.031  0.00  0.00     0.082 A 
ATOM      5  C   UNL d   1      -0.248   0.672   0.003  0.00  0.00     0.061 A 
ATOM      6  C   UNL d   1      -0.177  -0.715   0.005  0.00  0.00     0.060 A 
ATOM      7  C   UNL d   1       2.172   0.750  -0.029  0.00  0.00     0.050 A 
ATOM      8  C   UNL d   1       0.936   1.422  -0.016  0.00  0.00     0.048 A 
ATOM      9  C   UNL d   1       1.026  -1.422  -0.006  0.00  0.00     0.032 A 
ATOM     10  C   UNL d   1       2.200  -0.658  -0.022  0.00  0.00     0.018 A 
ATOM     11  H   UNL d   1      -1.821  -2.071   0.008  0.00  0.00     0.167 HD
ENDROOT
BRANCH   4  12
ATOM     12  C   UNL d   1      -3.770  -0.073   0.031  0.00  0.00     0.078 C 
BRANCH  12  13
ATOM     13  C   UNL d   1      -4.383   0.605  -1.196  0.00  0.00     0.033 C 
BRANCH  13  14
ATOM     14  C   UNL d   1      -3.974  -0.041  -2.514  0.00  0.00     0.164 C 
BRANCH  14  15
ATOM     15  O   UNL d   1      -4.314  -1.423  -2.503  0.00  0.00    -0.401 OA
ATOM     16  H   UNL d   1      -4.118  -1.764  -3.393  0.00  0.00     0.209 HD
ENDBRANCH  14  15
ENDBRANCH  13  14
ENDBRANCH  12  13
ENDBRANCH   4  12
BRANCH   7  17
ATOM     17  C   UNL d   1       3.465   1.527  -0.050  0.00  0.00     0.417 C 
ATOM     18  F   UNL d   1       3.295   2.878  -0.063  0.00  0.00    -0.166 F 
ATOM     19  F   UNL d   1       4.250   1.260   1.031  0.00  0.00    -0.166 F 
ATOM     20  F   UNL d   1       4.226   1.238  -1.142  0.00  0.00    -0.166 F 
ENDBRANCH   7  17
TORSDOF 5
