REMARK  4 active torsions:
REMARK  status: ('A' for Active; 'I' for Inactive)
REMARK    1  A    between atoms: C_3  and  C_1 
REMARK    2  A    between atoms: N_4  and  C_2 
REMARK    3  A    between atoms: O_10  and  C_3 
REMARK    4  A    between atoms: C_8  and  N_4 
ROOT
ATOM      1  C   UNL d   1       1.004   0.729  -0.275  0.00  0.00     0.044 C 
ATOM      2  C   UNL d   1       1.111  -0.594  -0.056  0.00  0.00     0.012 C 
ATOM      3  S   UNL d   1      -1.480  -0.017   0.246  0.00  0.00    -0.159 SA
ATOM      4  C   UNL d   1      -0.327   1.357  -0.023  0.00  0.00     0.120 C 
ATOM      5  C   UNL d   1      -0.182  -1.284   0.318  0.00  0.00     0.126 C 
ENDROOT
BRANCH   2   6
ATOM      6  N   UNL d   1       2.252  -1.381  -0.165  0.00  0.00    -0.262 NA
ATOM      7  H   UNL d   1       2.962  -0.896  -0.728  0.00  0.00     0.133 HD
BRANCH   6   8
ATOM      8  C   UNL d   1       2.931  -1.883   0.982  0.00  0.00     0.012 A 
ATOM      9  C   UNL d   1       2.687  -1.415   2.281  0.00  0.00     0.025 A 
ATOM     10  C   UNL d   1       3.421  -1.901   3.367  0.00  0.00     0.025 A 
ATOM     11  C   UNL d   1       4.408  -2.860   3.159  0.00  0.00     0.034 A 
ATOM     12  C   UNL d   1       4.672  -3.329   1.875  0.00  0.00     0.025 A 
ATOM     13 CL   UNL d   1       5.308  -3.462   4.495  0.00  0.00    -0.084 Cl
ATOM     14  C   UNL d   1       3.940  -2.837   0.790  0.00  0.00     0.025 A 
ENDBRANCH   6   8
ENDBRANCH   2   6
BRANCH   1  15
ATOM     15  C   UNL d   1       2.079   1.655  -0.687  0.00  0.00     0.291 C 
ATOM     16  O   UNL d   1       1.980   2.868  -0.590  0.00  0.00    -0.260 OA
BRANCH  15  17
ATOM     17  O   UNL d   1       3.125   0.980  -1.230  0.00  0.00    -0.323 OA
ATOM     18  C   UNL d   1       4.182   1.797  -1.741  0.00  0.00     0.213 C 
ENDBRANCH  15  17
ENDBRANCH   1  15
TORSDOF 4
