REMARK  6 active torsions:
REMARK  status: ('A' for Active; 'I' for Inactive)
REMARK    1  A    between atoms: C_8  and  N_3 
REMARK    2  A    between atoms: S_12  and  C_7 
REMARK    3  A    between atoms: C_10  and  C_14 
REMARK    4  A    between atoms: C_21  and  S_12 
REMARK    5  A    between atoms: C_14  and  C_21 
REMARK       I    between atoms: C_15  and  N_17 
REMARK    6  A    between atoms: N_17  and  C_18 
ROOT
ATOM      1  N   UNL d   1      -0.346   0.661  -0.324  0.00  0.00    -0.259 N 
ATOM      2  HN  UNL d   1      -0.514   1.607  -0.667  1.00  0.00     0.191 HD
ATOM      3  N   UNL d   1       0.816  -0.028  -0.211  0.00  0.00    -0.178 N 
ATOM      4  N   UNL d   1       0.671  -1.259   0.345  0.00  0.00     0.003 NA
ATOM      5  N   UNL d   1      -0.626  -1.402   0.560  0.00  0.00    -0.261 N 
ATOM      6  HN  UNL d   1      -1.096  -2.214   0.961  1.00  0.00     0.186 HD
ATOM      7  C   UNL d   1      -1.209  -0.246   0.139  0.00  0.00     0.174 A 
ENDROOT
BRANCH   7   8
ATOM      8  S   UNL d   1      -2.917   0.042   0.152  0.00  0.00    -0.084 SA
BRANCH   8   9
ATOM      9  C   UNL d   1      -3.527  -1.671   0.070  0.00  0.00     0.166 C 
BRANCH   9  10
ATOM     10  C   UNL d   1      -5.042  -1.700  -0.017  0.00  0.00     0.169 C 
ATOM     11  O   UNL d   1      -5.727  -0.703  -0.243  0.00  0.00    -0.291 OA
BRANCH  10  12
ATOM     12  C   UNL d   1      -5.753  -2.991   0.227  0.00  0.00     0.013 C 
ATOM     13  C   UNL d   1      -7.144  -2.932   0.376  0.00  0.00     0.054 C 
ATOM     14  C   UNL d   1      -7.824  -4.024   0.895  0.00  0.00     0.103 C 
ATOM     15  O   UNL d   1      -9.149  -3.853   1.199  0.00  0.00    -0.346 OA
ATOM     16  C   UNL d   1      -7.149  -5.203   1.201  0.00  0.00     0.102 C 
ATOM     17  C   UNL d   1      -9.356  -4.443   2.481  0.00  0.00     0.202 C 
ATOM     18  C   UNL d   1      -9.009  -5.928   2.450  0.00  0.00     0.202 C 
ATOM     19  O   UNL d   1      -7.731  -6.242   1.872  0.00  0.00    -0.346 OA
ATOM     20  C   UNL d   1      -5.795  -5.322   0.895  0.00  0.00     0.040 C 
ATOM     21  C   UNL d   1      -5.087  -4.210   0.424  0.00  0.00     0.018 C 
ENDBRANCH  10  12
ENDBRANCH   9  10
ENDBRANCH   8   9
ENDBRANCH   7   8
BRANCH   3  22
ATOM     22  C   UNL d   1       2.051   0.457  -0.699  0.00  0.00     0.075 A 
ATOM     23  C   UNL d   1       3.182  -0.370  -0.646  0.00  0.00     0.062 A 
ATOM     24  C   UNL d   1       4.399   0.055  -1.182  0.00  0.00     0.036 A 
ATOM     25  C   UNL d   1       4.479   1.335  -1.746  0.00  0.00     0.029 A 
ATOM     26  C   UNL d   1       3.358   2.171  -1.785  0.00  0.00     0.005 A 
ATOM     27  C   UNL d   1       2.140   1.733  -1.267  0.00  0.00     0.033 A 
BRANCH  24  28
ATOM     28  N   UNL d   1       5.560  -0.752  -1.211  0.00  0.00    -0.327 N 
ATOM     29  C   UNL d   1       5.689  -2.047  -0.739  0.00  0.00     0.218 C 
ATOM     30  O   UNL d   1       4.841  -2.706  -0.154  0.00  0.00    -0.274 OA
ATOM     31  C   UNL d   1       7.047  -2.645  -1.013  0.00  0.00     0.117 C 
ATOM     32  H   UNL d   1       6.375  -0.340  -1.649  0.00  0.00     0.169 HD
ENDBRANCH  24  28
ENDBRANCH   3  22
TORSDOF 6
