REMARK  4 active torsions:
REMARK  status: ('A' for Active; 'I' for Inactive)
REMARK    1  A    between atoms: C_3  and  C_1 
REMARK    2  A    between atoms: C_9  and  C_3 
REMARK    3  A    between atoms: S_14  and  C_4 
REMARK    4  A    between atoms: O_16  and  C_9 
ROOT
ATOM      1  C   UNL d   1       0.135  -1.343  -0.002  0.00  0.00     0.084 A 
ATOM      2  C   UNL d   1      -1.244  -0.749  -0.003  0.00  0.00     0.106 A 
ATOM      3  C   UNL d   1      -1.405   0.610   0.007  0.00  0.00     0.094 A 
ATOM      4  N   UNL d   1      -0.342   1.499   0.017  0.00  0.00    -0.340 N 
ATOM      5  HN  UNL d   1      -0.492   2.508   0.028  1.00  0.00     0.167 HD
ATOM      6  N   UNL d   1       1.121  -0.352   0.000  0.00  0.00    -0.344 N 
ATOM      7  C   UNL d   1       0.854   0.994   0.011  0.00  0.00     0.078 A 
ATOM      8  C   UNL d   1      -2.405  -1.586  -0.022  0.00  0.00     0.104 C 
ATOM      9  N   UNL d   1      -3.352  -2.257  -0.040  0.00  0.00    -0.191 NA
ATOM     10  C   UNL d   1       2.025   1.948   0.017  0.00  0.00     0.089 C 
ATOM     11  H   UNL d   1       2.096  -0.665   0.002  0.00  0.00     0.167 HD
ENDROOT
BRANCH   1  12
ATOM     12  C   UNL d   1       0.438  -2.675   0.000  0.00  0.00     0.147 C 
ATOM     13  C   UNL d   1      -0.514  -3.736   0.003  0.00  0.00     0.108 C 
ATOM     14  N   UNL d   1      -1.238  -4.640   0.007  0.00  0.00    -0.191 NA
BRANCH  12  15
ATOM     15  C   UNL d   1       1.870  -3.123  -0.001  0.00  0.00     0.305 C 
ATOM     16  O   UNL d   1       2.830  -2.362   0.001  0.00  0.00    -0.258 OA
BRANCH  15  17
ATOM     17  O   UNL d   1       1.938  -4.477  -0.004  0.00  0.00    -0.322 OA
ATOM     18  C   UNL d   1       3.241  -5.061  -0.005  0.00  0.00     0.213 C 
ENDBRANCH  15  17
ENDBRANCH  12  15
ENDBRANCH   1  12
BRANCH   3  19
ATOM     19  S   UNL d   1      -3.062   1.268   0.010  0.00  0.00    -0.115 SA
ATOM     20  C   UNL d   1      -2.799   3.047   0.005  0.00  0.00     0.097 C 
ENDBRANCH   3  19
TORSDOF 4
