REMARK  6 active torsions:
REMARK  status: ('A' for Active; 'I' for Inactive)
REMARK    1  A    between atoms: C_7  and  C_1 
REMARK    2  A    between atoms: C_10  and  C_2 
REMARK    3  A    between atoms: O_18  and  C_7 
REMARK    4  A    between atoms: O_12  and  N_8 
REMARK    5  A    between atoms: C_11  and  O_12 
REMARK    6  A    between atoms: C_13  and  C_11 
ROOT
ATOM      1  N   UNL d   1      -0.585  -3.627   0.272  0.00  0.00    -0.261 N 
ATOM      2  HN  UNL d   1      -0.293  -4.601   0.353  1.00  0.00     0.194 HD
ATOM      3  C   UNL d   1       0.236  -2.639   0.079  0.00  0.00     0.044 C 
ATOM      4  C   UNL d   1      -0.206  -1.198  -0.042  0.00  0.00     0.071 C 
ENDROOT
BRANCH   3   5
ATOM      5  C   UNL d   1       1.658  -2.971   0.053  0.00  0.00     0.054 A 
ATOM      6  C   UNL d   1       2.299  -4.193  -0.358  0.00  0.00     0.144 A 
ATOM      7  N   UNL d   1       3.624  -4.128  -0.140  0.00  0.00    -0.254 N 
ATOM      8  O   UNL d   1       3.877  -2.876   0.345  0.00  0.00    -0.241 OA
ATOM      9  HN  UNL d   1       4.306  -4.868  -0.304  1.00  0.00     0.195 HD
ATOM     10  C   UNL d   1       2.721  -2.174   0.453  0.00  0.00     0.087 A 
ATOM     11  C   UNL d   1       2.924  -0.809   0.980  0.00  0.00     0.080 C 
BRANCH   6  12
ATOM     12  C   UNL d   1       1.757  -5.387  -1.006  0.00  0.00     0.312 C 
ATOM     13  O   UNL d   1       2.259  -6.502  -0.902  0.00  0.00    -0.258 OA
BRANCH  12  14
ATOM     14  O   UNL d   1       0.728  -5.096  -1.859  0.00  0.00    -0.321 OA
ATOM     15  C   UNL d   1       0.288  -6.203  -2.645  0.00  0.00     0.213 C 
ENDBRANCH  12  14
ENDBRANCH   6  12
ENDBRANCH   3   5
BRANCH   1  16
ATOM     16  O   UNL d   1      -1.930  -3.199   0.357  0.00  0.00    -0.195 OA
BRANCH  16  17
ATOM     17  C   UNL d   1      -2.771  -4.275   0.469  0.00  0.00     0.315 C 
ATOM     18  O   UNL d   1      -2.458  -5.459   0.453  0.00  0.00    -0.257 OA
BRANCH  17  19
ATOM     19  C   UNL d   1      -4.185  -3.827   0.634  0.00  0.00     0.041 A 
ATOM     20  C   UNL d   1      -5.160  -4.811   0.886  0.00  0.00     0.019 A 
ATOM     21  C   UNL d   1      -6.503  -4.460   1.054  0.00  0.00     0.025 A 
ATOM     22  C   UNL d   1      -6.883  -3.123   0.967  0.00  0.00     0.034 A 
ATOM     23  C   UNL d   1      -5.931  -2.137   0.711  0.00  0.00     0.025 A 
ATOM     24 CL   UNL d   1      -8.534  -2.687   1.176  0.00  0.00    -0.084 Cl
ATOM     25  C   UNL d   1      -4.584  -2.486   0.544  0.00  0.00     0.019 A 
ENDBRANCH  17  19
ENDBRANCH  16  17
ENDBRANCH   1  16
TORSDOF 6
