REMARK  5 active torsions:
REMARK  status: ('A' for Active; 'I' for Inactive)
REMARK       I    between atoms: C_9  and  N_8 
REMARK    1  A    between atoms: C_25  and  C_9 
REMARK    2  A    between atoms: C_11  and  C_26 
REMARK    3  A    between atoms: O_22  and  C_11 
REMARK    4  A    between atoms: O_21  and  C_25 
REMARK    5  A    between atoms: C_26  and  O_21 
ROOT
ATOM      1  C   UNL d   1      -3.213   0.280   0.126  0.00  0.00     0.147 A 
ATOM      2  N   UNL d   1      -2.507   0.849  -0.831  0.00  0.00    -0.336 N 
ATOM      3  HN  UNL d   1      -2.912   1.353  -1.620  1.00  0.00     0.168 HD
ATOM      4  S   UNL d   1      -2.236  -0.473   1.342  0.00  0.00    -0.052 SA
ATOM      5  N   UNL d   1      -4.578   0.291   0.147  0.00  0.00    -0.360 N 
ATOM      6  C   UNL d   1      -0.801  -0.032   0.513  0.00  0.00     0.036 A 
ATOM      7  C   UNL d   1      -1.149   0.678  -0.633  0.00  0.00     0.051 A 
ATOM      8  N   UNL d   1      -7.038   1.898   0.575  0.00  0.00    -0.349 N 
ATOM      9  C   UNL d   1      -8.372   1.540   0.419  0.00  0.00     0.243 C 
ATOM     10  C   UNL d   1       0.536  -0.292   0.856  0.00  0.00     0.045 A 
ATOM     11  C   UNL d   1      -5.314   0.890  -0.969  0.00  0.00     0.145 C 
ATOM     12  C   UNL d   1      -6.098   2.140  -0.531  0.00  0.00     0.145 C 
ATOM     13  O   UNL d   1      -9.082   1.232   1.380  0.00  0.00    -0.271 OA
ATOM     14  C   UNL d   1      -0.120   1.151  -1.475  0.00  0.00     0.032 A 
ATOM     15  C   UNL d   1       1.533   0.192   0.006  0.00  0.00     0.035 A 
ATOM     16  C   UNL d   1      -5.785   0.530   2.297  0.00  0.00     0.040 C 
ATOM     17  C   UNL d   1      -5.385  -0.395   1.152  0.00  0.00     0.126 C 
ATOM     18  C   UNL d   1      -6.446   1.855   1.908  0.00  0.00     0.127 C 
ATOM     19  C   UNL d   1       1.218   0.905  -1.145  0.00  0.00     0.026 A 
ATOM     20 CL   UNL d   1       3.185  -0.099   0.398  0.00  0.00    -0.084 Cl
ENDROOT
BRANCH   9  21
ATOM     21  C   UNL d   1      -8.982   1.593  -0.992  0.00  0.00     0.271 C 
BRANCH  21  22
ATOM     22  O   UNL d   1      -8.339   0.719  -1.921  0.00  0.00    -0.372 OA
BRANCH  22  23
ATOM     23  C   UNL d   1      -9.043   0.650  -3.160  0.00  0.00     0.277 C 
BRANCH  23  24
ATOM     24  C   UNL d   1      -8.827   1.899  -4.006  0.00  0.00     0.164 C 
ATOM     25  O   UNL d   1      -9.716   2.534  -4.542  0.00  0.00    -0.648 OA
BRANCH  24  26
ATOM     26  O   UNL d   1      -7.518   2.241  -4.086  0.00  0.00    -0.775 OA
ATOM     27  H   UNL d   1      -6.960   1.610  -3.589  0.00  0.00     0.167 HD
ENDBRANCH  24  26
ENDBRANCH  23  24
ENDBRANCH  22  23
ENDBRANCH  21  22
ENDBRANCH   9  21
TORSDOF 5
