REMARK  5 active torsions:
REMARK  status: ('A' for Active; 'I' for Inactive)
REMARK    1  A    between atoms: N_2  and  C_1 
REMARK    2  A    between atoms: N_5  and  C_1 
REMARK    3  A    between atoms: C_3  and  N_2 
REMARK    4  A    between atoms: C_8  and  N_5 
REMARK    5  A    between atoms: O_16  and  C_13 
ROOT
ATOM      1  C   UNL d   1       1.078  -0.184  -0.197  0.00  0.00     0.176 C 
ATOM      2  S   UNL d   1       2.696   0.084  -0.547  0.00  0.00    -0.041 SA
ENDROOT
BRANCH   1   3
ATOM      3  N   UNL d   1       0.592  -0.593   1.013  0.00  0.00    -0.332 N 
ATOM      4  H   UNL d   1       0.007  -1.423   0.973  0.00  0.00     0.168 HD
BRANCH   3   5
ATOM      5  C   UNL d   1       1.003  -0.184   2.303  0.00  0.00     0.056 A 
ATOM      6  C   UNL d   1       0.780  -1.020   3.411  0.00  0.00     0.062 A 
ATOM      7  C   UNL d   1       1.103  -0.597   4.702  0.00  0.00     0.045 A 
ATOM      8 CL   UNL d   1       0.107  -2.601   3.211  0.00  0.00    -0.082 Cl
ATOM      9  C   UNL d   1       1.626   0.680   4.894  0.00  0.00     0.012 A 
ATOM     10  C   UNL d   1       1.834   1.530   3.810  0.00  0.00     0.021 A 
ATOM     11 BR   UNL d   1       2.032   1.279   6.640  0.00  0.00    -0.051 Br
ATOM     12  C   UNL d   1       1.525   1.098   2.519  0.00  0.00     0.032 A 
ENDBRANCH   3   5
ENDBRANCH   1   3
BRANCH   1  13
ATOM     13  N   UNL d   1       0.193  -0.106  -1.235  0.00  0.00    -0.333 N 
ATOM     14  H   UNL d   1       0.659  -0.021  -2.135  0.00  0.00     0.168 HD
BRANCH  13  15
ATOM     15  C   UNL d   1      -1.207   0.088  -1.258  0.00  0.00     0.036 A 
ATOM     16  C   UNL d   1      -1.988   0.348  -0.128  0.00  0.00     0.066 A 
ATOM     17  C   UNL d   1      -3.365   0.579  -0.247  0.00  0.00     0.070 A 
ATOM     18  C   UNL d   1      -3.956   0.566  -1.510  0.00  0.00     0.037 A 
ATOM     19  C   UNL d   1      -3.186   0.330  -2.646  0.00  0.00     0.005 A 
ATOM     20  C   UNL d   1      -1.817   0.093  -2.519  0.00  0.00     0.029 A 
BRANCH  17  21
ATOM     21  O   UNL d   1      -4.225   0.844   0.783  0.00  0.00    -0.356 OA
ATOM     22  C   UNL d   1      -3.676   0.868   2.096  0.00  0.00     0.210 C 
ENDBRANCH  17  21
ENDBRANCH  13  15
ENDBRANCH   1  13
TORSDOF 5
