REMARK  1 active torsions:
REMARK  status: ('A' for Active; 'I' for Inactive)
REMARK       I    between atoms: C_6  and  N_1 
REMARK    1  A    between atoms: C_7  and  C_4 
REMARK       I    between atoms: N_18  and  C_6 
ROOT
ATOM      1  N   UNL d   1      -0.777  -0.744  -1.454  0.00  0.00    -0.203 N 
ATOM      2  C   UNL d   1      -0.321  -1.278  -0.257  0.00  0.00     0.096 C 
ATOM      3  C   UNL d   1      -0.644  -2.561   0.302  0.00  0.00     0.105 A 
ATOM      4  C   UNL d   1      -0.507  -4.239   1.762  0.00  0.00     0.089 A 
ATOM      5  O   UNL d   1      -0.163  -2.937   1.534  0.00  0.00    -0.307 OA
ATOM      6  C   UNL d   1      -1.865  -1.136  -2.273  0.00  0.00     0.341 C 
ATOM      7  N   UNL d   1       0.022   0.304  -1.866  0.00  0.00    -0.301 N 
ATOM      8  HN  UNL d   1       0.031   0.769  -2.774  1.00  0.00     0.186 HD
ATOM      9  C   UNL d   1      -1.311  -3.648  -0.237  0.00  0.00     0.042 A 
ATOM     10  C   UNL d   1      -1.246  -4.704   0.701  0.00  0.00     0.041 A 
ATOM     11  C   UNL d   1       0.602  -0.371   0.229  0.00  0.00     0.053 C 
ATOM     12  C   UNL d   1       0.778   0.566  -0.800  0.00  0.00     0.110 C 
ATOM     13  O   UNL d   1      -2.808  -1.772  -1.826  0.00  0.00    -0.245 OA
ATOM     14  N   UNL d   1      -1.661  -0.767  -3.583  0.00  0.00    -0.346 N 
ATOM     15  C   UNL d   1      -2.432  -1.356  -4.644  0.00  0.00     0.151 C 
ATOM     16  H   UNL d   1      -0.789  -0.280  -3.785  0.00  0.00     0.163 HD
ENDROOT
BRANCH   4  17
ATOM     17  C   UNL d   1      -0.004  -4.838   2.994  0.00  0.00     0.036 A 
ATOM     18  C   UNL d   1      -0.145  -6.213   3.241  0.00  0.00     0.132 A 
ATOM     19  C   UNL d   1       0.362  -6.801   4.398  0.00  0.00     0.085 A 
ATOM     20  F   UNL d   1      -0.762  -7.013   2.359  0.00  0.00    -0.205 F 
ATOM     21  C   UNL d   1       1.018  -6.008   5.325  0.00  0.00     0.119 A 
ATOM     22  C   UNL d   1       1.174  -4.643   5.117  0.00  0.00     0.043 A 
ATOM     23  F   UNL d   1       1.514  -6.565   6.436  0.00  0.00    -0.206 F 
ATOM     24  C   UNL d   1       0.663  -4.060   3.954  0.00  0.00     0.020 A 
ENDBRANCH   4  17
TORSDOF 1
