REMARK  4 active torsions:
REMARK  status: ('A' for Active; 'I' for Inactive)
REMARK    1  A    between atoms: C_8  and  N_1 
REMARK    2  A    between atoms: S_9  and  C_2 
REMARK    3  A    between atoms: O_10  and  C_3 
REMARK    4  A    between atoms: C_11  and  C_8 
ROOT
ATOM      1  N   UNL d   1      -0.083  -1.193  -0.015  0.00  0.00    -0.287 N 
ATOM      2  C   UNL d   1       0.189  -0.327  -1.044  0.00  0.00     0.162 A 
ATOM      3  C   UNL d   1      -0.055  -0.408   1.114  0.00  0.00     0.240 A 
ATOM      4  N   UNL d   1       0.407   0.877  -0.568  0.00  0.00    -0.277 N 
ATOM      5  HN  UNL d   1       0.648   1.704  -1.114  1.00  0.00     0.189 HD
ATOM      6  N   UNL d   1       0.255   0.824   0.795  0.00  0.00    -0.263 N 
ATOM      7  HN  UNL d   1       0.363   1.604   1.443  1.00  0.00     0.190 HD
ENDROOT
BRANCH   1   8
ATOM      8  C   UNL d   1      -0.391  -2.607  -0.073  0.00  0.00     0.173 C 
BRANCH   8   9
ATOM      9  C   UNL d   1       0.839  -3.468   0.078  0.00  0.00    -0.040 A 
ATOM     10  C   UNL d   1       1.327  -3.811   1.349  0.00  0.00     0.009 A 
ATOM     11  C   UNL d   1       2.474  -4.598   1.484  0.00  0.00     0.001 A 
ATOM     12  C   UNL d   1       3.147  -5.051   0.353  0.00  0.00     0.000 A 
ATOM     13  C   UNL d   1       2.674  -4.722  -0.914  0.00  0.00     0.001 A 
ATOM     14  C   UNL d   1       1.527  -3.936  -1.052  0.00  0.00     0.009 A 
ENDBRANCH   8   9
ENDBRANCH   1   8
BRANCH   2  15
ATOM     15  S   UNL d   1       0.245  -0.712  -2.730  0.00  0.00    -0.105 SA
ATOM     16  H   UNL d   1      -0.402  -1.880  -2.753  0.00  0.00     0.110 HD
ENDBRANCH   2  15
BRANCH   3  17
ATOM     17  O   UNL d   1      -0.304  -0.782   2.359  0.00  0.00    -0.331 OA
ATOM     18  H   UNL d   1      -0.631  -1.690   2.382  0.00  0.00     0.221 HD
ENDBRANCH   3  17
TORSDOF 4
