REMARK  3 active torsions:
REMARK  status: ('A' for Active; 'I' for Inactive)
REMARK    1  A    between atoms: C_2  and  S_1 
REMARK    2  A    between atoms: N_8  and  S_1 
REMARK    3  A    between atoms: C_11  and  N_8 
ROOT
ATOM      1  C   UNL d   1       0.064   0.836  -1.564  0.00  0.00     0.092 C 
ATOM      2  C   UNL d   1       0.434   2.174  -1.883  0.00  0.00    -0.032 C 
ATOM      3  C   UNL d   1      -0.710   0.075  -2.488  0.00  0.00    -0.032 C 
ATOM      4  C   UNL d   1       0.091   2.697  -3.167  0.00  0.00    -0.048 C 
ATOM      5  C   UNL d   1      -0.906   0.553  -3.809  0.00  0.00    -0.048 C 
ATOM      6  C   UNL d   1      -0.552   1.879  -4.135  0.00  0.00    -0.049 C 
ATOM      7  C   UNL d   1       1.143   3.111  -0.934  0.00  0.00     0.050 C 
ATOM      8  C   UNL d   1      -1.425  -1.204  -2.100  0.00  0.00     0.050 C 
ATOM      9  C   UNL d   1       0.414   4.129  -3.559  0.00  0.00     0.049 C 
ATOM     10  C   UNL d   1      -1.491  -0.348  -4.877  0.00  0.00     0.049 C 
ATOM     11  C   UNL d   1      -0.897   2.469  -5.489  0.00  0.00     0.049 C 
ENDROOT
BRANCH   1  12
ATOM     12  S   UNL d   1       0.772  -0.057  -0.143  0.00  0.00     0.260 S 
ATOM     13  O   UNL d   1       1.751   0.739   0.550  0.00  0.00    -0.200 OA
ATOM     14  O   UNL d   1       1.165  -1.354  -0.640  0.00  0.00    -0.200 OA
BRANCH  12  15
ATOM     15  N   UNL d   1      -0.491  -0.370   0.902  0.00  0.00    -0.307 N 
ATOM     16  H   UNL d   1      -0.645  -1.368   1.025  0.00  0.00     0.173 HD
BRANCH  15  17
ATOM     17  C   UNL d   1      -1.289   0.565   1.709  0.00  0.00     0.029 C 
ATOM     18  C   UNL d   1      -2.161   1.443   0.808  0.00  0.00     0.038 C 
ATOM     19  C   UNL d   1      -2.219  -0.304   2.583  0.00  0.00     0.038 C 
ATOM     20  C   UNL d   1      -0.424   1.415   2.639  0.00  0.00     0.038 C 
ENDBRANCH  15  17
ENDBRANCH  12  15
ENDBRANCH   1  12
TORSDOF 3
