REMARK  6 active torsions:
REMARK  status: ('A' for Active; 'I' for Inactive)
REMARK    1  A    between atoms: N_3  and  S_1 
REMARK    2  A    between atoms: C_4  and  S_1 
REMARK    3  A    between atoms: C_2  and  O_13 
REMARK    4  A    between atoms: C_16  and  N_3 
REMARK    5  A    between atoms: O_13  and  C_17 
REMARK    6  A    between atoms: O_25  and  C_18 
ROOT
ATOM      1  C   UNL d   1       3.116   5.862  -3.330  0.00  0.00     0.117 A 
ATOM      2  N   UNL d   1       3.670   6.517  -6.778  0.00  0.00    -0.191 NA
ATOM      3  N   UNL d   1       1.552   5.182  -0.177  0.00  0.00    -0.191 NA
ATOM      4  C   UNL d   1       3.988   6.543  -4.200  0.00  0.00     0.080 A 
ATOM      5  C   UNL d   1       3.256   6.042  -1.938  0.00  0.00     0.080 A 
ATOM      6  C   UNL d   1       3.802   6.509  -5.623  0.00  0.00     0.102 C 
ATOM      7  C   UNL d   1       2.304   5.557  -0.982  0.00  0.00     0.102 C 
ATOM      8  C   UNL d   1       4.348   6.768  -1.437  0.00  0.00     0.026 A 
ATOM      9  C   UNL d   1       5.051   7.298  -3.680  0.00  0.00     0.026 A 
ATOM     10  C   UNL d   1       5.248   7.383  -2.303  0.00  0.00     0.003 A 
ENDROOT
BRANCH   1  11
ATOM     11  O   UNL d   1       2.123   5.111  -3.931  0.00  0.00    -0.308 OA
BRANCH  11  12
ATOM     12  C   UNL d   1       1.770   3.893  -3.395  0.00  0.00     0.076 A 
ATOM     13  C   UNL d   1       0.418   3.559  -3.498  0.00  0.00     0.039 A 
ATOM     14  C   UNL d   1      -0.066   2.409  -2.876  0.00  0.00     0.033 A 
ATOM     15  C   UNL d   1       0.800   1.603  -2.142  0.00  0.00     0.042 A 
ATOM     16  C   UNL d   1       2.164   1.885  -2.104  0.00  0.00     0.033 A 
ATOM     17  C   UNL d   1       2.658   3.017  -2.760  0.00  0.00     0.039 A 
BRANCH  15  18
ATOM     18  N   UNL d   1       0.278   0.467  -1.488  0.00  0.00    -0.281 N 
ATOM     19  H   UNL d   1       0.276  -0.442  -1.942  0.00  0.00     0.179 HD
BRANCH  18  20
ATOM     20  S   UNL d   1      -0.080   0.498   0.146  0.00  0.00     0.263 S 
ATOM     21  O   UNL d   1       1.020   1.099   0.869  0.00  0.00    -0.200 OA
ATOM     22  O   UNL d   1      -0.539  -0.837   0.474  0.00  0.00    -0.200 OA
BRANCH  20  23
ATOM     23  C   UNL d   1      -1.493   1.576   0.242  0.00  0.00     0.080 A 
ATOM     24  C   UNL d   1      -2.773   1.063   0.004  0.00  0.00     0.028 A 
ATOM     25  C   UNL d   1      -3.896   1.885   0.168  0.00  0.00     0.038 A 
ATOM     26  C   UNL d   1      -3.738   3.211   0.578  0.00  0.00     0.068 A 
ATOM     27  C   UNL d   1      -2.455   3.709   0.822  0.00  0.00     0.038 A 
ATOM     28  C   UNL d   1      -1.329   2.900   0.652  0.00  0.00     0.028 A 
BRANCH  26  29
ATOM     29  O   UNL d   1      -4.754   4.091   0.828  0.00  0.00    -0.356 OA
ATOM     30  C   UNL d   1      -5.973   3.861   0.133  0.00  0.00     0.210 C 
ENDBRANCH  26  29
ENDBRANCH  20  23
ENDBRANCH  18  20
ENDBRANCH  15  18
ENDBRANCH  11  12
ENDBRANCH   1  11
TORSDOF 6
