REMARK  1 active torsions:
REMARK  status: ('A' for Active; 'I' for Inactive)
REMARK    1  A    between atoms: C_5  and  N_1 
ROOT
ATOM      1  N   UNL d   1      -1.400  -0.814  -0.242  0.00  0.00    -0.194 NA
ATOM      2  N   UNL d   1      -0.251  -0.751   0.536  0.00  0.00    -0.285 N 
ATOM      3  C   UNL d   1       0.393   0.456   0.377  0.00  0.00     0.233 C 
ATOM      4  C   UNL d   1      -0.553   1.420  -0.266  0.00  0.00     0.121 C 
ATOM      5  C   UNL d   1      -1.699   0.533  -0.742  0.00  0.00     0.129 C 
ATOM      6  O   UNL d   1       1.541   0.699   0.713  0.00  0.00    -0.272 OA
ATOM      7  H   UNL d   1       0.300  -1.591   0.678  0.00  0.00     0.184 HD
ENDROOT
BRANCH   1   8
ATOM      8  C   UNL d   1      -2.477  -1.564   0.271  0.00  0.00     0.030 A 
ATOM      9  C   UNL d   1      -2.429  -2.229   1.508  0.00  0.00     0.027 A 
ATOM     10  C   UNL d   1      -3.504  -3.005   1.961  0.00  0.00     0.026 A 
ATOM     11  C   UNL d   1      -4.642  -3.139   1.174  0.00  0.00     0.034 A 
ATOM     12  C   UNL d   1      -4.717  -2.500  -0.059  0.00  0.00     0.026 A 
ATOM     13 CL   UNL d   1      -5.955  -4.106   1.720  0.00  0.00    -0.084 Cl
ATOM     14  C   UNL d   1      -3.642  -1.722  -0.503  0.00  0.00     0.027 A 
ENDBRANCH   1   8
TORSDOF 1
