REMARK  5 active torsions:
REMARK  status: ('A' for Active; 'I' for Inactive)
REMARK    1  A    between atoms: C_4  and  C_3 
REMARK    2  A    between atoms: O_14  and  C_7 
REMARK    3  A    between atoms: C_18  and  O_14 
REMARK    4  A    between atoms: N_16  and  C_19 
REMARK    5  A    between atoms: C_19  and  C_18 
ROOT
ATOM      1  N   UNL d   1      -1.672   1.448  -0.003  0.00  0.00    -0.352 N 
ATOM      2  HN  UNL d   1      -1.722   2.467  -0.024  1.00  0.00     0.166 HD
ATOM      3  C   UNL d   1      -2.805   0.704   0.023  0.00  0.00     0.119 A 
ATOM      4  C   UNL d   1      -0.346  -0.582   0.021  0.00  0.00     0.025 A 
ATOM      5  C   UNL d   1      -0.485   0.824   0.001  0.00  0.00     0.045 A 
ATOM      6  C   UNL d   1      -1.536  -1.346   0.040  0.00  0.00     0.083 A 
ATOM      7  C   UNL d   1      -2.767  -0.685   0.050  0.00  0.00     0.072 A 
ATOM      8  C   UNL d   1       0.959  -1.134   0.018  0.00  0.00     0.023 A 
ATOM      9  C   UNL d   1       0.652   1.615  -0.021  0.00  0.00     0.031 A 
ATOM     10  C   UNL d   1       2.100  -0.317  -0.003  0.00  0.00    -0.061 A 
ATOM     11  C   UNL d   1       1.934   1.066  -0.025  0.00  0.00     0.009 A 
ATOM     12  C   UNL d   1       3.473  -0.921  -0.012  0.00  0.00     0.048 C 
ENDROOT
BRANCH   6  13
ATOM     13  O   UNL d   1      -1.419  -2.726   0.045  0.00  0.00    -0.348 OA
BRANCH  13  14
ATOM     14  C   UNL d   1      -2.662  -3.440  -0.029  0.00  0.00     0.206 C 
BRANCH  14  15
ATOM     15  C   UNL d   1      -2.463  -4.962  -0.086  0.00  0.00     0.297 C 
BRANCH  15  16
ATOM     16  N   UNL d   1      -3.751  -5.688  -0.001  0.00  0.00     0.082 N 
ATOM     17  C   UNL d   1      -4.614  -5.439  -1.159  0.00  0.00     0.309 C 
ATOM     18  C   UNL d   1      -3.528  -7.126   0.149  0.00  0.00     0.309 C 
ENDBRANCH  15  16
ENDBRANCH  14  15
ENDBRANCH  13  14
ENDBRANCH   6  13
BRANCH   3  19
ATOM     19  C   UNL d   1      -4.166   1.383   0.007  0.00  0.00     0.432 C 
ATOM     20  F   UNL d   1      -4.125   2.746   0.005  0.00  0.00    -0.165 F 
ATOM     21  F   UNL d   1      -4.904   1.031  -1.088  0.00  0.00    -0.165 F 
ATOM     22  F   UNL d   1      -4.932   1.034   1.083  0.00  0.00    -0.165 F 
ENDBRANCH   3  19
TORSDOF 5
