REMARK  3 active torsions:
REMARK  status: ('A' for Active; 'I' for Inactive)
REMARK    1  A    between atoms: C_2  and  S_1 
REMARK    2  A    between atoms: C_5  and  S_1 
REMARK    3  A    between atoms: C_6  and  C_2 
ROOT
ATOM      1  S   UNL d   1       0.929  -0.096   0.040  0.00  0.00     0.179 S 
ATOM      2  O   UNL d   1       0.414   1.260   0.134  0.00  0.00    -0.222 OA
ATOM      3  O   UNL d   1       2.349  -0.365   0.169  0.00  0.00    -0.222 OA
ENDROOT
BRANCH   1   4
ATOM      4  C   UNL d   1       0.320  -0.864  -1.459  0.00  0.00     0.184 C 
BRANCH   4   5
ATOM      5  C   UNL d   1       0.790  -0.073  -2.656  0.00  0.00    -0.044 A 
ATOM      6  C   UNL d   1       2.001  -0.381  -3.293  0.00  0.00     0.008 A 
ATOM      7  C   UNL d   1       2.430   0.359  -4.398  0.00  0.00     0.001 A 
ATOM      8  C   UNL d   1       1.658   1.417  -4.874  0.00  0.00     0.000 A 
ATOM      9  C   UNL d   1       0.459   1.740  -4.244  0.00  0.00     0.001 A 
ATOM     10  C   UNL d   1       0.026   1.000  -3.142  0.00  0.00     0.008 A 
ENDBRANCH   4   5
ENDBRANCH   1   4
BRANCH   1  11
ATOM     11  C   UNL d   1       0.118  -1.024   1.336  0.00  0.00     0.059 A 
ATOM     12  C   UNL d   1       0.730  -2.169   1.854  0.00  0.00     0.023 A 
ATOM     13  C   UNL d   1       0.148  -2.828   2.937  0.00  0.00     0.002 A 
ATOM     14  C   UNL d   1      -1.033  -2.341   3.503  0.00  0.00     0.000 A 
ATOM     15  C   UNL d   1      -1.639  -1.196   2.983  0.00  0.00     0.002 A 
ATOM     16  C   UNL d   1      -1.064  -0.532   1.899  0.00  0.00     0.023 A 
ENDBRANCH   1  11
TORSDOF 3
