REMARK  5 active torsions:
REMARK  status: ('A' for Active; 'I' for Inactive)
REMARK    1  A    between atoms: N_6  and  C_1 
REMARK    2  A    between atoms: C_8  and  C_2 
REMARK       I    between atoms: C_7  and  N_6 
REMARK       I    between atoms: N_12  and  C_7 
REMARK    3  A    between atoms: O_17  and  C_8 
REMARK    4  A    between atoms: C_15  and  N_12 
REMARK    5  A    between atoms: C_22  and  O_17 
ROOT
ATOM      1  C   UNL d   1       2.139  -0.658   0.197  0.00  0.00     0.095 C 
ATOM      2  C   UNL d   1       0.914  -1.292   0.362  0.00  0.00     0.080 C 
ATOM      3  C   UNL d   1      -0.164  -0.430  -0.048  0.00  0.00    -0.022 C 
ATOM      4  C   UNL d   1       0.259   0.879  -0.143  0.00  0.00     0.020 C 
ATOM      5  S   UNL d   1       1.950   1.001  -0.147  0.00  0.00    -0.073 SA
ATOM      6  N   UNL d   1      -2.048   1.711   0.191  0.00  0.00     0.089 N 
ATOM      7  C   UNL d   1      -0.665   2.063  -0.227  0.00  0.00     0.318 C 
ATOM      8  C   UNL d   1      -1.625  -0.778  -0.150  0.00  0.00     0.071 C 
ATOM      9  C   UNL d   1      -2.479   0.466  -0.484  0.00  0.00     0.277 C 
ATOM     10  C   UNL d   1      -2.165   1.592   1.649  0.00  0.00     0.310 C 
ENDROOT
BRANCH   1  11
ATOM     11  N   UNL d   1       3.384  -1.262   0.264  0.00  0.00    -0.302 N 
ATOM     12  C   UNL d   1       4.657  -0.834   0.059  0.00  0.00     0.321 C 
ATOM     13  N   UNL d   1       4.910   0.498   0.062  0.00  0.00    -0.335 N 
ATOM     14  O   UNL d   1       5.528  -1.693  -0.062  0.00  0.00    -0.247 OA
ATOM     15  H   UNL d   1       4.085   1.073  -0.020  0.00  0.00     0.165 HD
ATOM     16  H   UNL d   1       3.374  -2.269   0.389  0.00  0.00     0.171 HD
BRANCH  13  17
ATOM     17  C   UNL d   1       6.185   1.143  -0.301  0.00  0.00     0.023 C 
ATOM     18  C   UNL d   1       6.287   1.250  -1.830  0.00  0.00     0.037 C 
ATOM     19  C   UNL d   1       6.178   2.558   0.303  0.00  0.00     0.037 C 
ATOM     20  C   UNL d   1       7.423   0.405   0.242  0.00  0.00     0.037 C 
ENDBRANCH  13  17
ENDBRANCH   1  11
BRANCH   2  21
ATOM     21  C   UNL d   1       0.704  -2.621   0.926  0.00  0.00     0.296 C 
ATOM     22  O   UNL d   1      -0.290  -3.304   0.696  0.00  0.00    -0.259 OA
BRANCH  21  23
ATOM     23  O   UNL d   1       1.636  -2.922   1.875  0.00  0.00    -0.318 OA
BRANCH  23  24
ATOM     24  C   UNL d   1       1.225  -3.882   2.859  0.00  0.00     0.174 C 
ATOM     25  C   UNL d   1       1.448  -5.296   2.369  0.00  0.00     0.034 C 
ENDBRANCH  23  24
ENDBRANCH  21  23
ENDBRANCH   2  21
TORSDOF 5
