REMARK  3 active torsions:
REMARK  status: ('A' for Active; 'I' for Inactive)
REMARK       I    between atoms: C_7  and  N_1 
REMARK    1  A    between atoms: C_3  and  C_2 
REMARK    2  A    between atoms: C_6  and  C_8 
REMARK       I    between atoms: N_17  and  C_7 
REMARK    3  A    between atoms: C_22  and  N_17 
ROOT
ATOM      1  N   UNL d   1       0.843  -0.808  -0.193  0.00  0.00    -0.204 N 
ATOM      2  C   UNL d   1      -0.484  -1.169  -0.033  0.00  0.00     0.090 C 
ATOM      3  C   UNL d   1       2.009  -1.597  -0.055  0.00  0.00     0.346 C 
ATOM      4  N   UNL d   1       0.949   0.513  -0.570  0.00  0.00    -0.301 N 
ATOM      5  HN  UNL d   1       1.765   1.000  -0.940  1.00  0.00     0.186 HD
ATOM      6  N   UNL d   1       2.929  -1.250  -1.024  0.00  0.00    -0.307 N 
ATOM      7  C   UNL d   1      -1.208   0.002  -0.019  0.00  0.00     0.052 C 
ATOM      8  C   UNL d   1      -0.276   1.005  -0.336  0.00  0.00     0.110 C 
ATOM      9  O   UNL d   1       2.066  -2.451   0.818  0.00  0.00    -0.245 OA
ATOM     10  H   UNL d   1       2.661  -0.476  -1.628  0.00  0.00     0.170 HD
ENDROOT
BRANCH   2  11
ATOM     11  C   UNL d   1      -1.008  -2.559  -0.011  0.00  0.00     0.069 A 
ATOM     12  N   UNL d   1      -0.170  -3.636  -0.189  0.00  0.00    -0.346 N 
ATOM     13  C   UNL d   1      -0.853  -4.762  -0.213  0.00  0.00     0.103 A 
ATOM     14  HN  UNL d   1       0.843  -3.572  -0.289  1.00  0.00     0.167 HD
ATOM     15  S   UNL d   1      -2.557  -4.573  -0.079  0.00  0.00    -0.080 SA
ATOM     16  C   UNL d   1      -2.348  -2.877   0.068  0.00  0.00     0.083 A 
BRANCH  13  17
ATOM     17  C   UNL d   1      -0.181  -6.096  -0.365  0.00  0.00     0.091 A 
ATOM     18  N   UNL d   1      -0.854  -7.246  -0.519  0.00  0.00    -0.258 N 
ATOM     19  O   UNL d   1       0.109  -8.231  -0.634  0.00  0.00    -0.242 OA
ATOM     20  HN  UNL d   1      -1.866  -7.368  -0.546  1.00  0.00     0.195 HD
ATOM     21  C   UNL d   1       1.345  -7.674  -0.532  0.00  0.00     0.074 A 
ATOM     22  C   UNL d   1       1.217  -6.317  -0.365  0.00  0.00     0.068 A 
ATOM     23  C   UNL d   1       2.485  -8.604  -0.616  0.00  0.00     0.079 C 
ENDBRANCH  13  17
ENDBRANCH   2  11
BRANCH   6  24
ATOM     24  C   UNL d   1       4.139  -1.917  -1.300  0.00  0.00     0.036 A 
ATOM     25  C   UNL d   1       4.652  -2.942  -0.501  0.00  0.00     0.029 A 
ATOM     26  C   UNL d   1       5.880  -3.536  -0.805  0.00  0.00     0.002 A 
ATOM     27  C   UNL d   1       6.598  -3.124  -1.923  0.00  0.00     0.000 A 
ATOM     28  C   UNL d   1       6.079  -2.129  -2.748  0.00  0.00     0.002 A 
ATOM     29  C   UNL d   1       4.856  -1.526  -2.437  0.00  0.00     0.029 A 
ENDBRANCH   6  24
TORSDOF 3
