REMARK  7 active torsions:
REMARK  status: ('A' for Active; 'I' for Inactive)
REMARK    1  A    between atoms: N_5  and  C_1 
REMARK    2  A    between atoms: C_4  and  C_6 
REMARK       I    between atoms: C_7  and  N_16 
REMARK    3  A    between atoms: C_11  and  C_7 
REMARK    4  A    between atoms: C_26  and  N_10 
REMARK    5  A    between atoms: N_16  and  C_25 
REMARK    6  A    between atoms: O_27  and  C_24 
REMARK    7  A    between atoms: C_25  and  C_26 
ROOT
ATOM      1  N   UNL d   1       0.137   2.671  -0.151  0.00  0.00    -0.214 N 
ATOM      2  N   UNL d   1       0.748   5.550   0.068  0.00  0.00     0.093 N 
ATOM      3  C   UNL d   1      -0.483   3.456   0.922  0.00  0.00     0.171 C 
ATOM      4  C   UNL d   1       1.417   3.187  -0.650  0.00  0.00     0.171 C 
ATOM      5  C   UNL d   1      -0.528   4.959   0.544  0.00  0.00     0.293 C 
ATOM      6  C   UNL d   1       1.266   4.680  -1.019  0.00  0.00     0.293 C 
ENDROOT
BRANCH   2   7
ATOM      7  C   UNL d   1       1.713   5.711   1.173  0.00  0.00     0.292 C 
BRANCH   7   8
ATOM      8  C   UNL d   1       2.973   6.497   0.759  0.00  0.00     0.153 C 
BRANCH   8   9
ATOM      9  N   UNL d   1       3.901   6.704   1.855  0.00  0.00    -0.355 N 
ATOM     10  C   UNL d   1       4.854   5.763   2.180  0.00  0.00     0.251 C 
ATOM     11  O   UNL d   1       4.918   4.655   1.655  0.00  0.00    -0.268 OA
ATOM     12  H   UNL d   1       3.772   7.517   2.441  0.00  0.00     0.162 HD
BRANCH  10  13
ATOM     13  C   UNL d   1       5.813   6.150   3.249  0.00  0.00     0.034 A 
ATOM     14  C   UNL d   1       6.360   5.142   4.057  0.00  0.00     0.053 A 
ATOM     15  C   UNL d   1       7.244   5.476   5.084  0.00  0.00     0.069 A 
ATOM     16  C   UNL d   1       7.596   6.816   5.279  0.00  0.00     0.037 A 
ATOM     17  C   UNL d   1       7.081   7.817   4.456  0.00  0.00     0.004 A 
ATOM     18  C   UNL d   1       6.192   7.485   3.437  0.00  0.00     0.017 A 
BRANCH  15  19
ATOM     19  O   UNL d   1       7.826   4.604   5.962  0.00  0.00    -0.356 OA
ATOM     20  C   UNL d   1       7.494   3.228   5.818  0.00  0.00     0.210 C 
ENDBRANCH  15  19
ENDBRANCH  10  13
ENDBRANCH   8   9
ENDBRANCH   7   8
ENDBRANCH   2   7
BRANCH   1  21
ATOM     21  C   UNL d   1       0.057   1.295   0.001  0.00  0.00     0.680 A 
ATOM     22  N   UNL d   1       1.042   0.525  -0.489  0.00  0.00    -0.186 N 
ATOM     23  C   UNL d   1       0.923  -0.825  -0.408  0.00  0.00     0.133 A 
ATOM     24  HN  UNL d   1       1.866   0.947  -0.915  1.00  0.00     0.184 HD
ATOM     25  C   UNL d   1      -0.193  -1.423   0.142  0.00  0.00     0.052 A 
ATOM     26  C   UNL d   1      -1.149  -0.567   0.622  0.00  0.00     0.108 A 
ATOM     27  N   UNL d   1      -1.038   0.771   0.574  0.00  0.00    -0.202 N 
ATOM     28  HN  UNL d   1      -1.765   1.373   0.962  1.00  0.00     0.183 HD
BRANCH  23  29
ATOM     29  C   UNL d   1       2.041  -1.702  -0.941  0.00  0.00     0.433 C 
ATOM     30  F   UNL d   1       3.119  -1.019  -1.417  0.00  0.00    -0.165 F 
ATOM     31  F   UNL d   1       2.530  -2.551   0.011  0.00  0.00    -0.165 F 
ATOM     32  F   UNL d   1       1.627  -2.507  -1.963  0.00  0.00    -0.165 F 
ENDBRANCH  23  29
ENDBRANCH   1  21
TORSDOF 7
