REMARK  3 active torsions:
REMARK  status: ('A' for Active; 'I' for Inactive)
REMARK    1  A    between atoms: O_14  and  C_6 
REMARK    2  A    between atoms: C_11  and  C_7 
REMARK    3  A    between atoms: O_15  and  C_11 
ROOT
ATOM      1  C   UNL d   1       0.246  -0.806  -0.004  0.00  0.00     0.067 A 
ATOM      2  C   UNL d   1       0.172   0.582  -0.006  0.00  0.00     0.137 A 
ATOM      3  N   UNL d   1       2.380   0.036  -0.007  0.00  0.00    -0.301 N 
ATOM      4  HN  UNL d   1       3.397   0.118  -0.008  1.00  0.00     0.187 HD
ATOM      5  N   UNL d   1       1.465   1.029  -0.007  0.00  0.00    -0.280 N 
ATOM      6  C   UNL d   1      -0.970  -1.517  -0.002  0.00  0.00     0.100 A 
ATOM      7  C   UNL d   1      -2.168  -0.789  -0.002  0.00  0.00     0.087 A 
ATOM      8  C   UNL d   1       1.642  -1.083  -0.005  0.00  0.00     0.039 A 
ATOM      9  N   UNL d   1      -0.945   1.337  -0.006  0.00  0.00    -0.349 N 
ATOM     10  HN  UNL d   1      -0.934   2.357  -0.007  1.00  0.00     0.167 HD
ATOM     11  C   UNL d   1      -2.088   0.602  -0.004  0.00  0.00     0.111 A 
ATOM     12  C   UNL d   1       1.912   2.399  -0.005  0.00  0.00     0.179 C 
ATOM     13  C   UNL d   1       2.322  -2.402  -0.004  0.00  0.00     0.071 C 
ENDROOT
BRANCH   7  14
ATOM     14  C   UNL d   1      -3.524  -1.393   0.002  0.00  0.00     0.180 C 
ATOM     15  O   UNL d   1      -4.538  -0.714   0.002  0.00  0.00    -0.646 OA
BRANCH  14  16
ATOM     16  O   UNL d   1      -3.558  -2.741   0.007  0.00  0.00    -0.773 OA
ATOM     17  H   UNL d   1      -2.663  -3.148   0.006  0.00  0.00     0.167 HD
ENDBRANCH  14  16
ENDBRANCH   7  14
BRANCH   6  18
ATOM     18  O   UNL d   1      -1.018  -2.897   0.001  0.00  0.00    -0.358 OA
ATOM     19  H   UNL d   1      -0.104  -3.237  -0.002  0.00  0.00     0.217 HD
ENDBRANCH   6  18
TORSDOF 3
