REMARK  8 active torsions:
REMARK  status: ('A' for Active; 'I' for Inactive)
REMARK    1  A    between atoms: N_2  and  S_1 
REMARK    2  A    between atoms: C_4  and  S_1 
REMARK    3  A    between atoms: C_3  and  N_7 
REMARK    4  A    between atoms: N_9  and  C_3 
REMARK    5  A    between atoms: N_7  and  C_12 
REMARK    6  A    between atoms: C_17  and  N_9 
REMARK    7  A    between atoms: C_19  and  C_17 
REMARK    8  A    between atoms: C_18  and  C_19 
ROOT
ATOM      1  C   UNL d   1       0.564  -0.052   1.790  0.00  0.00     0.079 A 
ATOM      2  C   UNL d   1       0.814  -1.246   2.474  0.00  0.00     0.027 A 
ATOM      3  C   UNL d   1       0.006   1.036   2.464  0.00  0.00     0.027 A 
ATOM      4  C   UNL d   1      -0.205  -0.315   4.475  0.00  0.00     0.034 A 
ATOM      5  C   UNL d   1       0.435  -1.372   3.817  0.00  0.00     0.031 A 
ATOM      6  C   UNL d   1      -0.376   0.900   3.803  0.00  0.00     0.031 A 
ENDROOT
BRANCH   4   7
ATOM      7  N   UNL d   1      -0.609  -0.491   5.821  0.00  0.00    -0.333 N 
ATOM      8  H   UNL d   1      -0.229  -1.307   6.287  0.00  0.00     0.168 HD
BRANCH   7   9
ATOM      9  C   UNL d   1      -1.778  -0.024   6.417  0.00  0.00     0.172 C 
ATOM     10  S   UNL d   1      -3.149   0.516   5.614  0.00  0.00    -0.041 SA
BRANCH   9  11
ATOM     11  N   UNL d   1      -1.696  -0.142   7.798  0.00  0.00    -0.367 N 
ATOM     12  H   UNL d   1      -0.789  -0.354   8.193  0.00  0.00     0.161 HD
BRANCH  11  13
ATOM     13  C   UNL d   1      -2.824  -0.028   8.726  0.00  0.00     0.126 C 
BRANCH  13  14
ATOM     14  C   UNL d   1      -2.433   0.042  10.204  0.00  0.00     0.058 C 
BRANCH  14  15
ATOM     15  C   UNL d   1      -1.707  -1.175  10.725  0.00  0.00    -0.057 A 
ATOM     16  C   UNL d   1      -0.315  -1.157  10.879  0.00  0.00     0.007 A 
ATOM     17  C   UNL d   1       0.355  -2.271  11.384  0.00  0.00     0.001 A 
ATOM     18  C   UNL d   1      -0.354  -3.410  11.746  0.00  0.00     0.000 A 
ATOM     19  C   UNL d   1      -1.741  -3.442  11.598  0.00  0.00     0.001 A 
ATOM     20  C   UNL d   1      -2.415  -2.332  11.085  0.00  0.00     0.007 A 
ENDBRANCH  14  15
ENDBRANCH  13  14
ENDBRANCH  11  13
ENDBRANCH   9  11
ENDBRANCH   7   9
ENDBRANCH   4   7
BRANCH   1  21
ATOM     21  S   UNL d   1       1.050   0.125   0.079  0.00  0.00     0.260 S 
ATOM     22  O   UNL d   1       1.116   1.545  -0.207  0.00  0.00    -0.200 OA
ATOM     23  O   UNL d   1       2.201  -0.729  -0.126  0.00  0.00    -0.200 OA
BRANCH  21  24
ATOM     24  N   UNL d   1      -0.273  -0.529  -0.797  0.00  0.00    -0.307 N 
ATOM     25  C   UNL d   1      -0.419  -2.004  -0.720  0.00  0.00     0.135 C 
ATOM     26  C   UNL d   1      -1.444  -2.503  -1.733  0.00  0.00     0.021 C 
ATOM     27  C   UNL d   1      -2.782  -1.805  -1.530  0.00  0.00     0.003 C 
ATOM     28  C   UNL d   1      -2.595  -0.299  -1.662  0.00  0.00     0.021 C 
ATOM     29  C   UNL d   1      -1.550   0.223  -0.677  0.00  0.00     0.135 C 
ENDBRANCH  21  24
ENDBRANCH   1  21
TORSDOF 8
