REMARK  5 active torsions:
REMARK  status: ('A' for Active; 'I' for Inactive)
REMARK    1  A    between atoms: C_2  and  S_1 
REMARK    2  A    between atoms: O_9  and  S_1 
REMARK    3  A    between atoms: C_17  and  C_15 
REMARK    4  A    between atoms: S_20  and  C_16 
REMARK    5  A    between atoms: N_22  and  S_20 
ROOT
ATOM      1  C   UNL d   1       1.150  -1.859  -0.650  0.00  0.00     0.084 A 
ATOM      2  C   UNL d   1       0.158  -1.870  -1.655  0.00  0.00    -0.038 A 
ATOM      3  C   UNL d   1       1.496  -3.061   0.012  0.00  0.00    -0.038 A 
ATOM      4  C   UNL d   1      -0.363  -3.105  -2.085  0.00  0.00     0.015 A 
ATOM      5  C   UNL d   1       0.954  -4.277  -0.454  0.00  0.00     0.015 A 
ATOM      6  C   UNL d   1       0.052  -4.311  -1.516  0.00  0.00    -0.061 A 
ATOM      7  C   UNL d   1      -0.450  -0.640  -2.284  0.00  0.00     0.050 C 
ATOM      8  C   UNL d   1       2.412  -3.142   1.201  0.00  0.00     0.050 C 
ATOM      9  C   UNL d   1      -0.534  -5.606  -1.996  0.00  0.00     0.048 C 
ENDROOT
BRANCH   1  10
ATOM     10  S   UNL d   1       2.057  -0.351  -0.326  0.00  0.00     0.130 S 
ATOM     11  O   UNL d   1       1.466   0.343   0.789  0.00  0.00    -0.598 OA
ATOM     12  O   UNL d   1       2.325   0.310  -1.585  0.00  0.00    -0.598 OA
BRANCH  10  13
ATOM     13  O   UNL d   1       3.540  -0.809   0.128  0.00  0.00    -0.292 OA
ATOM     14  H   UNL d   1       4.159  -0.353  -0.480  0.00  0.00     0.232 HD
ENDBRANCH  10  13
ENDBRANCH   1  10
TORSDOF 5
