REMARK  5 active torsions:
REMARK  status: ('A' for Active; 'I' for Inactive)
REMARK    1  A    between atoms: C_3  and  C_1 
REMARK    2  A    between atoms: C_5  and  CA_2 
REMARK       I    between atoms: N_4  and  C_3 
REMARK    3  A    between atoms: OXT_26  and  C_5 
REMARK    4  A    between atoms: C_22  and  N_8 
REMARK    5  A    between atoms: C_21  and  C_22 
ROOT
ATOM      1  C   UNL d   1      -1.508  -2.339  -0.091  0.00  0.00     0.273 C 
ATOM      2  N   UNL d   1      -1.072  -3.660  -0.180  0.00  0.00    -0.343 N 
ATOM      3  N   UNL d   1       0.393  -6.183  -0.683  0.00  0.00     0.095 N 
ATOM      4  O   UNL d   1      -1.059  -1.547   0.740  0.00  0.00    -0.266 OA
ATOM      5  C   UNL d   1      -0.069  -4.138   0.779  0.00  0.00     0.156 C 
ATOM      6  C   UNL d   1      -1.672  -4.723  -0.999  0.00  0.00     0.156 C 
ATOM      7  C   UNL d   1      -0.587  -5.619  -1.641  0.00  0.00     0.292 C 
ATOM      8  C   UNL d   1       0.964  -5.074   0.117  0.00  0.00     0.292 C 
ENDROOT
BRANCH   1   9
ATOM      9  C   UNL d   1      -2.507  -1.793  -1.047  0.00  0.00     0.134 A 
ATOM     10  CA  UNL d   1      -3.518  -0.917  -0.662  0.00  0.00     0.139 A 
ATOM     11  N   UNL d   1      -4.404  -0.424  -1.587  0.00  0.00    -0.357 N 
ATOM     12  C   UNL d   1      -4.224  -0.799  -2.871  0.00  0.00     0.105 A 
ATOM     13  HN  UNL d   1      -5.166   0.198  -1.316  1.00  0.00     0.165 HD
ATOM     14  C   UNL d   1      -3.195  -1.637  -3.250  0.00  0.00     0.105 A 
ATOM     15  N   UNL d   1      -2.312  -2.141  -2.359  0.00  0.00    -0.358 N 
ATOM     16  HN  UNL d   1      -1.544  -2.747  -2.647  1.00  0.00     0.165 HD
BRANCH  10  17
ATOM     17  C   UNL d   1      -3.835  -0.508   0.741  0.00  0.00     0.196 C 
ATOM     18  O   UNL d   1      -4.990  -0.469   1.142  0.00  0.00    -0.645 OA
BRANCH  17  19
ATOM     19  OXT UNL d   1      -2.816  -0.067   1.509  0.00  0.00    -0.772 OA
ATOM     20  HXT UNL d   1      -1.905  -0.327   1.230  0.00  0.00     0.167 HD
ENDBRANCH  17  19
ENDBRANCH  10  17
ENDBRANCH   1   9
BRANCH   3  21
ATOM     21  C   UNL d   1      -0.234  -7.233   0.137  0.00  0.00     0.311 C 
BRANCH  21  22
ATOM     22  C   UNL d   1       0.716  -7.950   1.074  0.00  0.00    -0.027 A 
ATOM     23  C   UNL d   1       0.477  -7.930   2.459  0.00  0.00     0.048 A 
ATOM     24  C   UNL d   1       1.339  -8.625   3.277  0.00  0.00     0.105 A 
ATOM     25  O   UNL d   1       1.246  -8.711   4.631  0.00  0.00    -0.323 OA
ATOM     26  C   UNL d   1       2.412  -9.324   2.778  0.00  0.00     0.105 A 
ATOM     27  C   UNL d   1       2.378  -9.555   4.927  0.00  0.00     0.352 A 
ATOM     28  O   UNL d   1       3.126  -9.943   3.756  0.00  0.00    -0.323 OA
ATOM     29  C   UNL d   1       2.683  -9.364   1.428  0.00  0.00     0.040 A 
ATOM     30  C   UNL d   1       1.825  -8.669   0.569  0.00  0.00     0.012 A 
ENDBRANCH  21  22
ENDBRANCH   3  21
TORSDOF 5
