REMARK  8 active torsions:
REMARK  status: ('A' for Active; 'I' for Inactive)
REMARK    1  A    between atoms: S_3  and  C_1 
REMARK    2  A    between atoms: N_7  and  C_2 
REMARK    3  A    between atoms: C_19  and  S_3 
REMARK    4  A    between atoms: C_12  and  C_4 
REMARK    5  A    between atoms: N_10  and  N_7 
REMARK    6  A    between atoms: C_9  and  C_8 
REMARK    7  A    between atoms: C_13  and  C_9 
REMARK    8  A    between atoms: O_25  and  C_12 
ROOT
ATOM      1  C   UNL d   1       3.682   3.453   0.430  0.00  0.00     0.180 C 
ATOM      2  N   UNL d   1       2.570   3.029  -0.109  0.00  0.00    -0.287 N 
ATOM      3  HN  UNL d   1       2.608   2.382  -0.897  1.00  0.00     0.188 HD
ATOM      4  C   UNL d   1       3.620   4.353   1.559  0.00  0.00     0.123 C 
ATOM      5  N   UNL d   1       3.555   5.095   2.449  0.00  0.00    -0.190 NA
ENDROOT
BRANCH   1   6
ATOM      6  C   UNL d   1       5.013   2.954  -0.067  0.00  0.00     0.227 C 
ATOM      7  O   UNL d   1       5.870   2.759   0.792  0.00  0.00    -0.284 OA
BRANCH   6   8
ATOM      8  C   UNL d   1       5.187   2.739  -1.497  0.00  0.00     0.058 A 
ATOM      9  S   UNL d   1       6.714   2.167  -2.052  0.00  0.00    -0.098 SA
ATOM     10  C   UNL d   1       6.194   2.112  -3.676  0.00  0.00     0.050 A 
ATOM     11  C   UNL d   1       4.892   2.530  -3.812  0.00  0.00     0.009 A 
ATOM     12  C   UNL d   1       4.318   2.907  -2.562  0.00  0.00     0.023 A 
ENDBRANCH   6   8
ENDBRANCH   1   6
BRANCH   2  13
ATOM     13  N   UNL d   1       1.360   3.439   0.368  0.00  0.00    -0.297 N 
ATOM     14  H   UNL d   1       1.248   4.420   0.687  0.00  0.00     0.187 HD
BRANCH  13  15
ATOM     15  C   UNL d   1       0.218   2.718   0.152  0.00  0.00     0.093 A 
ATOM     16  C   UNL d   1      -1.080   3.334   0.038  0.00  0.00     0.095 A 
ATOM     17  C   UNL d   1      -2.090   2.412  -0.121  0.00  0.00     0.076 A 
ATOM     18  S   UNL d   1      -1.492   0.826  -0.226  0.00  0.00    -0.092 SA
ATOM     19  C   UNL d   1       0.143   1.337  -0.001  0.00  0.00     0.109 A 
BRANCH  16  20
ATOM     20  S   UNL d   1      -1.406   5.045   0.070  0.00  0.00     0.181 S 
ATOM     21  O   UNL d   1      -2.704   5.137   0.705  0.00  0.00    -0.222 OA
ATOM     22  O   UNL d   1      -0.214   5.628   0.659  0.00  0.00    -0.222 OA
BRANCH  20  23
ATOM     23  C   UNL d   1      -1.549   5.551  -1.651  0.00  0.00     0.105 C 
ATOM     24  C   UNL d   1      -2.013   7.008  -1.726  0.00  0.00     0.026 C 
ATOM     25  C   UNL d   1      -0.237   5.388  -2.411  0.00  0.00     0.026 C 
ENDBRANCH  20  23
ENDBRANCH  16  20
BRANCH  19  26
ATOM     26  C   UNL d   1       1.137   0.273   0.002  0.00  0.00     0.302 C 
ATOM     27  O   UNL d   1       1.051  -0.772  -0.638  0.00  0.00    -0.259 OA
BRANCH  26  28
ATOM     28  O   UNL d   1       2.169   0.536   0.860  0.00  0.00    -0.322 OA
ATOM     29  C   UNL d   1       3.159  -0.495   0.897  0.00  0.00     0.213 C 
ENDBRANCH  26  28
ENDBRANCH  19  26
ENDBRANCH  13  15
ENDBRANCH   2  13
TORSDOF 8
