REMARK  5 active torsions:
REMARK  status: ('A' for Active; 'I' for Inactive)
REMARK       I    between atoms: N_2  and  C_1 
REMARK    1  A    between atoms: O_4  and  C_1 
REMARK       I    between atoms: C_3  and  N_5 
REMARK    2  A    between atoms: C_11  and  C_3 
REMARK    3  A    between atoms: C_10  and  O_4 
REMARK    4  A    between atoms: N_5  and  C_12 
REMARK    5  A    between atoms: C_12  and  C_15 
ROOT
ATOM      1  C   UNL d   1       0.999   0.100  -0.066  0.00  0.00     0.363 C 
ATOM      2  N   UNL d   1       0.397   1.123   0.643  0.00  0.00    -0.328 N 
ATOM      3  O   UNL d   1       1.887   0.302  -0.885  0.00  0.00    -0.238 OA
ATOM      4  C   UNL d   1       0.736   2.508   0.348  0.00  0.00     0.128 C 
ATOM      5  C   UNL d   1      -0.570   0.939   1.716  0.00  0.00     0.128 C 
ATOM      6  C   UNL d   1      -1.873   1.650   1.361  0.00  0.00     0.026 C 
ATOM      7  C   UNL d   1      -0.520   3.305  -0.011  0.00  0.00     0.026 C 
ATOM      8  C   UNL d   1      -1.670   3.139   1.005  0.00  0.00     0.006 C 
ENDROOT
BRANCH   8   9
ATOM      9  C   UNL d   1      -1.455   4.035   2.237  0.00  0.00     0.127 C 
BRANCH   9  10
ATOM     10  N   UNL d   1      -2.598   3.997   3.133  0.00  0.00    -0.356 N 
ATOM     11  C   UNL d   1      -2.507   3.487   4.409  0.00  0.00     0.251 C 
ATOM     12  O   UNL d   1      -1.466   3.063   4.892  0.00  0.00    -0.268 OA
ATOM     13  H   UNL d   1      -3.453   4.455   2.839  0.00  0.00     0.162 HD
BRANCH  11  14
ATOM     14  C   UNL d   1      -3.758   3.465   5.216  0.00  0.00     0.032 A 
ATOM     15  C   UNL d   1      -5.018   3.275   4.632  0.00  0.00     0.017 A 
ATOM     16  C   UNL d   1      -6.156   3.199   5.441  0.00  0.00     0.001 A 
ATOM     17  C   UNL d   1      -6.041   3.311   6.827  0.00  0.00     0.000 A 
ATOM     18  C   UNL d   1      -4.789   3.497   7.411  0.00  0.00     0.001 A 
ATOM     19  C   UNL d   1      -3.650   3.568   6.609  0.00  0.00     0.017 A 
ENDBRANCH  11  14
ENDBRANCH   9  10
ENDBRANCH   8   9
BRANCH   1  20
ATOM     20  O   UNL d   1       0.499  -1.138   0.218  0.00  0.00    -0.294 OA
BRANCH  20  21
ATOM     21  C   UNL d   1       1.057  -2.321  -0.427  0.00  0.00     0.061 C 
ATOM     22  C   UNL d   1       2.502  -2.559   0.033  0.00  0.00     0.046 C 
ATOM     23  C   UNL d   1       0.200  -3.510   0.047  0.00  0.00     0.046 C 
ATOM     24  C   UNL d   1       0.952  -2.260  -1.958  0.00  0.00     0.046 C 
ENDBRANCH  20  21
ENDBRANCH   1  20
TORSDOF 5
