REMARK  4 active torsions:
REMARK  status: ('A' for Active; 'I' for Inactive)
REMARK    1  A    between atoms: C_3  and  C_1 
REMARK    2  A    between atoms: C_8  and  C_2 
REMARK       I    between atoms: N_17  and  C_8 
REMARK    3  A    between atoms: C_11  and  C_20 
REMARK    4  A    between atoms: N_15  and  N_17 
ROOT
ATOM      1  C   UNL d   1      -2.726  -1.394   0.074  0.00  0.00     0.289 C 
ATOM      2  N   UNL d   1      -2.826  -2.640   0.678  0.00  0.00    -0.265 N 
ATOM      3  O   UNL d   1      -3.694  -0.809  -0.415  0.00  0.00    -0.264 OA
ATOM      4  H   UNL d   1      -1.982  -3.113   0.999  0.00  0.00     0.190 HD
ENDROOT
BRANCH   1   5
ATOM      5  C   UNL d   1      -1.387  -0.780   0.093  0.00  0.00     0.139 A 
ATOM      6  C   UNL d   1      -0.061  -1.324   0.065  0.00  0.00     0.057 A 
ATOM      7  C   UNL d   1       0.765  -0.218   0.067  0.00  0.00     0.087 A 
ATOM      8  O   UNL d   1       0.008   0.904   0.095  0.00  0.00    -0.241 OA
ATOM      9  C   UNL d   1       2.223   0.013   0.049  0.00  0.00     0.080 C 
ATOM     10  N   UNL d   1      -1.319   0.567   0.103  0.00  0.00    -0.255 N 
ATOM     11  HN  UNL d   1      -2.107   1.213   0.114  1.00  0.00     0.195 HD
BRANCH   6  12
ATOM     12  C   UNL d   1       0.350  -2.728  -0.014  0.00  0.00     0.054 A 
ATOM     13  N   UNL d   1      -0.448  -3.707   0.559  0.00  0.00    -0.353 N 
ATOM     14  C   UNL d   1       0.079  -4.898   0.345  0.00  0.00     0.047 A 
ATOM     15  HN  UNL d   1      -1.312  -3.532   1.071  1.00  0.00     0.166 HD
ATOM     16  C   UNL d   1      -0.531  -6.193   0.755  0.00  0.00     0.076 C 
ATOM     17  S   UNL d   1       1.582  -4.906  -0.486  0.00  0.00    -0.087 SA
ATOM     18  C   UNL d   1       1.501  -3.201  -0.612  0.00  0.00     0.082 A 
ENDBRANCH   6  12
ENDBRANCH   1   5
BRANCH   2  19
ATOM     19  N   UNL d   1      -4.014  -3.312   0.664  0.00  0.00    -0.308 N 
ATOM     20  C   UNL d   1      -4.030  -4.445   1.290  0.00  0.00     0.122 C 
ATOM     21  HN  UNL d   1      -4.839  -2.945   0.189  1.00  0.00     0.186 HD
BRANCH  20  22
ATOM     22  C   UNL d   1      -5.228  -5.314   1.330  0.00  0.00     0.024 A 
ATOM     23  C   UNL d   1      -6.210  -5.296   0.323  0.00  0.00     0.047 A 
ATOM     24 CL   UNL d   1      -6.069  -4.413  -1.158  0.00  0.00    -0.083 Cl
ATOM     25  C   UNL d   1      -7.361  -6.087   0.445  0.00  0.00     0.025 A 
ATOM     26  C   UNL d   1      -7.537  -6.919   1.548  0.00  0.00     0.003 A 
ATOM     27  C   UNL d   1      -6.549  -6.981   2.525  0.00  0.00     0.025 A 
ATOM     28  C   UNL d   1      -5.398  -6.188   2.419  0.00  0.00     0.047 A 
ATOM     29 CL   UNL d   1      -4.235  -6.350   3.692  0.00  0.00    -0.083 Cl
ENDBRANCH  20  22
ENDBRANCH   2  19
TORSDOF 4
