REMARK  2 active torsions:
REMARK  status: ('A' for Active; 'I' for Inactive)
REMARK    1  A    between atoms: C_2  and  S_1 
REMARK    2  A    between atoms: N_8  and  S_1 
ROOT
ATOM      1  C   UNL d   1       0.581   1.402   0.859  0.00  0.00     0.113 A 
ATOM      2  C   UNL d   1       0.994   2.653   0.412  0.00  0.00     0.142 A 
ATOM      3  C   UNL d   1      -0.192   1.282   2.020  0.00  0.00     0.031 A 
ATOM      4  C   UNL d   1       0.647   3.801   1.115  0.00  0.00     0.086 A 
ATOM      5  C   UNL d   1      -0.121   3.682   2.266  0.00  0.00     0.119 A 
ATOM      6  F   UNL d   1       1.738   2.782  -0.695  0.00  0.00    -0.204 F 
ATOM      7  C   UNL d   1      -0.543   2.435   2.726  0.00  0.00     0.044 A 
ATOM      8  F   UNL d   1      -0.463   4.783   2.946  0.00  0.00    -0.206 F 
ENDROOT
BRANCH   1   9
ATOM      9  S   UNL d   1       1.021  -0.014  -0.080  0.00  0.00     0.242 S 
ATOM     10  O   UNL d   1       0.583   0.166  -1.439  0.00  0.00    -0.206 OA
ATOM     11  O   UNL d   1       0.691  -1.197   0.684  0.00  0.00    -0.206 OA
BRANCH   9  12
ATOM     12  N   UNL d   1       2.698   0.044  -0.089  0.00  0.00    -0.225 NA
ATOM     13  H   UNL d   1       3.034   0.292  -1.021  0.00  0.00     0.136 HD
ATOM     14  H   UNL d   1       3.082  -0.830   0.274  0.00  0.00     0.136 HD
ENDBRANCH   9  12
ENDBRANCH   1   9
TORSDOF 2
