REMARK  6 active torsions:
REMARK  status: ('A' for Active; 'I' for Inactive)
REMARK    1  A    between atoms: C_4  and  C_1 
REMARK       I    between atoms: N_7  and  C_1 
REMARK    2  A    between atoms: C_3  and  O_6 
REMARK    3  A    between atoms: O_6  and  C_4 
REMARK    4  A    between atoms: C_20  and  N_7 
REMARK    5  A    between atoms: C_8  and  O_12 
REMARK    6  A    between atoms: O_12  and  C_13 
ROOT
ATOM      1  C   UNL d   1       0.701   0.101  -0.004  0.00  0.00     0.256 C 
ATOM      2  N   UNL d   1      -0.051   0.573   1.041  0.00  0.00    -0.323 N 
ATOM      3  O   UNL d   1       1.759  -0.450   0.327  0.00  0.00    -0.270 OA
ATOM      4  H   UNL d   1       0.497   0.569   1.894  0.00  0.00     0.169 HD
ENDROOT
BRANCH   2   5
ATOM      5  C   UNL d   1      -1.331   1.121   1.125  0.00  0.00     0.050 A 
ATOM      6  C   UNL d   1      -2.405   0.764   0.321  0.00  0.00     0.119 A 
ATOM      7  N   UNL d   1      -3.616   1.362   0.366  0.00  0.00    -0.344 N 
ATOM      8  C   UNL d   1      -3.801   2.313   1.307  0.00  0.00     0.148 A 
ATOM      9  HN  UNL d   1      -4.360   1.105  -0.284  1.00  0.00     0.167 HD
ATOM     10  C   UNL d   1      -2.812   2.706   2.193  0.00  0.00     0.059 A 
ATOM     11  C   UNL d   1      -1.565   2.087   2.111  0.00  0.00     0.035 A 
BRANCH   8  12
ATOM     12  O   UNL d   1      -5.019   2.979   1.399  0.00  0.00    -0.291 OA
BRANCH  12  13
ATOM     13  C   UNL d   1      -6.070   2.450   0.689  0.00  0.00     0.116 A 
ATOM     14  C   UNL d   1      -6.502   1.129   0.848  0.00  0.00     0.153 A 
ATOM     15  C   UNL d   1      -7.565   0.635   0.103  0.00  0.00     0.087 A 
ATOM     16  F   UNL d   1      -5.910   0.318   1.737  0.00  0.00    -0.203 F 
ATOM     17  C   UNL d   1      -8.226   1.489  -0.769  0.00  0.00     0.119 A 
ATOM     18  C   UNL d   1      -7.845   2.822  -0.905  0.00  0.00     0.045 A 
ATOM     19  F   UNL d   1      -9.262   1.026  -1.483  0.00  0.00    -0.206 F 
ATOM     20  C   UNL d   1      -6.761   3.309  -0.172  0.00  0.00     0.043 A 
ENDBRANCH  12  13
ENDBRANCH   8  12
ENDBRANCH   2   5
BRANCH   1  21
ATOM     21  C   UNL d   1       0.343   0.322  -1.522  0.00  0.00     0.141 C 
ATOM     22  C   UNL d   1      -0.118   1.776  -1.734  0.00  0.00     0.057 C 
ATOM     23  C   UNL d   1       1.663   0.094  -2.294  0.00  0.00     0.057 C 
BRANCH  21  24
ATOM     24  O   UNL d   1      -0.624  -0.690  -1.851  0.00  0.00    -0.331 OA
BRANCH  24  25
ATOM     25  C   UNL d   1      -1.078  -0.943  -3.111  0.00  0.00     0.077 A 
ATOM     26  C   UNL d   1      -1.776  -2.139  -3.297  0.00  0.00    -0.018 A 
ATOM     27  C   UNL d   1      -2.343  -2.480  -4.534  0.00  0.00    -0.043 A 
ATOM     28  C   UNL d   1      -2.020  -3.210  -2.280  0.00  0.00     0.042 A 
ATOM     29  C   UNL d   1      -3.053  -3.795  -4.479  0.00  0.00     0.040 A 
ATOM     30  C   UNL d   1      -2.234  -1.641  -5.638  0.00  0.00    -0.055 A 
ATOM     31  C   UNL d   1      -2.803  -4.285  -3.050  0.00  0.00     0.009 A 
ATOM     32  C   UNL d   1      -1.516  -0.457  -5.469  0.00  0.00     0.010 A 
ATOM     33  C   UNL d   1      -2.863  -1.976  -6.955  0.00  0.00     0.049 C 
ATOM     34  C   UNL d   1      -0.951  -0.116  -4.226  0.00  0.00     0.038 A 
ENDBRANCH  24  25
ENDBRANCH  21  24
ENDBRANCH   1  21
TORSDOF 6
