REMARK  4 active torsions:
REMARK  status: ('A' for Active; 'I' for Inactive)
REMARK    1  A    between atoms: N_8  and  N_1 
REMARK    2  A    between atoms: C_15  and  C_6 
REMARK    3  A    between atoms: C_7  and  N_8 
REMARK    4  A    between atoms: O_24  and  C_15 
ROOT
ATOM      1  N   UNL d   1       3.396   0.003  -0.547  0.00  0.00    -0.181 N 
ATOM      2  C   UNL d   1       1.687   0.920  -1.703  0.00  0.00     0.075 A 
ATOM      3  C   UNL d   1       1.331  -0.383  -1.363  0.00  0.00     0.075 A 
ATOM      4  C   UNL d   1       3.024   1.180  -1.135  0.00  0.00     0.282 C 
ATOM      5  C   UNL d   1       2.397  -0.930  -0.514  0.00  0.00     0.282 C 
ATOM      6  C   UNL d   1       0.159  -0.967  -1.815  0.00  0.00     0.074 A 
ATOM      7  C   UNL d   1       0.853   1.723  -2.462  0.00  0.00     0.074 A 
ATOM      8  C   UNL d   1      -0.364   1.169  -2.906  0.00  0.00     0.080 A 
ATOM      9  C   UNL d   1      -0.703  -0.176  -2.596  0.00  0.00     0.080 A 
ATOM     10  O   UNL d   1       2.323  -1.982   0.090  0.00  0.00    -0.265 OA
ATOM     11  O   UNL d   1       3.611   2.242  -1.176  0.00  0.00    -0.265 OA
ATOM     12 CL   UNL d   1      -0.192  -2.621  -1.466  0.00  0.00    -0.081 Cl
ATOM     13 CL   UNL d   1       1.305   3.344  -2.846  0.00  0.00    -0.081 Cl
ATOM     14 CL   UNL d   1      -1.460   2.143  -3.847  0.00  0.00    -0.081 Cl
ATOM     15 CL   UNL d   1      -2.192  -0.858  -3.189  0.00  0.00    -0.081 Cl
ENDROOT
BRANCH   1  16
ATOM     16  N   UNL d   1       4.597  -0.121   0.145  0.00  0.00    -0.286 N 
ATOM     17  H   UNL d   1       4.643   0.514   0.952  0.00  0.00     0.188 HD
BRANCH  16  18
ATOM     18  C   UNL d   1       5.376  -1.245   0.152  0.00  0.00     0.078 A 
ATOM     19  C   UNL d   1       6.199  -1.543   1.233  0.00  0.00     0.108 A 
ATOM     20  S   UNL d   1       6.989  -3.046   1.020  0.00  0.00    -0.093 SA
ATOM     21  C   UNL d   1       6.282  -3.279  -0.507  0.00  0.00     0.059 A 
ATOM     22  C   UNL d   1       5.471  -2.230  -0.900  0.00  0.00    -0.026 A 
ATOM     23  C   UNL d   1       4.814  -2.216  -2.243  0.00  0.00     0.051 C 
BRANCH  19  24
ATOM     24  C   UNL d   1       6.384  -0.746   2.436  0.00  0.00     0.302 C 
ATOM     25  O   UNL d   1       5.813   0.321   2.650  0.00  0.00    -0.259 OA
BRANCH  24  26
ATOM     26  O   UNL d   1       7.272  -1.319   3.301  0.00  0.00    -0.322 OA
ATOM     27  C   UNL d   1       7.492  -0.576   4.500  0.00  0.00     0.213 C 
ENDBRANCH  24  26
ENDBRANCH  19  24
ENDBRANCH  16  18
ENDBRANCH   1  16
TORSDOF 4
