REMARK  4 active torsions:
REMARK  status: ('A' for Active; 'I' for Inactive)
REMARK    1  A    between atoms: S_2  and  C_1 
REMARK    2  A    between atoms: C_15  and  S_2 
REMARK    3  A    between atoms: N_5  and  C_4 
REMARK       I    between atoms: C_6  and  N_5 
REMARK       I    between atoms: N_10  and  C_6 
REMARK    4  A    between atoms: C_9  and  N_10 
ROOT
ATOM      1  N   UNL d   1      -0.025   2.038  -0.198  0.00  0.00    -0.303 N 
ATOM      2  C   UNL d   1      -0.927   2.771  -0.902  0.00  0.00     0.325 C 
ATOM      3  N   UNL d   1      -1.826   2.136  -1.715  0.00  0.00    -0.309 N 
ATOM      4  O   UNL d   1      -0.877   3.991  -0.736  0.00  0.00    -0.247 OA
ATOM      5  H   UNL d   1       0.564   2.656   0.349  0.00  0.00     0.171 HD
ATOM      6  H   UNL d   1      -1.971   1.162  -1.489  0.00  0.00     0.170 HD
ENDROOT
BRANCH   1   7
ATOM      7  C   UNL d   1       0.306   0.703  -0.158  0.00  0.00     0.079 A 
ATOM      8  C   UNL d   1       1.429   0.193   0.459  0.00  0.00     0.061 A 
ATOM      9  C   UNL d   1       1.576  -1.208   0.231  0.00  0.00     0.068 A 
ATOM     10  C   UNL d   1       0.480  -1.734  -0.417  0.00  0.00     0.075 A 
ATOM     11  S   UNL d   1      -0.640  -0.515  -0.861  0.00  0.00    -0.083 SA
BRANCH   9  12
ATOM     12  S   UNL d   1       2.952  -2.137   0.744  0.00  0.00     0.179 S 
ATOM     13  O   UNL d   1       3.353  -1.493   1.979  0.00  0.00    -0.222 OA
ATOM     14  O   UNL d   1       2.486  -3.511   0.719  0.00  0.00    -0.222 OA
BRANCH  12  15
ATOM     15  C   UNL d   1       4.226  -1.889  -0.497  0.00  0.00     0.105 C 
ATOM     16  C   UNL d   1       5.457  -2.727  -0.142  0.00  0.00     0.026 C 
ATOM     17  C   UNL d   1       3.758  -2.236  -1.909  0.00  0.00     0.026 C 
ENDBRANCH  12  15
ENDBRANCH   9  12
ENDBRANCH   1   7
BRANCH   3  18
ATOM     18  C   UNL d   1      -2.896   2.822  -2.336  0.00  0.00     0.039 A 
ATOM     19  C   UNL d   1      -2.765   4.122  -2.837  0.00  0.00     0.053 A 
ATOM     20  C   UNL d   1      -3.897   4.833  -3.237  0.00  0.00     0.037 A 
ATOM     21 CL   UNL d   1      -3.736   6.454  -3.797  0.00  0.00    -0.084 Cl
ATOM     22  C   UNL d   1      -5.160   4.259  -3.148  0.00  0.00     0.048 A 
ATOM     23  C   UNL d   1      -5.274   2.939  -2.721  0.00  0.00     0.037 A 
ATOM     24  C   UNL d   1      -4.146   2.201  -2.356  0.00  0.00     0.053 A 
ATOM     25 CL   UNL d   1      -6.835   2.228  -2.566  0.00  0.00    -0.084 Cl
ENDBRANCH   3  18
TORSDOF 4
