REMARK  3 active torsions:
REMARK  status: ('A' for Active; 'I' for Inactive)
REMARK    1  A    between atoms: N_4  and  N_1 
REMARK    2  A    between atoms: C_15  and  C_10 
REMARK    3  A    between atoms: N_12  and  C_11 
ROOT
ATOM      1  N   UNL d   1       3.394   1.841   0.688  0.00  0.00    -0.299 N 
ATOM      2  HN  UNL d   1       3.918   2.540   1.214  1.00  0.00     0.186 HD
ATOM      3  C   UNL d   1       4.012   1.044  -0.120  0.00  0.00     0.119 C 
ENDROOT
BRANCH   1   4
ATOM      4  N   UNL d   1       2.033   1.747   0.838  0.00  0.00    -0.182 N 
ATOM      5  C   UNL d   1       1.160   0.891   0.209  0.00  0.00     0.280 A 
ATOM      6  C   UNL d   1      -0.155   1.161   0.780  0.00  0.00     0.050 A 
ATOM      7  O   UNL d   1       1.320   0.039  -0.643  0.00  0.00    -0.265 OA
ATOM      8  C   UNL d   1      -1.368   0.548   0.530  0.00  0.00     0.018 A 
ATOM      9  C   UNL d   1      -0.021   2.174   1.710  0.00  0.00     0.050 A 
ATOM     10  C   UNL d   1      -2.471   0.995   1.260  0.00  0.00     0.001 A 
ATOM     11  C   UNL d   1      -2.340   2.033   2.204  0.00  0.00     0.001 A 
ATOM     12  C   UNL d   1      -1.100   2.638   2.438  0.00  0.00     0.018 A 
ATOM     13  C   UNL d   1       1.387   2.562   1.748  0.00  0.00     0.280 A 
ATOM     14  O   UNL d   1       1.806   3.441   2.482  0.00  0.00    -0.265 OA
ENDBRANCH   1   4
BRANCH   3  15
ATOM     15  C   UNL d   1       5.481   1.111  -0.288  0.00  0.00    -0.019 A 
ATOM     16  C   UNL d   1       6.243   2.019   0.440  0.00  0.00     0.015 A 
ATOM     17  C   UNL d   1       7.632   2.072   0.258  0.00  0.00     0.030 A 
ATOM     18  C   UNL d   1       8.308   1.230  -0.642  0.00  0.00     0.029 A 
ATOM     19  C   UNL d   1       7.503   0.316  -1.350  0.00  0.00     0.030 A 
ATOM     20  C   UNL d   1       6.110   0.252  -1.184  0.00  0.00     0.015 A 
BRANCH  18  21
ATOM     21  N   UNL d   1       9.689   1.243  -0.789  0.00  0.00    -0.390 N 
ATOM     22  C   UNL d   1      10.309   0.969  -2.086  0.00  0.00     0.149 C 
ATOM     23  C   UNL d   1      10.560   1.944   0.151  0.00  0.00     0.149 C 
ENDBRANCH  18  21
ENDBRANCH   3  15
TORSDOF 3
