REMARK  4 active torsions:
REMARK  status: ('A' for Active; 'I' for Inactive)
REMARK    1  A    between atoms: C_5  and  C_1 
REMARK    2  A    between atoms: S_2  and  N_6 
REMARK    3  A    between atoms: C_10  and  S_2 
REMARK       I    between atoms: N_8  and  C_5 
REMARK    4  A    between atoms: N_6  and  N_8 
ROOT
ATOM      1  N   UNL d   1       3.936   0.220  -0.124  0.00  0.00    -0.220 N 
ATOM      2  H   UNL d   1       3.817  -0.617  -0.708  0.00  0.00     0.200 HD
ENDROOT
BRANCH   1   3
ATOM      3  S   UNL d   1       5.454   0.931  -0.078  0.00  0.00     0.276 S 
ATOM      4  O   UNL d   1       6.226   0.391  -1.175  0.00  0.00    -0.199 OA
ATOM      5  O   UNL d   1       5.267   2.354   0.110  0.00  0.00    -0.199 OA
BRANCH   3   6
ATOM      6  C   UNL d   1       6.103   0.263   1.438  0.00  0.00     0.081 A 
ATOM      7  C   UNL d   1       6.754  -0.973   1.429  0.00  0.00     0.026 A 
ATOM      8  C   UNL d   1       7.284  -1.479   2.618  0.00  0.00     0.008 A 
ATOM      9  C   UNL d   1       7.176  -0.751   3.813  0.00  0.00    -0.062 A 
ATOM     10  C   UNL d   1       6.527   0.490   3.805  0.00  0.00     0.008 A 
ATOM     11  C   UNL d   1       7.773  -1.300   5.076  0.00  0.00     0.048 C 
ATOM     12  C   UNL d   1       5.995   1.002   2.620  0.00  0.00     0.026 A 
ENDBRANCH   3   6
ENDBRANCH   1   3
BRANCH   1  13
ATOM     13  N   UNL d   1       2.898   0.550   0.837  0.00  0.00    -0.256 N 
ATOM     14  C   UNL d   1       1.830  -0.325   0.962  0.00  0.00     0.279 C 
ATOM     15  O   UNL d   1       1.801  -1.339   0.254  0.00  0.00    -0.265 OA
ATOM     16  H   UNL d   1       3.009   1.389   1.403  0.00  0.00     0.191 HD
BRANCH  14  17
ATOM     17  C   UNL d   1       0.811   0.005   1.952  0.00  0.00     0.096 A 
ATOM     18  C   UNL d   1       0.622   1.107   2.773  0.00  0.00     0.063 A 
ATOM     19  C   UNL d   1      -0.570   1.013   3.582  0.00  0.00    -0.032 A 
ATOM     20 CL   UNL d   1       1.656   2.481   2.850  0.00  0.00    -0.082 Cl
ATOM     21  C   UNL d   1      -1.093   2.037   4.540  0.00  0.00     0.050 C 
ATOM     22  C   UNL d   1      -1.216  -0.188   3.361  0.00  0.00     0.059 A 
ATOM     23  S   UNL d   1      -0.433  -1.159   2.208  0.00  0.00    -0.094 SA
ENDBRANCH  14  17
ENDBRANCH   1  13
TORSDOF 4
