REMARK  4 active torsions:
REMARK  status: ('A' for Active; 'I' for Inactive)
REMARK    1  A    between atoms: N_4  and  C_3 
REMARK       I    between atoms: C_5  and  N_4 
REMARK       I    between atoms: N_11  and  C_5 
REMARK    2  A    between atoms: C_10  and  C_6 
REMARK    3  A    between atoms: C_7  and  C_10 
REMARK    4  A    between atoms: C_14  and  N_11 
ROOT
ATOM      1  N   UNL d   1       1.018  -0.791  -0.316  0.00  0.00    -0.339 N 
ATOM      2  HN  UNL d   1       1.932  -1.177  -0.078  1.00  0.00     0.168 HD
ATOM      3  C   UNL d   1       0.750   0.551  -0.515  0.00  0.00     0.116 A 
ATOM      4  C   UNL d   1      -0.087  -1.501  -0.481  0.00  0.00     0.056 A 
ATOM      5  S   UNL d   1      -1.447  -0.598  -1.054  0.00  0.00    -0.085 SA
ATOM      6  C   UNL d   1      -0.528   0.837  -0.942  0.00  0.00     0.100 A 
ENDROOT
BRANCH   3   7
ATOM      7  N   UNL d   1       1.667   1.548  -0.262  0.00  0.00    -0.294 N 
ATOM      8  C   UNL d   1       2.921   1.471   0.266  0.00  0.00     0.326 C 
ATOM      9  N   UNL d   1       3.464   0.227   0.397  0.00  0.00    -0.309 N 
ATOM     10  O   UNL d   1       3.481   2.529   0.562  0.00  0.00    -0.247 OA
ATOM     11  H   UNL d   1       2.966  -0.509  -0.097  0.00  0.00     0.170 HD
ATOM     12  H   UNL d   1       1.354   2.504  -0.365  0.00  0.00     0.172 HD
BRANCH   9  13
ATOM     13  C   UNL d   1       4.654  -0.102   1.071  0.00  0.00     0.038 A 
ATOM     14  C   UNL d   1       5.214   0.717   2.059  0.00  0.00     0.056 A 
ATOM     15  C   UNL d   1       6.349   0.300   2.755  0.00  0.00     0.074 A 
ATOM     16 CL   UNL d   1       6.986   1.292   4.012  0.00  0.00    -0.081 Cl
ATOM     17  C   UNL d   1       6.942  -0.921   2.450  0.00  0.00     0.138 A 
ATOM     18  C   UNL d   1       6.409  -1.736   1.457  0.00  0.00     0.046 A 
ATOM     19  F   UNL d   1       8.030  -1.342   3.112  0.00  0.00    -0.204 F 
ATOM     20  C   UNL d   1       5.258  -1.331   0.776  0.00  0.00     0.032 A 
ENDBRANCH   9  13
ENDBRANCH   3   7
BRANCH   4  21
ATOM     21  C   UNL d   1      -0.312  -2.942  -0.081  0.00  0.00     0.107 C 
BRANCH  21  22
ATOM     22  C   UNL d   1       0.796  -3.923  -0.408  0.00  0.00    -0.009 A 
ATOM     23  C   UNL d   1       1.982  -3.960   0.352  0.00  0.00     0.042 A 
ATOM     24 CL   UNL d   1       2.224  -2.941   1.729  0.00  0.00    -0.084 Cl
ATOM     25  C   UNL d   1       2.996  -4.887   0.078  0.00  0.00     0.024 A 
ATOM     26  C   UNL d   1       2.832  -5.832  -0.929  0.00  0.00     0.003 A 
ATOM     27  C   UNL d   1       1.656  -5.840  -1.671  0.00  0.00     0.024 A 
ATOM     28  C   UNL d   1       0.655  -4.889  -1.426  0.00  0.00     0.042 A 
ATOM     29 CL   UNL d   1      -0.768  -5.009  -2.404  0.00  0.00    -0.084 Cl
ENDBRANCH  21  22
ENDBRANCH   4  21
TORSDOF 4
