REMARK  5 active torsions:
REMARK  status: ('A' for Active; 'I' for Inactive)
REMARK    1  A    between atoms: C_11  and  C_3 
REMARK    2  A    between atoms: C_13  and  C_6 
REMARK    3  A    between atoms: N_8  and  C_12 
REMARK    4  A    between atoms: O_22  and  C_11 
REMARK    5  A    between atoms: C_26  and  O_22 
ROOT
ATOM      1  C   UNL d   1       1.183   0.877  -0.082  0.00  0.00     0.034 A 
ATOM      2  C   UNL d   1       0.746  -0.389  -0.052  0.00  0.00     0.055 A 
ATOM      3  C   UNL d   1       3.502  -0.041   0.244  0.00  0.00     0.052 C 
ATOM      4  N   UNL d   1       1.589  -1.455  -0.002  0.00  0.00    -0.358 N 
ATOM      5  C   UNL d   1       0.017   1.769  -0.032  0.00  0.00     0.192 A 
ATOM      6  C   UNL d   1       2.637   1.209  -0.097  0.00  0.00     0.099 C 
ATOM      7  C   UNL d   1       2.959  -1.296   0.239  0.00  0.00     0.019 C 
ATOM      8  C   UNL d   1      -0.698  -0.425  -0.032  0.00  0.00     0.005 A 
ATOM      9  C   UNL d   1      -1.161   0.890  -0.011  0.00  0.00     0.027 A 
ATOM     10  O   UNL d   1       0.023   2.979   0.004  0.00  0.00    -0.287 OA
ATOM     11  C   UNL d   1       3.665  -2.609   0.481  0.00  0.00     0.069 C 
ATOM     12  C   UNL d   1      -1.593  -1.481  -0.025  0.00  0.00     0.014 A 
ATOM     13  C   UNL d   1      -2.502   1.211   0.030  0.00  0.00     0.016 A 
ATOM     14  C   UNL d   1      -3.411   0.149   0.040  0.00  0.00     0.001 A 
ATOM     15  C   UNL d   1      -2.960  -1.185   0.009  0.00  0.00     0.001 A 
ATOM     16  H   UNL d   1       1.189  -2.380   0.118  0.00  0.00     0.166 HD
ENDROOT
BRANCH   6  17
ATOM     17  C   UNL d   1       3.061   1.764  -1.466  0.00  0.00    -0.045 A 
ATOM     18  C   UNL d   1       2.961   0.971  -2.626  0.00  0.00     0.011 A 
ATOM     19  C   UNL d   1       3.466   1.419  -3.846  0.00  0.00     0.036 A 
ATOM     20  C   UNL d   1       4.075   2.675  -3.918  0.00  0.00     0.102 A 
ATOM     21  C   UNL d   1       4.141   3.500  -2.789  0.00  0.00     0.036 A 
ATOM     22  C   UNL d   1       3.632   3.043  -1.568  0.00  0.00     0.011 A 
BRANCH  20  23
ATOM     23  N   UNL d   1       4.684   3.111  -5.181  0.00  0.00    -0.116 N 
ATOM     24  O   UNL d   1       5.266   4.205  -5.195  0.00  0.00    -0.532 OA
ATOM     25  O   UNL d   1       4.598   2.349  -6.156  0.00  0.00    -0.532 OA
ENDBRANCH  20  23
ENDBRANCH   6  17
BRANCH   3  26
ATOM     26  C   UNL d   1       4.925   0.326   0.507  0.00  0.00     0.292 C 
ATOM     27  O   UNL d   1       5.283   1.439   0.843  0.00  0.00    -0.259 OA
BRANCH  26  28
ATOM     28  O   UNL d   1       5.743  -0.702   0.180  0.00  0.00    -0.318 OA
BRANCH  28  29
ATOM     29  C   UNL d   1       7.119  -0.387  -0.048  0.00  0.00     0.174 C 
ATOM     30  C   UNL d   1       7.276  -0.168  -1.539  0.00  0.00     0.034 C 
ENDBRANCH  28  29
ENDBRANCH  26  28
ENDBRANCH   3  26
TORSDOF 5
