REMARK  6 active torsions:
REMARK  status: ('A' for Active; 'I' for Inactive)
REMARK    1  A    between atoms: C_3  and  C_1 
REMARK    2  A    between atoms: C_2  and  O_7 
REMARK    3  A    between atoms: C_8  and  C_2 
REMARK    4  A    between atoms: C_9  and  C_3 
REMARK    5  A    between atoms: C_12  and  C_4 
REMARK    6  A    between atoms: O_7  and  C_17 
ROOT
ATOM      1  C   UNL d   1       0.908   1.059   0.761  0.00  0.00     0.096 C 
ATOM      2  C   UNL d   1       0.280  -0.077   1.121  0.00  0.00     0.038 C 
ATOM      3  C   UNL d   1       0.206   2.274   0.514  0.00  0.00     0.103 C 
ATOM      4  N   UNL d   1      -0.356   3.264   0.301  0.00  0.00    -0.191 NA
ENDROOT
BRANCH   1   5
ATOM      5  C   UNL d   1       2.398   1.005   0.627  0.00  0.00     0.202 C 
ATOM      6  O   UNL d   1       3.068   0.193   1.262  0.00  0.00    -0.286 OA
BRANCH   5   7
ATOM      7  C   UNL d   1       3.097   1.940  -0.303  0.00  0.00     0.016 A 
ATOM      8  C   UNL d   1       4.381   2.386   0.044  0.00  0.00     0.017 A 
ATOM      9  C   UNL d   1       5.086   3.246  -0.805  0.00  0.00     0.025 A 
ATOM     10  C   UNL d   1       4.514   3.652  -2.009  0.00  0.00     0.034 A 
ATOM     11  C   UNL d   1       3.249   3.197  -2.375  0.00  0.00     0.025 A 
ATOM     12 CL   UNL d   1       5.381   4.703  -3.059  0.00  0.00    -0.084 Cl
ATOM     13  C   UNL d   1       2.546   2.330  -1.531  0.00  0.00     0.017 A 
ENDBRANCH   5   7
ENDBRANCH   1   5
BRANCH   2  14
ATOM     14  C   UNL d   1      -1.180  -0.220   1.126  0.00  0.00    -0.035 A 
ATOM     15  C   UNL d   1      -1.803  -0.625  -0.059  0.00  0.00     0.014 A 
ATOM     16  C   UNL d   1      -3.194  -0.717  -0.137  0.00  0.00     0.038 A 
ATOM     17  C   UNL d   1      -3.979  -0.406   0.971  0.00  0.00     0.079 A 
ATOM     18  C   UNL d   1      -3.366  -0.003   2.162  0.00  0.00     0.038 A 
ATOM     19  C   UNL d   1      -1.966   0.089   2.240  0.00  0.00     0.014 A 
BRANCH  17  20
ATOM     20  O   UNL d   1      -5.395  -0.542   1.002  0.00  0.00    -0.275 OA
BRANCH  20  21
ATOM     21  C   UNL d   1      -6.172  -0.771  -0.131  0.00  0.00     0.298 C 
ATOM     22  O   UNL d   1      -5.801  -0.746  -1.296  0.00  0.00    -0.259 OA
BRANCH  21  23
ATOM     23  C   UNL d   1      -7.577  -1.125   0.219  0.00  0.00     0.040 A 
ATOM     24  C   UNL d   1      -8.402  -1.588  -0.822  0.00  0.00     0.019 A 
ATOM     25  C   UNL d   1      -9.720  -1.980  -0.572  0.00  0.00     0.025 A 
ATOM     26  C   UNL d   1     -10.223  -1.904   0.722  0.00  0.00     0.034 A 
ATOM     27  C   UNL d   1      -9.424  -1.429   1.762  0.00  0.00     0.025 A 
ATOM     28 CL   UNL d   1     -11.837  -2.410   1.039  0.00  0.00    -0.084 Cl
ATOM     29  C   UNL d   1      -8.099  -1.037   1.515  0.00  0.00     0.019 A 
ENDBRANCH  21  23
ENDBRANCH  20  21
ENDBRANCH  17  20
ENDBRANCH   2  14
TORSDOF 6
