REMARK  5 active torsions:
REMARK  status: ('A' for Active; 'I' for Inactive)
REMARK    1  A    between atoms: S_2  and  C_1 
REMARK    2  A    between atoms: C_10  and  S_2 
REMARK    3  A    between atoms: S_12  and  C_3 
REMARK    4  A    between atoms: C_7  and  C_5 
REMARK       I    between atoms: N_13  and  C_7 
REMARK    5  A    between atoms: N_14  and  N_13 
ROOT
ATOM      1  C   UNL d   1       1.526   0.809   0.066  0.00  0.00     0.084 A 
ATOM      2  C   UNL d   1       0.271   1.345  -0.186  0.00  0.00     0.063 A 
ATOM      3  C   UNL d   1       1.482  -0.639   0.118  0.00  0.00     0.050 A 
ATOM      4  C   UNL d   1       0.220  -1.168  -0.031  0.00  0.00     0.076 A 
ATOM      5  S   UNL d   1      -0.921   0.076  -0.210  0.00  0.00    -0.076 SA
ENDROOT
BRANCH   4   6
ATOM      6  C   UNL d   1      -0.152  -2.578  -0.052  0.00  0.00     0.272 C 
ATOM      7  O   UNL d   1       0.676  -3.493  -0.019  0.00  0.00    -0.266 OA
ATOM      8  N   UNL d   1      -1.519  -2.847  -0.124  0.00  0.00    -0.289 N 
ATOM      9  H   UNL d   1      -2.179  -2.076  -0.042  0.00  0.00     0.183 HD
BRANCH   8  10
ATOM     10  N   UNL d   1      -2.001  -4.175  -0.058  0.00  0.00    -0.247 NA
ATOM     11  H   UNL d   1      -1.194  -4.781   0.146  0.00  0.00     0.143 HD
ATOM     12  H   UNL d   1      -2.296  -4.455  -0.997  0.00  0.00     0.143 HD
ENDBRANCH   8  10
ENDBRANCH   4   6
BRANCH   1  13
ATOM     13  S   UNL d   1       3.087   1.571   0.247  0.00  0.00     0.180 S 
ATOM     14  O   UNL d   1       2.846   2.891   0.768  0.00  0.00    -0.222 OA
ATOM     15  O   UNL d   1       3.849   0.607   1.018  0.00  0.00    -0.222 OA
BRANCH  13  16
ATOM     16  C   UNL d   1       3.785   1.646  -1.406  0.00  0.00     0.105 C 
ATOM     17  C   UNL d   1       3.030   2.593  -2.325  0.00  0.00     0.026 C 
ATOM     18  C   UNL d   1       5.255   2.056  -1.330  0.00  0.00     0.026 C 
ENDBRANCH  13  16
ENDBRANCH   1  13
BRANCH   2  19
ATOM     19  S   UNL d   1      -0.422   2.912  -0.598  0.00  0.00    -0.126 SA
ATOM     20  C   UNL d   1       0.541   4.246   0.090  0.00  0.00     0.096 C 
ENDBRANCH   2  19
TORSDOF 5
