REMARK  5 active torsions:
REMARK  status: ('A' for Active; 'I' for Inactive)
REMARK    1  A    between atoms: S_2  and  C_1 
REMARK    2  A    between atoms: C_14  and  S_2 
REMARK    3  A    between atoms: C_7  and  C_3 
REMARK       I    between atoms: N_9  and  C_7 
REMARK       I    between atoms: C_8  and  N_12 
REMARK       I    between atoms: N_13  and  C_8 
REMARK    4  A    between atoms: N_12  and  N_9 
REMARK    5  A    between atoms: C_18  and  N_13 
ROOT
ATOM      1  C   UNL d   1       0.098   2.466  -0.364  0.00  0.00     0.278 C 
ATOM      2  N   UNL d   1       1.180   3.225  -0.778  0.00  0.00    -0.261 N 
ATOM      3  O   UNL d   1      -0.997   3.012  -0.210  0.00  0.00    -0.265 OA
ATOM      4  H   UNL d   1       2.130   2.865  -0.846  0.00  0.00     0.190 HD
ENDROOT
BRANCH   1   5
ATOM      5  C   UNL d   1       0.333   1.033  -0.198  0.00  0.00     0.097 A 
ATOM      6  C   UNL d   1      -0.594   0.035   0.078  0.00  0.00     0.078 A 
ATOM      7  C   UNL d   1      -0.016  -1.273  -0.004  0.00  0.00     0.089 A 
ATOM      8 CL   UNL d   1      -2.254   0.318   0.420  0.00  0.00    -0.081 Cl
ATOM      9  C   UNL d   1       1.347  -1.222  -0.201  0.00  0.00     0.075 A 
ATOM     10  S   UNL d   1       1.911   0.374  -0.379  0.00  0.00    -0.093 SA
BRANCH   7  11
ATOM     11  S   UNL d   1      -0.876  -2.780   0.121  0.00  0.00     0.181 S 
ATOM     12  O   UNL d   1       0.131  -3.789  -0.155  0.00  0.00    -0.222 OA
ATOM     13  O   UNL d   1      -1.536  -2.699   1.405  0.00  0.00    -0.222 OA
BRANCH  11  14
ATOM     14  C   UNL d   1      -2.089  -2.789  -1.206  0.00  0.00     0.105 C 
ATOM     15  C   UNL d   1      -1.449  -2.587  -2.576  0.00  0.00     0.026 C 
ATOM     16  C   UNL d   1      -2.878  -4.097  -1.180  0.00  0.00     0.026 C 
ENDBRANCH  11  14
ENDBRANCH   7  11
ENDBRANCH   1   5
BRANCH   2  17
ATOM     17  N   UNL d   1       0.985   4.584  -1.092  0.00  0.00    -0.248 N 
ATOM     18  C   UNL d   1       2.058   5.440  -0.882  0.00  0.00     0.339 C 
ATOM     19  N   UNL d   1       1.716   6.744  -1.180  0.00  0.00    -0.308 N 
ATOM     20  O   UNL d   1       3.153   5.020  -0.522  0.00  0.00    -0.245 OA
ATOM     21  H   UNL d   1       0.828   6.865  -1.645  0.00  0.00     0.170 HD
ATOM     22  H   UNL d   1       0.051   4.925  -0.865  0.00  0.00     0.192 HD
BRANCH  19  23
ATOM     23  C   UNL d   1       2.508   7.901  -1.028  0.00  0.00     0.036 A 
ATOM     24  C   UNL d   1       3.765   7.908  -0.424  0.00  0.00     0.029 A 
ATOM     25  C   UNL d   1       4.474   9.105  -0.276  0.00  0.00     0.002 A 
ATOM     26  C   UNL d   1       3.933  10.304  -0.732  0.00  0.00     0.000 A 
ATOM     27  C   UNL d   1       2.683  10.307  -1.345  0.00  0.00     0.002 A 
ATOM     28  C   UNL d   1       1.975   9.111  -1.494  0.00  0.00     0.029 A 
ENDBRANCH  19  23
ENDBRANCH   2  17
TORSDOF 5
