REMARK  5 active torsions:
REMARK  status: ('A' for Active; 'I' for Inactive)
REMARK    1  A    between atoms: N_2  and  S_1 
REMARK    2  A    between atoms: C_9  and  S_1 
REMARK    3  A    between atoms: O_6  and  C_4 
REMARK    4  A    between atoms: C_8  and  O_6 
REMARK    5  A    between atoms: C_17  and  C_8 
ROOT
ATOM      1  N   UNL d   1      -0.089   0.304  -1.537  0.00  0.00    -0.271 N 
ATOM      2  C   UNL d   1      -0.620  -0.864  -2.256  0.00  0.00     0.059 A 
ATOM      3  C   UNL d   1      -2.367   0.575  -3.489  0.00  0.00     0.108 C 
ATOM      4  C   UNL d   1      -1.774  -0.746  -3.104  0.00  0.00     0.027 A 
ATOM      5  C   UNL d   1      -1.555   1.623  -3.763  0.00  0.00     0.059 C 
ATOM      6  C   UNL d   1       0.528   1.399  -2.345  0.00  0.00     0.147 C 
ATOM      7  C   UNL d   1      -2.124   2.890  -4.077  0.00  0.00     0.098 C 
ATOM      8  C   UNL d   1       0.069  -2.097  -2.188  0.00  0.00     0.055 A 
ATOM      9  N   UNL d   1      -2.584   3.929  -4.327  0.00  0.00    -0.192 NA
ATOM     10  C   UNL d   1      -2.237  -1.924  -3.713  0.00  0.00     0.018 A 
ATOM     11  C   UNL d   1      -0.045   1.539  -3.753  0.00  0.00     0.074 C 
ATOM     12  C   UNL d   1      -0.430  -3.237  -2.812  0.00  0.00     0.036 A 
ATOM     13  C   UNL d   1      -1.605  -3.159  -3.549  0.00  0.00     0.025 A 
ATOM     14 CL   UNL d   1       0.414  -4.728  -2.703  0.00  0.00    -0.084 Cl
ENDROOT
BRANCH   3  15
ATOM     15  O   UNL d   1      -3.816   0.812  -3.490  0.00  0.00    -0.273 OA
BRANCH  15  16
ATOM     16  C   UNL d   1      -4.822   0.237  -4.229  0.00  0.00     0.298 C 
ATOM     17  O   UNL d   1      -4.764  -0.789  -4.884  0.00  0.00    -0.259 OA
BRANCH  16  18
ATOM     18  C   UNL d   1      -6.099   1.023  -4.168  0.00  0.00     0.040 A 
ATOM     19  C   UNL d   1      -6.141   2.397  -3.897  0.00  0.00     0.019 A 
ATOM     20  C   UNL d   1      -7.372   3.071  -3.821  0.00  0.00     0.025 A 
ATOM     21  C   UNL d   1      -8.567   2.379  -4.022  0.00  0.00     0.034 A 
ATOM     22  C   UNL d   1      -8.541   1.030  -4.361  0.00  0.00     0.025 A 
ATOM     23 CL   UNL d   1     -10.074   3.187  -3.830  0.00  0.00    -0.084 Cl
ATOM     24  C   UNL d   1      -7.311   0.359  -4.446  0.00  0.00     0.019 A 
ENDBRANCH  16  18
ENDBRANCH  15  16
ENDBRANCH   3  15
BRANCH   1  25
ATOM     25  S   UNL d   1       0.799  -0.047  -0.081  0.00  0.00     0.265 S 
ATOM     26  O   UNL d   1       2.161  -0.373  -0.475  0.00  0.00    -0.200 OA
ATOM     27  O   UNL d   1       0.023  -0.943   0.744  0.00  0.00    -0.200 OA
BRANCH  25  28
ATOM     28  C   UNL d   1       0.862   1.514   0.764  0.00  0.00     0.080 A 
ATOM     29  C   UNL d   1      -0.336   2.108   1.169  0.00  0.00     0.027 A 
ATOM     30  C   UNL d   1      -0.299   3.345   1.813  0.00  0.00     0.025 A 
ATOM     31  C   UNL d   1       0.926   3.968   2.059  0.00  0.00     0.034 A 
ATOM     32  C   UNL d   1       2.122   3.361   1.674  0.00  0.00     0.025 A 
ATOM     33 CL   UNL d   1       0.961   5.500   2.841  0.00  0.00    -0.084 Cl
ATOM     34  C   UNL d   1       2.094   2.125   1.026  0.00  0.00     0.027 A 
ENDBRANCH  25  28
ENDBRANCH   1  25
TORSDOF 5
