REMARK  5 active torsions:
REMARK  status: ('A' for Active; 'I' for Inactive)
REMARK    1  A    between atoms: C_8  and  C_3 
REMARK    2  A    between atoms: S_4  and  C_10 
REMARK    3  A    between atoms: C_11  and  S_4 
REMARK    4  A    between atoms: C_10  and  C_5 
REMARK    5  A    between atoms: C_12  and  C_11 
ROOT
ATOM      1  N   UNL d   1       0.683   0.254  -1.054  0.00  0.00    -0.322 N 
ATOM      2  HN  UNL d   1       1.158   0.504  -1.922  1.00  0.00     0.169 HD
ATOM      3  C   UNL d   1       0.210  -0.916  -0.694  0.00  0.00     0.183 A 
ATOM      4  C   UNL d   1       0.386   1.057   0.011  0.00  0.00     0.118 A 
ATOM      5  N   UNL d   1      -0.257   0.435   1.008  0.00  0.00    -0.246 N 
ATOM      6  HN  UNL d   1      -0.590   0.827   1.889  1.00  0.00     0.196 HD
ATOM      7  O   UNL d   1      -0.361  -0.883   0.551  0.00  0.00    -0.217 OA
ENDROOT
BRANCH   4   8
ATOM      8  C   UNL d   1       0.655   2.504   0.006  0.00  0.00     0.218 C 
BRANCH   8   9
ATOM      9  S   UNL d   1       2.396   2.881  -0.061  0.00  0.00     0.157 S 
ATOM     10  O   UNL d   1       2.524   4.329  -0.127  0.00  0.00    -0.227 OA
ATOM     11  O   UNL d   1       3.052   2.178   1.030  0.00  0.00    -0.227 OA
BRANCH   9  12
ATOM     12  C   UNL d   1       3.034   2.200  -1.587  0.00  0.00     0.205 C 
BRANCH  12  13
ATOM     13  C   UNL d   1       2.357   2.807  -2.752  0.00  0.00     0.066 A 
ATOM     14  O   UNL d   1       1.197   2.221  -3.156  0.00  0.00    -0.326 OA
ATOM     15  C   UNL d   1       0.780   2.872  -4.271  0.00  0.00     0.142 A 
ATOM     16  C   UNL d   1       1.653   3.885  -4.584  0.00  0.00     0.027 A 
ATOM     17  C   UNL d   1       2.671   3.849  -3.600  0.00  0.00     0.035 A 
ENDBRANCH  12  13
ENDBRANCH   9  12
ENDBRANCH   8   9
ENDBRANCH   4   8
BRANCH   3  18
ATOM     18  C   UNL d   1       0.201  -2.193  -1.398  0.00  0.00     0.039 A 
ATOM     19  C   UNL d   1       0.270  -2.286  -2.801  0.00  0.00     0.048 A 
ATOM     20 CL   UNL d   1       0.315  -0.909  -3.847  0.00  0.00    -0.083 Cl
ATOM     21  C   UNL d   1       0.274  -3.534  -3.437  0.00  0.00     0.025 A 
ATOM     22  C   UNL d   1       0.207  -4.707  -2.689  0.00  0.00     0.002 A 
ATOM     23  C   UNL d   1       0.138  -4.637  -1.303  0.00  0.00     0.001 A 
ATOM     24  C   UNL d   1       0.136  -3.394  -0.663  0.00  0.00     0.017 A 
ENDBRANCH   3  18
TORSDOF 5
