REMARK  5 active torsions:
REMARK  status: ('A' for Active; 'I' for Inactive)
REMARK    1  A    between atoms: C_3  and  C_1 
REMARK    2  A    between atoms: S_6  and  C_2 
REMARK    3  A    between atoms: O_18  and  C_3 
REMARK    4  A    between atoms: C_5  and  C_14 
REMARK    5  A    between atoms: C_14  and  S_6 
ROOT
ATOM      1  C   UNL d   1      -0.877  -1.079  -0.006  0.00  0.00     0.117 A 
ATOM      2  C   UNL d   1       0.520  -1.177   0.072  0.00  0.00     0.101 A 
ATOM      3  N   UNL d   1      -1.521   0.131   0.051  0.00  0.00    -0.359 N 
ATOM      4  HN  UNL d   1      -2.537   0.200   0.001  1.00  0.00     0.165 HD
ATOM      5  N   UNL d   1       1.283  -0.052   0.192  0.00  0.00    -0.357 N 
ATOM      6  HN  UNL d   1       2.300  -0.102   0.244  1.00  0.00     0.166 HD
ATOM      7  C   UNL d   1      -0.741   1.222   0.177  0.00  0.00     0.105 A 
ATOM      8  C   UNL d   1       0.633   1.133   0.238  0.00  0.00     0.106 A 
ENDROOT
BRANCH   2   9
ATOM      9  S   UNL d   1       1.437  -2.717   0.019  0.00  0.00    -0.105 SA
BRANCH   9  10
ATOM     10  C   UNL d   1       3.148  -2.102   0.222  0.00  0.00     0.121 C 
BRANCH  10  11
ATOM     11  C   UNL d   1       4.207  -3.175   0.054  0.00  0.00    -0.027 A 
ATOM     12  C   UNL d   1       5.187  -3.443   1.028  0.00  0.00     0.042 A 
ATOM     13  C   UNL d   1       6.213  -4.363   0.783  0.00  0.00     0.048 A 
ATOM     14 CL   UNL d   1       5.212  -2.642   2.560  0.00  0.00    -0.084 Cl
ATOM     15  C   UNL d   1       6.273  -5.029  -0.436  0.00  0.00     0.035 A 
ATOM     16  C   UNL d   1       5.312  -4.792  -1.413  0.00  0.00     0.024 A 
ATOM     17 CL   UNL d   1       7.552  -6.137  -0.746  0.00  0.00    -0.084 Cl
ATOM     18  C   UNL d   1       4.292  -3.867  -1.171  0.00  0.00     0.011 A 
ENDBRANCH  10  11
ENDBRANCH   9  10
ENDBRANCH   2   9
BRANCH   1  19
ATOM     19  C   UNL d   1      -1.776  -2.249  -0.229  0.00  0.00     0.165 C 
ATOM     20  N   UNL d   1      -1.512  -3.344  -0.865  0.00  0.00    -0.378 N 
ATOM     21  H   UNL d   1      -0.549  -3.336  -1.217  0.00  0.00     0.158 HD
ATOM     22  HN  UNL d   1      -2.171  -4.111  -0.997  1.00  0.00     0.158 HD
BRANCH  19  23
ATOM     23  O   UNL d   1      -2.990  -2.023   0.331  0.00  0.00    -0.339 OA
ATOM     24  C   UNL d   1      -4.014  -2.997   0.097  0.00  0.00     0.211 C 
ENDBRANCH  19  23
ENDBRANCH   1  19
TORSDOF 5
