REMARK  16 active torsions:
REMARK  status: ('A' for Active; 'I' for Inactive)
REMARK    1  A    between atoms: C_3  and  N_1 
REMARK    2  A    between atoms: S_11  and  C_2 
REMARK    3  A    between atoms: C_9  and  C_4 
REMARK    4  A    between atoms: C_28  and  C_10 
REMARK    5  A    between atoms: C_18  and  S_11 
REMARK    6  A    between atoms: C_12  and  C_18 
REMARK       I    between atoms: N_13  and  C_12 
REMARK    7  A    between atoms: C_19  and  N_13 
REMARK    8  A    between atoms: C_29  and  C_28 
REMARK    9  A    between atoms: C_35  and  C_29 
REMARK   10  A    between atoms: C_30  and  C_33 
REMARK   11  A    between atoms: C_33  and  C_36 
REMARK   12  A    between atoms: C_34  and  C_37 
REMARK   13  A    between atoms: C_36  and  C_34 
REMARK   14  A    between atoms: C_39  and  C_35 
REMARK   15  A    between atoms: C_37  and  C_38 
REMARK   16  A    between atoms: C_38  and  C_39 
ROOT
ATOM      1  N   UNL d   1      -0.256  -1.276  -0.188  0.00  0.00    -0.278 N 
ATOM      2  C   UNL d   1       0.923  -0.679  -0.627  0.00  0.00     0.168 C 
ATOM      3  N   UNL d   1       0.850   0.628  -0.516  0.00  0.00    -0.278 N 
ATOM      4  HN  UNL d   1       1.611   1.290  -0.667  1.00  0.00     0.189 HD
ATOM      5  N   UNL d   1      -0.423   0.935  -0.163  0.00  0.00    -0.286 N 
ATOM      6  HN  UNL d   1      -0.776   1.874   0.023  1.00  0.00     0.188 HD
ATOM      7  C   UNL d   1      -1.137  -0.181  -0.099  0.00  0.00     0.104 C 
ENDROOT
BRANCH   2   8
ATOM      8  S   UNL d   1       2.212  -1.514  -1.431  0.00  0.00    -0.083 SA
BRANCH   8   9
ATOM      9  C   UNL d   1       3.247  -0.196  -2.091  0.00  0.00     0.185 C 
BRANCH   9  10
ATOM     10  C   UNL d   1       4.108   0.498  -1.051  0.00  0.00     0.231 C 
ATOM     11  N   UNL d   1       3.496   1.572  -0.421  0.00  0.00    -0.327 N 
ATOM     12  H   UNL d   1       2.477   1.562  -0.394  0.00  0.00     0.169 HD
ATOM     13  O   UNL d   1       5.264   0.126  -0.857  0.00  0.00    -0.272 OA
BRANCH  11  14
ATOM     14  C   UNL d   1       4.151   2.514   0.401  0.00  0.00     0.034 A 
ATOM     15  C   UNL d   1       5.528   2.749   0.334  0.00  0.00     0.031 A 
ATOM     16  C   UNL d   1       6.143   3.660   1.197  0.00  0.00     0.026 A 
ATOM     17  C   UNL d   1       5.376   4.350   2.129  0.00  0.00     0.034 A 
ATOM     18  C   UNL d   1       3.996   4.167   2.174  0.00  0.00     0.026 A 
ATOM     19 CL   UNL d   1       6.140   5.426   3.234  0.00  0.00    -0.084 Cl
ATOM     20  C   UNL d   1       3.380   3.263   1.301  0.00  0.00     0.031 A 
ENDBRANCH  11  14
ENDBRANCH   9  10
ENDBRANCH   8   9
ENDBRANCH   2   8
BRANCH   1  21
ATOM     21  C   UNL d   1      -0.518  -2.680  -0.005  0.00  0.00     0.058 A 
ATOM     22  C   UNL d   1       0.422  -3.583   0.574  0.00  0.00     0.075 A 
ATOM     23  C   UNL d   1       0.116  -4.968   0.578  0.00  0.00     0.018 A 
ATOM     24  C   UNL d   1      -1.095  -5.453   0.101  0.00  0.00     0.001 A 
ATOM     25  C   UNL d   1      -2.032  -4.562  -0.404  0.00  0.00     0.002 A 
ATOM     26  C   UNL d   1      -1.738  -3.197  -0.462  0.00  0.00     0.031 A 
BRANCH  22  27
ATOM     27  C   UNL d   1       1.718  -3.240   1.286  0.00  0.00     0.419 C 
ATOM     28  F   UNL d   1       1.886  -1.924   1.574  0.00  0.00    -0.166 F 
ATOM     29  F   UNL d   1       1.812  -3.875   2.493  0.00  0.00    -0.166 F 
ATOM     30  F   UNL d   1       2.818  -3.643   0.592  0.00  0.00    -0.166 F 
ENDBRANCH  22  27
ENDBRANCH   1  21
BRANCH   7  31
ATOM     31  C   UNL d   1      -2.634  -0.189   0.044  0.00  0.00     0.078 C 
BRANCH  31  32
ATOM     32  C   UNL d   1      -3.205   1.238   0.135  0.00  0.00     0.007 C 
BRANCH  32  33
ATOM     33  C   UNL d   1      -4.737   1.302   0.124  0.00  0.00     0.000 C 
BRANCH  33  34
ATOM     34  C   UNL d   1      -5.201   2.765   0.174  0.00  0.00     0.000 C 
BRANCH  34  35
ATOM     35  C   UNL d   1      -6.724   2.903   0.185  0.00  0.00     0.000 C 
BRANCH  35  36
ATOM     36  C   UNL d   1      -7.140   4.376   0.247  0.00  0.00     0.000 C 
BRANCH  36  37
ATOM     37  C   UNL d   1      -8.661   4.526   0.265  0.00  0.00     0.000 C 
BRANCH  37  38
ATOM     38  C   UNL d   1      -9.078   5.996   0.329  0.00  0.00     0.000 C 
BRANCH  38  39
ATOM     39  C   UNL d   1     -10.601   6.131   0.357  0.00  0.00    -0.000 C 
BRANCH  39  40
ATOM     40  C   UNL d   1     -11.032   7.595   0.422  0.00  0.00    -0.005 C 
ATOM     41  C   UNL d   1     -12.547   7.720   0.451  0.00  0.00     0.005 C 
ENDBRANCH  39  40
ENDBRANCH  38  39
ENDBRANCH  37  38
ENDBRANCH  36  37
ENDBRANCH  35  36
ENDBRANCH  34  35
ENDBRANCH  33  34
ENDBRANCH  32  33
ENDBRANCH  31  32
ENDBRANCH   7  31
TORSDOF 16
