REMARK  7 active torsions:
REMARK  status: ('A' for Active; 'I' for Inactive)
REMARK    1  A    between atoms: C_8  and  N_1 
REMARK    2  A    between atoms: C_13  and  C_2 
REMARK    3  A    between atoms: S_12  and  C_5 
REMARK    4  A    between atoms: C_10  and  C_14 
REMARK       I    between atoms: N_29  and  C_10 
REMARK    5  A    between atoms: C_30  and  S_12 
REMARK    6  A    between atoms: C_18  and  C_19 
REMARK    7  A    between atoms: C_31  and  C_30 
ROOT
ATOM      1  N   UNL d   1      -0.331  -1.301  -0.024  0.00  0.00    -0.275 N 
ATOM      2  C   UNL d   1       0.920  -0.653  -0.022  0.00  0.00     0.139 A 
ATOM      3  N   UNL d   1       0.719   0.654   0.006  0.00  0.00    -0.282 N 
ATOM      4  HN  UNL d   1       1.447   1.364   0.089  1.00  0.00     0.188 HD
ATOM      5  C   UNL d   1      -1.243  -0.253  -0.137  0.00  0.00     0.168 A 
ATOM      6  N   UNL d   1      -0.619   0.901  -0.092  0.00  0.00    -0.278 N 
ATOM      7  HN  UNL d   1      -1.058   1.821  -0.126  1.00  0.00     0.189 HD
ENDROOT
BRANCH   5   8
ATOM      8  S   UNL d   1      -2.980  -0.385  -0.125  0.00  0.00    -0.087 SA
BRANCH   8   9
ATOM      9  C   UNL d   1      -3.462   1.128  -1.018  0.00  0.00     0.121 C 
BRANCH   9  10
ATOM     10  C   UNL d   1      -4.968   1.256  -1.136  0.00  0.00    -0.048 A 
ATOM     11  C   UNL d   1      -5.671   0.696  -2.220  0.00  0.00     0.025 A 
ATOM     12  C   UNL d   1      -7.071   0.813  -2.300  0.00  0.00     0.032 A 
ATOM     13  C   UNL d   1      -7.771   1.470  -1.284  0.00  0.00     0.017 A 
ATOM     14  C   UNL d   1      -7.084   2.030  -0.208  0.00  0.00     0.002 A 
ATOM     15  C   UNL d   1      -5.694   1.921  -0.134  0.00  0.00     0.008 A 
BRANCH  12  16
ATOM     16  C   UNL d   1      -7.860   0.241  -3.425  0.00  0.00     0.249 C 
ATOM     17  O   UNL d   1      -9.038  -0.076  -3.295  0.00  0.00    -0.268 OA
ATOM     18  N   UNL d   1      -7.233   0.122  -4.633  0.00  0.00    -0.366 N 
ATOM     19  H   UNL d   1      -6.375   0.610  -4.846  0.00  0.00     0.159 HD
ATOM     20  H   UNL d   1      -7.824  -0.147  -5.411  0.00  0.00     0.159 HD
ENDBRANCH  12  16
ENDBRANCH   9  10
ENDBRANCH   8   9
ENDBRANCH   5   8
BRANCH   1  21
ATOM     21  C   UNL d   1      -0.572  -2.712   0.046  0.00  0.00     0.046 A 
ATOM     22  C   UNL d   1      -1.618  -3.296  -0.682  0.00  0.00     0.069 A 
ATOM     23  C   UNL d   1      -1.733  -4.673  -0.663  0.00  0.00     0.107 A 
ATOM     24  O   UNL d   1      -2.675  -5.392  -1.331  0.00  0.00    -0.323 OA
ATOM     25  C   UNL d   1      -0.856  -5.472   0.026  0.00  0.00     0.105 A 
ATOM     26  C   UNL d   1      -2.299  -6.737  -0.966  0.00  0.00     0.352 A 
ATOM     27  O   UNL d   1      -1.125  -6.795  -0.129  0.00  0.00    -0.323 OA
ATOM     28  C   UNL d   1       0.172  -4.939   0.768  0.00  0.00     0.042 A 
ATOM     29  C   UNL d   1       0.295  -3.544   0.798  0.00  0.00     0.033 A 
ENDBRANCH   1  21
BRANCH   2  30
ATOM     30  C   UNL d   1       2.261  -1.258  -0.111  0.00  0.00     0.010 A 
ATOM     31  C   UNL d   1       2.539  -2.365  -0.921  0.00  0.00     0.016 A 
ATOM     32  C   UNL d   1       3.803  -2.970  -0.911  0.00  0.00     0.009 A 
ATOM     33  C   UNL d   1       4.862  -2.454  -0.144  0.00  0.00    -0.051 A 
ATOM     34  C   UNL d   1       4.598  -1.293   0.599  0.00  0.00     0.009 A 
ATOM     35  C   UNL d   1       3.321  -0.708   0.618  0.00  0.00     0.016 A 
BRANCH  33  36
ATOM     36  C   UNL d   1       6.231  -3.159  -0.140  0.00  0.00    -0.024 C 
ATOM     37  C   UNL d   1       7.303  -2.422   0.694  0.00  0.00     0.019 C 
ATOM     38  C   UNL d   1       6.082  -4.577   0.454  0.00  0.00     0.019 C 
ATOM     39  C   UNL d   1       6.777  -3.278  -1.580  0.00  0.00     0.019 C 
ENDBRANCH  33  36
ENDBRANCH   2  30
TORSDOF 7
