REMARK  2 active torsions:
REMARK  status: ('A' for Active; 'I' for Inactive)
REMARK    1  A    between atoms: C_11  and  C_3 
REMARK    2  A    between atoms: C_8  and  C_4 
ROOT
ATOM      1  N   UNL d   1       0.830   0.022   0.783  0.00  0.00    -0.319 N 
ATOM      2  HN  UNL d   1       1.426   0.051   1.610  1.00  0.00     0.169 HD
ATOM      3  C   UNL d   1       0.056   1.027   0.245  0.00  0.00     0.138 A 
ATOM      4  C   UNL d   1       0.609  -0.983  -0.035  0.00  0.00     0.182 A 
ATOM      5  N   UNL d   1      -0.619   0.663  -0.858  0.00  0.00    -0.242 N 
ATOM      6  HN  UNL d   1      -1.251   1.229  -1.425  1.00  0.00     0.196 HD
ATOM      7  O   UNL d   1      -0.253  -0.666  -1.045  0.00  0.00    -0.217 OA
ENDROOT
BRANCH   4   8
ATOM      8  C   UNL d   1       1.137  -2.342  -0.011  0.00  0.00     0.018 A 
ATOM      9  C   UNL d   1       0.813  -3.278  -1.010  0.00  0.00     0.026 A 
ATOM     10  C   UNL d   1       1.343  -4.555  -0.926  0.00  0.00    -0.022 A 
ATOM     11  C   UNL d   1       1.219  -5.692  -1.864  0.00  0.00     0.068 C 
ATOM     12  C   UNL d   1       2.187  -4.910   0.113  0.00  0.00     0.075 A 
ATOM     13  C   UNL d   1       1.805  -6.797  -0.983  0.00  0.00     0.180 C 
ATOM     14  O   UNL d   1       2.640  -6.200   0.037  0.00  0.00    -0.350 OA
ATOM     15  C   UNL d   1       2.538  -4.019   1.103  0.00  0.00     0.038 A 
ATOM     16  C   UNL d   1       2.003  -2.728   1.039  0.00  0.00     0.018 A 
ENDBRANCH   4   8
BRANCH   3  17
ATOM     17  C   UNL d   1      -0.007   2.361   0.835  0.00  0.00     0.010 A 
ATOM     18  C   UNL d   1       0.754   2.667   1.975  0.00  0.00     0.018 A 
ATOM     19  C   UNL d   1       0.705   3.944   2.541  0.00  0.00     0.043 A 
ATOM     20  C   UNL d   1      -0.105   4.916   1.968  0.00  0.00     0.116 A 
ATOM     21  C   UNL d   1      -0.870   4.637   0.842  0.00  0.00     0.043 A 
ATOM     22  F   UNL d   1      -0.150   6.141   2.508  0.00  0.00    -0.206 F 
ATOM     23  C   UNL d   1      -0.821   3.361   0.275  0.00  0.00     0.018 A 
ENDBRANCH   3  17
TORSDOF 2
