REMARK  3 active torsions:
REMARK  status: ('A' for Active; 'I' for Inactive)
REMARK    1  A    between atoms: N_7  and  C_1 
REMARK       I    between atoms: C_2  and  N_6 
REMARK       I    between atoms: N_9  and  C_2 
REMARK    2  A    between atoms: C_5  and  C_8 
REMARK    3  A    between atoms: C_18  and  N_9 
ROOT
ATOM      1  C   UNL d   1      -1.124   6.495   0.253  0.00  0.00     0.322 C 
ATOM      2  N   UNL d   1       0.053   5.749   0.271  0.00  0.00    -0.333 N 
ATOM      3  N   UNL d   1       0.123   2.795  -0.038  0.00  0.00    -0.253 NA
ATOM      4  N   UNL d   1      -1.437   7.120   1.437  0.00  0.00    -0.309 N 
ATOM      5  O   UNL d   1      -1.798   6.569  -0.772  0.00  0.00    -0.247 OA
ATOM      6  C   UNL d   1       0.420   5.075  -0.980  0.00  0.00     0.142 C 
ATOM      7  C   UNL d   1      -0.232   3.696  -1.156  0.00  0.00     0.118 C 
ATOM      8  C   UNL d   1       0.094   4.045   2.122  0.00  0.00     0.035 C 
ATOM      9  C   UNL d   1       0.751   5.250   1.454  0.00  0.00     0.129 C 
ATOM     10  C   UNL d   1      -0.615   3.045   1.207  0.00  0.00     0.100 C 
ATOM     11  H   UNL d   1      -0.700   7.177   2.118  0.00  0.00     0.170 HD
ENDROOT
BRANCH   3  12
ATOM     12  C   UNL d   1       0.134   1.439  -0.379  0.00  0.00     0.160 A 
ATOM     13  N   UNL d   1      -0.279   1.051  -1.596  0.00  0.00    -0.329 N 
ATOM     14  C   UNL d   1      -0.213  -0.264  -1.925  0.00  0.00     0.120 A 
ATOM     15  HN  UNL d   1      -0.636   1.735  -2.264  1.00  0.00     0.168 HD
ATOM     16  C   UNL d   1       0.292  -1.205  -1.052  0.00  0.00     0.051 A 
ATOM     17  C   UNL d   1       0.694  -0.728   0.168  0.00  0.00     0.093 A 
ATOM     18  N   UNL d   1       0.616   0.567   0.521  0.00  0.00    -0.343 N 
ATOM     19  HN  UNL d   1       0.913   0.878   1.446  1.00  0.00     0.167 HD
BRANCH  14  20
ATOM     20  C   UNL d   1      -0.692  -0.711  -3.295  0.00  0.00     0.432 C 
ATOM     21  F   UNL d   1      -1.288   0.269  -4.031  0.00  0.00    -0.165 F 
ATOM     22  F   UNL d   1       0.323  -1.195  -4.069  0.00  0.00    -0.165 F 
ATOM     23  F   UNL d   1      -1.605  -1.724  -3.220  0.00  0.00    -0.165 F 
ENDBRANCH  14  20
ENDBRANCH   3  12
BRANCH   4  24
ATOM     24  C   UNL d   1      -2.588   7.892   1.718  0.00  0.00     0.036 A 
ATOM     25  C   UNL d   1      -3.690   7.995   0.862  0.00  0.00     0.032 A 
ATOM     26  C   UNL d   1      -4.794   8.780   1.212  0.00  0.00     0.044 A 
ATOM     27  C   UNL d   1      -4.799   9.457   2.424  0.00  0.00     0.116 A 
ATOM     28  C   UNL d   1      -3.720   9.365   3.292  0.00  0.00     0.044 A 
ATOM     29  F   UNL d   1      -5.857  10.206   2.760  0.00  0.00    -0.206 F 
ATOM     30  C   UNL d   1      -2.615   8.582   2.941  0.00  0.00     0.032 A 
ENDBRANCH   4  24
TORSDOF 3
