REMARK  7 active torsions:
REMARK  status: ('A' for Active; 'I' for Inactive)
REMARK    1  A    between atoms: C_4  and  S_1 
REMARK    2  A    between atoms: N_17  and  S_1 
REMARK    3  A    between atoms: C_2  and  C_5 
REMARK    4  A    between atoms: C_3  and  C_6 
REMARK    5  A    between atoms: C_9  and  C_25 
REMARK    6  A    between atoms: C_24  and  N_17 
REMARK    7  A    between atoms: C_25  and  C_24 
ROOT
ATOM      1  S   UNL d   1       0.855  -0.108  -0.025  0.00  0.00     0.258 S 
ATOM      2  O   UNL d   1       0.581  -0.818  -1.262  0.00  0.00    -0.201 OA
ATOM      3  O   UNL d   1       0.290  -0.493   1.235  0.00  0.00    -0.201 OA
ENDROOT
BRANCH   1   4
ATOM      4  C   UNL d   1       0.454   1.608  -0.306  0.00  0.00     0.081 A 
ATOM      5  C   UNL d   1       0.491   2.132  -1.600  0.00  0.00     0.041 A 
ATOM      6  C   UNL d   1       0.211   3.488  -1.813  0.00  0.00     0.050 A 
ATOM      7  C   UNL d   1      -0.099   4.300  -0.704  0.00  0.00     0.032 A 
ATOM      8  C   UNL d   1      -0.150   3.774   0.600  0.00  0.00     0.050 A 
ATOM      9  C   UNL d   1       0.124   2.414   0.790  0.00  0.00     0.041 A 
BRANCH   6  10
ATOM     10  C   UNL d   1       0.220   4.079  -3.205  0.00  0.00     0.417 C 
ATOM     11  F   UNL d   1       0.536   3.178  -4.175  0.00  0.00    -0.166 F 
ATOM     12  F   UNL d   1      -0.988   4.599  -3.551  0.00  0.00    -0.166 F 
ATOM     13  F   UNL d   1       1.119   5.094  -3.329  0.00  0.00    -0.166 F 
ENDBRANCH   6  10
BRANCH   8  14
ATOM     14  C   UNL d   1      -0.513   4.661   1.770  0.00  0.00     0.417 C 
ATOM     15  F   UNL d   1      -0.483   4.016   2.968  0.00  0.00    -0.166 F 
ATOM     16  F   UNL d   1       0.330   5.722   1.895  0.00  0.00    -0.166 F 
ATOM     17  F   UNL d   1      -1.763   5.181   1.650  0.00  0.00    -0.166 F 
ENDBRANCH   8  14
ENDBRANCH   1   4
BRANCH   1  18
ATOM     18  N   UNL d   1       2.521  -0.029   0.120  0.00  0.00    -0.315 N 
ATOM     19  H   UNL d   1       3.008  -0.128  -0.767  0.00  0.00     0.172 HD
BRANCH  18  20
ATOM     20  C   UNL d   1       3.106   0.848   1.158  0.00  0.00     0.137 C 
BRANCH  20  21
ATOM     21  C   UNL d   1       4.602   0.616   1.208  0.00  0.00     0.061 C 
BRANCH  21  22
ATOM     22  C   UNL d   1       5.401   1.559   2.082  0.00  0.00    -0.029 C 
ATOM     23  C   UNL d   1       6.713   1.887   1.750  0.00  0.00     0.096 C 
ATOM     24  N   UNL d   1       7.413   0.983   2.546  0.00  0.00    -0.365 N 
ATOM     25  C   UNL d   1       6.739   0.948   3.755  0.00  0.00     0.042 C 
ATOM     26  H   UNL d   1       8.404   0.808   2.471  0.00  0.00     0.165 HD
ATOM     27  C   UNL d   1       5.480   1.508   3.511  0.00  0.00    -0.002 C 
ATOM     28  C   UNL d   1       7.165   0.521   5.011  0.00  0.00     0.030 C 
ATOM     29  C   UNL d   1       4.644   1.777   4.609  0.00  0.00     0.014 C 
ATOM     30  C   UNL d   1       5.122   1.494   5.900  0.00  0.00     0.001 C 
ATOM     31  C   UNL d   1       6.340   0.836   6.091  0.00  0.00     0.002 C 
ENDBRANCH  21  22
ENDBRANCH  20  21
ENDBRANCH  18  20
ENDBRANCH   1  18
TORSDOF 7
