REMARK  9 active torsions:
REMARK  status: ('A' for Active; 'I' for Inactive)
REMARK    1  A    between atoms: C_3  and  N_1 
REMARK    2  A    between atoms: C_4  and  C_29 
REMARK    3  A    between atoms: C_8  and  C_9 
REMARK    4  A    between atoms: C_30  and  C_8 
REMARK    5  A    between atoms: S_17  and  C_30 
REMARK    6  A    between atoms: C_29  and  S_17 
REMARK    7  A    between atoms: O_18  and  C_23 
REMARK    8  A    between atoms: C_20  and  O_18 
REMARK    9  A    between atoms: C_23  and  C_21 
ROOT
ATOM      1  C   UNL d   1      -1.550  -8.262  -5.729  0.00  0.00     0.011 A 
ATOM      2  C   UNL d   1      -1.630  -6.941  -6.188  0.00  0.00     0.018 A 
ATOM      3  C   UNL d   1      -1.308  -8.513  -4.376  0.00  0.00     0.018 A 
ATOM      4  C   UNL d   1      -1.200  -6.135  -3.946  0.00  0.00     0.069 A 
ATOM      5  C   UNL d   1      -1.153  -7.453  -3.486  0.00  0.00     0.037 A 
ATOM      6  C   UNL d   1      -1.467  -5.881  -5.291  0.00  0.00     0.037 A 
ENDROOT
BRANCH   1   7
ATOM      7  C   UNL d   1      -1.746  -9.378  -6.694  0.00  0.00     0.168 C 
ATOM      8  O   UNL d   1      -1.470  -9.206  -7.880  0.00  0.00    -0.292 OA
BRANCH   7   9
ATOM      9  C   UNL d   1      -2.319 -10.691  -6.197  0.00  0.00     0.158 C 
BRANCH   9  10
ATOM     10  S   UNL d   1      -4.020 -10.490  -5.572  0.00  0.00    -0.157 SA
BRANCH  10  11
ATOM     11  C   UNL d   1      -4.795  -9.822  -7.079  0.00  0.00     0.114 C 
BRANCH  11  12
ATOM     12  C   UNL d   1      -6.277  -9.595  -6.900  0.00  0.00    -0.027 A 
ATOM     13  C   UNL d   1      -6.826  -8.342  -6.572  0.00  0.00     0.042 A 
ATOM     14  C   UNL d   1      -8.211  -8.172  -6.477  0.00  0.00     0.048 A 
ATOM     15 CL   UNL d   1      -5.835  -6.957  -6.278  0.00  0.00    -0.084 Cl
ATOM     16  C   UNL d   1      -9.057  -9.257  -6.687  0.00  0.00     0.035 A 
ATOM     17  C   UNL d   1      -8.535 -10.513  -6.978  0.00  0.00     0.024 A 
ATOM     18 CL   UNL d   1     -10.761  -9.044  -6.589  0.00  0.00    -0.084 Cl
ATOM     19  C   UNL d   1      -7.153 -10.681  -7.082  0.00  0.00     0.011 A 
ENDBRANCH  11  12
ENDBRANCH  10  11
ENDBRANCH   9  10
ENDBRANCH   7   9
ENDBRANCH   1   7
BRANCH   4  20
ATOM     20  O   UNL d   1      -0.989  -5.039  -3.155  0.00  0.00    -0.347 OA
BRANCH  20  21
ATOM     21  C   UNL d   1      -0.193  -5.294  -1.995  0.00  0.00     0.214 C 
BRANCH  21  22
ATOM     22  C   UNL d   1       0.411  -3.998  -1.522  0.00  0.00    -0.034 A 
ATOM     23  C   UNL d   1      -0.408  -2.978  -1.014  0.00  0.00     0.012 A 
ATOM     24  C   UNL d   1       0.154  -1.772  -0.591  0.00  0.00     0.037 A 
ATOM     25  C   UNL d   1       1.539  -1.585  -0.680  0.00  0.00     0.102 A 
ATOM     26  C   UNL d   1       2.366  -2.599  -1.176  0.00  0.00     0.037 A 
ATOM     27  C   UNL d   1       1.798  -3.801  -1.595  0.00  0.00     0.012 A 
BRANCH  25  28
ATOM     28  N   UNL d   1       2.130  -0.313  -0.258  0.00  0.00    -0.116 N 
ATOM     29  O   UNL d   1       3.361  -0.181  -0.365  0.00  0.00    -0.532 OA
ATOM     30  O   UNL d   1       1.369   0.562   0.180  0.00  0.00    -0.532 OA
ENDBRANCH  25  28
ENDBRANCH  21  22
ENDBRANCH  20  21
ENDBRANCH   4  20
TORSDOF 9
