REMARK  7 active torsions:
REMARK  status: ('A' for Active; 'I' for Inactive)
REMARK    1  A    between atoms: C_7  and  C_1 
REMARK    2  A    between atoms: C_8  and  C_2 
REMARK    3  A    between atoms: O_16  and  C_7 
REMARK    4  A    between atoms: O_12  and  N_9 
REMARK    5  A    between atoms: C_11  and  O_12 
REMARK    6  A    between atoms: C_15  and  C_11 
REMARK    7  A    between atoms: C_21  and  O_16 
ROOT
ATOM      1  C   UNL d   1      -2.662  -1.557  -0.020  0.00  0.00     0.066 C 
ATOM      2  N   UNL d   1      -3.832  -1.000   0.037  0.00  0.00    -0.259 N 
ATOM      3  HN  UNL d   1      -4.686  -1.550   0.127  1.00  0.00     0.194 HD
ATOM      4  C   UNL d   1      -2.725  -3.076  -0.110  0.00  0.00     0.073 C 
ENDROOT
BRANCH   1   5
ATOM      5  C   UNL d   1      -1.345  -0.951  -0.009  0.00  0.00     0.141 A 
ATOM      6  C   UNL d   1      -0.745   0.195   0.497  0.00  0.00     0.101 A 
ATOM      7  C   UNL d   1       0.630   0.065   0.131  0.00  0.00     0.048 A 
ATOM      8  N   UNL d   1       0.845  -1.056  -0.559  0.00  0.00    -0.264 N 
ATOM      9  C   UNL d   1       1.781   0.939   0.470  0.00  0.00     0.071 C 
ATOM     10  O   UNL d   1      -0.372  -1.680  -0.642  0.00  0.00    -0.235 OA
ATOM     11  HN  UNL d   1       1.731  -1.381  -0.945  1.00  0.00     0.194 HD
BRANCH   6  12
ATOM     12  C   UNL d   1      -1.335   1.251   1.284  0.00  0.00     0.298 C 
ATOM     13  O   UNL d   1      -2.264   1.093   2.061  0.00  0.00    -0.259 OA
BRANCH  12  14
ATOM     14  O   UNL d   1      -0.722   2.452   1.055  0.00  0.00    -0.318 OA
BRANCH  14  15
ATOM     15  C   UNL d   1      -1.263   3.593   1.737  0.00  0.00     0.174 C 
ATOM     16  C   UNL d   1      -2.402   4.176   0.929  0.00  0.00     0.034 C 
ENDBRANCH  14  15
ENDBRANCH  12  14
ENDBRANCH   6  12
ENDBRANCH   1   5
BRANCH   2  17
ATOM     17  O   UNL d   1      -3.856   0.394  -0.030  0.00  0.00    -0.195 OA
BRANCH  17  18
ATOM     18  C   UNL d   1      -5.008   0.831   0.578  0.00  0.00     0.315 C 
ATOM     19  O   UNL d   1      -5.681   0.254   1.415  0.00  0.00    -0.257 OA
BRANCH  18  20
ATOM     20  C   UNL d   1      -5.352   2.180   0.072  0.00  0.00     0.041 A 
ATOM     21  C   UNL d   1      -6.015   3.070   0.928  0.00  0.00     0.017 A 
ATOM     22  C   UNL d   1      -6.335   4.354   0.485  0.00  0.00     0.001 A 
ATOM     23  C   UNL d   1      -6.008   4.745  -0.815  0.00  0.00     0.000 A 
ATOM     24  C   UNL d   1      -5.366   3.854  -1.676  0.00  0.00     0.001 A 
ATOM     25  C   UNL d   1      -5.038   2.571  -1.236  0.00  0.00     0.017 A 
ENDBRANCH  18  20
ENDBRANCH  17  18
ENDBRANCH   2  17
TORSDOF 7
