REMARK  1 active torsions:
REMARK  status: ('A' for Active; 'I' for Inactive)
REMARK    1  A    between atoms: C_9  and  N_1 
ROOT
ATOM      1  N   UNL d   1       0.920  -0.633   0.051  0.00  0.00    -0.239 N 
ATOM      2  C   UNL d   1      -0.374  -0.902  -0.427  0.00  0.00     0.143 C 
ATOM      3  N   UNL d   1       0.969   0.576   0.683  0.00  0.00    -0.302 N 
ATOM      4  HN  UNL d   1       1.742   0.969   1.220  1.00  0.00     0.186 HD
ATOM      5  C   UNL d   1      -1.089   0.261  -0.227  0.00  0.00     0.106 C 
ATOM      6  C   UNL d   1      -0.220   1.129   0.443  0.00  0.00     0.134 C 
ATOM      7  C   UNL d   1      -2.451   0.503  -0.562  0.00  0.00     0.104 C 
ATOM      8  N   UNL d   1      -3.566   0.693  -0.821  0.00  0.00    -0.191 NA
ATOM      9  N   UNL d   1      -0.786  -2.107  -0.918  0.00  0.00    -0.383 N 
ATOM     10  H   UNL d   1      -0.295  -2.958  -0.643  0.00  0.00     0.157 HD
ATOM     11  H   UNL d   1      -1.782  -2.286  -1.047  0.00  0.00     0.157 HD
ENDROOT
BRANCH   1  12
ATOM     12  C   UNL d   1       2.099  -1.429  -0.039  0.00  0.00     0.058 A 
ATOM     13  C   UNL d   1       2.261  -2.379  -1.056  0.00  0.00     0.031 A 
ATOM     14  C   UNL d   1       3.428  -3.145  -1.119  0.00  0.00     0.002 A 
ATOM     15  C   UNL d   1       4.434  -2.969  -0.170  0.00  0.00     0.000 A 
ATOM     16  C   UNL d   1       4.287  -2.012   0.832  0.00  0.00     0.002 A 
ATOM     17  C   UNL d   1       3.130  -1.232   0.892  0.00  0.00     0.031 A 
ENDBRANCH   1  12
TORSDOF 1
