REMARK  6 active torsions:
REMARK  status: ('A' for Active; 'I' for Inactive)
REMARK    1  A    between atoms: S_2  and  C_1 
REMARK    2  A    between atoms: N_9  and  S_2 
REMARK       I    between atoms: C_7  and  N_8 
REMARK    3  A    between atoms: O_10  and  C_7 
REMARK    4  A    between atoms: C_19  and  N_9 
REMARK    5  A    between atoms: C_17  and  O_10 
REMARK    6  A    between atoms: C_22  and  C_19 
ROOT
ATOM      1  C   UNL d   1      -0.347  -7.812   3.007  0.00  0.00     0.363 C 
ATOM      2  N   UNL d   1       0.104  -6.494   3.014  0.00  0.00    -0.328 N 
ATOM      3  O   UNL d   1       0.398  -8.781   2.981  0.00  0.00    -0.238 OA
ATOM      4  C   UNL d   1      -0.782  -5.343   2.884  0.00  0.00     0.128 C 
ATOM      5  C   UNL d   1       1.530  -6.218   2.901  0.00  0.00     0.128 C 
ATOM      6  C   UNL d   1       1.968  -5.107   3.862  0.00  0.00     0.026 C 
ATOM      7  C   UNL d   1      -0.387  -4.228   3.849  0.00  0.00     0.026 C 
ATOM      8  C   UNL d   1       1.100  -3.834   3.759  0.00  0.00     0.002 C 
ENDROOT
BRANCH   8   9
ATOM      9  C   UNL d   1       1.477  -3.016   2.510  0.00  0.00     0.109 C 
BRANCH   9  10
ATOM     10  N   UNL d   1       0.639  -1.809   2.388  0.00  0.00    -0.215 NA
ATOM     11  H   UNL d   1      -0.368  -1.954   2.341  0.00  0.00     0.139 HD
BRANCH  10  12
ATOM     12  S   UNL d   1       1.098  -0.662   1.242  0.00  0.00     0.243 S 
ATOM     13  O   UNL d   1       2.446  -0.239   1.520  0.00  0.00    -0.206 OA
ATOM     14  O   UNL d   1      -0.002   0.265   1.086  0.00  0.00    -0.206 OA
BRANCH  12  15
ATOM     15  C   UNL d   1       1.199  -1.454  -0.290  0.00  0.00     0.105 A 
ATOM     16  C   UNL d   1       0.191  -2.196  -0.853  0.00  0.00     0.099 A 
ATOM     17  S   UNL d   1       0.646  -2.917  -2.324  0.00  0.00    -0.064 SA
ATOM     18 CL   UNL d   1      -1.388  -2.512  -0.246  0.00  0.00    -0.075 Cl
ATOM     19  C   UNL d   1       2.196  -2.240  -2.216  0.00  0.00     0.077 A 
ATOM     20  C   UNL d   1       2.378  -1.465  -1.101  0.00  0.00     0.058 A 
ATOM     21 CL   UNL d   1       3.360  -2.576  -3.430  0.00  0.00    -0.076 Cl
ENDBRANCH  12  15
ENDBRANCH  10  12
ENDBRANCH   9  10
ENDBRANCH   8   9
BRANCH   1  22
ATOM     22  O   UNL d   1      -1.702  -7.896   3.052  0.00  0.00    -0.294 OA
BRANCH  22  23
ATOM     23  C   UNL d   1      -2.393  -9.173   3.152  0.00  0.00     0.061 C 
ATOM     24  C   UNL d   1      -1.955  -9.967   4.391  0.00  0.00     0.046 C 
ATOM     25  C   UNL d   1      -3.879  -8.797   3.298  0.00  0.00     0.046 C 
ATOM     26  C   UNL d   1      -2.223 -10.005   1.877  0.00  0.00     0.046 C 
ENDBRANCH  22  23
ENDBRANCH   1  22
TORSDOF 6
