REMARK  5 active torsions:
REMARK  status: ('A' for Active; 'I' for Inactive)
REMARK    1  A    between atoms: N_4  and  C_1 
REMARK       I    between atoms: C_5  and  N_4 
REMARK    2  A    between atoms: C_10  and  C_5 
REMARK    3  A    between atoms: O_9  and  C_13 
REMARK    4  A    between atoms: C_14  and  C_10 
REMARK    5  A    between atoms: C_13  and  C_14 
ROOT
ATOM      1  C   UNL d   1       2.496   0.021  -0.252  0.00  0.00     0.092 C 
ATOM      2  C   UNL d   1       0.266   0.709   0.068  0.00  0.00    -0.050 A 
ATOM      3  C   UNL d   1       0.270  -0.687   0.053  0.00  0.00    -0.050 A 
ATOM      4  C   UNL d   1       1.659   1.247   0.177  0.00  0.00     0.064 C 
ATOM      5  C   UNL d   1       1.663  -1.223   0.138  0.00  0.00     0.064 C 
ATOM      6  C   UNL d   1      -0.924   1.419   0.025  0.00  0.00     0.007 A 
ATOM      7  C   UNL d   1      -0.912  -1.410   0.001  0.00  0.00     0.007 A 
ATOM      8  C   UNL d   1      -2.114  -0.703  -0.055  0.00  0.00     0.001 A 
ATOM      9  C   UNL d   1      -2.119   0.701  -0.046  0.00  0.00     0.001 A 
ENDROOT
BRANCH   1  10
ATOM     10  N   UNL d   1       3.835   0.009   0.317  0.00  0.00    -0.356 N 
ATOM     11  C   UNL d   1       4.737  -0.967  -0.042  0.00  0.00     0.217 C 
ATOM     12  O   UNL d   1       4.440  -1.920  -0.757  0.00  0.00    -0.274 OA
ATOM     13  H   UNL d   1       4.163   0.817   0.832  0.00  0.00     0.162 HD
BRANCH  11  14
ATOM     14  C   UNL d   1       6.117  -0.790   0.554  0.00  0.00     0.105 C 
BRANCH  14  15
ATOM     15  C   UNL d   1       7.184  -1.453  -0.320  0.00  0.00     0.035 C 
BRANCH  15  16
ATOM     16  C   UNL d   1       7.263  -0.834  -1.713  0.00  0.00     0.164 C 
BRANCH  16  17
ATOM     17  O   UNL d   1       7.561   0.552  -1.599  0.00  0.00    -0.401 OA
ATOM     18  H   UNL d   1       7.590   0.905  -2.506  0.00  0.00     0.209 HD
ENDBRANCH  16  17
ENDBRANCH  15  16
ENDBRANCH  14  15
ENDBRANCH  11  14
ENDBRANCH   1  10
TORSDOF 5
