REMARK  6 active torsions:
REMARK  status: ('A' for Active; 'I' for Inactive)
REMARK    1  A    between atoms: C_3  and  C_1 
REMARK    2  A    between atoms: N_5  and  C_2 
REMARK    3  A    between atoms: O_15  and  C_3 
REMARK    4  A    between atoms: C_4  and  O_7 
REMARK       I    between atoms: N_11  and  C_4 
REMARK    5  A    between atoms: C_12  and  N_5 
REMARK    6  A    between atoms: O_7  and  C_14 
ROOT
ATOM      1  C   UNL d   1       3.547  -0.957  -0.321  0.00  0.00     0.032 A 
ATOM      2  C   UNL d   1       6.156   0.065  -0.317  0.00  0.00     0.081 A 
ATOM      3  C   UNL d   1       4.001  -0.153   0.735  0.00  0.00     0.032 A 
ATOM      4  C   UNL d   1       4.433  -1.261  -1.363  0.00  0.00     0.032 A 
ATOM      5  C   UNL d   1       5.300   0.360   0.740  0.00  0.00     0.039 A 
ATOM      6  C   UNL d   1       5.727  -0.736  -1.374  0.00  0.00     0.039 A 
ENDROOT
BRANCH   1   7
ATOM      7  N   UNL d   1       2.216  -1.426  -0.405  0.00  0.00    -0.358 N 
ATOM      8  H   UNL d   1       2.169  -2.440  -0.464  0.00  0.00     0.166 HD
BRANCH   7   9
ATOM      9  C   UNL d   1       1.131  -0.798   0.178  0.00  0.00     0.032 C 
ATOM     10  C   UNL d   1       0.704   0.464  -0.029  0.00  0.00     0.050 C 
ATOM     11  C   UNL d   1      -0.465   0.941   0.762  0.00  0.00     0.121 C 
ATOM     12  S   UNL d   1      -1.114  -0.528   1.608  0.00  0.00    -0.158 SA
ATOM     13  C   UNL d   1       0.285  -1.587   1.149  0.00  0.00     0.132 C 
BRANCH  10  14
ATOM     14  C   UNL d   1       1.262   1.442  -0.989  0.00  0.00     0.291 C 
ATOM     15  O   UNL d   1       1.181   2.651  -0.811  0.00  0.00    -0.260 OA
BRANCH  14  16
ATOM     16  O   UNL d   1       1.747   0.828  -2.091  0.00  0.00    -0.323 OA
ATOM     17  C   UNL d   1       2.362   1.654  -3.077  0.00  0.00     0.213 C 
ENDBRANCH  14  16
ENDBRANCH  10  14
ENDBRANCH   7   9
ENDBRANCH   1   7
BRANCH   2  18
ATOM     18  O   UNL d   1       7.437   0.638  -0.452  0.00  0.00    -0.262 OA
BRANCH  18  19
ATOM     19  C   UNL d   1       8.254   0.846   0.652  0.00  0.00     0.365 C 
ATOM     20  O   UNL d   1       8.024   0.483   1.797  0.00  0.00    -0.238 OA
ATOM     21  N   UNL d   1       9.367   1.533   0.260  0.00  0.00    -0.341 N 
ATOM     22  C   UNL d   1      10.385   1.973   1.175  0.00  0.00     0.151 C 
ATOM     23  H   UNL d   1       9.412   1.802  -0.713  0.00  0.00     0.164 HD
ENDBRANCH  18  19
ENDBRANCH   2  18
TORSDOF 6
