REMARK  3 active torsions:
REMARK  status: ('A' for Active; 'I' for Inactive)
REMARK    1  A    between atoms: N_9  and  C_1 
REMARK    2  A    between atoms: C_8  and  N_3 
REMARK    3  A    between atoms: N_10  and  N_9 
ROOT
ATOM      1  C   UNL d   1      -0.952   1.137   0.036  0.00  0.00     0.095 C 
ATOM      2  C   UNL d   1      -1.528  -0.065  -0.143  0.00  0.00     0.133 C 
ATOM      3  N   UNL d   1       0.639  -1.190  -0.026  0.00  0.00    -0.218 N 
ATOM      4  C   UNL d   1      -0.745  -1.339  -0.128  0.00  0.00     0.291 C 
ATOM      5  N   UNL d   1       1.262   0.006   0.233  0.00  0.00    -0.300 N 
ATOM      6  HN  UNL d   1       2.265   0.058   0.408  1.00  0.00     0.186 HD
ATOM      7  C   UNL d   1       0.518   1.060   0.243  0.00  0.00     0.141 C 
ATOM      8  O   UNL d   1      -1.325  -2.425  -0.141  0.00  0.00    -0.264 OA
ATOM      9 CL   UNL d   1      -3.250  -0.222  -0.297  0.00  0.00    -0.076 Cl
ENDROOT
BRANCH   3  10
ATOM     10  C   UNL d   1       1.532  -2.301  -0.084  0.00  0.00     0.082 A 
ATOM     11  C   UNL d   1       1.497  -3.264  -1.111  0.00  0.00     0.064 A 
ATOM     12  C   UNL d   1       2.412  -4.325  -1.121  0.00  0.00     0.050 A 
ATOM     13 CL   UNL d   1       0.487  -3.107  -2.510  0.00  0.00    -0.082 Cl
ATOM     14  C   UNL d   1       3.368  -4.430  -0.114  0.00  0.00     0.035 A 
ATOM     15  C   UNL d   1       3.429  -3.481   0.901  0.00  0.00     0.026 A 
ATOM     16 CL   UNL d   1       4.507  -5.719  -0.147  0.00  0.00    -0.084 Cl
ATOM     17  C   UNL d   1       2.525  -2.415   0.907  0.00  0.00     0.035 A 
ENDBRANCH   3  10
BRANCH   1  18
ATOM     18  N   UNL d   1      -1.551   2.396   0.079  0.00  0.00    -0.288 N 
ATOM     19  C   UNL d   1      -1.206   3.432   1.048  0.00  0.00     0.178 C 
BRANCH  18  20
ATOM     20  N   UNL d   1      -2.255   2.876  -1.038  0.00  0.00    -0.277 N 
ATOM     21  C   UNL d   1      -3.367   3.684  -0.999  0.00  0.00     0.116 A 
ATOM     22  C   UNL d   1      -3.741   3.993  -2.288  0.00  0.00     0.021 A 
ATOM     23  C   UNL d   1      -2.845   3.328  -3.152  0.00  0.00     0.021 A 
ATOM     24  C   UNL d   1      -1.932   2.664  -2.360  0.00  0.00     0.116 A 
ENDBRANCH  18  20
ENDBRANCH   1  18
TORSDOF 3
