REMARK  6 active torsions:
REMARK  status: ('A' for Active; 'I' for Inactive)
REMARK    1  A    between atoms: C_8  and  C_1 
REMARK    2  A    between atoms: S_7  and  C_2 
REMARK    3  A    between atoms: C_13  and  S_7 
REMARK    4  A    between atoms: O_23  and  C_8 
REMARK    5  A    between atoms: C_9  and  C_11 
REMARK    6  A    between atoms: C_11  and  C_13 
ROOT
ATOM      1  C   UNL d   1      -0.361   1.483  -0.646  0.00  0.00     0.121 A 
ATOM      2  C   UNL d   1      -0.188  -1.352  -0.455  0.00  0.00     0.084 A 
ATOM      3  C   UNL d   1       0.819   0.821  -0.952  0.00  0.00     0.176 A 
ATOM      4  C   UNL d   1      -1.446   0.727  -0.214  0.00  0.00     0.176 A 
ATOM      5  C   UNL d   1       0.904  -0.571  -0.861  0.00  0.00     0.175 A 
ATOM      6  C   UNL d   1      -1.357  -0.666  -0.111  0.00  0.00     0.175 A 
ATOM      7  F   UNL d   1       1.904   1.515  -1.330  0.00  0.00    -0.202 F 
ATOM      8  F   UNL d   1      -2.598   1.311   0.145  0.00  0.00    -0.202 F 
ATOM      9  F   UNL d   1      -2.435  -1.318   0.346  0.00  0.00    -0.201 F 
ATOM     10  F   UNL d   1       2.075  -1.150  -1.169  0.00  0.00    -0.201 F 
ENDROOT
BRANCH   2  11
ATOM     11  S   UNL d   1       0.036  -3.131  -0.424  0.00  0.00    -0.116 SA
BRANCH  11  12
ATOM     12  C   UNL d   1      -1.599  -3.786   0.042  0.00  0.00     0.163 C 
BRANCH  12  13
ATOM     13  C   UNL d   1      -1.622  -5.298  -0.068  0.00  0.00     0.169 C 
ATOM     14  O   UNL d   1      -1.994  -5.861  -1.098  0.00  0.00    -0.291 OA
BRANCH  13  15
ATOM     15  C   UNL d   1      -1.238  -6.132   1.109  0.00  0.00     0.011 A 
ATOM     16  C   UNL d   1      -0.316  -5.698   2.070  0.00  0.00     0.023 A 
ATOM     17  C   UNL d   1       0.076  -6.542   3.126  0.00  0.00    -0.039 A 
ATOM     18  C   UNL d   1       1.125  -6.069   4.095  0.00  0.00     0.050 C 
ATOM     19  C   UNL d   1      -0.500  -7.817   3.224  0.00  0.00     0.040 A 
ATOM     20  C   UNL d   1      -1.437  -8.245   2.281  0.00  0.00     0.025 A 
ATOM     21 CL   UNL d   1      -0.067  -8.910   4.489  0.00  0.00    -0.084 Cl
ATOM     22  C   UNL d   1      -1.797  -7.410   1.221  0.00  0.00     0.017 A 
ENDBRANCH  13  15
ENDBRANCH  12  13
ENDBRANCH  11  12
ENDBRANCH   2  11
BRANCH   1  23
ATOM     23  C   UNL d   1      -0.506   2.944  -0.802  0.00  0.00     0.182 C 
ATOM     24  O   UNL d   1      -1.586   3.481  -0.971  0.00  0.00    -0.646 OA
BRANCH  23  25
ATOM     25  O   UNL d   1       0.642   3.650  -0.723  0.00  0.00    -0.772 OA
ATOM     26  H   UNL d   1       1.480   3.145  -0.668  0.00  0.00     0.167 HD
ENDBRANCH  23  25
ENDBRANCH   1  23
TORSDOF 6
