REMARK  7 active torsions:
REMARK  status: ('A' for Active; 'I' for Inactive)
REMARK    1  A    between atoms: C_12  and  S_1 
REMARK    2  A    between atoms: N_16  and  S_1 
REMARK    3  A    between atoms: C_17  and  C_3 
REMARK    4  A    between atoms: C_7  and  N_20 
REMARK    5  A    between atoms: C_22  and  N_16 
REMARK    6  A    between atoms: N_20  and  C_26 
REMARK    7  A    between atoms: C_26  and  C_22 
ROOT
ATOM      1  C   UNL d   1       7.449  -1.264   3.979  0.00  0.00     0.048 A 
ATOM      2  C   UNL d   1       7.074  -1.094   5.391  0.00  0.00    -0.003 A 
ATOM      3  C   UNL d   1       8.207  -1.050   6.189  0.00  0.00     0.065 A 
ATOM      4  C   UNL d   1       8.824  -1.413   3.857  0.00  0.00     0.089 A 
ATOM      5  S   UNL d   1       9.658  -1.292   5.333  0.00  0.00    -0.082 SA
ATOM      6  C   UNL d   1       6.744  -1.306   2.746  0.00  0.00     0.095 A 
ATOM      7  N   UNL d   1       9.528  -1.628   2.732  0.00  0.00    -0.346 N 
ATOM      8  HN  UNL d   1      10.542  -1.742   2.709  1.00  0.00     0.167 HD
ATOM      9  N   UNL d   1       7.430  -1.522   1.601  0.00  0.00    -0.342 N 
ATOM     10  HN  UNL d   1       6.940  -1.568   0.708  1.00  0.00     0.167 HD
ATOM     11  C   UNL d   1       8.754  -1.674   1.653  0.00  0.00     0.182 A 
ENDROOT
BRANCH   6  12
ATOM     12  N   UNL d   1       5.367  -1.143   2.670  0.00  0.00    -0.277 NA
ATOM     13  H   UNL d   1       4.920  -1.986   3.020  0.00  0.00     0.129 HD
BRANCH  12  14
ATOM     14  C   UNL d   1       4.803  -0.612   1.426  0.00  0.00     0.114 C 
BRANCH  14  15
ATOM     15  C   UNL d   1       3.806  -1.595   0.808  0.00  0.00     0.147 C 
BRANCH  15  16
ATOM     16  N   UNL d   1       2.717  -1.881   1.751  0.00  0.00    -0.314 N 
ATOM     17  H   UNL d   1       2.874  -1.852   2.757  0.00  0.00     0.172 HD
BRANCH  16  18
ATOM     18  S   UNL d   1       1.387  -2.758   1.250  0.00  0.00     0.258 S 
ATOM     19  O   UNL d   1       0.608  -3.033   2.435  0.00  0.00    -0.201 OA
ATOM     20  O   UNL d   1       0.825  -2.090   0.098  0.00  0.00    -0.201 OA
BRANCH  18  21
ATOM     21  C   UNL d   1       2.125  -4.277   0.702  0.00  0.00     0.079 A 
ATOM     22  C   UNL d   1       2.345  -5.309   1.619  0.00  0.00     0.027 A 
ATOM     23  C   UNL d   1       2.916  -6.505   1.178  0.00  0.00     0.025 A 
ATOM     24  C   UNL d   1       3.255  -6.661  -0.167  0.00  0.00     0.034 A 
ATOM     25  C   UNL d   1       3.033  -5.630  -1.081  0.00  0.00     0.025 A 
ATOM     26 CL   UNL d   1       3.946  -8.141  -0.708  0.00  0.00    -0.084 Cl
ATOM     27  C   UNL d   1       2.456  -4.435  -0.649  0.00  0.00     0.027 A 
ENDBRANCH  18  21
ENDBRANCH  16  18
ENDBRANCH  15  16
ENDBRANCH  14  15
ENDBRANCH  12  14
ENDBRANCH   6  12
BRANCH   2  28
ATOM     28  C   UNL d   1       5.744  -1.000   6.028  0.00  0.00    -0.024 A 
ATOM     29  C   UNL d   1       5.514  -1.581   7.289  0.00  0.00     0.012 A 
ATOM     30  C   UNL d   1       4.247  -1.555   7.883  0.00  0.00     0.001 A 
ATOM     31  C   UNL d   1       3.175  -0.981   7.210  0.00  0.00     0.000 A 
ATOM     32  C   UNL d   1       3.385  -0.377   5.976  0.00  0.00     0.001 A 
ATOM     33  C   UNL d   1       4.668  -0.349   5.416  0.00  0.00     0.012 A 
ENDBRANCH   2  28
TORSDOF 7
