REMARK  7 active torsions:
REMARK  status: ('A' for Active; 'I' for Inactive)
REMARK    1  A    between atoms: C_2  and  C_1 
REMARK    2  A    between atoms: O_8  and  C_2 
REMARK    3  A    between atoms: S_7  and  C_3 
REMARK    4  A    between atoms: C_11  and  S_7 
REMARK    5  A    between atoms: C_13  and  C_11 
REMARK    6  A    between atoms: C_15  and  C_13 
REMARK    7  A    between atoms: C_14  and  C_15 
ROOT
ATOM      1  C   UNL d   1       0.535   0.997  -0.798  0.00  0.00     0.071 A 
ATOM      2  C   UNL d   1      -0.573   1.338  -0.019  0.00  0.00     0.086 A 
ATOM      3  N   UNL d   1      -0.899   0.657   1.111  0.00  0.00    -0.360 N 
ATOM      4  HN  UNL d   1      -1.716   0.920   1.663  1.00  0.00     0.166 HD
ATOM      5  C   UNL d   1       1.334  -0.075  -0.371  0.00  0.00     0.022 A 
ATOM      6  C   UNL d   1      -0.113  -0.376   1.486  0.00  0.00     0.089 A 
ATOM      7  C   UNL d   1       1.004  -0.779   0.782  0.00  0.00     0.018 A 
ENDROOT
BRANCH   2   8
ATOM      8  S   UNL d   1      -1.736   2.640  -0.398  0.00  0.00    -0.111 SA
BRANCH   8   9
ATOM      9  C   UNL d   1      -0.695   4.090  -0.028  0.00  0.00     0.081 C 
BRANCH   9  10
ATOM     10  C   UNL d   1      -1.521   5.377  -0.073  0.00  0.00     0.010 C 
BRANCH  10  11
ATOM     11  C   UNL d   1      -0.591   6.592  -0.004  0.00  0.00     0.000 C 
BRANCH  11  12
ATOM     12  C   UNL d   1      -1.349   7.917  -0.038  0.00  0.00    -0.005 C 
ATOM     13  C   UNL d   1      -0.378   9.090  -0.013  0.00  0.00     0.005 C 
ENDBRANCH  11  12
ENDBRANCH  10  11
ENDBRANCH   9  10
ENDBRANCH   8   9
ENDBRANCH   2   8
BRANCH   1  14
ATOM     14  C   UNL d   1       0.968   1.687  -2.035  0.00  0.00     0.179 C 
ATOM     15  O   UNL d   1       2.145   1.734  -2.364  0.00  0.00    -0.646 OA
BRANCH  14  16
ATOM     16  O   UNL d   1      -0.014   2.192  -2.806  0.00  0.00    -0.773 OA
ATOM     17  H   UNL d   1      -0.918   2.127  -2.438  0.00  0.00     0.167 HD
ENDBRANCH  14  16
ENDBRANCH   1  14
TORSDOF 7
