REMARK  7 active torsions:
REMARK  status: ('A' for Active; 'I' for Inactive)
REMARK    1  A    between atoms: N_4  and  S_1 
REMARK    2  A    between atoms: C_8  and  S_1 
REMARK    3  A    between atoms: C_6  and  C_2 
REMARK    4  A    between atoms: C_3  and  N_5 
REMARK    5  A    between atoms: C_7  and  N_4 
REMARK    6  A    between atoms: N_5  and  C_9 
REMARK    7  A    between atoms: O_18  and  C_6 
ROOT
ATOM      1  C   UNL d   1       0.807   1.363  -2.388  0.00  0.00     0.064 A 
ATOM      2  C   UNL d   1       2.176   1.677  -2.266  0.00  0.00     0.040 A 
ATOM      3  C   UNL d   1      -0.043   2.182  -3.140  0.00  0.00     0.032 A 
ATOM      4  C   UNL d   1       2.644   2.854  -2.873  0.00  0.00     0.026 A 
ATOM      5  C   UNL d   1       0.450   3.331  -3.758  0.00  0.00     0.002 A 
ATOM      6  C   UNL d   1       1.794   3.667  -3.626  0.00  0.00     0.002 A 
ENDROOT
BRANCH   1   7
ATOM      7  N   UNL d   1       0.228   0.262  -1.691  0.00  0.00    -0.279 N 
ATOM      8  H   UNL d   1      -0.381  -0.366  -2.214  0.00  0.00     0.179 HD
BRANCH   7   9
ATOM      9  S   UNL d   1      -0.205   0.448  -0.075  0.00  0.00     0.263 S 
ATOM     10  O   UNL d   1       0.918   0.985   0.666  0.00  0.00    -0.200 OA
ATOM     11  O   UNL d   1      -0.846  -0.793   0.320  0.00  0.00    -0.200 OA
BRANCH   9  12
ATOM     12  C   UNL d   1      -1.471   1.700  -0.103  0.00  0.00     0.080 A 
ATOM     13  C   UNL d   1      -2.806   1.337  -0.305  0.00  0.00     0.027 A 
ATOM     14  C   UNL d   1      -3.804   2.316  -0.234  0.00  0.00     0.025 A 
ATOM     15  C   UNL d   1      -3.461   3.639   0.048  0.00  0.00     0.034 A 
ATOM     16  C   UNL d   1      -2.130   3.998   0.258  0.00  0.00     0.025 A 
ATOM     17 CL   UNL d   1      -4.693   4.835   0.161  0.00  0.00    -0.084 Cl
ATOM     18  C   UNL d   1      -1.129   3.027   0.188  0.00  0.00     0.027 A 
ENDBRANCH   9  12
ENDBRANCH   7   9
ENDBRANCH   1   7
BRANCH   2  19
ATOM     19  N   UNL d   1       3.088   0.976  -1.426  0.00  0.00    -0.260 NA
ATOM     20  H   UNL d   1       2.936   1.324  -0.472  0.00  0.00     0.133 HD
BRANCH  19  21
ATOM     21  C   UNL d   1       3.277  -0.404  -1.419  0.00  0.00     0.012 C 
ATOM     22  C   UNL d   1       3.362  -1.290  -2.434  0.00  0.00     0.044 C 
ATOM     23  C   UNL d   1       3.543  -2.731  -2.079  0.00  0.00     0.120 C 
ATOM     24  S   UNL d   1       3.402  -2.832  -0.280  0.00  0.00    -0.159 SA
ATOM     25  C   UNL d   1       3.460  -1.041  -0.051  0.00  0.00     0.126 C 
BRANCH  22  26
ATOM     26  C   UNL d   1       3.288  -1.036  -3.885  0.00  0.00     0.291 C 
ATOM     27  O   UNL d   1       2.827  -1.853  -4.672  0.00  0.00    -0.260 OA
BRANCH  26  28
ATOM     28  O   UNL d   1       3.863   0.140  -4.225  0.00  0.00    -0.323 OA
ATOM     29  C   UNL d   1       3.746   0.467  -5.609  0.00  0.00     0.213 C 
ENDBRANCH  26  28
ENDBRANCH  22  26
ENDBRANCH  19  21
ENDBRANCH   2  19
TORSDOF 7
