REMARK  4 active torsions:
REMARK  status: ('A' for Active; 'I' for Inactive)
REMARK       I    between atoms: N_2  and  C_1 
REMARK       I    between atoms: N_3  and  C_1 
REMARK    1  A    between atoms: O_11  and  C_4 
REMARK    2  A    between atoms: O_12  and  C_5 
REMARK    3  A    between atoms: C_13  and  O_11 
REMARK    4  A    between atoms: C_14  and  O_12 
ROOT
ATOM      1  C   UNL d   1       0.742   0.347   0.084  0.00  0.00     0.320 C 
ATOM      2  N   UNL d   1       0.144   0.556  -1.112  0.00  0.00    -0.329 N 
ATOM      3  N   UNL d   1      -0.059   0.166   1.168  0.00  0.00    -0.329 N 
ATOM      4  C   UNL d   1      -0.627   0.515  -3.020  0.00  0.00     0.165 C 
ATOM      5  C   UNL d   1      -1.149   0.078   2.920  0.00  0.00     0.165 C 
ATOM      6  C   UNL d   1       0.752   0.821  -2.400  0.00  0.00     0.161 C 
ATOM      7  C   UNL d   1      -1.476   0.295   1.425  0.00  0.00     0.161 C 
ATOM      8  C   UNL d   1       0.326   0.336   2.558  0.00  0.00     0.161 C 
ATOM      9  C   UNL d   1      -1.213   0.637  -1.600  0.00  0.00     0.161 C 
ATOM     10  O   UNL d   1       1.968   0.350   0.191  0.00  0.00    -0.247 OA
ENDROOT
BRANCH   4  11
ATOM     11  O   UNL d   1      -0.812  -0.786  -3.632  0.00  0.00    -0.343 OA
BRANCH  11  12
ATOM     12  C   UNL d   1      -0.116  -1.056  -4.781  0.00  0.00     0.069 A 
ATOM     13  C   UNL d   1       0.336  -2.368  -4.932  0.00  0.00     0.038 A 
ATOM     14  C   UNL d   1       1.023  -2.741  -6.089  0.00  0.00     0.026 A 
ATOM     15  C   UNL d   1       1.244  -1.799  -7.091  0.00  0.00     0.034 A 
ATOM     16  C   UNL d   1       0.786  -0.490  -6.946  0.00  0.00     0.026 A 
ATOM     17 CL   UNL d   1       2.074  -2.255  -8.527  0.00  0.00    -0.084 Cl
ATOM     18  C   UNL d   1       0.101  -0.117  -5.786  0.00  0.00     0.038 A 
ENDBRANCH  11  12
ENDBRANCH   4  11
BRANCH   5  19
ATOM     19  O   UNL d   1      -1.405  -1.234   3.476  0.00  0.00    -0.343 OA
BRANCH  19  20
ATOM     20  C   UNL d   1      -2.702  -1.639   3.652  0.00  0.00     0.069 A 
ATOM     21  C   UNL d   1      -2.913  -3.018   3.578  0.00  0.00     0.038 A 
ATOM     22  C   UNL d   1      -4.185  -3.549   3.792  0.00  0.00     0.026 A 
ATOM     23  C   UNL d   1      -5.244  -2.694   4.090  0.00  0.00     0.034 A 
ATOM     24  C   UNL d   1      -5.038  -1.316   4.168  0.00  0.00     0.026 A 
ATOM     25 CL   UNL d   1      -6.811  -3.342   4.378  0.00  0.00    -0.084 Cl
ATOM     26  C   UNL d   1      -3.762  -0.786   3.950  0.00  0.00     0.038 A 
ENDBRANCH  19  20
ENDBRANCH   5  19
TORSDOF 4
