REMARK  5 active torsions:
REMARK  status: ('A' for Active; 'I' for Inactive)
REMARK    1  A    between atoms: N_2  and  S_1 
REMARK    2  A    between atoms: C_7  and  S_1 
REMARK    3  A    between atoms: S_6  and  N_2 
REMARK    4  A    between atoms: C_17  and  S_6 
REMARK    5  A    between atoms: S_21  and  C_11 
ROOT
ATOM      1  C   UNL d   1      -0.985  -1.253  -5.208  0.00  0.00     0.141 A 
ATOM      2  N   UNL d   1      -0.865  -0.257  -6.152  0.00  0.00    -0.315 N 
ATOM      3  C   UNL d   1       0.353  -0.855  -1.565  0.00  0.00     0.121 A 
ATOM      4  N   UNL d   1      -1.685  -2.243  -5.734  0.00  0.00    -0.282 N 
ATOM      5  HN  UNL d   1      -1.876  -3.140  -5.288  1.00  0.00     0.188 HD
ATOM      6  C   UNL d   1      -0.444  -1.308  -3.876  0.00  0.00     0.052 A 
ATOM      7  C   UNL d   1      -1.636  -0.661  -7.212  0.00  0.00     0.162 A 
ATOM      8  N   UNL d   1      -2.113  -1.861  -6.984  0.00  0.00    -0.278 N 
ATOM      9  HN  UNL d   1      -2.695  -2.409  -7.617  1.00  0.00     0.189 HD
ATOM     10  S   UNL d   1      -0.407   0.036  -2.812  0.00  0.00    -0.073 SA
ATOM     11  C   UNL d   1       0.495  -2.184  -1.920  0.00  0.00     0.034 A 
ATOM     12  C   UNL d   1       0.029  -2.444  -3.243  0.00  0.00     0.025 A 
ATOM     13  C   UNL d   1      -0.043   0.925  -6.112  0.00  0.00     0.160 C 
ENDROOT
BRANCH   3  14
ATOM     14  S   UNL d   1       0.879   0.038  -0.106  0.00  0.00     0.276 S 
ATOM     15  O   UNL d   1       2.242  -0.423   0.078  0.00  0.00    -0.199 OA
ATOM     16  O   UNL d   1       0.617   1.444  -0.342  0.00  0.00    -0.199 OA
BRANCH  14  17
ATOM     17  N   UNL d   1      -0.015  -0.521   1.211  0.00  0.00    -0.236 N 
ATOM     18  HN  UNL d   1       0.374  -1.271   1.782  1.00  0.00     0.189 HD
BRANCH  17  19
ATOM     19  S   UNL d   1      -1.498   0.094   1.616  0.00  0.00     0.061 S 
ATOM     20  O   UNL d   1      -2.446   0.014   0.529  0.00  0.00    -0.244 OA
ATOM     21  C   UNL d   1      -2.031  -0.887   2.987  0.00  0.00     0.143 C 
BRANCH  19  22
ATOM     22  C   UNL d   1      -1.263   1.736   2.168  0.00  0.00     0.039 A 
ATOM     23  C   UNL d   1      -1.848   2.784   1.454  0.00  0.00     0.023 A 
ATOM     24  C   UNL d   1      -1.657   4.101   1.876  0.00  0.00     0.025 A 
ATOM     25  C   UNL d   1      -0.892   4.361   3.013  0.00  0.00     0.034 A 
ATOM     26  C   UNL d   1      -0.321   3.312   3.736  0.00  0.00     0.025 A 
ATOM     27 CL   UNL d   1      -0.648   5.984   3.526  0.00  0.00    -0.084 Cl
ATOM     28  C   UNL d   1      -0.505   1.992   3.314  0.00  0.00     0.023 A 
ENDBRANCH  19  22
ENDBRANCH  17  19
ENDBRANCH  14  17
ENDBRANCH   3  14
BRANCH   7  29
ATOM     29  S   UNL d   1      -1.906   0.309  -8.621  0.00  0.00    -0.097 SA
ATOM     30  C   UNL d   1      -3.059  -0.730  -9.546  0.00  0.00     0.099 C 
ENDBRANCH   7  29
TORSDOF 5
