REMARK  5 active torsions:
REMARK  status: ('A' for Active; 'I' for Inactive)
REMARK    1  A    between atoms: O_3  and  S_1 
REMARK    2  A    between atoms: C_4  and  S_1 
REMARK    3  A    between atoms: C_2  and  O_13 
REMARK    4  A    between atoms: C_16  and  O_3 
REMARK    5  A    between atoms: O_13  and  C_17 
ROOT
ATOM      1  C   UNL d   1       0.124   3.584  -5.350  0.00  0.00     0.117 A 
ATOM      2  N   UNL d   1       3.042   1.698  -4.505  0.00  0.00    -0.191 NA
ATOM      3  N   UNL d   1      -3.158   4.501  -6.326  0.00  0.00    -0.191 NA
ATOM      4  C   UNL d   1       1.529   3.662  -5.278  0.00  0.00     0.080 A 
ATOM      5  C   UNL d   1      -0.600   4.647  -5.916  0.00  0.00     0.080 A 
ATOM      6  C   UNL d   1       2.351   2.562  -4.854  0.00  0.00     0.102 C 
ATOM      7  C   UNL d   1      -2.016   4.554  -6.127  0.00  0.00     0.102 C 
ATOM      8  C   UNL d   1       0.065   5.819  -6.305  0.00  0.00     0.026 A 
ATOM      9  C   UNL d   1       2.175   4.850  -5.653  0.00  0.00     0.026 A 
ATOM     10  C   UNL d   1       1.446   5.929  -6.151  0.00  0.00     0.003 A 
ENDROOT
BRANCH   1  11
ATOM     11  O   UNL d   1      -0.608   2.482  -4.950  0.00  0.00    -0.308 OA
BRANCH  11  12
ATOM     12  C   UNL d   1      -0.365   1.944  -3.704  0.00  0.00     0.076 A 
ATOM     13  C   UNL d   1       0.030   2.692  -2.588  0.00  0.00     0.039 A 
ATOM     14  C   UNL d   1       0.411   2.038  -1.414  0.00  0.00     0.028 A 
ATOM     15  C   UNL d   1       0.351   0.642  -1.355  0.00  0.00     0.087 A 
ATOM     16  C   UNL d   1      -0.151  -0.099  -2.429  0.00  0.00     0.028 A 
ATOM     17  C   UNL d   1      -0.511   0.558  -3.605  0.00  0.00     0.039 A 
BRANCH  15  18
ATOM     18  S   UNL d   1       0.933  -0.218   0.095  0.00  0.00     0.303 S 
ATOM     19  O   UNL d   1       0.987   0.752   1.173  0.00  0.00    -0.193 OA
ATOM     20  O   UNL d   1       0.123  -1.416   0.213  0.00  0.00    -0.193 OA
BRANCH  18  21
ATOM     21  O   UNL d   1       2.455  -0.626  -0.332  0.00  0.00    -0.229 OA
BRANCH  21  22
ATOM     22  C   UNL d   1       3.310  -1.265   0.529  0.00  0.00     0.089 A 
ATOM     23  C   UNL d   1       2.910  -2.130   1.548  0.00  0.00     0.040 A 
ATOM     24  C   UNL d   1       3.870  -2.767   2.342  0.00  0.00     0.026 A 
ATOM     25  C   UNL d   1       5.225  -2.542   2.113  0.00  0.00     0.034 A 
ATOM     26  C   UNL d   1       5.633  -1.688   1.091  0.00  0.00     0.026 A 
ATOM     27 CL   UNL d   1       6.400  -3.332   3.089  0.00  0.00    -0.084 Cl
ATOM     28  C   UNL d   1       4.672  -1.055   0.295  0.00  0.00     0.040 A 
ENDBRANCH  21  22
ENDBRANCH  18  21
ENDBRANCH  15  18
ENDBRANCH  11  12
ENDBRANCH   1  11
TORSDOF 5
