REMARK  4 active torsions:
REMARK  status: ('A' for Active; 'I' for Inactive)
REMARK    1  A    between atoms: C_4  and  C_1 
REMARK       I    between atoms: N_9  and  C_4 
REMARK    2  A    between atoms: C_11  and  C_5 
REMARK    3  A    between atoms: C_6  and  C_11 
REMARK    4  A    between atoms: C_10  and  N_9 
ROOT
ATOM      1  C   UNL d   1       1.193   0.819  -0.113  0.00  0.00     0.108 A 
ATOM      2  N   UNL d   1       1.364  -0.524   0.237  0.00  0.00    -0.349 N 
ATOM      3  HN  UNL d   1       2.210  -0.922   0.645  1.00  0.00     0.166 HD
ATOM      4  C   UNL d   1       0.261  -1.199  -0.042  0.00  0.00     0.055 A 
ATOM      5  C   UNL d   1      -0.059   1.128  -0.614  0.00  0.00     0.086 A 
ATOM      6  S   UNL d   1      -1.036  -0.261  -0.683  0.00  0.00    -0.086 SA
ENDROOT
BRANCH   1   7
ATOM      7  C   UNL d   1       2.244   1.836   0.006  0.00  0.00     0.273 C 
ATOM      8  N   UNL d   1       3.372   1.418   0.689  0.00  0.00    -0.322 N 
ATOM      9  H   UNL d   1       3.378   0.435   0.947  0.00  0.00     0.169 HD
ATOM     10  O   UNL d   1       2.087   2.943  -0.502  0.00  0.00    -0.266 OA
BRANCH   8  11
ATOM     11  C   UNL d   1       4.531   2.197   0.923  0.00  0.00     0.038 A 
ATOM     12  C   UNL d   1       4.582   3.578   0.697  0.00  0.00     0.053 A 
ATOM     13  C   UNL d   1       5.777   4.284   0.849  0.00  0.00     0.037 A 
ATOM     14 CL   UNL d   1       5.816   5.973   0.519  0.00  0.00    -0.084 Cl
ATOM     15  C   UNL d   1       6.935   3.630   1.249  0.00  0.00     0.048 A 
ATOM     16  C   UNL d   1       6.878   2.270   1.527  0.00  0.00     0.037 A 
ATOM     17  C   UNL d   1       5.685   1.551   1.380  0.00  0.00     0.053 A 
ATOM     18 CL   UNL d   1       8.308   1.453   2.032  0.00  0.00    -0.084 Cl
ENDBRANCH   8  11
ENDBRANCH   1   7
BRANCH   4  19
ATOM     19  C   UNL d   1       0.087  -2.689   0.087  0.00  0.00     0.107 C 
BRANCH  19  20
ATOM     20  C   UNL d   1      -0.222  -3.153   1.496  0.00  0.00    -0.009 A 
ATOM     21  C   UNL d   1      -1.547  -3.249   1.969  0.00  0.00     0.042 A 
ATOM     22 CL   UNL d   1      -2.917  -2.859   0.987  0.00  0.00    -0.084 Cl
ATOM     23  C   UNL d   1      -1.825  -3.691   3.268  0.00  0.00     0.024 A 
ATOM     24  C   UNL d   1      -0.790  -4.053   4.123  0.00  0.00     0.003 A 
ATOM     25  C   UNL d   1       0.526  -3.960   3.682  0.00  0.00     0.024 A 
ATOM     26  C   UNL d   1       0.810  -3.506   2.388  0.00  0.00     0.042 A 
ATOM     27 CL   UNL d   1       2.482  -3.418   1.948  0.00  0.00    -0.084 Cl
ENDBRANCH  19  20
ENDBRANCH   4  19
TORSDOF 4
