REMARK  7 active torsions:
REMARK  status: ('A' for Active; 'I' for Inactive)
REMARK    1  A    between atoms: C_12  and  C_1 
REMARK    2  A    between atoms: C_16  and  C_2 
REMARK    3  A    between atoms: C_6  and  S_18 
REMARK    4  A    between atoms: O_22  and  C_12 
REMARK    5  A    between atoms: C_19  and  C_16 
REMARK    6  A    between atoms: S_18  and  C_19 
REMARK    7  A    between atoms: C_27  and  O_22 
ROOT
ATOM      1  C   UNL d   1      -2.139  -2.483  -4.396  0.00  0.00     0.084 A 
ATOM      2  C   UNL d   1      -1.413  -3.165  -3.415  0.00  0.00     0.091 A 
ATOM      3  N   UNL d   1      -0.138  -3.570  -3.606  0.00  0.00    -0.353 N 
ATOM      4  HN  UNL d   1       0.361  -4.069  -2.869  1.00  0.00     0.166 HD
ATOM      5  C   UNL d   1      -1.510  -2.204  -5.630  0.00  0.00    -0.031 A 
ATOM      6  C   UNL d   1      -0.178  -2.646  -5.844  0.00  0.00    -0.032 A 
ATOM      7  C   UNL d   1       0.471  -3.306  -4.790  0.00  0.00     0.012 A 
ATOM      8  C   UNL d   1      -3.492  -2.075  -4.146  0.00  0.00     0.103 C 
ATOM      9  N   UNL d   1      -4.590  -1.733  -3.987  0.00  0.00    -0.191 NA
ATOM     10  C   UNL d   1      -2.235  -1.456  -6.730  0.00  0.00     0.050 C 
ATOM     11  C   UNL d   1       0.481  -2.398  -7.177  0.00  0.00     0.050 C 
ATOM     12  C   UNL d   1       1.925  -3.679  -4.809  0.00  0.00     0.068 C 
ENDROOT
BRANCH   2  13
ATOM     13  S   UNL d   1      -2.130  -3.591  -1.827  0.00  0.00    -0.103 SA
BRANCH  13  14
ATOM     14  C   UNL d   1      -0.633  -3.821  -0.795  0.00  0.00     0.164 C 
BRANCH  14  15
ATOM     15  C   UNL d   1       0.197  -2.561  -0.619  0.00  0.00     0.174 C 
ATOM     16  O   UNL d   1      -0.136  -1.506  -1.173  0.00  0.00    -0.291 OA
BRANCH  15  17
ATOM     17  C   UNL d   1       1.386  -2.548   0.251  0.00  0.00     0.076 A 
ATOM     18  C   UNL d   1       1.979  -3.502   1.155  0.00  0.00     0.146 A 
ATOM     19  N   UNL d   1       3.041  -2.958   1.780  0.00  0.00    -0.254 N 
ATOM     20  O   UNL d   1       3.183  -1.694   1.295  0.00  0.00    -0.241 OA
ATOM     21  HN  UNL d   1       3.629  -3.408   2.482  1.00  0.00     0.195 HD
ATOM     22  C   UNL d   1       2.226  -1.448   0.373  0.00  0.00     0.089 A 
ATOM     23  C   UNL d   1       2.327  -0.107  -0.241  0.00  0.00     0.080 C 
BRANCH  18  24
ATOM     24  C   UNL d   1       1.603  -4.870   1.519  0.00  0.00     0.312 C 
ATOM     25  O   UNL d   1       0.647  -5.462   1.033  0.00  0.00    -0.258 OA
BRANCH  24  26
ATOM     26  O   UNL d   1       2.389  -5.389   2.506  0.00  0.00    -0.317 OA
BRANCH  26  27
ATOM     27  C   UNL d   1       1.866  -6.525   3.206  0.00  0.00     0.175 C 
ATOM     28  C   UNL d   1       0.927  -6.024   4.289  0.00  0.00     0.034 C 
ENDBRANCH  26  27
ENDBRANCH  24  26
ENDBRANCH  18  24
ENDBRANCH  15  17
ENDBRANCH  14  15
ENDBRANCH  13  14
ENDBRANCH   2  13
TORSDOF 7
