REMARK  7 active torsions:
REMARK  status: ('A' for Active; 'I' for Inactive)
REMARK    1  A    between atoms: N_2  and  C_1 
REMARK    2  A    between atoms: N_3  and  C_6 
REMARK    3  A    between atoms: C_5  and  C_7 
REMARK       I    between atoms: C_7  and  N_10 
REMARK    4  A    between atoms: O_12  and  C_8 
REMARK    5  A    between atoms: S_21  and  C_9 
REMARK    6  A    between atoms: N_10  and  O_12 
REMARK    7  A    between atoms: C_24  and  S_21 
ROOT
ATOM      1  C   UNL d   1       4.137   3.223  -0.772  0.00  0.00     0.278 C 
ATOM      2  N   UNL d   1       3.263   2.146  -0.811  0.00  0.00    -0.224 N 
ATOM      3  O   UNL d   1       5.319   3.098  -0.486  0.00  0.00    -0.265 OA
ATOM      4  H   UNL d   1       2.490   2.143  -1.467  0.00  0.00     0.198 HD
ENDROOT
BRANCH   2   5
ATOM      5  O   UNL d   1       3.784   0.856  -0.541  0.00  0.00    -0.233 OA
BRANCH   5   6
ATOM      6  C   UNL d   1       4.396   0.762   0.696  0.00  0.00     0.132 A 
ATOM      7  C   UNL d   1       5.534  -0.048   0.843  0.00  0.00     0.141 A 
ATOM      8  C   UNL d   1       6.288  -0.001   2.033  0.00  0.00     0.075 A 
ATOM      9  C   UNL d   1       5.901   0.872   3.059  0.00  0.00     0.105 A 
ATOM     10  C   UNL d   1       4.739   1.638   2.943  0.00  0.00     0.039 A 
ATOM     11  C   UNL d   1       3.969   1.551   1.782  0.00  0.00     0.044 A 
BRANCH   7  12
ATOM     12  N   UNL d   1       5.998  -0.940  -0.234  0.00  0.00    -0.113 N 
ATOM     13  O   UNL d   1       7.052  -1.562  -0.038  0.00  0.00    -0.532 OA
ATOM     14  O   UNL d   1       5.307  -1.067  -1.255  0.00  0.00    -0.532 OA
ENDBRANCH   7  12
BRANCH   9  15
ATOM     15  N   UNL d   1       6.732   0.993   4.267  0.00  0.00    -0.116 N 
ATOM     16  O   UNL d   1       7.695   0.229   4.378  0.00  0.00    -0.532 OA
ATOM     17  O   UNL d   1       6.407   1.852   5.100  0.00  0.00    -0.532 OA
ENDBRANCH   9  15
ENDBRANCH   5   6
ENDBRANCH   2   5
BRANCH   1  18
ATOM     18  C   UNL d   1       3.527   4.567  -0.968  0.00  0.00     0.067 A 
ATOM     19  C   UNL d   1       4.292   5.719  -1.213  0.00  0.00     0.085 A 
ATOM     20  N   UNL d   1       3.722   6.953  -1.316  0.00  0.00    -0.360 N 
ATOM     21  C   UNL d   1       2.386   7.062  -1.168  0.00  0.00     0.089 A 
ATOM     22  HN  UNL d   1       4.294   7.777  -1.501  1.00  0.00     0.166 HD
ATOM     23  C   UNL d   1       1.558   5.993  -0.908  0.00  0.00     0.018 A 
ATOM     24  C   UNL d   1       2.138   4.733  -0.795  0.00  0.00     0.021 A 
BRANCH  19  25
ATOM     25  S   UNL d   1       6.054   5.716  -1.523  0.00  0.00    -0.112 SA
BRANCH  25  26
ATOM     26  C   UNL d   1       6.541   7.287  -0.745  0.00  0.00     0.076 C 
ATOM     27  C   UNL d   1       8.054   7.422  -0.787  0.00  0.00     0.016 C 
ENDBRANCH  25  26
ENDBRANCH  19  25
ENDBRANCH   1  18
TORSDOF 7
