REMARK  4 active torsions:
REMARK  status: ('A' for Active; 'I' for Inactive)
REMARK    1  A    between atoms: C_8  and  C_1 
REMARK    2  A    between atoms: C_9  and  C_7 
REMARK    3  A    between atoms: N_17  and  C_10 
REMARK    4  A    between atoms: C_11  and  C_12 
ROOT
ATOM      1  C   UNL d   1       0.192  -0.944   0.662  0.00  0.00     0.176 A 
ATOM      2  O   UNL d   1      -0.507   0.190   0.990  0.00  0.00    -0.273 OA
ATOM      3  N   UNL d   1       0.880  -0.810  -0.456  0.00  0.00    -0.277 N 
ATOM      4  HN  UNL d   1       1.467  -1.516  -0.900  1.00  0.00     0.189 HD
ATOM      5  N   UNL d   1       0.647   0.471  -0.907  0.00  0.00    -0.277 N 
ATOM      6  HN  UNL d   1       1.022   0.897  -1.755  1.00  0.00     0.189 HD
ATOM      7  C   UNL d   1      -0.155   1.040  -0.028  0.00  0.00     0.174 A 
ENDROOT
BRANCH   7   8
ATOM      8  C   UNL d   1      -0.660   2.405   0.025  0.00  0.00     0.017 A 
ATOM      9  C   UNL d   1      -1.490   2.860   1.055  0.00  0.00     0.016 A 
ATOM     10  C   UNL d   1      -1.924   4.193   1.089  0.00  0.00     0.009 A 
ATOM     11  C   UNL d   1      -1.548   5.116   0.094  0.00  0.00    -0.051 A 
ATOM     12  C   UNL d   1      -0.725   4.644  -0.939  0.00  0.00     0.009 A 
ATOM     13  C   UNL d   1      -0.289   3.312  -0.972  0.00  0.00     0.016 A 
BRANCH  11  14
ATOM     14  C   UNL d   1      -2.033   6.576   0.160  0.00  0.00    -0.024 C 
ATOM     15  C   UNL d   1      -1.525   7.452  -1.009  0.00  0.00     0.019 C 
ATOM     16  C   UNL d   1      -3.576   6.614   0.121  0.00  0.00     0.019 C 
ATOM     17  C   UNL d   1      -1.543   7.235   1.467  0.00  0.00     0.019 C 
ENDBRANCH  11  14
ENDBRANCH   7   8
BRANCH   1  18
ATOM     18  C   UNL d   1       0.108  -2.072   1.582  0.00  0.00     0.038 A 
ATOM     19  C   UNL d   1       1.155  -3.018   1.673  0.00  0.00     0.020 A 
ATOM     20  C   UNL d   1       1.056  -4.045   2.624  0.00  0.00     0.024 A 
ATOM     21  C   UNL d   1      -0.090  -4.199   3.405  0.00  0.00     0.002 A 
ATOM     22  C   UNL d   1      -1.143  -3.302   3.276  0.00  0.00     0.001 A 
ATOM     23  C   UNL d   1      -1.042  -2.241   2.377  0.00  0.00     0.017 A 
BRANCH  19  24
ATOM     24  N   UNL d   1       2.394  -2.834   1.027  0.00  0.00    -0.302 NA
ATOM     25  H   UNL d   1       2.329  -2.271   0.176  0.00  0.00     0.124 HD
ATOM     26  H   UNL d   1       2.915  -3.692   0.874  0.00  0.00     0.124 HD
ENDBRANCH  19  24
ENDBRANCH   1  18
TORSDOF 4
