REMARK  4 active torsions:
REMARK  status: ('A' for Active; 'I' for Inactive)
REMARK    1  A    between atoms: C_2  and  N_1 
REMARK    2  A    between atoms: C_3  and  C_4 
REMARK    3  A    between atoms: C_4  and  S_7 
REMARK    4  A    between atoms: S_7  and  C_6 
ROOT
ATOM      1  C   UNL d   1      -1.120  -0.459  -1.418  0.00  0.00     0.121 A 
ATOM      2  C   UNL d   1      -0.558  -1.060  -2.556  0.00  0.00     0.061 A 
ATOM      3  C   UNL d   1      -0.779   0.839  -1.008  0.00  0.00     0.034 A 
ATOM      4  C   UNL d   1       0.148   1.540  -1.794  0.00  0.00     0.023 A 
ATOM      5  C   UNL d   1       0.360  -0.340  -3.309  0.00  0.00     0.036 A 
ATOM      6  C   UNL d   1       0.714   0.955  -2.936  0.00  0.00     0.025 A 
ATOM      7 CL   UNL d   1       1.052  -1.046  -4.716  0.00  0.00    -0.084 Cl
ENDROOT
BRANCH   3   8
ATOM      8  S   UNL d   1      -1.537   1.718   0.353  0.00  0.00    -0.123 SA
BRANCH   8   9
ATOM      9  C   UNL d   1      -0.293   1.431   1.667  0.00  0.00     0.123 C 
BRANCH   9  10
ATOM     10  C   UNL d   1      -0.620   2.213   2.914  0.00  0.00     0.012 A 
ATOM     11  C   UNL d   1      -0.040   3.475   3.101  0.00  0.00     0.125 A 
ATOM     12  F   UNL d   1       0.814   3.957   2.186  0.00  0.00    -0.205 F 
ATOM     13  C   UNL d   1      -0.317   4.259   4.221  0.00  0.00     0.043 A 
ATOM     14  C   UNL d   1      -1.196   3.790   5.191  0.00  0.00     0.005 A 
ATOM     15  C   UNL d   1      -1.789   2.539   5.031  0.00  0.00     0.024 A 
ATOM     16  C   UNL d   1      -1.505   1.757   3.903  0.00  0.00     0.044 A 
ATOM     17 CL   UNL d   1      -2.281   0.218   3.792  0.00  0.00    -0.084 Cl
ENDBRANCH   9  10
ENDBRANCH   8   9
ENDBRANCH   3   8
BRANCH   1  18
ATOM     18  N   UNL d   1      -2.086  -1.245  -0.681  0.00  0.00    -0.114 N 
ATOM     19  O   UNL d   1      -3.112  -1.581  -1.284  0.00  0.00    -0.532 OA
ATOM     20  O   UNL d   1      -1.774  -1.586   0.468  0.00  0.00    -0.532 OA
ENDBRANCH   1  18
TORSDOF 4
