REMARK  2 active torsions:
REMARK  status: ('A' for Active; 'I' for Inactive)
REMARK    1  A    between atoms: C_2  and  C_1 
REMARK       I    between atoms: N_3  and  C_2 
REMARK    2  A    between atoms: C_7  and  N_3 
ROOT
ATOM      1  C   UNL d   1      -1.408   2.072  -0.197  0.00  0.00     0.281 C 
ATOM      2  N   UNL d   1      -0.711   3.255   0.008  0.00  0.00    -0.321 N 
ATOM      3  O   UNL d   1      -0.887   0.989  -0.446  0.00  0.00    -0.265 OA
ATOM      4  H   UNL d   1      -1.270   4.053   0.294  0.00  0.00     0.169 HD
ENDROOT
BRANCH   2   5
ATOM      5  C   UNL d   1       0.690   3.434  -0.036  0.00  0.00     0.038 A 
ATOM      6  C   UNL d   1       1.581   2.467  -0.511  0.00  0.00     0.053 A 
ATOM      7  C   UNL d   1       2.958   2.700  -0.487  0.00  0.00     0.037 A 
ATOM      8 CL   UNL d   1       4.037   1.492  -1.071  0.00  0.00    -0.084 Cl
ATOM      9  C   UNL d   1       3.469   3.896   0.004  0.00  0.00     0.048 A 
ATOM     10  C   UNL d   1       2.584   4.869   0.457  0.00  0.00     0.037 A 
ATOM     11  C   UNL d   1       1.203   4.651   0.430  0.00  0.00     0.053 A 
ATOM     12 CL   UNL d   1       3.200   6.354   1.071  0.00  0.00    -0.084 Cl
ENDBRANCH   2   5
BRANCH   1  13
ATOM     13  C   UNL d   1      -2.841   2.190  -0.058  0.00  0.00     0.167 A 
ATOM     14  O   UNL d   1      -3.411   3.414   0.134  0.00  0.00    -0.233 OA
ATOM     15  N   UNL d   1      -4.787   3.272   0.232  0.00  0.00    -0.272 N 
ATOM     16  C   UNL d   1      -5.018   1.963   0.100  0.00  0.00     0.117 A 
ATOM     17  HN  UNL d   1      -5.476   4.010   0.374  1.00  0.00     0.194 HD
ATOM     18  C   UNL d   1      -3.833   1.236  -0.083  0.00  0.00     0.064 A 
ENDBRANCH   1  13
TORSDOF 2
