REMARK  3 active torsions:
REMARK  status: ('A' for Active; 'I' for Inactive)
REMARK    1  A    between atoms: C_11  and  C_1 
REMARK    2  A    between atoms: C_3  and  C_2 
REMARK    3  A    between atoms: O_15  and  C_11 
ROOT
ATOM      1  C   UNL d   1      -0.101  -1.160   0.273  0.00  0.00     0.130 A 
ATOM      2  C   UNL d   1      -0.772   0.913  -0.103  0.00  0.00     0.128 A 
ATOM      3  C   UNL d   1      -1.046  -0.187   0.674  0.00  0.00     0.080 A 
ATOM      4  N   UNL d   1       0.709  -0.679  -0.687  0.00  0.00    -0.254 N 
ATOM      5  HN  UNL d   1       1.480  -1.165  -1.145  1.00  0.00     0.195 HD
ATOM      6  O   UNL d   1       0.277   0.617  -0.923  0.00  0.00    -0.235 OA
ENDROOT
BRANCH   2   7
ATOM      7  C   UNL d   1      -1.485   2.216  -0.062  0.00  0.00     0.075 A 
ATOM      8  N   UNL d   1      -2.496   2.464   0.851  0.00  0.00    -0.352 N 
ATOM      9  C   UNL d   1      -2.935   3.696   0.702  0.00  0.00     0.047 A 
ATOM     10  HN  UNL d   1      -2.847   1.793   1.534  1.00  0.00     0.166 HD
ATOM     11  C   UNL d   1      -3.986   4.325   1.547  0.00  0.00     0.076 C 
ATOM     12  S   UNL d   1      -2.200   4.596  -0.567  0.00  0.00    -0.087 SA
ATOM     13  C   UNL d   1      -1.187   3.259  -0.913  0.00  0.00     0.084 A 
ENDBRANCH   2   7
BRANCH   1  14
ATOM     14  C   UNL d   1       0.056  -2.522   0.766  0.00  0.00     0.195 C 
ATOM     15  O   UNL d   1      -0.666  -3.033   1.610  0.00  0.00    -0.645 OA
BRANCH  14  16
ATOM     16  O   UNL d   1       1.097  -3.191   0.195  0.00  0.00    -0.772 OA
ATOM     17  H   UNL d   1       1.539  -2.597  -0.451  0.00  0.00     0.167 HD
ENDBRANCH  14  16
ENDBRANCH   1  14
TORSDOF 3
