REMARK  5 active torsions:
REMARK  status: ('A' for Active; 'I' for Inactive)
REMARK    1  A    between atoms: N_17  and  C_2 
REMARK    2  A    between atoms: C_15  and  C_6 
REMARK    3  A    between atoms: C_18  and  C_12 
REMARK    4  A    between atoms: O_29  and  C_21 
REMARK    5  A    between atoms: O_30  and  C_22 
ROOT
ATOM      1  N   UNL d   1       2.523  -0.822  -1.007  0.00  0.00    -0.184 NA
ATOM      2  C   UNL d   1       1.239  -0.259  -0.990  0.00  0.00     0.085 C 
ATOM      3  C   UNL d   1       1.109   1.027  -0.566  0.00  0.00     0.089 C 
ATOM      4  C   UNL d   1       3.514  -0.345  -0.050  0.00  0.00     0.184 C 
ATOM      5  C   UNL d   1       3.409   1.140   0.205  0.00  0.00     0.064 C 
ATOM      6  C   UNL d   1       2.277   1.810  -0.128  0.00  0.00     0.017 C 
ATOM      7  C   UNL d   1       2.639  -2.215  -1.049  0.00  0.00     0.246 C 
ATOM      8  C   UNL d   1       2.490  -2.707   0.371  0.00  0.00     0.066 C 
ATOM      9  S   UNL d   1       3.288  -1.478   1.384  0.00  0.00    -0.098 SA
ATOM     10  C   UNL d   1      -0.185   1.621  -0.463  0.00  0.00     0.103 C 
ATOM     11  C   UNL d   1       4.599   1.815   0.618  0.00  0.00     0.098 C 
ATOM     12  C   UNL d   1       2.582  -4.028   0.594  0.00  0.00     0.035 C 
ATOM     13  N   UNL d   1       5.582   2.332   0.935  0.00  0.00    -0.192 NA
ATOM     14  N   UNL d   1      -1.264   2.037  -0.361  0.00  0.00    -0.191 NA
ATOM     15  O   UNL d   1       2.948  -2.891  -2.015  0.00  0.00    -0.273 OA
ENDROOT
BRANCH   2  16
ATOM     16  N   UNL d   1       0.146  -1.034  -1.360  0.00  0.00    -0.291 NA
ATOM     17  H   UNL d   1       0.135  -1.931  -0.885  0.00  0.00     0.125 HD
ATOM     18  H   UNL d   1      -0.764  -0.593  -1.238  0.00  0.00     0.125 HD
ENDBRANCH   2  16
BRANCH   6  19
ATOM     19  C   UNL d   1       2.175   3.293  -0.100  0.00  0.00    -0.023 A 
ATOM     20  C   UNL d   1       2.275   4.010  -1.302  0.00  0.00     0.015 A 
ATOM     21  C   UNL d   1       1.953   5.374  -1.354  0.00  0.00     0.037 A 
ATOM     22  C   UNL d   1       1.528   6.035  -0.204  0.00  0.00     0.068 A 
ATOM     23  C   UNL d   1       1.460   5.329   1.002  0.00  0.00     0.037 A 
ATOM     24  C   UNL d   1       1.781   3.967   1.060  0.00  0.00     0.015 A 
BRANCH  22  25
ATOM     25  O   UNL d   1       1.144   7.345  -0.121  0.00  0.00    -0.356 OA
ATOM     26  C   UNL d   1       1.120   8.095  -1.329  0.00  0.00     0.210 C 
ENDBRANCH  22  25
ENDBRANCH   6  19
BRANCH  12  27
ATOM     27  C   UNL d   1       1.500  -5.014   0.318  0.00  0.00    -0.035 A 
ATOM     28  C   UNL d   1       0.463  -4.858  -0.614  0.00  0.00     0.014 A 
ATOM     29  C   UNL d   1      -0.533  -5.843  -0.776  0.00  0.00     0.037 A 
ATOM     30  C   UNL d   1      -0.494  -7.013  -0.019  0.00  0.00     0.068 A 
ATOM     31  C   UNL d   1       0.549  -7.190   0.887  0.00  0.00     0.037 A 
ATOM     32  C   UNL d   1       1.526  -6.202   1.062  0.00  0.00     0.014 A 
BRANCH  30  33
ATOM     33  O   UNL d   1      -1.364  -8.061  -0.106  0.00  0.00    -0.356 OA
ATOM     34  C   UNL d   1      -2.671  -7.778  -0.594  0.00  0.00     0.210 C 
ENDBRANCH  30  33
ENDBRANCH  12  27
TORSDOF 5
