REMARK  6 active torsions:
REMARK  status: ('A' for Active; 'I' for Inactive)
REMARK    1  A    between atoms: N_8  and  S_1 
REMARK    2  A    between atoms: C_10  and  S_1 
REMARK    3  A    between atoms: C_7  and  C_2 
REMARK    4  A    between atoms: C_4  and  C_13 
REMARK    5  A    between atoms: C_9  and  C_5 
REMARK    6  A    between atoms: O_22  and  C_9 
ROOT
ATOM      1  C   UNL d   1       0.563  -0.393  -1.795  0.00  0.00     0.079 A 
ATOM      2  C   UNL d   1      -0.384  -1.357  -4.280  0.00  0.00    -0.025 A 
ATOM      3  C   UNL d   1       0.577  -1.762  -2.072  0.00  0.00     0.026 A 
ATOM      4  C   UNL d   1       0.049   0.498  -2.738  0.00  0.00     0.026 A 
ATOM      5  C   UNL d   1       0.097  -2.238  -3.302  0.00  0.00     0.014 A 
ATOM      6  C   UNL d   1      -0.404   0.017  -3.975  0.00  0.00     0.014 A 
ENDROOT
BRANCH   2   7
ATOM      7  C   UNL d   1      -0.947  -1.823  -5.560  0.00  0.00    -0.002 A 
ATOM      8  C   UNL d   1      -0.400  -2.818  -6.366  0.00  0.00     0.100 A 
ATOM      9  S   UNL d   1      -1.327  -3.041  -7.803  0.00  0.00    -0.079 SA
ATOM     10  C   UNL d   1      -2.454  -1.834  -7.387  0.00  0.00     0.081 A 
ATOM     11  C   UNL d   1      -2.136  -1.275  -6.165  0.00  0.00     0.038 A 
BRANCH   8  12
ATOM     12  C   UNL d   1       0.823  -3.669  -6.188  0.00  0.00     0.424 C 
ATOM     13  F   UNL d   1       1.126  -4.423  -7.279  0.00  0.00    -0.166 F 
ATOM     14  F   UNL d   1       1.927  -2.922  -5.924  0.00  0.00    -0.166 F 
ATOM     15  F   UNL d   1       0.685  -4.546  -5.159  0.00  0.00    -0.166 F 
ENDBRANCH   8  12
BRANCH  10  16
ATOM     16  C   UNL d   1      -3.560  -1.534  -8.283  0.00  0.00     0.299 C 
ATOM     17  O   UNL d   1      -3.780  -2.057  -9.370  0.00  0.00    -0.259 OA
BRANCH  16  18
ATOM     18  O   UNL d   1      -4.343  -0.565  -7.728  0.00  0.00    -0.322 OA
ATOM     19  C   UNL d   1      -5.490  -0.218  -8.507  0.00  0.00     0.213 C 
ENDBRANCH  16  18
ENDBRANCH  10  16
ENDBRANCH   2   7
BRANCH   1  20
ATOM     20  S   UNL d   1       1.014   0.187  -0.163  0.00  0.00     0.260 S 
ATOM     21  O   UNL d   1       0.280   1.417   0.068  0.00  0.00    -0.200 OA
ATOM     22  O   UNL d   1       0.884  -0.935   0.738  0.00  0.00    -0.200 OA
BRANCH  20  23
ATOM     23  N   UNL d   1       2.659   0.575  -0.273  0.00  0.00    -0.307 N 
ATOM     24  C   UNL d   1       3.068   1.736  -1.081  0.00  0.00     0.135 C 
ATOM     25  C   UNL d   1       3.756   1.105  -2.275  0.00  0.00     0.022 C 
ATOM     26  C   UNL d   1       4.521  -0.045  -1.645  0.00  0.00     0.022 C 
ATOM     27  C   UNL d   1       3.634  -0.519  -0.495  0.00  0.00     0.135 C 
ENDBRANCH  20  23
ENDBRANCH   1  20
TORSDOF 6
