REMARK  3 active torsions:
REMARK  status: ('A' for Active; 'I' for Inactive)
REMARK    1  A    between atoms: C_9  and  C_2 
REMARK    2  A    between atoms: C_13  and  C_7 
REMARK    3  A    between atoms: C_8  and  C_12 
ROOT
ATOM      1  O   UNL d   1      -0.613   0.061   0.775  0.00  0.00    -0.277 OA
ATOM      2  C   UNL d   1       0.032  -1.065   0.313  0.00  0.00     0.144 A 
ATOM      3  N   UNL d   1       0.676  -0.849  -0.815  0.00  0.00    -0.281 N 
ATOM      4  HN  UNL d   1       1.221  -1.531  -1.344  1.00  0.00     0.189 HD
ATOM      5  N   UNL d   1       0.473   0.464  -1.142  0.00  0.00    -0.277 N 
ATOM      6  HN  UNL d   1       0.837   0.950  -1.962  1.00  0.00     0.189 HD
ATOM      7  C   UNL d   1      -0.281   0.982  -0.192  0.00  0.00     0.174 A 
ENDROOT
BRANCH   7   8
ATOM      8  C   UNL d   1      -0.748   2.360  -0.068  0.00  0.00     0.017 A 
ATOM      9  C   UNL d   1      -0.358   3.283  -1.053  0.00  0.00     0.017 A 
ATOM     10  C   UNL d   1      -0.748   4.623  -0.995  0.00  0.00     0.017 A 
ATOM     11  C   UNL d   1      -1.546   5.081   0.058  0.00  0.00     0.048 A 
ATOM     12  C   UNL d   1      -1.950   4.163   1.043  0.00  0.00     0.017 A 
ATOM     13  C   UNL d   1      -1.555   2.815   0.982  0.00  0.00     0.017 A 
BRANCH  11  14
ATOM     14  C   UNL d   1      -1.961   6.532   0.135  0.00  0.00     0.417 C 
ATOM     15  F   UNL d   1      -1.475   7.293  -0.887  0.00  0.00    -0.166 F 
ATOM     16  F   UNL d   1      -3.312   6.692   0.107  0.00  0.00    -0.166 F 
ATOM     17  F   UNL d   1      -1.536   7.136   1.280  0.00  0.00    -0.166 F 
ENDBRANCH  11  14
ENDBRANCH   7   8
BRANCH   2  18
ATOM     18  C   UNL d   1       0.054  -2.429   0.980  0.00  0.00     0.062 A 
ATOM     19  C   UNL d   1      -1.179  -2.939   1.692  0.00  0.00     0.013 A 
ATOM     20  C   UNL d   1       0.010  -2.522   2.489  0.00  0.00     0.013 A 
ENDBRANCH   2  18
TORSDOF 3
