REMARK  4 active torsions:
REMARK  status: ('A' for Active; 'I' for Inactive)
REMARK    1  A    between atoms: S_3  and  C_1 
REMARK    2  A    between atoms: C_4  and  C_1 
REMARK    3  A    between atoms: N_5  and  C_2 
REMARK    4  A    between atoms: C_7  and  S_3 
ROOT
ATOM      1  C   UNL d   1       1.206  -0.001  -0.037  0.00  0.00     0.066 C 
ATOM      2  C   UNL d   1       0.646   0.520   1.072  0.00  0.00     0.107 C 
ENDROOT
BRANCH   1   3
ATOM      3  S   UNL d   1       0.175  -0.655  -1.284  0.00  0.00    -0.086 SA
BRANCH   3   4
ATOM      4  C   UNL d   1      -0.067  -2.342  -0.750  0.00  0.00     0.005 A 
ATOM      5  C   UNL d   1      -1.230  -2.987  -1.199  0.00  0.00     0.019 A 
ATOM      6  C   UNL d   1      -1.477  -4.325  -0.877  0.00  0.00     0.001 A 
ATOM      7  C   UNL d   1      -0.563  -5.031  -0.103  0.00  0.00     0.000 A 
ATOM      8  C   UNL d   1       0.596  -4.405   0.349  0.00  0.00     0.001 A 
ATOM      9  C   UNL d   1       0.844  -3.067   0.025  0.00  0.00     0.019 A 
ENDBRANCH   3   4
ENDBRANCH   1   3
BRANCH   1  10
ATOM     10  C   UNL d   1       2.692  -0.087  -0.285  0.00  0.00     0.163 C 
ATOM     11  O   UNL d   1       3.487  -0.268   0.642  0.00  0.00    -0.292 OA
ATOM     12  C   UNL d   1       3.209  -0.037  -1.701  0.00  0.00     0.097 C 
ENDBRANCH   1  10
BRANCH   2  13
ATOM     13  N   UNL d   1       1.121   1.169   2.207  0.00  0.00    -0.397 N 
ATOM     14  C   UNL d   1       2.350   1.960   2.255  0.00  0.00     0.148 C 
ATOM     15  C   UNL d   1       0.320   1.249   3.429  0.00  0.00     0.148 C 
ENDBRANCH   2  13
TORSDOF 4
