REMARK  10 active torsions:
REMARK  status: ('A' for Active; 'I' for Inactive)
REMARK    1  A    between atoms: C_3  and  S_1 
REMARK    2  A    between atoms: N_8  and  S_1 
REMARK    3  A    between atoms: S_2  and  C_3 
REMARK    4  A    between atoms: N_9  and  S_2 
REMARK    5  A    between atoms: C_17  and  N_8 
REMARK    6  A    between atoms: C_16  and  N_9 
REMARK    7  A    between atoms: C_12  and  C_26 
REMARK    8  A    between atoms: C_13  and  C_27 
REMARK    9  A    between atoms: C_26  and  C_16 
REMARK   10  A    between atoms: C_27  and  C_17 
ROOT
ATOM      1  C   UNL d   1       0.276   1.496  -0.743  0.00  0.00     0.314 C 
ENDROOT
BRANCH   1   2
ATOM      2  S   UNL d   1       0.996   2.844   0.125  0.00  0.00     0.224 S 
ATOM      3  O   UNL d   1       0.507   2.892   1.482  0.00  0.00    -0.210 OA
ATOM      4  O   UNL d   1       2.406   2.907  -0.188  0.00  0.00    -0.210 OA
BRANCH   2   5
ATOM      5  N   UNL d   1       0.259   4.199  -0.629  0.00  0.00    -0.219 NA
ATOM      6  H   UNL d   1      -0.759   4.070  -0.658  0.00  0.00     0.139 HD
BRANCH   5   7
ATOM      7  C   UNL d   1       0.540   5.511   0.058  0.00  0.00     0.108 C 
BRANCH   7   8
ATOM      8  C   UNL d   1       2.012   5.913   0.016  0.00  0.00     0.054 C 
BRANCH   8   9
ATOM      9  C   UNL d   1       2.304   7.162   0.810  0.00  0.00    -0.057 A 
ATOM     10  C   UNL d   1       2.600   7.063   2.180  0.00  0.00     0.009 A 
ATOM     11  C   UNL d   1       2.943   8.200   2.913  0.00  0.00     0.024 A 
ATOM     12  C   UNL d   1       2.984   9.440   2.282  0.00  0.00     0.034 A 
ATOM     13  C   UNL d   1       2.668   9.555   0.930  0.00  0.00     0.024 A 
ATOM     14 CL   UNL d   1       3.438  10.838   3.176  0.00  0.00    -0.084 Cl
ATOM     15  C   UNL d   1       2.325   8.418   0.194  0.00  0.00     0.009 A 
ENDBRANCH   8   9
ENDBRANCH   7   8
ENDBRANCH   5   7
ENDBRANCH   2   5
ENDBRANCH   1   2
BRANCH   1  16
ATOM     16  S   UNL d   1       0.788  -0.046  -0.039  0.00  0.00     0.224 S 
ATOM     17  O   UNL d   1       0.140  -1.101  -0.789  0.00  0.00    -0.210 OA
ATOM     18  O   UNL d   1       0.670  -0.008   1.399  0.00  0.00    -0.210 OA
BRANCH  16  19
ATOM     19  N   UNL d   1       2.432  -0.100  -0.372  0.00  0.00    -0.219 NA
ATOM     20  H   UNL d   1       2.979   0.064   0.481  0.00  0.00     0.139 HD
BRANCH  19  21
ATOM     21  C   UNL d   1       2.965  -1.177  -1.225  0.00  0.00     0.108 C 
BRANCH  21  22
ATOM     22  C   UNL d   1       2.559  -1.003  -2.688  0.00  0.00     0.054 C 
BRANCH  22  23
ATOM     23  C   UNL d   1       3.104  -2.126  -3.533  0.00  0.00    -0.057 A 
ATOM     24  C   UNL d   1       2.400  -3.337  -3.628  0.00  0.00     0.009 A 
ATOM     25  C   UNL d   1       2.921  -4.396  -4.374  0.00  0.00     0.024 A 
ATOM     26  C   UNL d   1       4.144  -4.247  -5.024  0.00  0.00     0.034 A 
ATOM     27  C   UNL d   1       4.851  -3.049  -4.934  0.00  0.00     0.024 A 
ATOM     28 CL   UNL d   1       4.790  -5.553  -5.938  0.00  0.00    -0.084 Cl
ATOM     29  C   UNL d   1       4.333  -1.991  -4.188  0.00  0.00     0.009 A 
ENDBRANCH  22  23
ENDBRANCH  21  22
ENDBRANCH  19  21
ENDBRANCH  16  19
ENDBRANCH   1  16
TORSDOF 10
