REMARK  3 active torsions:
REMARK  status: ('A' for Active; 'I' for Inactive)
REMARK    1  A    between atoms: C_7  and  C_3 
REMARK    2  A    between atoms: C_9  and  C_4 
REMARK    3  A    between atoms: C_8  and  C_6 
ROOT
ATOM      1  N   UNL d   1       1.427  -0.597   0.086  0.00  0.00    -0.348 N 
ATOM      2  HN  UNL d   1       2.298  -1.122   0.169  1.00  0.00     0.166 HD
ATOM      3  C   UNL d   1       1.342   0.792   0.092  0.00  0.00     0.061 A 
ATOM      4  C   UNL d   1       0.054   1.308  -0.041  0.00  0.00     0.044 A 
ATOM      5  S   UNL d   1      -1.053  -0.012  -0.143  0.00  0.00    -0.069 SA
ATOM      6  C   UNL d   1       0.236  -1.143  -0.042  0.00  0.00     0.085 A 
ENDROOT
BRANCH   3   7
ATOM      7  C   UNL d   1       2.574   1.578   0.183  0.00  0.00    -0.008 A 
ATOM      8  C   UNL d   1       3.713   1.147  -0.514  0.00  0.00     0.015 A 
ATOM      9  C   UNL d   1       4.883   1.914  -0.517  0.00  0.00     0.024 A 
ATOM     10  C   UNL d   1       4.919   3.122   0.176  0.00  0.00     0.034 A 
ATOM     11  C   UNL d   1       3.810   3.549   0.901  0.00  0.00     0.024 A 
ATOM     12 CL   UNL d   1       6.337   4.093   0.133  0.00  0.00    -0.084 Cl
ATOM     13  C   UNL d   1       2.651   2.766   0.925  0.00  0.00     0.015 A 
ENDBRANCH   3   7
BRANCH   4  14
ATOM     14  C   UNL d   1      -0.460   2.688  -0.127  0.00  0.00    -0.017 A 
ATOM     15  C   UNL d   1       0.206   3.654  -0.898  0.00  0.00     0.013 A 
ATOM     16  C   UNL d   1      -0.200   4.991  -0.885  0.00  0.00     0.001 A 
ATOM     17  C   UNL d   1      -1.312   5.375  -0.142  0.00  0.00     0.000 A 
ATOM     18  C   UNL d   1      -2.022   4.421   0.582  0.00  0.00     0.001 A 
ATOM     19  C   UNL d   1      -1.595   3.090   0.597  0.00  0.00     0.013 A 
ENDBRANCH   4  14
BRANCH   6  20
ATOM     20  C   UNL d   1      -0.007  -2.598  -0.074  0.00  0.00    -0.002 A 
ATOM     21  C   UNL d   1      -1.157  -3.174  -0.645  0.00  0.00     0.016 A 
ATOM     22  C   UNL d   1      -1.341  -4.560  -0.665  0.00  0.00     0.024 A 
ATOM     23  C   UNL d   1      -0.372  -5.394  -0.114  0.00  0.00     0.034 A 
ATOM     24  C   UNL d   1       0.777  -4.853   0.456  0.00  0.00     0.024 A 
ATOM     25 CL   UNL d   1      -0.593  -7.099  -0.145  0.00  0.00    -0.084 Cl
ATOM     26  C   UNL d   1       0.958  -3.466   0.473  0.00  0.00     0.016 A 
ENDBRANCH   6  20
TORSDOF 3
