REMARK  4 active torsions:
REMARK  status: ('A' for Active; 'I' for Inactive)
REMARK    1  A    between atoms: C_4  and  S_1 
REMARK    2  A    between atoms: C_5  and  S_1 
REMARK    3  A    between atoms: C_2  and  O_9 
REMARK    4  A    between atoms: O_9  and  C_15 
ROOT
ATOM      1  N   UNL d   1      -2.094  -1.655   0.486  0.00  0.00    -0.196 NA
ATOM      2  C   UNL d   1      -0.448  -0.271  -1.000  0.00  0.00     0.269 C 
ATOM      3  C   UNL d   1      -1.346  -1.054  -0.166  0.00  0.00     0.074 C 
ENDROOT
BRANCH   2   4
ATOM      4  S   UNL d   1       1.050  -0.011  -0.097  0.00  0.00     0.187 S 
ATOM      5  O   UNL d   1       1.884   0.870  -0.899  0.00  0.00    -0.222 OA
ATOM      6  O   UNL d   1       1.577  -1.286   0.346  0.00  0.00    -0.222 OA
BRANCH   4   7
ATOM      7  C   UNL d   1       0.586   0.916   1.351  0.00  0.00     0.060 A 
ATOM      8  C   UNL d   1       0.267   0.240   2.531  0.00  0.00     0.026 A 
ATOM      9  C   UNL d   1      -0.029   0.966   3.690  0.00  0.00     0.038 A 
ATOM     10  C   UNL d   1      -0.025   2.361   3.667  0.00  0.00     0.078 A 
ATOM     11  C   UNL d   1       0.337   3.024   2.488  0.00  0.00     0.038 A 
ATOM     12  C   UNL d   1       0.642   2.310   1.328  0.00  0.00     0.026 A 
BRANCH  10  13
ATOM     13  O   UNL d   1      -0.264   3.181   4.725  0.00  0.00    -0.255 OA
BRANCH  13  14
ATOM     14  C   UNL d   1      -1.185   2.792   5.736  0.00  0.00     0.530 C 
ATOM     15  F   UNL d   1      -1.838   1.640   5.481  0.00  0.00    -0.144 F 
ATOM     16  F   UNL d   1      -0.531   2.672   6.911  0.00  0.00    -0.144 F 
ATOM     17  F   UNL d   1      -2.110   3.770   5.867  0.00  0.00    -0.144 F 
ENDBRANCH  13  14
ENDBRANCH  10  13
ENDBRANCH   4   7
ENDBRANCH   2   4
TORSDOF 4
