REMARK  2 active torsions:
REMARK  status: ('A' for Active; 'I' for Inactive)
REMARK    1  A    between atoms: C_2  and  C_1 
REMARK       I    between atoms: N_3  and  C_1 
REMARK    2  A    between atoms: C_11  and  N_3 
ROOT
ATOM      1  C   UNL d   1       0.930  -0.042   0.074  0.00  0.00     0.256 C 
ATOM      2  N   UNL d   1       0.159   0.785  -0.724  0.00  0.00    -0.323 N 
ATOM      3  O   UNL d   1       2.153  -0.038   0.168  0.00  0.00    -0.267 OA
ATOM      4  H   UNL d   1      -0.834   0.817  -0.539  0.00  0.00     0.169 HD
ENDROOT
BRANCH   1   5
ATOM      5  C   UNL d   1       0.170  -0.992   0.931  0.00  0.00     0.033 A 
ATOM      6  C   UNL d   1      -1.007  -1.607   0.474  0.00  0.00     0.027 A 
ATOM      7  C   UNL d   1      -1.652  -2.486   1.329  0.00  0.00    -0.022 A 
ATOM      8  C   UNL d   1      -2.865  -3.306   1.105  0.00  0.00     0.068 C 
ATOM      9  C   UNL d   1      -1.134  -2.776   2.582  0.00  0.00     0.075 A 
ATOM     10  C   UNL d   1      -3.119  -3.756   2.545  0.00  0.00     0.180 C 
ATOM     11  O   UNL d   1      -1.881  -3.680   3.290  0.00  0.00    -0.350 OA
ATOM     12  C   UNL d   1       0.041  -2.215   3.038  0.00  0.00     0.038 A 
ATOM     13  C   UNL d   1       0.697  -1.310   2.201  0.00  0.00     0.020 A 
ENDBRANCH   1   5
BRANCH   2  14
ATOM     14  C   UNL d   1       0.634   1.658  -1.728  0.00  0.00     0.035 A 
ATOM     15  C   UNL d   1       1.950   1.648  -2.191  0.00  0.00     0.030 A 
ATOM     16  C   UNL d   1       2.346   2.493  -3.231  0.00  0.00     0.009 A 
ATOM     17  C   UNL d   1       1.433   3.367  -3.826  0.00  0.00    -0.062 A 
ATOM     18  C   UNL d   1       0.119   3.396  -3.352  0.00  0.00     0.009 A 
ATOM     19  C   UNL d   1       1.874   4.229  -4.971  0.00  0.00     0.048 C 
ATOM     20  C   UNL d   1      -0.279   2.543  -2.314  0.00  0.00     0.030 A 
ENDBRANCH   2  14
TORSDOF 2
