REMARK  3 active torsions:
REMARK  status: ('A' for Active; 'I' for Inactive)
REMARK    1  A    between atoms: C_7  and  C_1 
REMARK    2  A    between atoms: C_15  and  N_2 
REMARK    3  A    between atoms: C_8  and  C_6 
REMARK       I    between atoms: N_10  and  C_7 
ROOT
ATOM      1  C   UNL d   1      -0.333  -1.235   0.289  0.00  0.00     0.120 A 
ATOM      2  N   UNL d   1       0.880  -0.628   0.025  0.00  0.00    -0.287 N 
ATOM      3  C   UNL d   1      -1.224  -0.173   0.373  0.00  0.00     0.069 A 
ATOM      4  N   UNL d   1       0.828   0.718   0.021  0.00  0.00    -0.297 N 
ATOM      5  HN  UNL d   1       1.604   1.373  -0.072  1.00  0.00     0.187 HD
ATOM      6  C   UNL d   1      -0.467   1.002   0.167  0.00  0.00     0.067 A 
ENDROOT
BRANCH   1   7
ATOM      7  C   UNL d   1      -0.549  -2.674   0.281  0.00  0.00     0.271 C 
ATOM      8  N   UNL d   1      -1.627  -3.238   0.975  0.00  0.00    -0.355 N 
ATOM      9  C   UNL d   1      -1.848  -4.667   0.802  0.00  0.00     0.152 C 
ATOM     10  C   UNL d   1      -2.293  -2.655   2.130  0.00  0.00     0.152 C 
ATOM     11  O   UNL d   1       0.206  -3.404  -0.363  0.00  0.00    -0.266 OA
ENDBRANCH   1   7
BRANCH   2  12
ATOM     12  C   UNL d   1       2.160  -1.237  -0.299  0.00  0.00     0.145 C 
ATOM     13  C   UNL d   1       2.398  -1.279  -1.800  0.00  0.00     0.028 C 
ENDBRANCH   2  12
BRANCH   6  14
ATOM     14  C   UNL d   1      -0.967   2.410   0.050  0.00  0.00     0.033 A 
ATOM     15  S   UNL d   1      -2.599   2.884   0.208  0.00  0.00    -0.100 SA
ATOM     16  C   UNL d   1      -2.226   4.516  -0.152  0.00  0.00     0.050 A 
ATOM     17  C   UNL d   1      -0.880   4.703  -0.371  0.00  0.00     0.008 A 
ATOM     18  C   UNL d   1      -0.148   3.484  -0.241  0.00  0.00     0.021 A 
ENDBRANCH   6  14
TORSDOF 3
