REMARK  8 active torsions:
REMARK  status: ('A' for Active; 'I' for Inactive)
REMARK    1  A    between atoms: C_5  and  C_1 
REMARK       I    between atoms: C_2  and  N_3 
REMARK    2  A    between atoms: C_4  and  C_2 
REMARK    3  A    between atoms: N_3  and  C_7 
REMARK       I    between atoms: N_12  and  C_5 
REMARK    4  A    between atoms: O_19  and  C_6 
REMARK    5  A    between atoms: O_20  and  C_8 
REMARK    6  A    between atoms: O_21  and  C_9 
REMARK    7  A    between atoms: C_18  and  N_12 
REMARK    8  A    between atoms: C_17  and  C_18 
ROOT
ATOM      1  C   UNL d   1       0.722  -0.011   0.096  0.00  0.00     0.058 C 
ATOM      2  C   UNL d   1       0.399  -1.276  -0.423  0.00  0.00     0.050 C 
ATOM      3  C   UNL d   1      -0.135   1.093  -0.099  0.00  0.00     0.019 C 
ATOM      4  C   UNL d   1      -0.901  -1.435  -0.941  0.00  0.00     0.030 C 
ATOM      5  C   UNL d   1      -1.403   0.907  -0.641  0.00  0.00     0.001 C 
ATOM      6  C   UNL d   1      -1.804  -0.368  -1.013  0.00  0.00     0.002 C 
ENDROOT
BRANCH   2   7
ATOM      7  N   UNL d   1       1.178  -2.460  -0.413  0.00  0.00    -0.322 N 
ATOM      8  C   UNL d   1       2.481  -2.822  -0.144  0.00  0.00     0.256 C 
ATOM      9  O   UNL d   1       2.714  -4.033  -0.046  0.00  0.00    -0.267 OA
ATOM     10  H   UNL d   1       0.648  -3.310  -0.569  0.00  0.00     0.169 HD
BRANCH   8  11
ATOM     11  C   UNL d   1       3.640  -1.905  -0.022  0.00  0.00     0.037 A 
ATOM     12  C   UNL d   1       4.679  -2.270   0.853  0.00  0.00     0.057 A 
ATOM     13  C   UNL d   1       5.773  -1.423   1.090  0.00  0.00     0.105 A 
ATOM     14  C   UNL d   1       5.846  -0.186   0.410  0.00  0.00     0.135 A 
ATOM     15  C   UNL d   1       4.853   0.121  -0.552  0.00  0.00     0.105 A 
ATOM     16  C   UNL d   1       3.772  -0.746  -0.774  0.00  0.00     0.057 A 
BRANCH  13  17
ATOM     17  O   UNL d   1       6.775  -1.737   1.970  0.00  0.00    -0.353 OA
ATOM     18  C   UNL d   1       6.688  -2.924   2.749  0.00  0.00     0.210 C 
ENDBRANCH  13  17
BRANCH  14  19
ATOM     19  O   UNL d   1       6.785   0.794   0.614  0.00  0.00    -0.351 OA
ATOM     20  C   UNL d   1       7.778   0.659   1.620  0.00  0.00     0.210 C 
ENDBRANCH  14  19
BRANCH  15  21
ATOM     21  O   UNL d   1       4.740   1.279  -1.286  0.00  0.00    -0.353 OA
ATOM     22  C   UNL d   1       5.947   1.922  -1.679  0.00  0.00     0.210 C 
ENDBRANCH  15  21
ENDBRANCH   8  11
ENDBRANCH   2   7
BRANCH   1  23
ATOM     23  C   UNL d   1       1.601   0.081   1.278  0.00  0.00     0.254 C 
ATOM     24  N   UNL d   1       2.183   1.298   1.583  0.00  0.00    -0.353 N 
ATOM     25  H   UNL d   1       2.560   1.852   0.824  0.00  0.00     0.163 HD
ATOM     26  O   UNL d   1       1.652  -0.875   2.039  0.00  0.00    -0.268 OA
BRANCH  24  27
ATOM     27  C   UNL d   1       2.771   1.363   2.894  0.00  0.00     0.162 C 
BRANCH  27  28
ATOM     28  C   UNL d   1       3.156   2.727   3.358  0.00  0.00    -0.025 A 
ATOM     29  C   UNL d   1       4.433   2.933   3.871  0.00  0.00     0.096 A 
ATOM     30  N   UNL d   1       4.827   4.064   4.493  0.00  0.00    -0.375 N 
ATOM     31  C   UNL d   1       3.900   5.037   4.616  0.00  0.00     0.087 A 
ATOM     32  HN  UNL d   1       5.775   4.177   4.851  1.00  0.00     0.164 HD
ATOM     33  C   UNL d   1       2.610   4.945   4.119  0.00  0.00     0.018 A 
ATOM     34  C   UNL d   1       2.233   3.770   3.475  0.00  0.00     0.011 A 
ENDBRANCH  27  28
ENDBRANCH  24  27
ENDBRANCH   1  23
TORSDOF 8
