REMARK  1 active torsions:
REMARK  status: ('A' for Active; 'I' for Inactive)
REMARK    1  A    between atoms: C_13  and  C_7 
ROOT
ATOM      1  C   UNL d   1       4.938   0.141   0.935  0.00  0.00     0.097 C 
ATOM      2  N   UNL d   1       6.781  -1.196   1.735  0.00  0.00    -0.275 N 
ATOM      3  N   UNL d   1       6.729   1.056   2.266  0.00  0.00    -0.275 N 
ATOM      4  C   UNL d   1       5.633  -1.178   1.004  0.00  0.00     0.264 C 
ATOM      5  C   UNL d   1       5.503   1.278   1.711  0.00  0.00     0.264 C 
ATOM      6  C   UNL d   1       7.345  -0.147   2.393  0.00  0.00     0.329 C 
ATOM      7  C   UNL d   1       3.808   0.223   0.197  0.00  0.00     0.001 C 
ATOM      8  O   UNL d   1       4.933   2.346   1.902  0.00  0.00    -0.267 OA
ATOM      9  O   UNL d   1       5.209  -2.196   0.461  0.00  0.00    -0.267 OA
ATOM     10  O   UNL d   1       8.345  -0.286   3.091  0.00  0.00    -0.246 OA
ATOM     11  H   UNL d   1       7.245  -2.087   1.831  0.00  0.00     0.173 HD
ATOM     12  H   UNL d   1       7.113   1.812   2.817  0.00  0.00     0.173 HD
ENDROOT
BRANCH   7  13
ATOM     13  C   UNL d   1       2.928   1.443   0.003  0.00  0.00     0.013 C 
ATOM     14  C   UNL d   1       2.306   1.522  -1.411  0.00  0.00     0.035 C 
ATOM     15  C   UNL d   1       1.001   0.797  -1.567  0.00  0.00    -0.030 C 
ATOM     16  C   UNL d   1       0.295   0.322  -0.532  0.00  0.00    -0.031 C 
ATOM     17  C   UNL d   1       0.721   0.479   0.896  0.00  0.00     0.027 C 
ATOM     18  C   UNL d   1       1.845   1.500   1.092  0.00  0.00     0.012 C 
ENDBRANCH   7  13
TORSDOF 1
