REMARK  5 active torsions:
REMARK  status: ('A' for Active; 'I' for Inactive)
REMARK    1  A    between atoms: S_6  and  C_1 
REMARK    2  A    between atoms: C_7  and  C_5 
REMARK    3  A    between atoms: O_14  and  C_7 
REMARK    4  A    between atoms: O_15  and  C_8 
REMARK    5  A    between atoms: C_18  and  O_14 
ROOT
ATOM      1  C   UNL d   1       1.171  -1.556   0.077  0.00  0.00     0.109 A 
ATOM      2  C   UNL d   1       0.077  -0.706  -0.029  0.00  0.00     0.007 A 
ATOM      3  C   UNL d   1       0.474   0.689   0.001  0.00  0.00    -0.024 A 
ATOM      4  S   UNL d   1       2.638  -0.664   0.112  0.00  0.00    -0.071 SA
ATOM      5  C   UNL d   1       1.852   0.847  -0.008  0.00  0.00     0.088 A 
ATOM      6  C   UNL d   1      -1.369  -1.103  -0.129  0.00  0.00     0.154 C 
ATOM      7  C   UNL d   1      -0.534   1.809  -0.033  0.00  0.00     0.041 C 
ATOM      8  C   UNL d   1      -1.933   1.327   0.357  0.00  0.00     0.007 C 
ATOM      9  C   UNL d   1      -2.307   0.075  -0.432  0.00  0.00     0.037 C 
ENDROOT
BRANCH   5  10
ATOM     10  C   UNL d   1       2.604   2.090  -0.151  0.00  0.00     0.300 C 
ATOM     11  O   UNL d   1       2.100   3.200  -0.282  0.00  0.00    -0.259 OA
BRANCH  10  12
ATOM     12  O   UNL d   1       3.945   1.851  -0.231  0.00  0.00    -0.317 OA
BRANCH  12  13
ATOM     13  C   UNL d   1       4.734   2.897  -0.810  0.00  0.00     0.174 C 
ATOM     14  C   UNL d   1       4.759   2.693  -2.315  0.00  0.00     0.034 C 
ENDBRANCH  12  13
ENDBRANCH  10  12
ENDBRANCH   5  10
BRANCH   1  15
ATOM     15  S   UNL d   1       1.453  -3.321   0.183  0.00  0.00     0.178 S 
ATOM     16  O   UNL d   1       2.150  -3.667  -1.041  0.00  0.00    -0.222 OA
ATOM     17  O   UNL d   1       2.056  -3.514   1.490  0.00  0.00    -0.222 OA
ATOM     18  C   UNL d   1      -0.093  -4.160   0.189  0.00  0.00     0.167 C 
ENDBRANCH   1  15
BRANCH   6  19
ATOM     19  O   UNL d   1      -1.550  -2.068  -1.159  0.00  0.00    -0.391 OA
ATOM     20  H   UNL d   1      -1.251  -1.659  -1.992  0.00  0.00     0.210 HD
ENDBRANCH   6  19
TORSDOF 5
