REMARK  5 active torsions:
REMARK  status: ('A' for Active; 'I' for Inactive)
REMARK    1  A    between atoms: C_2  and  C_1 
REMARK    2  A    between atoms: C_3  and  C_1 
REMARK    3  A    between atoms: N_4  and  C_1 
REMARK    4  A    between atoms: N_5  and  C_1 
REMARK       I    between atoms: C_6  and  N_4 
REMARK    5  A    between atoms: C_9  and  N_5 
ROOT
ATOM      1  C   UNL d   1       0.889   0.114   0.020  0.00  0.00     0.290 C 
ENDROOT
BRANCH   1   2
ATOM      2  C   UNL d   1       0.191   1.477   0.389  0.00  0.00     0.435 C 
ATOM      3  F   UNL d   1      -0.921   1.777  -0.310  0.00  0.00    -0.167 F 
ATOM      4  F   UNL d   1      -0.184   1.497   1.700  0.00  0.00    -0.167 F 
ATOM      5  F   UNL d   1       1.041   2.526   0.224  0.00  0.00    -0.167 F 
ENDBRANCH   1   2
BRANCH   1   6
ATOM      6  C   UNL d   1       0.614  -0.113  -1.520  0.00  0.00     0.435 C 
ATOM      7  F   UNL d   1      -0.186   0.773  -2.136  0.00  0.00    -0.167 F 
ATOM      8  F   UNL d   1       1.806  -0.056  -2.194  0.00  0.00    -0.167 F 
ATOM      9  F   UNL d   1       0.128  -1.355  -1.776  0.00  0.00    -0.167 F 
ENDBRANCH   1   6
BRANCH   1  10
ATOM     10  N   UNL d   1       0.507  -1.031   0.859  0.00  0.00    -0.324 N 
ATOM     11  C   UNL d   1      -0.792  -1.421   0.972  0.00  0.00     0.215 C 
ATOM     12  O   UNL d   1      -1.692  -0.811   0.405  0.00  0.00    -0.274 OA
ATOM     13  C   UNL d   1      -1.028  -2.616   1.851  0.00  0.00     0.117 C 
ATOM     14  H   UNL d   1       1.270  -1.551   1.269  0.00  0.00     0.165 HD
ENDBRANCH   1  10
BRANCH   1  15
ATOM     15  N   UNL d   1       2.408   0.070   0.254  0.00  0.00    -0.251 NA
ATOM     16  H   UNL d   1       2.879   0.214  -0.650  0.00  0.00     0.130 HD
BRANCH  15  17
ATOM     17  C   UNL d   1       3.043   0.782   1.270  0.00  0.00     0.012 A 
ATOM     18  C   UNL d   1       4.338   1.268   1.046  0.00  0.00     0.050 A 
ATOM     19  C   UNL d   1       5.011   2.006   2.029  0.00  0.00     0.074 A 
ATOM     20 CL   UNL d   1       6.582   2.623   1.697  0.00  0.00    -0.081 Cl
ATOM     21  C   UNL d   1       4.396   2.236   3.251  0.00  0.00     0.138 A 
ATOM     22  C   UNL d   1       3.151   1.702   3.525  0.00  0.00     0.046 A 
ATOM     23  F   UNL d   1       5.009   2.969   4.202  0.00  0.00    -0.204 F 
ATOM     24  C   UNL d   1       2.488   0.950   2.545  0.00  0.00     0.026 A 
ENDBRANCH  15  17
ENDBRANCH   1  15
TORSDOF 5
