REMARK  6 active torsions:
REMARK  status: ('A' for Active; 'I' for Inactive)
REMARK    1  A    between atoms: N_2  and  C_1 
REMARK    2  A    between atoms: C_3  and  C_6 
REMARK    3  A    between atoms: S_7  and  C_3 
REMARK    4  A    between atoms: O_9  and  C_5 
REMARK    5  A    between atoms: C_15  and  S_7 
REMARK    6  A    between atoms: C_14  and  O_9 
ROOT
ATOM      1  C   UNL d   1       1.472  -0.431   0.286  0.00  0.00     0.137 C 
ATOM      2  C   UNL d   1       0.491  -1.438   0.289  0.00  0.00     0.055 C 
ATOM      3  C   UNL d   1       1.122   0.924   0.267  0.00  0.00     0.109 C 
ATOM      4  C   UNL d   1      -0.862  -1.086   0.368  0.00  0.00     0.024 C 
ATOM      5  C   UNL d   1      -0.223   1.256   0.454  0.00  0.00     0.041 C 
ATOM      6  C   UNL d   1      -1.208   0.262   0.521  0.00  0.00     0.019 C 
ENDROOT
BRANCH   4   7
ATOM      7  C   UNL d   1      -1.886  -2.169   0.298  0.00  0.00     0.224 C 
ATOM      8  O   UNL d   1      -1.605  -3.303   0.653  0.00  0.00    -0.279 OA
BRANCH   7   9
ATOM      9  S   UNL d   1      -3.390  -1.766  -0.520  0.00  0.00    -0.048 SA
BRANCH   9  10
ATOM     10  C   UNL d   1      -4.708  -2.324   0.543  0.00  0.00     0.008 A 
ATOM     11  C   UNL d   1      -5.953  -1.690   0.394  0.00  0.00     0.019 A 
ATOM     12  C   UNL d   1      -7.069  -2.106   1.127  0.00  0.00     0.001 A 
ATOM     13  C   UNL d   1      -6.955  -3.165   2.021  0.00  0.00     0.000 A 
ATOM     14  C   UNL d   1      -5.725  -3.797   2.187  0.00  0.00     0.001 A 
ATOM     15  C   UNL d   1      -4.610  -3.383   1.448  0.00  0.00     0.019 A 
ENDBRANCH   9  10
ENDBRANCH   7   9
ENDBRANCH   4   7
BRANCH   1  16
ATOM     16  N   UNL d   1       2.857  -0.850   0.384  0.00  0.00    -0.113 N 
ATOM     17  O   UNL d   1       3.246  -1.695  -0.431  0.00  0.00    -0.532 OA
ATOM     18  O   UNL d   1       3.535  -0.362   1.300  0.00  0.00    -0.532 OA
ENDBRANCH   1  16
BRANCH   3  19
ATOM     19  O   UNL d   1       1.963   2.004   0.154  0.00  0.00    -0.308 OA
BRANCH  19  20
ATOM     20  C   UNL d   1       2.986   2.025  -0.769  0.00  0.00     0.076 A 
ATOM     21  C   UNL d   1       3.068   1.252  -1.928  0.00  0.00     0.039 A 
ATOM     22  C   UNL d   1       4.235   1.278  -2.705  0.00  0.00     0.026 A 
ATOM     23  C   UNL d   1       5.283   2.127  -2.359  0.00  0.00     0.034 A 
ATOM     24  C   UNL d   1       5.166   2.976  -1.261  0.00  0.00     0.026 A 
ATOM     25 CL   UNL d   1       6.735   2.122  -3.282  0.00  0.00    -0.084 Cl
ATOM     26  C   UNL d   1       4.016   2.924  -0.471  0.00  0.00     0.039 A 
ENDBRANCH  19  20
ENDBRANCH   3  19
TORSDOF 6
