REMARK  2 active torsions:
REMARK  status: ('A' for Active; 'I' for Inactive)
REMARK    1  A    between atoms: N_2  and  C_1 
REMARK       I    between atoms: C_4  and  N_2 
REMARK       I    between atoms: N_8  and  C_4 
REMARK    2  A    between atoms: C_9  and  N_8 
ROOT
ATOM      1  N   UNL d   1       2.054  -1.475  -0.097  0.00  0.00    -0.301 N 
ATOM      2  C   UNL d   1       1.921  -2.827  -0.164  0.00  0.00     0.325 C 
ATOM      3  N   UNL d   1       0.657  -3.346  -0.012  0.00  0.00    -0.306 N 
ATOM      4  O   UNL d   1       2.835  -3.646  -0.257  0.00  0.00    -0.247 OA
ATOM      5  H   UNL d   1       1.233  -0.919  -0.275  0.00  0.00     0.171 HD
ATOM      6  H   UNL d   1       0.732  -4.350   0.129  0.00  0.00     0.171 HD
ENDROOT
BRANCH   1   7
ATOM      7  C   UNL d   1       3.207  -0.733   0.090  0.00  0.00     0.100 A 
ATOM      8  C   UNL d   1       3.279   0.647   0.113  0.00  0.00     0.074 A 
ATOM      9  C   UNL d   1       4.589   1.133   0.441  0.00  0.00    -0.031 A 
ATOM     10 CL   UNL d   1       1.939   1.690  -0.164  0.00  0.00    -0.081 Cl
ATOM     11  C   UNL d   1       4.965   2.567   0.615  0.00  0.00     0.050 C 
ATOM     12  C   UNL d   1       5.463   0.075   0.610  0.00  0.00     0.060 A 
ATOM     13  S   UNL d   1       4.711  -1.446   0.405  0.00  0.00    -0.082 SA
ENDBRANCH   1   7
BRANCH   3  14
ATOM     14  C   UNL d   1      -0.616  -2.775   0.184  0.00  0.00     0.075 A 
ATOM     15  C   UNL d   1      -1.010  -1.488  -0.208  0.00  0.00     0.146 A 
ATOM     16  C   UNL d   1      -2.270  -0.980   0.092  0.00  0.00     0.086 A 
ATOM     17  F   UNL d   1      -0.194  -0.709  -0.931  0.00  0.00    -0.204 F 
ATOM     18  C   UNL d   1      -3.170  -1.780   0.775  0.00  0.00     0.119 A 
ATOM     19  C   UNL d   1      -2.839  -3.082   1.129  0.00  0.00     0.044 A 
ATOM     20  F   UNL d   1      -4.377  -1.295   1.090  0.00  0.00    -0.206 F 
ATOM     21  C   UNL d   1      -1.571  -3.584   0.820  0.00  0.00     0.036 A 
ENDBRANCH   3  14
TORSDOF 2
