REMARK  4 active torsions:
REMARK  status: ('A' for Active; 'I' for Inactive)
REMARK    1  A    between atoms: C_7  and  C_3 
REMARK    2  A    between atoms: C_9  and  C_4 
REMARK    3  A    between atoms: C_8  and  C_6 
REMARK    4  A    between atoms: O_21  and  C_15 
ROOT
ATOM      1  N   UNL d   1       1.428  -0.595   0.028  0.00  0.00    -0.348 N 
ATOM      2  HN  UNL d   1       2.300  -1.124   0.043  1.00  0.00     0.166 HD
ATOM      3  C   UNL d   1       1.344   0.794   0.055  0.00  0.00     0.061 A 
ATOM      4  C   UNL d   1       0.055   1.314  -0.058  0.00  0.00     0.044 A 
ATOM      5  S   UNL d   1      -1.057  -0.002  -0.154  0.00  0.00    -0.069 SA
ATOM      6  C   UNL d   1       0.229  -1.133  -0.020  0.00  0.00     0.085 A 
ENDROOT
BRANCH   6   7
ATOM      7  C   UNL d   1      -0.039  -2.581  -0.026  0.00  0.00    -0.002 A 
ATOM      8  C   UNL d   1       0.868  -3.452  -0.649  0.00  0.00     0.017 A 
ATOM      9  C   UNL d   1       0.636  -4.836  -0.686  0.00  0.00     0.037 A 
ATOM     10  C   UNL d   1      -0.504  -5.369  -0.088  0.00  0.00     0.068 A 
ATOM     11  C   UNL d   1      -1.391  -4.518   0.569  0.00  0.00     0.037 A 
ATOM     12  C   UNL d   1      -1.168  -3.138   0.595  0.00  0.00     0.017 A 
BRANCH  10  13
ATOM     13  O   UNL d   1      -0.833  -6.695  -0.045  0.00  0.00    -0.356 OA
ATOM     14  C   UNL d   1      -0.323  -7.495  -1.106  0.00  0.00     0.210 C 
ENDBRANCH  10  13
ENDBRANCH   6   7
BRANCH   4  15
ATOM     15  C   UNL d   1      -0.458   2.695  -0.130  0.00  0.00    -0.017 A 
ATOM     16  C   UNL d   1       0.193   3.664  -0.910  0.00  0.00     0.013 A 
ATOM     17  C   UNL d   1      -0.226   4.997  -0.899  0.00  0.00     0.001 A 
ATOM     18  C   UNL d   1      -1.330   5.375  -0.141  0.00  0.00     0.000 A 
ATOM     19  C   UNL d   1      -2.018   4.421   0.602  0.00  0.00     0.001 A 
ATOM     20  C   UNL d   1      -1.582   3.093   0.613  0.00  0.00     0.013 A 
ENDBRANCH   4  15
BRANCH   3  21
ATOM     21  C   UNL d   1       2.575   1.579   0.153  0.00  0.00    -0.008 A 
ATOM     22  C   UNL d   1       3.711   1.161  -0.558  0.00  0.00     0.015 A 
ATOM     23  C   UNL d   1       4.882   1.925  -0.546  0.00  0.00     0.024 A 
ATOM     24  C   UNL d   1       4.925   3.113   0.178  0.00  0.00     0.034 A 
ATOM     25  C   UNL d   1       3.821   3.524   0.920  0.00  0.00     0.024 A 
ATOM     26 CL   UNL d   1       6.346   4.082   0.152  0.00  0.00    -0.084 Cl
ATOM     27  C   UNL d   1       2.658   2.747   0.926  0.00  0.00     0.015 A 
ENDBRANCH   3  21
TORSDOF 4
