REMARK  1 active torsions:
REMARK  status: ('A' for Active; 'I' for Inactive)
REMARK    1  A    between atoms: C_7  and  C_1 
ROOT
ATOM      1  C   UNL d   1       1.587  -1.142  -0.006  0.00  0.00     0.091 A 
ATOM      2  N   UNL d   1       0.270  -0.697   0.018  0.00  0.00    -0.304 N 
ATOM      3  N   UNL d   1       1.559   1.138   0.062  0.00  0.00    -0.344 N 
ATOM      4  HN  UNL d   1       1.866   2.110   0.098  1.00  0.00     0.167 HD
ATOM      5  C   UNL d   1       0.322   0.697   0.033  0.00  0.00     0.112 A 
ATOM      6  C   UNL d   1       2.353   0.018   0.034  0.00  0.00     0.036 A 
ATOM      7  C   UNL d   1      -0.940  -1.400   0.041  0.00  0.00     0.099 A 
ATOM      8  C   UNL d   1      -0.914   1.404   0.022  0.00  0.00     0.049 A 
ATOM      9  C   UNL d   1      -2.104  -0.726   0.037  0.00  0.00     0.018 A 
ATOM     10  C   UNL d   1      -2.077   0.727   0.017  0.00  0.00     0.005 A 
ATOM     11  C   UNL d   1       3.827   0.182   0.006  0.00  0.00     0.070 C 
ENDROOT
BRANCH   1  12
ATOM     12  C   UNL d   1       2.007  -2.511  -0.076  0.00  0.00     0.078 A 
ATOM     13  N   UNL d   1       3.125  -2.992   0.557  0.00  0.00    -0.299 N 
ATOM     14  N   UNL d   1       3.351  -4.301   0.350  0.00  0.00    -0.311 N 
ATOM     15  H   UNL d   1       3.771  -2.485   1.151  0.00  0.00     0.187 HD
ATOM     16  C   UNL d   1       2.349  -4.668  -0.449  0.00  0.00     0.109 A 
ATOM     17  HN  UNL d   1       4.109  -4.877   0.717  1.00  0.00     0.186 HD
ATOM     18  C   UNL d   1       1.485  -3.597  -0.748  0.00  0.00     0.052 A 
ENDBRANCH   1  12
TORSDOF 1
