REMARK  9 active torsions:
REMARK  status: ('A' for Active; 'I' for Inactive)
REMARK    1  A    between atoms: N_2  and  S_1 
REMARK    2  A    between atoms: C_5  and  S_1 
REMARK    3  A    between atoms: N_3  and  N_2 
REMARK       I    between atoms: C_4  and  N_3 
REMARK    4  A    between atoms: C_6  and  C_4 
REMARK    5  A    between atoms: C_10  and  C_6 
REMARK    6  A    between atoms: O_17  and  C_10 
REMARK    7  A    between atoms: O_18  and  C_10 
REMARK    8  A    between atoms: C_19  and  O_17 
REMARK    9  A    between atoms: C_20  and  O_18 
ROOT
ATOM      1  N   UNL d   1       2.111   0.315  -2.553  0.00  0.00    -0.220 N 
ATOM      2  H   UNL d   1       2.732   0.164  -3.357  0.00  0.00     0.200 HD
ENDROOT
BRANCH   1   3
ATOM      3  S   UNL d   1       2.906   0.802  -1.141  0.00  0.00     0.276 S 
ATOM      4  O   UNL d   1       1.895   1.058  -0.137  0.00  0.00    -0.199 OA
ATOM      5  O   UNL d   1       3.916   1.769  -1.500  0.00  0.00    -0.199 OA
BRANCH   3   6
ATOM      6  C   UNL d   1       3.755  -0.701  -0.689  0.00  0.00     0.081 A 
ATOM      7  C   UNL d   1       4.654  -1.279  -1.595  0.00  0.00     0.027 A 
ATOM      8  C   UNL d   1       5.312  -2.461  -1.253  0.00  0.00     0.025 A 
ATOM      9  C   UNL d   1       5.079  -3.050  -0.009  0.00  0.00     0.034 A 
ATOM     10  C   UNL d   1       4.188  -2.468   0.896  0.00  0.00     0.025 A 
ATOM     11 CL   UNL d   1       5.896  -4.503   0.414  0.00  0.00    -0.084 Cl
ATOM     12  C   UNL d   1       3.520  -1.289   0.557  0.00  0.00     0.027 A 
ENDBRANCH   3   6
ENDBRANCH   1   3
BRANCH   1  13
ATOM     13  N   UNL d   1       0.984  -0.597  -2.446  0.00  0.00    -0.260 N 
ATOM     14  C   UNL d   1       0.976  -1.675  -3.301  0.00  0.00     0.241 C 
ATOM     15  O   UNL d   1       1.877  -1.851  -4.122  0.00  0.00    -0.272 OA
ATOM     16  H   UNL d   1       0.334  -0.491  -1.663  0.00  0.00     0.190 HD
BRANCH  14  17
ATOM     17  C   UNL d   1      -0.212  -2.599  -3.224  0.00  0.00     0.165 C 
BRANCH  17  18
ATOM     18  C   UNL d   1      -0.697  -2.875  -1.804  0.00  0.00     0.268 C 
BRANCH  18  19
ATOM     19  O   UNL d   1      -1.344  -1.666  -1.375  0.00  0.00    -0.361 OA
BRANCH  19  20
ATOM     20  C   UNL d   1      -2.094  -1.805  -0.171  0.00  0.00     0.166 C 
ATOM     21  C   UNL d   1      -2.635  -0.436   0.204  0.00  0.00     0.033 C 
ENDBRANCH  19  20
ENDBRANCH  18  19
BRANCH  18  22
ATOM     22  O   UNL d   1      -1.602  -3.982  -1.799  0.00  0.00    -0.361 OA
BRANCH  22  23
ATOM     23  C   UNL d   1      -0.945  -5.247  -1.869  0.00  0.00     0.166 C 
ATOM     24  C   UNL d   1      -1.978  -6.350  -1.738  0.00  0.00     0.033 C 
ENDBRANCH  22  23
ENDBRANCH  18  22
ENDBRANCH  17  18
ENDBRANCH  14  17
ENDBRANCH   1  13
TORSDOF 9
