REMARK  4 active torsions:
REMARK  status: ('A' for Active; 'I' for Inactive)
REMARK    1  A    between atoms: C_3  and  N_1 
REMARK    2  A    between atoms: O_9  and  C_11 
REMARK    3  A    between atoms: C_13  and  O_9 
REMARK    4  A    between atoms: C_14  and  C_13 
ROOT
ATOM      1  N   UNL d   1      -3.275   6.117  -8.341  0.00  0.00    -0.191 NA
ATOM      2  C   UNL d   1      -3.231   4.963  -8.241  0.00  0.00     0.099 C 
ATOM      3  C   UNL d   1      -3.174   3.534  -8.120  0.00  0.00     0.045 A 
ATOM      4  C   UNL d   1      -2.443   2.946  -7.080  0.00  0.00     0.032 A 
ATOM      5  C   UNL d   1      -2.374   1.548  -6.955  0.00  0.00    -0.033 A 
ATOM      6  C   UNL d   1      -3.788   1.336  -8.920  0.00  0.00     0.002 A 
ATOM      7  C   UNL d   1      -3.840   2.724  -9.044  0.00  0.00     0.022 A 
ATOM      8  C   UNL d   1      -3.060   0.751  -7.881  0.00  0.00     0.009 A 
ENDROOT
BRANCH   5   9
ATOM      9  C   UNL d   1      -1.522   0.924  -5.871  0.00  0.00     0.214 C 
BRANCH   9  10
ATOM     10  O   UNL d   1      -1.994   1.367  -4.598  0.00  0.00    -0.347 OA
BRANCH  10  11
ATOM     11  C   UNL d   1      -1.055   1.440  -3.605  0.00  0.00     0.069 A 
ATOM     12  C   UNL d   1      -1.313   2.398  -2.621  0.00  0.00     0.039 A 
ATOM     13  C   UNL d   1      -0.423   2.588  -1.561  0.00  0.00     0.039 A 
ATOM     14  C   UNL d   1       0.726   1.794  -1.481  0.00  0.00     0.103 A 
ATOM     15  C   UNL d   1       0.982   0.814  -2.450  0.00  0.00     0.039 A 
ATOM     16  C   UNL d   1       0.083   0.634  -3.509  0.00  0.00     0.039 A 
BRANCH  14  17
ATOM     17  N   UNL d   1       1.669   1.985  -0.371  0.00  0.00    -0.116 N 
ATOM     18  O   UNL d   1       2.669   1.255  -0.333  0.00  0.00    -0.532 OA
ATOM     19  O   UNL d   1       1.408   2.865   0.462  0.00  0.00    -0.532 OA
ENDBRANCH  14  17
ENDBRANCH  10  11
ENDBRANCH   9  10
ENDBRANCH   5   9
TORSDOF 4
