REMARK  5 active torsions:
REMARK  status: ('A' for Active; 'I' for Inactive)
REMARK    1  A    between atoms: C_2  and  C_1 
REMARK       I    between atoms: N_12  and  C_2 
REMARK    2  A    between atoms: C_7  and  C_3 
REMARK    3  A    between atoms: O_14  and  C_6 
REMARK    4  A    between atoms: O_15  and  C_8 
REMARK    5  A    between atoms: C_16  and  O_14 
ROOT
ATOM      1  C   UNL d   1       0.895  -0.186  -0.781  0.00  0.00     0.112 C 
ATOM      2  C   UNL d   1       0.264   0.998  -0.652  0.00  0.00     0.040 C 
ATOM      3  C   UNL d   1       0.198  -1.416  -0.950  0.00  0.00     0.105 C 
ATOM      4  N   UNL d   1      -0.330  -2.439  -1.091  0.00  0.00    -0.191 NA
ENDROOT
BRANCH   1   5
ATOM      5  C   UNL d   1       2.385  -0.172  -0.723  0.00  0.00     0.260 C 
ATOM      6  O   UNL d   1       3.036   0.857  -0.574  0.00  0.00    -0.267 OA
ATOM      7  N   UNL d   1       3.026  -1.369  -0.833  0.00  0.00    -0.365 N 
ATOM      8  H   UNL d   1       2.575  -2.269  -0.947  0.00  0.00     0.159 HD
ATOM      9  H   UNL d   1       4.037  -1.356  -0.787  0.00  0.00     0.159 HD
ENDBRANCH   1   5
BRANCH   2  10
ATOM     10  C   UNL d   1      -1.194   1.126  -0.628  0.00  0.00    -0.032 A 
ATOM     11  C   UNL d   1      -1.867   1.006   0.595  0.00  0.00     0.051 A 
ATOM     12  C   UNL d   1      -3.264   0.997   0.641  0.00  0.00     0.102 A 
ATOM     13  C   UNL d   1      -3.975   1.141  -0.558  0.00  0.00     0.099 A 
ATOM     14  C   UNL d   1      -3.311   1.289  -1.778  0.00  0.00     0.040 A 
ATOM     15  C   UNL d   1      -1.917   1.279  -1.814  0.00  0.00     0.014 A 
BRANCH  12  16
ATOM     16  O   UNL d   1      -4.002   0.834   1.786  0.00  0.00    -0.349 OA
BRANCH  16  17
ATOM     17  C   UNL d   1      -3.277   0.657   3.002  0.00  0.00     0.171 C 
ATOM     18  C   UNL d   1      -4.261   0.413   4.131  0.00  0.00     0.034 C 
ENDBRANCH  16  17
ENDBRANCH  12  16
BRANCH  13  19
ATOM     19  O   UNL d   1      -5.344   1.125  -0.531  0.00  0.00    -0.358 OA
ATOM     20  H   UNL d   1      -5.681   1.177  -1.439  0.00  0.00     0.217 HD
ENDBRANCH  13  19
ENDBRANCH   2  10
TORSDOF 5
