REMARK  4 active torsions:
REMARK  status: ('A' for Active; 'I' for Inactive)
REMARK    1  A    between atoms: S_11  and  C_3 
REMARK    2  A    between atoms: C_8  and  C_5 
REMARK    3  A    between atoms: O_12  and  C_8 
REMARK    4  A    between atoms: O_13  and  C_8 
ROOT
ATOM      1  N   UNL d   1       1.189   0.581   0.389  0.00  0.00    -0.349 N 
ATOM      2  HN  UNL d   1       2.004   1.097   0.723  1.00  0.00     0.166 HD
ATOM      3  C   UNL d   1       1.166  -0.775   0.430  0.00  0.00     0.088 A 
ATOM      4  C   UNL d   1       0.079  -1.523  -0.008  0.00  0.00     0.077 A 
ATOM      5  C   UNL d   1       0.107   1.243  -0.106  0.00  0.00     0.065 A 
ATOM      6  C   UNL d   1       0.055  -2.952   0.042  0.00  0.00     0.102 C 
ATOM      7  N   UNL d   1      -0.008  -4.112   0.066  0.00  0.00    -0.191 NA
ATOM      8  C   UNL d   1      -1.032  -0.835  -0.505  0.00  0.00     0.027 A 
ATOM      9  C   UNL d   1      -1.024   0.557  -0.549  0.00  0.00     0.032 A 
ENDROOT
BRANCH   3  10
ATOM     10  S   UNL d   1       2.643  -1.491   1.110  0.00  0.00    -0.124 SA
ATOM     11  H   UNL d   1       3.232  -0.305   1.318  0.00  0.00     0.108 HD
ENDBRANCH   3  10
BRANCH   5  12
ATOM     12  C   UNL d   1       0.101   2.779  -0.097  0.00  0.00     0.309 C 
BRANCH  12  13
ATOM     13  O   UNL d   1      -0.555   3.292   1.070  0.00  0.00    -0.360 OA
ATOM     14  C   UNL d   1       0.195   3.113   2.266  0.00  0.00     0.205 C 
ENDBRANCH  12  13
BRANCH  12  15
ATOM     15  O   UNL d   1       1.412   3.315  -0.293  0.00  0.00    -0.360 OA
ATOM     16  C   UNL d   1       1.387   4.712  -0.551  0.00  0.00     0.205 C 
ENDBRANCH  12  15
ENDBRANCH   5  12
TORSDOF 4
