REMARK  6 active torsions:
REMARK  status: ('A' for Active; 'I' for Inactive)
REMARK    1  A    between atoms: S_4  and  C_1 
REMARK    2  A    between atoms: C_3  and  C_2 
REMARK       I    between atoms: N_5  and  C_3 
REMARK    3  A    between atoms: C_12  and  S_4 
REMARK    4  A    between atoms: C_11  and  N_5 
REMARK    5  A    between atoms: C_8  and  C_11 
REMARK    6  A    between atoms: O_14  and  C_8 
ROOT
ATOM      1  C   UNL d   1      -0.424   1.362  -0.852  0.00  0.00     0.090 A 
ATOM      2  C   UNL d   1       0.390   1.321   0.290  0.00  0.00     0.065 A 
ATOM      3  N   UNL d   1      -0.739   0.230  -1.532  0.00  0.00    -0.359 N 
ATOM      4  HN  UNL d   1      -1.338   0.264  -2.357  1.00  0.00     0.166 HD
ATOM      5  C   UNL d   1       0.914   0.094   0.711  0.00  0.00     0.021 A 
ATOM      6  C   UNL d   1      -0.237  -0.945  -1.085  0.00  0.00     0.089 A 
ATOM      7  C   UNL d   1       0.591  -1.063   0.018  0.00  0.00     0.018 A 
ENDROOT
BRANCH   2   8
ATOM      8  C   UNL d   1       0.738   2.508   1.102  0.00  0.00     0.254 C 
ATOM      9  N   UNL d   1      -0.320   3.277   1.520  0.00  0.00    -0.347 N 
ATOM     10  H   UNL d   1      -1.264   3.056   1.221  0.00  0.00     0.163 HD
ATOM     11  O   UNL d   1       1.901   2.716   1.416  0.00  0.00    -0.268 OA
BRANCH   9  12
ATOM     12  C   UNL d   1      -0.145   4.503   2.284  0.00  0.00     0.233 C 
BRANCH  12  13
ATOM     13  C   UNL d   1      -1.364   4.842   3.138  0.00  0.00     0.276 C 
ATOM     14  O   UNL d   1      -1.407   5.784   3.919  0.00  0.00    -0.263 OA
BRANCH  13  15
ATOM     15  O   UNL d   1      -2.396   3.981   2.892  0.00  0.00    -0.325 OA
ATOM     16  C   UNL d   1      -3.578   4.194   3.669  0.00  0.00     0.213 C 
ENDBRANCH  13  15
ENDBRANCH  12  13
ENDBRANCH   9  12
ENDBRANCH   2   8
BRANCH   1  17
ATOM     17  S   UNL d   1      -1.022   2.922  -1.489  0.00  0.00    -0.072 SA
BRANCH  17  18
ATOM     18  C   UNL d   1      -2.162   2.627  -2.818  0.00  0.00     0.007 A 
ATOM     19  C   UNL d   1      -3.103   1.593  -2.846  0.00  0.00     0.020 A 
ATOM     20  C   UNL d   1      -4.034   1.504  -3.889  0.00  0.00     0.025 A 
ATOM     21  C   UNL d   1      -4.046   2.465  -4.897  0.00  0.00     0.034 A 
ATOM     22  C   UNL d   1      -3.128   3.509  -4.878  0.00  0.00     0.025 A 
ATOM     23 CL   UNL d   1      -5.212   2.375  -6.157  0.00  0.00    -0.084 Cl
ATOM     24  C   UNL d   1      -2.192   3.586  -3.844  0.00  0.00     0.020 A 
ENDBRANCH  17  18
ENDBRANCH   1  17
TORSDOF 6
