REMARK  3 active torsions:
REMARK  status: ('A' for Active; 'I' for Inactive)
REMARK    1  A    between atoms: C_8  and  C_3 
REMARK    2  A    between atoms: C_12  and  C_6 
REMARK    3  A    between atoms: O_13  and  C_8 
ROOT
ATOM      1  N   UNL d   1       1.230  -1.243  -0.061  0.00  0.00    -0.355 N 
ATOM      2  HN  UNL d   1       1.237  -2.262  -0.116  1.00  0.00     0.166 HD
ATOM      3  C   UNL d   1       1.211   1.518   0.018  0.00  0.00     0.052 A 
ATOM      4  C   UNL d   1       0.060  -0.582  -0.046  0.00  0.00     0.044 A 
ATOM      5  C   UNL d   1      -0.021   0.824  -0.018  0.00  0.00     0.008 A 
ATOM      6  C   UNL d   1       2.397  -0.566  -0.003  0.00  0.00     0.044 A 
ATOM      7  C   UNL d   1       2.422   0.821   0.044  0.00  0.00     0.049 A 
ATOM      8  C   UNL d   1      -1.309   1.421  -0.038  0.00  0.00     0.015 A 
ATOM      9  C   UNL d   1      -1.109  -1.329  -0.046  0.00  0.00     0.037 A 
ATOM     10  C   UNL d   1      -2.471   0.648  -0.039  0.00  0.00     0.007 A 
ATOM     11  C   UNL d   1      -2.381  -0.740  -0.039  0.00  0.00    -0.060 A 
ATOM     12  C   UNL d   1      -3.609  -1.598   0.011  0.00  0.00     0.048 C 
ENDROOT
BRANCH   6  13
ATOM     13  C   UNL d   1       3.623  -1.393   0.012  0.00  0.00    -0.009 A 
ATOM     14  C   UNL d   1       3.664  -2.628  -0.665  0.00  0.00     0.013 A 
ATOM     15  C   UNL d   1       4.810  -3.428  -0.656  0.00  0.00     0.001 A 
ATOM     16  C   UNL d   1       5.944  -3.013   0.034  0.00  0.00     0.000 A 
ATOM     17  C   UNL d   1       5.932  -1.799   0.714  0.00  0.00     0.001 A 
ATOM     18  C   UNL d   1       4.785  -1.000   0.703  0.00  0.00     0.013 A 
ENDBRANCH   6  13
BRANCH   3  19
ATOM     19  C   UNL d   1       1.264   3.002   0.125  0.00  0.00     0.177 C 
ATOM     20  O   UNL d   1       0.504   3.660   0.814  0.00  0.00    -0.646 OA
BRANCH  19  21
ATOM     21  O   UNL d   1       2.250   3.562  -0.609  0.00  0.00    -0.773 OA
ATOM     22  H   UNL d   1       2.709   2.970  -1.233  0.00  0.00     0.167 HD
ENDBRANCH  19  21
ENDBRANCH   3  19
TORSDOF 3
