REMARK  2 active torsions:
REMARK  status: ('A' for Active; 'I' for Inactive)
REMARK    1  A    between atoms: N_3  and  C_1 
REMARK       I    between atoms: C_5  and  N_3 
REMARK    2  A    between atoms: C_7  and  C_5 
ROOT
ATOM      1  C   UNL d   1       3.756  -1.183  -0.782  0.00  0.00     0.101 C 
ATOM      2  C   UNL d   1       5.009  -2.128  -0.791  0.00  0.00    -0.022 C 
ATOM      3  C   UNL d   1       2.905  -1.749   0.414  0.00  0.00    -0.023 C 
ATOM      4  C   UNL d   1       3.766  -2.977   0.859  0.00  0.00    -0.004 C 
ATOM      5  C   UNL d   1       5.199  -2.448   0.697  0.00  0.00     0.016 C 
ATOM      6  C   UNL d   1       4.653  -3.541  -1.311  0.00  0.00     0.011 C 
ATOM      7  C   UNL d   1       3.758  -4.099  -0.197  0.00  0.00     0.006 C 
ATOM      8  C   UNL d   1       6.227  -1.516  -1.456  0.00  0.00     0.017 C 
ATOM      9  C   UNL d   1       2.849  -0.735   1.588  0.00  0.00     0.017 C 
ATOM     10  C   UNL d   1       1.449  -2.098   0.080  0.00  0.00     0.017 C 
ENDROOT
BRANCH   1  11
ATOM     11  N   UNL d   1       3.096  -1.157  -2.080  0.00  0.00    -0.349 N 
ATOM     12  C   UNL d   1       2.349  -0.102  -2.571  0.00  0.00     0.275 C 
ATOM     13  O   UNL d   1       2.183   0.942  -1.948  0.00  0.00    -0.265 OA
ATOM     14  H   UNL d   1       3.063  -1.988  -2.658  0.00  0.00     0.163 HD
BRANCH  12  15
ATOM     15  C   UNL d   1       1.784  -0.364  -3.885  0.00  0.00     0.142 A 
ATOM     16  O   UNL d   1       2.054  -1.561  -4.507  0.00  0.00    -0.317 OA
ATOM     17  C   UNL d   1       1.418  -1.547  -5.707  0.00  0.00     0.143 A 
ATOM     18  C   UNL d   1       0.733  -0.367  -5.875  0.00  0.00     0.027 A 
ATOM     19  C   UNL d   1       0.974   0.398  -4.708  0.00  0.00     0.045 A 
ENDBRANCH  12  15
ENDBRANCH   1  11
TORSDOF 2
