REMARK  5 active torsions:
REMARK  status: ('A' for Active; 'I' for Inactive)
REMARK    1  A    between atoms: C_3  and  C_1 
REMARK    2  A    between atoms: C_13  and  N_2 
REMARK    3  A    between atoms: C_22  and  N_6 
REMARK    4  A    between atoms: S_18  and  C_7 
REMARK    5  A    between atoms: C_14  and  C_16 
ROOT
ATOM      1  C   UNL d   1      -0.119  -1.299   0.190  0.00  0.00     0.158 A 
ATOM      2  N   UNL d   1       1.130  -0.668   0.145  0.00  0.00    -0.274 N 
ATOM      3  N   UNL d   1      -1.071  -0.393   0.273  0.00  0.00    -0.281 N 
ATOM      4  HN  UNL d   1      -2.072  -0.581   0.302  1.00  0.00     0.188 HD
ATOM      5  C   UNL d   1       0.811   0.681   0.233  0.00  0.00     0.165 A 
ATOM      6  N   UNL d   1      -0.490   0.842   0.315  0.00  0.00    -0.278 N 
ATOM      7  HN  UNL d   1      -0.980   1.733   0.395  1.00  0.00     0.189 HD
ENDROOT
BRANCH   2   8
ATOM      8  C   UNL d   1       2.417  -1.277   0.013  0.00  0.00     0.044 A 
ATOM      9  C   UNL d   1       2.581  -2.409  -0.801  0.00  0.00     0.046 A 
ATOM     10  C   UNL d   1       3.821  -3.066  -0.885  0.00  0.00     0.050 A 
ATOM     11  C   UNL d   1       4.920  -2.529  -0.199  0.00  0.00     0.016 A 
ATOM     12  C   UNL d   1       4.771  -1.390   0.590  0.00  0.00     0.003 A 
ATOM     13  C   UNL d   1       3.521  -0.778   0.715  0.00  0.00     0.030 A 
BRANCH  10  14
ATOM     14  C   UNL d   1       3.979  -4.342  -1.677  0.00  0.00     0.417 C 
ATOM     15  F   UNL d   1       2.808  -4.810  -2.191  0.00  0.00    -0.166 F 
ATOM     16  F   UNL d   1       4.825  -4.196  -2.734  0.00  0.00    -0.166 F 
ATOM     17  F   UNL d   1       4.487  -5.357  -0.925  0.00  0.00    -0.166 F 
ENDBRANCH  10  14
ENDBRANCH   2   8
BRANCH   1  18
ATOM     18  C   UNL d   1      -0.400  -2.702   0.232  0.00  0.00     0.098 C 
ATOM     19  N   UNL d   1      -1.474  -3.313  -0.375  0.00  0.00    -0.289 N 
ATOM     20  N   UNL d   1      -1.410  -4.664  -0.320  0.00  0.00    -0.303 N 
ATOM     21  C   UNL d   1      -0.326  -4.916   0.417  0.00  0.00     0.024 C 
ATOM     22  HN  UNL d   1      -2.047  -5.337  -0.745  1.00  0.00     0.186 HD
ATOM     23  C   UNL d   1       0.288  -3.726   0.857  0.00  0.00     0.061 C 
ATOM     24  C   UNL d   1       0.124  -6.309   0.644  0.00  0.00     0.070 C 
BRANCH  19  25
ATOM     25  C   UNL d   1      -2.549  -2.712  -1.148  0.00  0.00     0.145 C 
ATOM     26  C   UNL d   1      -3.774  -2.392  -0.308  0.00  0.00     0.028 C 
ENDBRANCH  19  25
ENDBRANCH   1  18
BRANCH   5  27
ATOM     27  S   UNL d   1       1.894   2.027   0.052  0.00  0.00    -0.105 SA
ATOM     28  H   UNL d   1       2.936   1.411  -0.520  0.00  0.00     0.110 HD
ENDBRANCH   5  27
TORSDOF 5
