REMARK  4 active torsions:
REMARK  status: ('A' for Active; 'I' for Inactive)
REMARK    1  A    between atoms: C_3  and  N_1 
REMARK    2  A    between atoms: C_4  and  C_2 
REMARK       I    between atoms: N_7  and  C_4 
REMARK    3  A    between atoms: C_15  and  N_7 
REMARK    4  A    between atoms: C_14  and  C_15 
ROOT
ATOM      1  C   UNL d   1      -1.169   0.071   1.906  0.00  0.00     0.254 C 
ATOM      2  N   UNL d   1      -2.384   0.038   2.553  0.00  0.00    -0.353 N 
ATOM      3  O   UNL d   1      -0.369  -0.861   1.916  0.00  0.00    -0.268 OA
ATOM      4  H   UNL d   1      -3.097   0.738   2.392  0.00  0.00     0.163 HD
ENDROOT
BRANCH   1   5
ATOM      5  C   UNL d   1      -0.842   1.283   1.115  0.00  0.00     0.065 A 
ATOM      6  C   UNL d   1      -1.085   2.591   1.541  0.00  0.00     0.120 A 
ATOM      7  C   UNL d   1      -0.767   3.705   0.751  0.00  0.00     0.060 A 
ATOM      8  C   UNL d   1      -0.158   3.497  -0.482  0.00  0.00     0.036 A 
ATOM      9  C   UNL d   1       0.138   2.204  -0.916  0.00  0.00     0.025 A 
ATOM     10 CL   UNL d   1       0.251   4.845  -1.467  0.00  0.00    -0.084 Cl
ATOM     11  C   UNL d   1      -0.200   1.101  -0.120  0.00  0.00     0.021 A 
BRANCH   6  12
ATOM     12  N   UNL d   1      -1.628   2.846   2.853  0.00  0.00    -0.115 N 
ATOM     13  O   UNL d   1      -0.942   2.521   3.828  0.00  0.00    -0.532 OA
ATOM     14  O   UNL d   1      -2.749   3.371   2.893  0.00  0.00    -0.532 OA
ENDBRANCH   6  12
ENDBRANCH   1   5
BRANCH   2  15
ATOM     15  C   UNL d   1      -2.736  -1.052   3.446  0.00  0.00     0.162 C 
BRANCH  15  16
ATOM     16  C   UNL d   1      -3.666  -2.044   2.812  0.00  0.00    -0.025 A 
ATOM     17  C   UNL d   1      -3.260  -2.815   1.726  0.00  0.00     0.096 A 
ATOM     18  N   UNL d   1      -4.031  -3.750   1.122  0.00  0.00    -0.375 N 
ATOM     19  C   UNL d   1      -5.263  -3.944   1.635  0.00  0.00     0.087 A 
ATOM     20  HN  UNL d   1      -3.696  -4.282   0.319  1.00  0.00     0.164 HD
ATOM     21  C   UNL d   1      -5.762  -3.243   2.720  0.00  0.00     0.018 A 
ATOM     22  C   UNL d   1      -4.951  -2.278   3.313  0.00  0.00     0.011 A 
ENDBRANCH  15  16
ENDBRANCH   2  15
TORSDOF 4
