REMARK  2 active torsions:
REMARK  status: ('A' for Active; 'I' for Inactive)
REMARK    1  A    between atoms: C_15  and  C_6 
REMARK    2  A    between atoms: N_18  and  C_17 
ROOT
ATOM      1  C   UNL d   1      -1.519  -0.810   0.174  0.00  0.00     0.129 A 
ATOM      2  C   UNL d   1      -0.950   0.426   0.002  0.00  0.00     0.040 A 
ATOM      3  C   UNL d   1       1.169  -0.656  -0.317  0.00  0.00     0.022 C 
ATOM      4  C   UNL d   1       0.475   0.492  -0.112  0.00  0.00    -0.029 C 
ATOM      5  N   UNL d   1      -0.867  -1.997   0.204  0.00  0.00    -0.362 N 
ATOM      6  C   UNL d   1       0.458  -2.009  -0.473  0.00  0.00     0.154 C 
ATOM      7  C   UNL d   1       2.637  -0.567  -0.547  0.00  0.00     0.159 C 
ATOM      8  N   UNL d   1      -2.859  -0.616   0.285  0.00  0.00    -0.285 N 
ATOM      9  N   UNL d   1      -3.216   0.671   0.109  0.00  0.00    -0.303 N 
ATOM     10  HN  UNL d   1      -4.157   1.066   0.118  1.00  0.00     0.186 HD
ATOM     11  C   UNL d   1      -2.047   1.323  -0.085  0.00  0.00     0.036 A 
ATOM     12  C   UNL d   1       1.103   1.847   0.043  0.00  0.00     0.049 C 
ATOM     13  C   UNL d   1       2.591   1.795   0.441  0.00  0.00    -0.037 C 
ATOM     14  C   UNL d   1       3.321   0.781  -0.447  0.00  0.00     0.092 C 
ATOM     15  O   UNL d   1       3.289  -1.540  -0.920  0.00  0.00    -0.293 OA
ATOM     16  C   UNL d   1      -2.103   2.772  -0.388  0.00  0.00     0.070 C 
ATOM     17  C   UNL d   1       2.747   1.425   1.930  0.00  0.00     0.015 C 
ATOM     18  C   UNL d   1       3.215   3.187   0.224  0.00  0.00     0.015 C 
ATOM     19  H   UNL d   1      -1.359  -2.885   0.147  0.00  0.00     0.162 HD
ATOM     20  H   UNL d   1      -3.585  -1.304   0.444  0.00  0.00     0.188 HD
ENDROOT
BRANCH   6  21
ATOM     21  C   UNL d   1       1.200  -3.256  -0.032  0.00  0.00    -0.031 A 
ATOM     22  C   UNL d   1       1.636  -3.458   1.278  0.00  0.00     0.012 A 
ATOM     23  C   UNL d   1       2.389  -4.599   1.613  0.00  0.00     0.030 A 
ATOM     24  C   UNL d   1       2.723  -5.588   0.671  0.00  0.00     0.029 A 
ATOM     25  C   UNL d   1       2.228  -5.385  -0.625  0.00  0.00     0.030 A 
ATOM     26  C   UNL d   1       1.490  -4.249  -0.976  0.00  0.00     0.012 A 
BRANCH  24  27
ATOM     27  N   UNL d   1       3.451  -6.729   0.986  0.00  0.00    -0.390 N 
ATOM     28  C   UNL d   1       4.358  -7.325   0.004  0.00  0.00     0.149 C 
ATOM     29  C   UNL d   1       3.695  -7.139   2.364  0.00  0.00     0.149 C 
ENDBRANCH  24  27
ENDBRANCH   6  21
TORSDOF 2
