REMARK  3 active torsions:
REMARK  status: ('A' for Active; 'I' for Inactive)
REMARK       I    between atoms: N_3  and  C_1 
REMARK    1  A    between atoms: C_4  and  C_1 
REMARK    2  A    between atoms: C_2  and  N_3 
REMARK    3  A    between atoms: C_13  and  C_5 
ROOT
ATOM      1  C   UNL d   1       1.085  -2.338  -0.697  0.00  0.00     0.089 C 
ATOM      2  C   UNL d   1       0.353  -3.679  -0.377  0.00  0.00     0.012 C 
ATOM      3  C   UNL d   1       1.216  -4.905  -0.748  0.00  0.00     0.007 C 
ATOM      4  C   UNL d   1       2.568  -2.334  -0.275  0.00  0.00     0.029 C 
ATOM      5  C   UNL d   1       2.633  -4.834  -0.202  0.00  0.00     0.005 C 
ATOM      6  C   UNL d   1       3.342  -3.582  -0.705  0.00  0.00    -0.017 C 
ATOM      7  C   UNL d   1       4.776  -3.545  -0.179  0.00  0.00     0.010 C 
ENDROOT
BRANCH   1   8
ATOM      8  N   UNL d   1       0.440  -1.197  -0.037  0.00  0.00    -0.350 N 
ATOM      9  C   UNL d   1      -0.453  -0.343  -0.648  0.00  0.00     0.275 C 
ATOM     10  O   UNL d   1      -0.827  -0.499  -1.810  0.00  0.00    -0.265 OA
ATOM     11  H   UNL d   1       0.653  -1.000   0.935  0.00  0.00     0.163 HD
BRANCH   9  12
ATOM     12  C   UNL d   1      -0.907   0.757   0.181  0.00  0.00     0.142 A 
ATOM     13  O   UNL d   1      -0.355   0.960   1.422  0.00  0.00    -0.317 OA
ATOM     14  C   UNL d   1      -0.937   2.079   1.936  0.00  0.00     0.143 A 
ATOM     15  C   UNL d   1      -1.864   2.593   1.065  0.00  0.00     0.027 A 
ATOM     16  C   UNL d   1      -1.851   1.740  -0.066  0.00  0.00     0.045 A 
ENDBRANCH   9  12
ENDBRANCH   1   8
BRANCH   2  17
ATOM     17  C   UNL d   1      -1.075  -3.774  -1.019  0.00  0.00    -0.017 C 
ATOM     18  C   UNL d   1      -1.077  -3.756  -2.554  0.00  0.00     0.010 C 
ATOM     19  C   UNL d   1      -1.849  -5.011  -0.537  0.00  0.00     0.010 C 
ENDBRANCH   2  17
TORSDOF 3
