REMARK  7 active torsions:
REMARK  status: ('A' for Active; 'I' for Inactive)
REMARK    1  A    between atoms: C_16  and  C_3 
REMARK    2  A    between atoms: C_14  and  C_4 
REMARK    3  A    between atoms: S_7  and  N_11 
REMARK    4  A    between atoms: C_20  and  S_7 
REMARK    5  A    between atoms: N_11  and  C_15 
REMARK    6  A    between atoms: C_19  and  C_13 
REMARK       I    between atoms: N_17  and  C_14 
REMARK    7  A    between atoms: C_15  and  N_17 
ROOT
ATOM      1  C   UNL d   1       0.150  -4.690   0.880  0.00  0.00     0.145 A 
ATOM      2  N   UNL d   1      -1.222  -4.915   1.108  0.00  0.00    -0.234 N 
ATOM      3  C   UNL d   1      -1.684  -6.185   1.425  0.00  0.00     0.144 A 
ATOM      4  C   UNL d   1       0.289  -3.338   0.620  0.00  0.00     0.095 A 
ATOM      5  N   UNL d   1       1.073  -5.699   0.938  0.00  0.00    -0.336 N 
ATOM      6  HN  UNL d   1       2.062  -5.520   0.764  1.00  0.00     0.167 HD
ATOM      7  C   UNL d   1      -0.806  -7.205   1.509  0.00  0.00     0.071 A 
ATOM      8  N   UNL d   1      -1.926  -3.770   0.978  0.00  0.00    -0.302 N 
ATOM      9  HN  UNL d   1      -2.934  -3.650   1.068  1.00  0.00     0.186 HD
ATOM     10  C   UNL d   1       0.639  -6.906   1.224  0.00  0.00     0.120 A 
ATOM     11  C   UNL d   1      -1.022  -2.835   0.706  0.00  0.00     0.128 A 
ENDROOT
BRANCH   4  12
ATOM     12  C   UNL d   1       1.478  -2.546   0.336  0.00  0.00     0.263 C 
ATOM     13  N   UNL d   1       2.664  -3.258   0.285  0.00  0.00    -0.299 N 
ATOM     14  H   UNL d   1       2.587  -4.266   0.360  0.00  0.00     0.171 HD
ATOM     15  O   UNL d   1       1.368  -1.344   0.140  0.00  0.00    -0.267 OA
BRANCH  13  16
ATOM     16  C   UNL d   1       3.952  -2.773   0.254  0.00  0.00     0.186 C 
ATOM     17  S   UNL d   1       4.465  -1.190   0.180  0.00  0.00    -0.040 SA
BRANCH  16  18
ATOM     18  N   UNL d   1       5.011  -3.678   0.251  0.00  0.00    -0.289 N 
ATOM     19  HN  UNL d   1       5.811  -3.468  -0.346  1.00  0.00     0.178 HD
BRANCH  18  20
ATOM     20  S   UNL d   1       5.061  -4.967   1.078  0.00  0.00     0.054 S 
ATOM     21  O   UNL d   1       4.026  -5.978   0.968  0.00  0.00    -0.245 OA
ATOM     22  C   UNL d   1       6.607  -5.778   0.792  0.00  0.00     0.142 C 
BRANCH  20  23
ATOM     23  C   UNL d   1       5.122  -4.497   2.797  0.00  0.00     0.038 A 
ATOM     24  C   UNL d   1       4.249  -5.108   3.703  0.00  0.00     0.023 A 
ATOM     25  C   UNL d   1       4.276  -4.737   5.047  0.00  0.00     0.025 A 
ATOM     26  C   UNL d   1       5.169  -3.754   5.476  0.00  0.00     0.034 A 
ATOM     27  C   UNL d   1       6.031  -3.135   4.570  0.00  0.00     0.025 A 
ATOM     28 CL   UNL d   1       5.201  -3.303   7.136  0.00  0.00    -0.084 Cl
ATOM     29  C   UNL d   1       6.010  -3.503   3.222  0.00  0.00     0.023 A 
ENDBRANCH  20  23
ENDBRANCH  18  20
ENDBRANCH  16  18
ENDBRANCH  13  16
ENDBRANCH   4  12
BRANCH   3  30
ATOM     30  C   UNL d   1      -3.138  -6.380   1.658  0.00  0.00     0.434 C 
ATOM     31  F   UNL d   1      -3.830  -5.284   2.045  0.00  0.00    -0.165 F 
ATOM     32  F   UNL d   1      -3.743  -6.873   0.548  0.00  0.00    -0.165 F 
ATOM     33  F   UNL d   1      -3.339  -7.308   2.636  0.00  0.00    -0.165 F 
ENDBRANCH   3  30
BRANCH  10  34
ATOM     34  C   UNL d   1       1.605  -8.101   1.305  0.00  0.00     0.432 C 
ATOM     35  F   UNL d   1       0.942  -9.285   1.452  0.00  0.00    -0.165 F 
ATOM     36  F   UNL d   1       2.371  -8.241   0.192  0.00  0.00    -0.165 F 
ATOM     37  F   UNL d   1       2.442  -8.012   2.374  0.00  0.00    -0.165 F 
ENDBRANCH  10  34
TORSDOF 7
