REMARK  3 active torsions:
REMARK  status: ('A' for Active; 'I' for Inactive)
REMARK    1  A    between atoms: C_6  and  C_1 
REMARK    2  A    between atoms: C_9  and  N_2 
REMARK    3  A    between atoms: N_19  and  C_3 
ROOT
ATOM      1  C   UNL d   1      -0.271   1.231   0.034  0.00  0.00     0.073 C 
ATOM      2  N   UNL d   1       1.036  -0.555  -0.080  0.00  0.00    -0.240 N 
ATOM      3  C   UNL d   1       1.051   0.837   0.083  0.00  0.00     0.136 C 
ATOM      4  N   UNL d   1      -0.214  -1.005  -0.388  0.00  0.00    -0.302 N 
ATOM      5  HN  UNL d   1      -0.488  -1.947  -0.664  1.00  0.00     0.186 HD
ATOM      6  C   UNL d   1      -0.997   0.066  -0.247  0.00  0.00     0.127 C 
ENDROOT
BRANCH   1   7
ATOM      7  C   UNL d   1      -0.846   2.558   0.155  0.00  0.00     0.149 A 
ATOM      8  N   UNL d   1      -0.050   3.669   0.283  0.00  0.00    -0.266 N 
ATOM      9  N   UNL d   1      -0.867   4.711   0.343  0.00  0.00    -0.005 NA
ATOM     10  HN  UNL d   1       0.969   3.688   0.323  1.00  0.00     0.186 HD
ATOM     11  N   UNL d   1      -2.095   4.182   0.255  0.00  0.00    -0.225 N 
ATOM     12  N   UNL d   1      -2.155   2.847   0.126  0.00  0.00    -0.271 N 
ATOM     13  H   UNL d   1      -2.928   4.764   0.278  0.00  0.00     0.205 HD
ATOM     14  HN  UNL d   1      -2.963   2.231   0.033  1.00  0.00     0.190 HD
ENDBRANCH   1   7
BRANCH   3  15
ATOM     15  N   UNL d   1       2.177   1.598   0.206  0.00  0.00    -0.383 N 
ATOM     16  H   UNL d   1       3.039   1.303  -0.249  0.00  0.00     0.157 HD
ATOM     17  H   UNL d   1       2.070   2.615   0.155  0.00  0.00     0.157 HD
ENDBRANCH   3  15
BRANCH   2  18
ATOM     18  C   UNL d   1       2.107  -1.489   0.030  0.00  0.00     0.061 A 
ATOM     19  C   UNL d   1       3.255  -1.197   0.776  0.00  0.00     0.055 A 
ATOM     20  C   UNL d   1       4.288  -2.133   0.855  0.00  0.00     0.037 A 
ATOM     21 CL   UNL d   1       5.693  -1.770   1.781  0.00  0.00    -0.084 Cl
ATOM     22  C   UNL d   1       4.194  -3.357   0.199  0.00  0.00     0.048 A 
ATOM     23  C   UNL d   1       3.042  -3.655  -0.522  0.00  0.00     0.037 A 
ATOM     24  C   UNL d   1       1.992  -2.739  -0.599  0.00  0.00     0.055 A 
ATOM     25 CL   UNL d   1       2.919  -5.165  -1.340  0.00  0.00    -0.084 Cl
ENDBRANCH   2  18
TORSDOF 3
