REMARK  3 active torsions:
REMARK  status: ('A' for Active; 'I' for Inactive)
REMARK    1  A    between atoms: N_5  and  C_1 
REMARK    2  A    between atoms: S_8  and  C_2 
REMARK    3  A    between atoms: C_9  and  S_8 
ROOT
ATOM      1  C   UNL d   1      -1.326  -0.846  -0.052  0.00  0.00     0.209 A 
ATOM      2  C   UNL d   1      -0.002  -1.253  -0.097  0.00  0.00     0.129 A 
ATOM      3  N   UNL d   1      -1.416   0.538  -0.089  0.00  0.00    -0.331 N 
ATOM      4  HN  UNL d   1      -2.264   1.105  -0.080  1.00  0.00     0.168 HD
ATOM      5  N   UNL d   1       0.718  -0.081  -0.161  0.00  0.00    -0.339 N 
ATOM      6  C   UNL d   1      -0.175   0.960  -0.137  0.00  0.00     0.185 A 
ATOM      7  C   UNL d   1       2.148   0.117  -0.205  0.00  0.00     0.158 C 
ENDROOT
BRANCH   2   8
ATOM      8  S   UNL d   1       0.771  -2.804   0.048  0.00  0.00    -0.061 SA
BRANCH   8   9
ATOM      9  C   UNL d   1       0.817  -3.244  -1.655  0.00  0.00     0.047 A 
ATOM     10  S   UNL d   1       2.247  -3.098  -2.587  0.00  0.00    -0.095 SA
ATOM     11  C   UNL d   1       1.508  -3.803  -3.958  0.00  0.00     0.051 A 
ATOM     12  C   UNL d   1       0.195  -4.140  -3.717  0.00  0.00     0.009 A 
ATOM     13  C   UNL d   1      -0.203  -3.819  -2.385  0.00  0.00     0.027 A 
ENDBRANCH   8   9
ENDBRANCH   2   8
BRANCH   1  14
ATOM     14  N   UNL d   1      -2.535  -1.634   0.062  0.00  0.00    -0.095 N 
ATOM     15  O   UNL d   1      -2.419  -2.868   0.068  0.00  0.00    -0.530 OA
ATOM     16  O   UNL d   1      -3.610  -1.024   0.136  0.00  0.00    -0.530 OA
ENDBRANCH   1  14
TORSDOF 3
