REMARK  7 active torsions:
REMARK  status: ('A' for Active; 'I' for Inactive)
REMARK    1  A    between atoms: C_8  and  N_3 
REMARK    2  A    between atoms: S_12  and  C_7 
REMARK    3  A    between atoms: C_11  and  C_24 
REMARK    4  A    between atoms: C_23  and  S_12 
REMARK    5  A    between atoms: C_13  and  C_23 
REMARK       I    between atoms: N_17  and  C_13 
REMARK       I    between atoms: C_14  and  N_15 
REMARK    6  A    between atoms: N_15  and  C_16 
REMARK    7  A    between atoms: C_24  and  N_17 
ROOT
ATOM      1  N   UNL d   1      -0.136  -1.271  -0.328  0.00  0.00    -0.259 N 
ATOM      2  HN  UNL d   1      -0.260  -2.219  -0.685  1.00  0.00     0.191 HD
ATOM      3  N   UNL d   1       1.000  -0.619   0.032  0.00  0.00    -0.178 N 
ATOM      4  N   UNL d   1       0.790   0.651   0.462  0.00  0.00     0.003 NA
ATOM      5  N   UNL d   1      -0.521   0.840   0.381  0.00  0.00    -0.261 N 
ATOM      6  HN  UNL d   1      -1.034   1.689   0.620  1.00  0.00     0.186 HD
ATOM      7  C   UNL d   1      -1.042  -0.326  -0.085  0.00  0.00     0.174 A 
ENDROOT
BRANCH   7   8
ATOM      8  S   UNL d   1      -2.731  -0.630  -0.337  0.00  0.00    -0.082 SA
BRANCH   8   9
ATOM      9  C   UNL d   1      -2.887  -0.060  -2.045  0.00  0.00     0.185 C 
BRANCH   9  10
ATOM     10  C   UNL d   1      -2.257  -0.948  -3.109  0.00  0.00     0.227 C 
ATOM     11  N   UNL d   1      -1.867  -2.214  -2.751  0.00  0.00    -0.356 N 
ATOM     12  H   UNL d   1      -1.739  -2.418  -1.766  0.00  0.00     0.162 HD
ATOM     13  O   UNL d   1      -2.166  -0.537  -4.267  0.00  0.00    -0.273 OA
BRANCH  11  14
ATOM     14  C   UNL d   1      -1.225  -3.103  -3.695  0.00  0.00     0.168 C 
BRANCH  14  15
ATOM     15  C   UNL d   1      -1.677  -4.516  -3.467  0.00  0.00     0.000 A 
ATOM     16  S   UNL d   1      -3.342  -4.931  -3.505  0.00  0.00    -0.105 SA
ATOM     17  C   UNL d   1      -3.005  -6.587  -3.245  0.00  0.00     0.050 A 
ATOM     18  C   UNL d   1      -1.656  -6.831  -3.143  0.00  0.00     0.008 A 
ATOM     19  C   UNL d   1      -0.894  -5.639  -3.281  0.00  0.00     0.017 A 
ENDBRANCH  14  15
ENDBRANCH  11  14
ENDBRANCH   9  10
ENDBRANCH   8   9
ENDBRANCH   7   8
BRANCH   3  20
ATOM     20  C   UNL d   1       2.277  -1.223  -0.027  0.00  0.00     0.075 A 
ATOM     21  C   UNL d   1       2.400  -2.516  -0.558  0.00  0.00     0.062 A 
ATOM     22  C   UNL d   1       3.649  -3.136  -0.632  0.00  0.00     0.036 A 
ATOM     23  C   UNL d   1       4.770  -2.482  -0.114  0.00  0.00     0.029 A 
ATOM     24  C   UNL d   1       4.653  -1.187   0.402  0.00  0.00     0.005 A 
ATOM     25  C   UNL d   1       3.411  -0.549   0.438  0.00  0.00     0.033 A 
BRANCH  22  26
ATOM     26  N   UNL d   1       3.820  -4.415  -1.201  0.00  0.00    -0.327 N 
ATOM     27  C   UNL d   1       2.986  -4.962  -2.158  0.00  0.00     0.218 C 
ATOM     28  O   UNL d   1       2.077  -4.367  -2.732  0.00  0.00    -0.274 OA
ATOM     29  C   UNL d   1       3.273  -6.404  -2.470  0.00  0.00     0.117 C 
ATOM     30  H   UNL d   1       4.712  -4.870  -1.050  0.00  0.00     0.169 HD
ENDBRANCH  22  26
ENDBRANCH   3  20
TORSDOF 7
