REMARK  4 active torsions:
REMARK  status: ('A' for Active; 'I' for Inactive)
REMARK    1  A    between atoms: C_9  and  C_1 
REMARK    2  A    between atoms: C_2  and  C_5 
REMARK    3  A    between atoms: S_6  and  N_11 
REMARK       I    between atoms: N_13  and  C_9 
REMARK    4  A    between atoms: N_11  and  N_13 
ROOT
ATOM      1  C   UNL d   1       1.285   0.808   0.081  0.00  0.00     0.110 A 
ATOM      2  N   UNL d   1       1.448  -0.582   0.077  0.00  0.00    -0.344 N 
ATOM      3  HN  UNL d   1       2.342  -1.067   0.145  1.00  0.00     0.167 HD
ATOM      4  C   UNL d   1       0.270  -1.174  -0.029  0.00  0.00     0.102 A 
ATOM      5  S   UNL d   1      -1.081  -0.114  -0.098  0.00  0.00    -0.080 SA
ATOM      6  C   UNL d   1      -0.030   1.230   0.015  0.00  0.00     0.087 A 
ENDROOT
BRANCH   1   7
ATOM      7  C   UNL d   1       2.429   1.721   0.133  0.00  0.00     0.287 C 
ATOM      8  N   UNL d   1       3.647   1.076   0.199  0.00  0.00    -0.255 N 
ATOM      9  H   UNL d   1       3.705   0.058   0.152  0.00  0.00     0.191 HD
ATOM     10  O   UNL d   1       2.324   2.947   0.091  0.00  0.00    -0.264 OA
BRANCH   8  11
ATOM     11  N   UNL d   1       4.881   1.864   0.106  0.00  0.00    -0.224 N 
ATOM     12  H   UNL d   1       4.730   2.838  -0.187  0.00  0.00     0.200 HD
BRANCH  11  13
ATOM     13  S   UNL d   1       6.228   1.071  -0.545  0.00  0.00     0.240 S 
ATOM     14  O   UNL d   1       6.394  -0.167   0.187  0.00  0.00    -0.205 OA
ATOM     15  O   UNL d   1       6.067   1.080  -1.981  0.00  0.00    -0.205 OA
ATOM     16  C   UNL d   1       7.545   2.188  -0.113  0.00  0.00     0.187 C 
ENDBRANCH  11  13
ENDBRANCH   8  11
ENDBRANCH   1   7
BRANCH   4  17
ATOM     17  C   UNL d   1       0.120  -2.672  -0.092  0.00  0.00     0.073 A 
ATOM     18  N   UNL d   1      -1.105  -3.295  -0.294  0.00  0.00    -0.352 N 
ATOM     19  C   UNL d   1      -0.942  -4.601  -0.343  0.00  0.00     0.047 A 
ATOM     20  HN  UNL d   1      -1.999  -2.813  -0.389  1.00  0.00     0.166 HD
ATOM     21  C   UNL d   1      -2.034  -5.581  -0.596  0.00  0.00     0.076 C 
ATOM     22  S   UNL d   1       0.668  -5.154  -0.099  0.00  0.00    -0.087 SA
ATOM     23  C   UNL d   1       1.195  -3.529   0.035  0.00  0.00     0.083 A 
ENDBRANCH   4  17
TORSDOF 4
