REMARK  4 active torsions:
REMARK  status: ('A' for Active; 'I' for Inactive)
REMARK    1  A    between atoms: N_4  and  C_3 
REMARK       I    between atoms: C_5  and  N_4 
REMARK    2  A    between atoms: C_13  and  C_5 
REMARK    3  A    between atoms: S_8  and  C_13 
REMARK    4  A    between atoms: C_14  and  S_8 
ROOT
ATOM      1  N   UNL d   1      -3.559  -0.503   0.686  0.00  0.00    -0.324 N 
ATOM      2  C   UNL d   1      -3.776  -1.431  -0.321  0.00  0.00     0.231 C 
ATOM      3  O   UNL d   1      -2.945  -1.795  -1.147  0.00  0.00    -0.272 OA
ATOM      4  H   UNL d   1      -4.245  -0.494   1.433  0.00  0.00     0.169 HD
ENDROOT
BRANCH   1   5
ATOM      5  C   UNL d   1      -2.427   0.327   0.847  0.00  0.00     0.077 A 
ATOM      6  C   UNL d   1      -1.538   0.685  -0.178  0.00  0.00     0.184 A 
ATOM      7  C   UNL d   1      -0.438   1.497   0.090  0.00  0.00     0.195 A 
ATOM      8  F   UNL d   1      -1.765   0.347  -1.454  0.00  0.00    -0.200 F 
ATOM      9  C   UNL d   1      -0.219   1.970   1.377  0.00  0.00     0.158 A 
ATOM     10  F   UNL d   1       0.398   1.844  -0.898  0.00  0.00    -0.199 F 
ATOM     11  F   UNL d   1       0.838   2.750   1.639  0.00  0.00    -0.203 F 
ATOM     12  C   UNL d   1      -1.104   1.658   2.402  0.00  0.00     0.048 A 
ATOM     13  C   UNL d   1      -2.212   0.847   2.135  0.00  0.00     0.036 A 
ENDBRANCH   1   5
BRANCH   2  14
ATOM     14  C   UNL d   1      -5.122  -2.141  -0.224  0.00  0.00     0.182 C 
BRANCH  14  15
ATOM     15  S   UNL d   1      -6.491  -0.939  -0.142  0.00  0.00    -0.121 SA
BRANCH  15  16
ATOM     16  C   UNL d   1      -7.955  -1.966  -0.059  0.00  0.00     0.001 A 
ATOM     17  C   UNL d   1      -7.961  -3.365  -0.044  0.00  0.00     0.020 A 
ATOM     18  C   UNL d   1      -9.168  -4.071   0.044  0.00  0.00     0.025 A 
ATOM     19  C   UNL d   1     -10.377  -3.383   0.116  0.00  0.00     0.034 A 
ATOM     20  C   UNL d   1     -10.390  -1.994   0.093  0.00  0.00     0.025 A 
ATOM     21 CL   UNL d   1     -11.855  -4.253   0.237  0.00  0.00    -0.084 Cl
ATOM     22  C   UNL d   1      -9.184  -1.291   0.005  0.00  0.00     0.020 A 
ENDBRANCH  15  16
ENDBRANCH  14  15
ENDBRANCH   2  14
TORSDOF 4
