REMARK  4 active torsions:
REMARK  status: ('A' for Active; 'I' for Inactive)
REMARK    1  A    between atoms: C_8  and  C_1 
REMARK    2  A    between atoms: N_7  and  C_2 
REMARK       I    between atoms: N_12  and  C_8 
REMARK    3  A    between atoms: N_9  and  N_12 
REMARK    4  A    between atoms: C_11  and  C_19 
ROOT
ATOM      1  C   UNL d   1      -0.259  -2.569  -0.226  0.00  0.00     0.279 C 
ATOM      2  N   UNL d   1       0.912  -3.319  -0.130  0.00  0.00    -0.266 N 
ATOM      3  O   UNL d   1      -1.366  -3.098  -0.332  0.00  0.00    -0.265 OA
ATOM      4  H   UNL d   1       1.815  -2.865  -0.056  0.00  0.00     0.190 HD
ENDROOT
BRANCH   1   5
ATOM      5  C   UNL d   1      -0.103  -1.123  -0.188  0.00  0.00     0.100 A 
ATOM      6  S   UNL d   1       1.397  -0.334   0.105  0.00  0.00    -0.046 SA
ATOM      7  C   UNL d   1       0.602   1.171   0.063  0.00  0.00     0.155 A 
ATOM      8  N   UNL d   1      -0.687   1.144  -0.187  0.00  0.00    -0.339 N 
ATOM      9  C   UNL d   1      -1.098  -0.167  -0.358  0.00  0.00     0.030 A 
ATOM     10  HN  UNL d   1      -1.292   1.963  -0.247  1.00  0.00     0.168 HD
ATOM     11  C   UNL d   1      -2.530  -0.413  -0.688  0.00  0.00     0.070 C 
BRANCH   7  12
ATOM     12  N   UNL d   1       1.300   2.364   0.304  0.00  0.00    -0.313 N 
ATOM     13  C   UNL d   1       2.662   2.562   0.477  0.00  0.00     0.098 A 
ATOM     14  C   UNL d   1       2.906   3.902   0.691  0.00  0.00     0.019 A 
ATOM     15  C   UNL d   1       1.663   4.566   0.662  0.00  0.00     0.019 A 
ATOM     16  C   UNL d   1       0.703   3.612   0.415  0.00  0.00     0.098 A 
ENDBRANCH   7  12
ENDBRANCH   1   5
BRANCH   2  17
ATOM     17  N   UNL d   1       0.820  -4.678  -0.102  0.00  0.00    -0.308 N 
ATOM     18  C   UNL d   1       1.920  -5.353  -0.010  0.00  0.00     0.120 C 
ATOM     19  HN  UNL d   1      -0.085  -5.146  -0.153  1.00  0.00     0.186 HD
BRANCH  18  20
ATOM     20  C   UNL d   1       1.879  -6.835   0.036  0.00  0.00     0.002 A 
ATOM     21  C   UNL d   1       3.041  -7.612   0.108  0.00  0.00     0.045 A 
ATOM     22 CL   UNL d   1       4.626  -6.927   0.161  0.00  0.00    -0.083 Cl
ATOM     23  C   UNL d   1       2.943  -9.010   0.142  0.00  0.00     0.024 A 
ATOM     24  C   UNL d   1       1.694  -9.634   0.107  0.00  0.00     0.002 A 
ATOM     25  C   UNL d   1       0.536  -8.865   0.040  0.00  0.00     0.001 A 
ATOM     26  C   UNL d   1       0.627  -7.473   0.005  0.00  0.00     0.014 A 
ENDBRANCH  18  20
ENDBRANCH   2  17
TORSDOF 4
