REMARK  6 active torsions:
REMARK  status: ('A' for Active; 'I' for Inactive)
REMARK    1  A    between atoms: C_2  and  C_1 
REMARK       I    between atoms: N_7  and  C_2 
REMARK    2  A    between atoms: N_3  and  C_10 
REMARK    3  A    between atoms: N_8  and  C_4 
REMARK    4  A    between atoms: C_14  and  N_7 
REMARK    5  A    between atoms: C_10  and  C_11 
REMARK    6  A    between atoms: C_11  and  C_14 
ROOT
ATOM      1  C   UNL d   1       1.905   1.985  -1.140  0.00  0.00     0.253 C 
ATOM      2  O   UNL d   1       2.204   2.369  -2.261  0.00  0.00    -0.268 OA
ATOM      3  N   UNL d   1       2.215   2.696   0.004  0.00  0.00    -0.357 N 
ATOM      4  H   UNL d   1       2.091   2.221   0.893  0.00  0.00     0.162 HD
ENDROOT
BRANCH   1   5
ATOM      5  C   UNL d   1       1.211   0.671  -0.956  0.00  0.00     0.052 A 
ATOM      6  C   UNL d   1       0.338   0.375   0.111  0.00  0.00     0.021 A 
ATOM      7  C   UNL d   1      -0.192  -0.925   0.199  0.00  0.00     0.024 A 
ATOM      8  C   UNL d   1       0.046  -1.875  -0.798  0.00  0.00     0.002 A 
ATOM      9  C   UNL d   1       0.862  -1.559  -1.877  0.00  0.00     0.001 A 
ATOM     10  C   UNL d   1       1.445  -0.294  -1.954  0.00  0.00     0.019 A 
BRANCH   6  11
ATOM     11  N   UNL d   1       0.102   1.260   1.186  0.00  0.00    -0.302 NA
ATOM     12  H   UNL d   1       0.029   2.225   0.863  0.00  0.00     0.124 HD
ATOM     13  H   UNL d   1      -0.713   1.003   1.739  0.00  0.00     0.124 HD
ENDBRANCH   6  11
ENDBRANCH   1   5
BRANCH   3  14
ATOM     14  C   UNL d   1       3.022   3.906  -0.050  0.00  0.00     0.124 C 
BRANCH  14  15
ATOM     15  C   UNL d   1       4.516   3.578  -0.051  0.00  0.00     0.050 C 
BRANCH  15  16
ATOM     16  C   UNL d   1       5.397   4.832  -0.187  0.00  0.00     0.274 C 
BRANCH  16  17
ATOM     17  N   UNL d   1       6.835   4.550  -0.033  0.00  0.00     0.092 N 
ATOM     18  C   UNL d   1       7.652   5.785  -0.099  0.00  0.00     0.298 C 
ATOM     19  C   UNL d   1       7.865   6.328  -1.524  0.00  0.00     0.198 C 
ATOM     20  O   UNL d   1       8.437   5.334  -2.382  0.00  0.00    -0.388 OA
ATOM     21  C   UNL d   1       7.605   4.168  -2.422  0.00  0.00     0.198 C 
ATOM     22  C   UNL d   1       7.387   3.590  -1.014  0.00  0.00     0.298 C 
ENDBRANCH  16  17
ENDBRANCH  15  16
ENDBRANCH  14  15
ENDBRANCH   3  14
TORSDOF 6
