REMARK  6 active torsions:
REMARK  status: ('A' for Active; 'I' for Inactive)
REMARK    1  A    between atoms: C_8  and  C_2 
REMARK    2  A    between atoms: S_9  and  C_5 
REMARK    3  A    between atoms: C_15  and  C_14 
REMARK    4  A    between atoms: C_16  and  C_15 
REMARK    5  A    between atoms: C_18  and  C_16 
REMARK    6  A    between atoms: C_17  and  C_18 
ROOT
ATOM      1  C   UNL d   1      -2.926   1.595  -0.056  0.00  0.00     0.009 A 
ATOM      2  C   UNL d   1      -3.853   1.500   0.990  0.00  0.00     0.016 A 
ATOM      3  C   UNL d   1      -3.116   2.580  -1.034  0.00  0.00     0.016 A 
ATOM      4  C   UNL d   1      -4.955   2.359   1.050  0.00  0.00     0.008 A 
ATOM      5  C   UNL d   1      -4.210   3.446  -0.969  0.00  0.00     0.008 A 
ATOM      6  C   UNL d   1      -5.147   3.335   0.064  0.00  0.00    -0.058 A 
ENDROOT
BRANCH   1   7
ATOM      7  C   UNL d   1      -1.780   0.696  -0.099  0.00  0.00     0.132 A 
ATOM      8  N   UNL d   1      -1.157   0.286  -1.251  0.00  0.00    -0.320 N 
ATOM      9  C   UNL d   1      -0.130  -0.514  -0.867  0.00  0.00     0.157 A 
ATOM     10  H   UNL d   1      -1.427   0.516  -2.193  0.00  0.00     0.169 HD
ATOM     11  N   UNL d   1      -0.115  -0.626   0.438  0.00  0.00    -0.278 N 
ATOM     12  N   UNL d   1      -1.168   0.124   0.923  0.00  0.00    -0.283 N 
ATOM     13  HN  UNL d   1       0.549  -1.166   0.992  1.00  0.00     0.189 HD
ATOM     14  HN  UNL d   1      -1.429   0.220   1.904  1.00  0.00     0.188 HD
BRANCH   9  15
ATOM     15  S   UNL d   1       0.945  -1.237  -1.997  0.00  0.00    -0.106 SA
ATOM     16  H   UNL d   1       0.442  -0.748  -3.137  0.00  0.00     0.110 HD
ENDBRANCH   9  15
ENDBRANCH   1   7
BRANCH   6  17
ATOM     17  C   UNL d   1      -6.343   4.254   0.116  0.00  0.00     0.038 C 
BRANCH  17  18
ATOM     18  C   UNL d   1      -7.241   4.165  -1.124  0.00  0.00     0.005 C 
BRANCH  18  19
ATOM     19  C   UNL d   1      -7.853   2.776  -1.327  0.00  0.00    -0.000 C 
BRANCH  19  20
ATOM     20  C   UNL d   1      -8.735   2.747  -2.575  0.00  0.00    -0.005 C 
ATOM     21  C   UNL d   1      -9.341   1.372  -2.799  0.00  0.00     0.005 C 
ENDBRANCH  19  20
ENDBRANCH  18  19
ENDBRANCH  17  18
ENDBRANCH   6  17
TORSDOF 6
