REMARK  5 active torsions:
REMARK  status: ('A' for Active; 'I' for Inactive)
REMARK    1  A    between atoms: N_6  and  C_1 
REMARK    2  A    between atoms: N_7  and  C_1 
REMARK    3  A    between atoms: N_2  and  N_6 
REMARK    4  A    between atoms: C_4  and  C_5 
REMARK    5  A    between atoms: C_13  and  N_7 
ROOT
ATOM      1  C   UNL d   1       3.056   0.915   1.052  0.00  0.00     0.191 C 
ATOM      2  S   UNL d   1       2.579   0.449  -0.478  0.00  0.00    -0.039 SA
ENDROOT
BRANCH   1   3
ATOM      3  N   UNL d   1       2.295   1.611   1.968  0.00  0.00    -0.276 N 
ATOM      4  H   UNL d   1       2.794   2.069   2.720  0.00  0.00     0.189 HD
BRANCH   3   5
ATOM      5  N   UNL d   1       0.937   1.648   1.928  0.00  0.00    -0.300 N 
ATOM      6  C   UNL d   1       0.305   2.347   2.832  0.00  0.00     0.055 C 
ATOM      7  C   UNL d   1       0.999   3.189   3.883  0.00  0.00     0.072 C 
ATOM      8  HN  UNL d   1       0.422   1.141   1.208  1.00  0.00     0.186 HD
BRANCH   6   9
ATOM      9  C   UNL d   1      -1.140   2.297   2.831  0.00  0.00     0.098 A 
ATOM     10  O   UNL d   1      -1.844   3.055   3.727  0.00  0.00    -0.321 OA
ATOM     11  C   UNL d   1      -3.162   2.808   3.519  0.00  0.00     0.142 A 
ATOM     12  C   UNL d   1      -3.326   1.897   2.504  0.00  0.00     0.027 A 
ATOM     13  C   UNL d   1      -2.025   1.567   2.059  0.00  0.00     0.041 A 
ENDBRANCH   6   9
ENDBRANCH   3   5
ENDBRANCH   1   3
BRANCH   1  14
ATOM     14  N   UNL d   1       4.351   0.675   1.460  0.00  0.00    -0.332 N 
ATOM     15  H   UNL d   1       5.010   0.489   0.711  0.00  0.00     0.168 HD
BRANCH  14  16
ATOM     16  C   UNL d   1       4.778   0.349   2.768  0.00  0.00     0.034 A 
ATOM     17  C   UNL d   1       3.898  -0.160   3.734  0.00  0.00     0.032 A 
ATOM     18  C   UNL d   1       4.369  -0.519   4.998  0.00  0.00     0.044 A 
ATOM     19  C   UNL d   1       5.714  -0.362   5.293  0.00  0.00     0.116 A 
ATOM     20  C   UNL d   1       6.601   0.134   4.344  0.00  0.00     0.044 A 
ATOM     21  F   UNL d   1       6.167  -0.702   6.506  0.00  0.00    -0.206 F 
ATOM     22  C   UNL d   1       6.136   0.472   3.070  0.00  0.00     0.032 A 
ENDBRANCH  14  16
ENDBRANCH   1  14
TORSDOF 5
