REMARK  5 active torsions:
REMARK  status: ('A' for Active; 'I' for Inactive)
REMARK    1  A    between atoms: C_2  and  C_1 
REMARK    2  A    between atoms: N_22  and  C_2 
REMARK    3  A    between atoms: O_13  and  N_4 
REMARK    4  A    between atoms: C_8  and  O_13 
REMARK    5  A    between atoms: C_11  and  C_8 
ROOT
ATOM      1  C   UNL d   1      -2.391  -2.261   0.027  0.00  0.00     0.110 C 
ATOM      2  N   UNL d   1      -2.495  -3.556   0.121  0.00  0.00    -0.246 N 
ATOM      3  HN  UNL d   1      -3.381  -4.047   0.237  1.00  0.00     0.196 HD
ENDROOT
BRANCH   2   4
ATOM      4  O   UNL d   1      -1.239  -4.207   0.044  0.00  0.00    -0.193 OA
BRANCH   4   5
ATOM      5  C   UNL d   1      -1.429  -5.561   0.114  0.00  0.00     0.315 C 
ATOM      6  O   UNL d   1      -2.494  -6.151   0.256  0.00  0.00    -0.257 OA
BRANCH   5   7
ATOM      7  C   UNL d   1      -0.139  -6.306  -0.015  0.00  0.00     0.042 A 
ATOM      8  C   UNL d   1      -0.210  -7.712   0.025  0.00  0.00     0.038 A 
ATOM      9  C   UNL d   1       0.972  -8.461  -0.108  0.00  0.00     0.033 A 
ATOM     10  S   UNL d   1       1.181 -10.172  -0.106  0.00  0.00    -0.083 SA
ATOM     11  C   UNL d   1       2.215  -7.850  -0.274  0.00  0.00     0.049 A 
ATOM     12  C   UNL d   1       2.864  -9.958  -0.326  0.00  0.00     0.139 A 
ATOM     13  N   UNL d   1       3.290  -8.716  -0.395  0.00  0.00    -0.359 N 
ATOM     14  HN  UNL d   1       4.262  -8.434  -0.520  1.00  0.00     0.166 HD
ATOM     15  C   UNL d   1       2.275  -6.441  -0.305  0.00  0.00     0.032 A 
ATOM     16  C   UNL d   1       1.101  -5.679  -0.177  0.00  0.00     0.020 A 
ENDBRANCH   5   7
ENDBRANCH   4   5
ENDBRANCH   2   4
BRANCH   1  17
ATOM     17  C   UNL d   1      -3.668  -1.458   0.059  0.00  0.00     0.025 A 
ATOM     18  C   UNL d   1      -3.768  -0.152   0.571  0.00  0.00     0.049 A 
ATOM     19  C   UNL d   1      -4.988   0.539   0.523  0.00  0.00     0.048 A 
ATOM     20 CL   UNL d   1      -2.453   0.676   1.332  0.00  0.00    -0.083 Cl
ATOM     21  C   UNL d   1      -6.113  -0.068  -0.029  0.00  0.00     0.035 A 
ATOM     22  C   UNL d   1      -6.039  -1.365  -0.525  0.00  0.00     0.025 A 
ATOM     23 CL   UNL d   1      -7.602   0.792  -0.095  0.00  0.00    -0.084 Cl
ATOM     24  C   UNL d   1      -4.823  -2.057  -0.477  0.00  0.00     0.018 A 
ENDBRANCH   1  17
BRANCH   1  25
ATOM     25  N   UNL d   1      -1.185  -1.622  -0.122  0.00  0.00    -0.286 NA
ATOM     26  H   UNL d   1      -1.127  -0.671   0.232  0.00  0.00     0.125 HD
ATOM     27  H   UNL d   1      -0.395  -2.192   0.154  0.00  0.00     0.125 HD
ENDBRANCH   1  25
TORSDOF 5
