REMARK  6 active torsions:
REMARK  status: ('A' for Active; 'I' for Inactive)
REMARK    1  A    between atoms: N_2  and  C_1 
REMARK       I    between atoms: N_3  and  C_4 
REMARK       I    between atoms: C_7  and  N_3 
REMARK    2  A    between atoms: C_4  and  C_8 
REMARK    3  A    between atoms: O_10  and  C_5 
REMARK    4  A    between atoms: O_24  and  C_7 
REMARK    5  A    between atoms: C_9  and  O_10 
REMARK    6  A    between atoms: C_27  and  O_24 
ROOT
ATOM      1  C   UNL d   1      -3.894   6.179  -1.386  0.00  0.00    -0.091 C 
ATOM      2  C   UNL d   1      -4.424   5.987  -2.444  0.00  0.00     0.014 C 
ATOM      3  C   UNL d   1      -3.214   6.349  -0.094  0.00  0.00     0.273 C 
ENDROOT
BRANCH   3   4
ATOM      4  O   UNL d   1      -2.368   5.220   0.138  0.00  0.00    -0.292 OA
BRANCH   4   5
ATOM      5  C   UNL d   1      -2.950   4.165   0.746  0.00  0.00     0.368 C 
ATOM      6  N   UNL d   1      -2.192   3.019   0.739  0.00  0.00    -0.269 N 
ATOM      7  C   UNL d   1      -0.988   2.806   0.093  0.00  0.00     0.260 C 
ATOM      8  H   UNL d   1      -2.689   2.249   1.154  0.00  0.00     0.174 HD
ATOM      9  O   UNL d   1      -0.226   3.678  -0.304  0.00  0.00    -0.267 OA
ATOM     10  O   UNL d   1      -4.073   4.156   1.238  0.00  0.00    -0.238 OA
BRANCH   7  11
ATOM     11  C   UNL d   1      -0.546   1.384  -0.008  0.00  0.00     0.035 A 
ATOM     12  C   UNL d   1       0.828   1.128  -0.106  0.00  0.00     0.056 A 
ATOM     13  C   UNL d   1       1.279  -0.198  -0.113  0.00  0.00     0.137 A 
ATOM     14  C   UNL d   1       0.396  -1.278  -0.031  0.00  0.00     0.109 A 
ATOM     15  C   UNL d   1      -0.979  -1.007  -0.049  0.00  0.00     0.041 A 
ATOM     16  C   UNL d   1      -1.449   0.312  -0.020  0.00  0.00     0.020 A 
BRANCH  13  17
ATOM     17  N   UNL d   1       2.706  -0.429  -0.195  0.00  0.00    -0.113 N 
ATOM     18  O   UNL d   1       3.243  -1.012   0.757  0.00  0.00    -0.532 OA
ATOM     19  O   UNL d   1       3.287   0.011  -1.196  0.00  0.00    -0.532 OA
ENDBRANCH  13  17
BRANCH  14  20
ATOM     20  O   UNL d   1       0.899  -2.560  -0.006  0.00  0.00    -0.308 OA
BRANCH  20  21
ATOM     21  C   UNL d   1       0.218  -3.524   0.705  0.00  0.00     0.079 A 
ATOM     22  C   UNL d   1       0.146  -4.790   0.123  0.00  0.00     0.061 A 
ATOM     23  C   UNL d   1      -0.578  -5.799   0.757  0.00  0.00     0.038 A 
ATOM     24 CL   UNL d   1      -0.695  -7.351   0.024  0.00  0.00    -0.084 Cl
ATOM     25  C   UNL d   1      -1.226  -5.559   1.967  0.00  0.00     0.048 A 
ATOM     26  C   UNL d   1      -1.107  -4.306   2.564  0.00  0.00     0.038 A 
ATOM     27  C   UNL d   1      -0.364  -3.295   1.956  0.00  0.00     0.061 A 
ATOM     28 CL   UNL d   1      -1.913  -3.989   4.051  0.00  0.00    -0.084 Cl
ENDBRANCH  20  21
ENDBRANCH  14  20
ENDBRANCH   7  11
ENDBRANCH   4   5
ENDBRANCH   3   4
TORSDOF 6
