REMARK  4 active torsions:
REMARK  status: ('A' for Active; 'I' for Inactive)
REMARK    1  A    between atoms: S_8  and  C_2 
REMARK    2  A    between atoms: S_9  and  C_5 
REMARK    3  A    between atoms: C_10  and  S_8 
REMARK    4  A    between atoms: C_11  and  C_10 
ROOT
ATOM      1  S   UNL d   1       0.588  -1.123  -1.148  0.00  0.00    -0.038 SA
ATOM      2  C   UNL d   1      -0.408   0.030  -0.360  0.00  0.00     0.129 A 
ATOM      3  N   UNL d   1       0.230   1.100   0.062  0.00  0.00    -0.287 N 
ATOM      4  HN  UNL d   1      -0.212   1.864   0.573  1.00  0.00     0.188 HD
ATOM      5  C   UNL d   1       1.890  -0.041  -0.910  0.00  0.00     0.126 A 
ATOM      6  N   UNL d   1       1.574   1.065  -0.270  0.00  0.00    -0.287 N 
ATOM      7  HN  UNL d   1       2.238   1.806  -0.047  1.00  0.00     0.188 HD
ENDROOT
BRANCH   2   8
ATOM      8  S   UNL d   1      -2.125  -0.211  -0.156  0.00  0.00    -0.099 SA
BRANCH   8   9
ATOM      9  C   UNL d   1      -2.755   1.509  -0.098  0.00  0.00     0.050 C 
ATOM     10  C   UNL d   1      -4.260   1.435   0.173  0.00  0.00     0.021 C 
BRANCH   9  11
ATOM     11  C   UNL d   1      -2.451   2.334  -1.365  0.00  0.00     0.011 C 
ATOM     12  C   UNL d   1      -3.038   1.800  -2.665  0.00  0.00     0.006 C 
ENDBRANCH   9  11
ENDBRANCH   8   9
ENDBRANCH   2   8
BRANCH   5  13
ATOM     13  S   UNL d   1       3.510  -0.360  -1.470  0.00  0.00    -0.117 SA
ATOM     14  H   UNL d   1       3.280  -1.592  -1.942  0.00  0.00     0.109 HD
ENDBRANCH   5  13
TORSDOF 4
