REMARK  4 active torsions:
REMARK  status: ('A' for Active; 'I' for Inactive)
REMARK    1  A    between atoms: C_3  and  N_1 
REMARK       I    between atoms: C_2  and  N_4 
REMARK    2  A    between atoms: C_5  and  C_2 
REMARK    3  A    between atoms: N_4  and  N_9 
REMARK    4  A    between atoms: N_9  and  C_8 
ROOT
ATOM      1  N   UNL d   1      -1.802  -4.725  -0.766  0.00  0.00    -0.278 N 
ATOM      2  C   UNL d   1      -1.750  -6.094  -0.270  0.00  0.00     0.179 C 
ENDROOT
BRANCH   1   3
ATOM      3  N   UNL d   1      -3.049  -4.309  -1.273  0.00  0.00    -0.262 N 
ATOM      4  C   UNL d   1      -3.483  -4.789  -2.504  0.00  0.00     0.277 C 
ATOM      5  O   UNL d   1      -2.829  -5.597  -3.165  0.00  0.00    -0.265 OA
ATOM      6  H   UNL d   1      -3.434  -3.451  -0.885  0.00  0.00     0.190 HD
BRANCH   4   7
ATOM      7  C   UNL d   1      -4.800  -4.333  -2.935  0.00  0.00     0.074 A 
ATOM      8  S   UNL d   1      -5.792  -3.311  -1.980  0.00  0.00    -0.097 SA
ATOM      9  C   UNL d   1      -7.085  -3.402  -3.097  0.00  0.00     0.050 A 
ATOM     10  C   UNL d   1      -6.766  -4.170  -4.194  0.00  0.00     0.009 A 
ATOM     11  C   UNL d   1      -5.447  -4.697  -4.104  0.00  0.00     0.025 A 
ENDBRANCH   4   7
ENDBRANCH   1   3
BRANCH   1  12
ATOM     12  C   UNL d   1      -1.024  -3.707  -0.202  0.00  0.00     0.121 A 
ATOM     13  C   UNL d   1      -0.012  -3.986   0.727  0.00  0.00     0.052 A 
ATOM     14  C   UNL d   1       0.817  -2.969   1.206  0.00  0.00     0.041 A 
ATOM     15  C   UNL d   1       0.629  -1.678   0.726  0.00  0.00     0.118 A 
ATOM     16  C   UNL d   1      -0.399  -1.448  -0.168  0.00  0.00     0.125 A 
ATOM     17  N   UNL d   1      -1.236  -2.426  -0.611  0.00  0.00    -0.349 N 
ATOM     18  HN  UNL d   1      -2.008  -2.202  -1.238  1.00  0.00     0.167 HD
BRANCH  15  19
ATOM     19  N   UNL d   1       1.510  -0.594   1.138  0.00  0.00    -0.114 N 
ATOM     20  O   UNL d   1       1.358   0.507   0.592  0.00  0.00    -0.532 OA
ATOM     21  O   UNL d   1       2.355  -0.840   2.008  0.00  0.00    -0.532 OA
ENDBRANCH  15  19
ENDBRANCH   1  12
TORSDOF 4
