REMARK  4 active torsions:
REMARK  status: ('A' for Active; 'I' for Inactive)
REMARK    1  A    between atoms: C_10  and  N_2 
REMARK    2  A    between atoms: C_7  and  C_3 
REMARK    3  A    between atoms: C_11  and  C_4 
REMARK       I    between atoms: N_15  and  C_7 
REMARK    4  A    between atoms: C_17  and  C_10 
ROOT
ATOM      1  C   UNL d   1      -1.302   0.067  -0.252  0.00  0.00     0.103 C 
ATOM      2  N   UNL d   1      -0.414   1.169  -0.064  0.00  0.00    -0.334 N 
ATOM      3  C   UNL d   1      -2.624   0.068  -0.579  0.00  0.00     0.145 C 
ATOM      4  C   UNL d   1       0.924   0.731  -0.040  0.00  0.00     0.052 C 
ATOM      5  S   UNL d   1      -0.368  -1.502  -0.132  0.00  0.00    -0.080 SA
ATOM      6  C   UNL d   1       1.117  -0.599  -0.065  0.00  0.00     0.082 C 
ATOM      7  C   UNL d   1      -3.335   1.303  -0.818  0.00  0.00     0.108 C 
ATOM      8  N   UNL d   1      -3.927   2.298  -0.974  0.00  0.00    -0.191 NA
ENDROOT
BRANCH   3   9
ATOM      9  C   UNL d   1      -3.470  -1.163  -0.838  0.00  0.00     0.262 C 
ATOM     10  O   UNL d   1      -4.424  -1.128  -1.614  0.00  0.00    -0.267 OA
ATOM     11  N   UNL d   1      -3.218  -2.328  -0.178  0.00  0.00    -0.365 N 
ATOM     12  H   UNL d   1      -2.374  -2.493   0.356  0.00  0.00     0.159 HD
ATOM     13  H   UNL d   1      -3.777  -3.138  -0.425  0.00  0.00     0.159 HD
ENDBRANCH   3   9
BRANCH   2  14
ATOM     14  C   UNL d   1      -0.798   2.463   0.536  0.00  0.00     0.168 C 
BRANCH  14  15
ATOM     15  C   UNL d   1      -0.833   3.640  -0.416  0.00  0.00    -0.040 A 
ATOM     16  C   UNL d   1      -0.819   3.506  -1.810  0.00  0.00     0.009 A 
ATOM     17  C   UNL d   1      -0.874   4.630  -2.638  0.00  0.00     0.001 A 
ATOM     18  C   UNL d   1      -0.952   5.907  -2.086  0.00  0.00     0.000 A 
ATOM     19  C   UNL d   1      -0.991   6.060  -0.703  0.00  0.00     0.001 A 
ATOM     20  C   UNL d   1      -0.938   4.936   0.124  0.00  0.00     0.009 A 
ENDBRANCH  14  15
ENDBRANCH   2  14
BRANCH   4  21
ATOM     21  C   UNL d   1       2.076   1.629  -0.178  0.00  0.00    -0.009 A 
ATOM     22  C   UNL d   1       2.447   2.047  -1.465  0.00  0.00     0.015 A 
ATOM     23  C   UNL d   1       3.619   2.778  -1.668  0.00  0.00     0.020 A 
ATOM     24  C   UNL d   1       4.426   3.095  -0.578  0.00  0.00     0.011 A 
ATOM     25  C   UNL d   1       4.065   2.698   0.709  0.00  0.00     0.020 A 
ATOM     26 BR   UNL d   1       6.037   4.044  -0.855  0.00  0.00    -0.051 Br
ATOM     27  C   UNL d   1       2.891   1.961   0.910  0.00  0.00     0.015 A 
ENDBRANCH   4  21
TORSDOF 4
