REMARK  5 active torsions:
REMARK  status: ('A' for Active; 'I' for Inactive)
REMARK    1  A    between atoms: C_2  and  S_1 
REMARK    2  A    between atoms: N_4  and  S_1 
REMARK    3  A    between atoms: C_21  and  N_14 
REMARK    4  A    between atoms: C_22  and  C_21 
REMARK    5  A    between atoms: C_23  and  C_22 
ROOT
ATOM      1  N   UNL d   1       0.457  -0.730   1.218  0.00  0.00    -0.203 NA
ATOM      2  N   UNL d   1       1.444  -3.539   1.401  0.00  0.00     0.091 N 
ATOM      3  C   UNL d   1       1.527  -1.097   2.191  0.00  0.00     0.138 C 
ATOM      4  C   UNL d   1      -0.454  -1.888   0.983  0.00  0.00     0.138 C 
ATOM      5  C   UNL d   1       0.338  -3.121   0.507  0.00  0.00     0.287 C 
ATOM      6  C   UNL d   1       2.290  -2.366   1.732  0.00  0.00     0.287 C 
ENDROOT
BRANCH   1   7
ATOM      7  S   UNL d   1       0.951   0.113  -0.180  0.00  0.00     0.246 S 
ATOM      8  O   UNL d   1       2.375  -0.092  -0.355  0.00  0.00    -0.206 OA
ATOM      9  O   UNL d   1       0.033  -0.149  -1.264  0.00  0.00    -0.206 OA
BRANCH   7  10
ATOM     10  C   UNL d   1       0.739   1.798   0.257  0.00  0.00     0.105 A 
ATOM     11  C   UNL d   1      -0.525   2.366   0.485  0.00  0.00     0.108 A 
ATOM     12  C   UNL d   1      -0.685   3.809   0.650  0.00  0.00     0.086 A 
ATOM     13  N   UNL d   1      -1.740   1.810   0.585  0.00  0.00    -0.238 N 
ATOM     14  N   UNL d   1      -1.982   4.074   0.837  0.00  0.00    -0.239 N 
ATOM     15  C   UNL d   1       0.400   4.706   0.595  0.00  0.00     0.034 A 
ATOM     16  O   UNL d   1      -2.625   2.850   0.800  0.00  0.00    -0.156 OA
ATOM     17  HN  UNL d   1      -2.410   4.990   0.977  1.00  0.00     0.197 HD
ATOM     18  C   UNL d   1       1.657   4.104   0.405  0.00  0.00     0.004 A 
ATOM     19  C   UNL d   1       1.824   2.704   0.244  0.00  0.00     0.027 A 
ATOM     20  HN  UNL d   1      -1.967   0.818   0.515  1.00  0.00     0.197 HD
ENDBRANCH   7  10
ENDBRANCH   1   7
BRANCH   2  21
ATOM     21  C   UNL d   1       1.001  -4.245   2.614  0.00  0.00     0.277 C 
BRANCH  21  22
ATOM     22  C   UNL d   1       0.359  -5.609   2.309  0.00  0.00     0.068 C 
BRANCH  22  23
ATOM     23  C   UNL d   1      -0.041  -6.342   3.566  0.00  0.00    -0.057 A 
ATOM     24  C   UNL d   1      -1.290  -6.102   4.153  0.00  0.00     0.007 A 
ATOM     25  C   UNL d   1      -1.670  -6.789   5.306  0.00  0.00     0.001 A 
ATOM     26  C   UNL d   1      -0.803  -7.713   5.883  0.00  0.00     0.000 A 
ATOM     27  C   UNL d   1       0.449  -7.946   5.315  0.00  0.00     0.001 A 
ATOM     28  C   UNL d   1       0.828  -7.262   4.161  0.00  0.00     0.007 A 
ENDBRANCH  22  23
ENDBRANCH  21  22
ENDBRANCH   2  21
TORSDOF 5
