REMARK  4 active torsions:
REMARK  status: ('A' for Active; 'I' for Inactive)
REMARK    1  A    between atoms: C_7  and  C_1 
REMARK    2  A    between atoms: S_9  and  C_2 
REMARK    3  A    between atoms: C_6  and  C_4 
REMARK    4  A    between atoms: N_11  and  C_6 
ROOT
ATOM      1  C   UNL d   1       1.321  -0.004   0.004  0.00  0.00     0.040 A 
ATOM      2  C   UNL d   1       0.375  -0.996   0.208  0.00  0.00     0.056 A 
ATOM      3  C   UNL d   1       0.698   1.324  -0.041  0.00  0.00    -0.026 A 
ATOM      4  C   UNL d   1      -0.693   1.257  -0.001  0.00  0.00     0.050 A 
ATOM      5  S   UNL d   1      -1.212  -0.365   0.207  0.00  0.00    -0.079 SA
ATOM      6  C   UNL d   1       1.500   2.597  -0.082  0.00  0.00     0.050 C 
ENDROOT
BRANCH   4   7
ATOM      7  C   UNL d   1      -1.721   2.288  -0.078  0.00  0.00     0.112 C 
ATOM      8  S   UNL d   1      -1.569   3.674  -0.990  0.00  0.00    -0.059 SA
BRANCH   7   9
ATOM      9  N   UNL d   1      -2.885   2.087   0.614  0.00  0.00    -0.389 N 
ATOM     10  H   UNL d   1      -3.057   1.229   1.123  0.00  0.00     0.157 HD
ATOM     11  H   UNL d   1      -3.634   2.763   0.535  0.00  0.00     0.157 HD
ENDBRANCH   7   9
ENDBRANCH   4   7
BRANCH   1  12
ATOM     12  C   UNL d   1       2.767  -0.216  -0.151  0.00  0.00     0.158 C 
ATOM     13  O   UNL d   1       3.381   0.349  -1.063  0.00  0.00    -0.293 OA
ATOM     14  C   UNL d   1       3.537  -1.055   0.832  0.00  0.00     0.097 C 
ENDBRANCH   1  12
BRANCH   2  15
ATOM     15  S   UNL d   1       0.555  -2.728   0.493  0.00  0.00    -0.126 SA
ATOM     16  C   UNL d   1       1.458  -3.302  -0.955  0.00  0.00     0.096 C 
ENDBRANCH   2  15
TORSDOF 4
