REMARK  6 active torsions:
REMARK  status: ('A' for Active; 'I' for Inactive)
REMARK    1  A    between atoms: C_2  and  S_1 
REMARK    2  A    between atoms: C_6  and  S_1 
REMARK    3  A    between atoms: C_5  and  C_2 
REMARK    4  A    between atoms: C_3  and  C_4 
REMARK    5  A    between atoms: C_4  and  O_9 
REMARK       I    between atoms: N_10  and  C_5 
REMARK    6  A    between atoms: O_9  and  N_10 
ROOT
ATOM      1  C   UNL d   1       1.027   2.457  -1.187  0.00  0.00     0.255 C 
ATOM      2  N   UNL d   1       2.090   2.808  -0.398  0.00  0.00    -0.225 N 
ATOM      3  O   UNL d   1       0.427   3.281  -1.886  0.00  0.00    -0.270 OA
ATOM      4  H   UNL d   1       2.804   2.179  -0.023  0.00  0.00     0.198 HD
ENDROOT
BRANCH   1   5
ATOM      5  C   UNL d   1       0.632   1.018  -1.288  0.00  0.00     0.250 C 
BRANCH   5   6
ATOM      6  S   UNL d   1       0.702   0.101   0.199  0.00  0.00     0.184 S 
ATOM      7  O   UNL d   1       2.057   0.219   0.719  0.00  0.00    -0.222 OA
ATOM      8  O   UNL d   1       0.148  -1.212  -0.073  0.00  0.00    -0.222 OA
BRANCH   6   9
ATOM      9  C   UNL d   1      -0.390   0.876   1.373  0.00  0.00     0.059 A 
ATOM     10  C   UNL d   1      -1.751   0.542   1.382  0.00  0.00     0.025 A 
ATOM     11  C   UNL d   1      -2.575   1.029   2.404  0.00  0.00     0.025 A 
ATOM     12  C   UNL d   1      -2.036   1.833   3.408  0.00  0.00     0.034 A 
ATOM     13  C   UNL d   1      -0.680   2.162   3.401  0.00  0.00     0.025 A 
ATOM     14 CL   UNL d   1      -3.042   2.398   4.685  0.00  0.00    -0.084 Cl
ATOM     15  C   UNL d   1       0.147   1.677   2.384  0.00  0.00     0.025 A 
ENDBRANCH   6   9
ENDBRANCH   5   6
ENDBRANCH   1   5
BRANCH   2  16
ATOM     16  O   UNL d   1       2.421   4.188  -0.488  0.00  0.00    -0.192 OA
BRANCH  16  17
ATOM     17  C   UNL d   1       3.686   4.481  -0.082  0.00  0.00     0.316 C 
ATOM     18  O   UNL d   1       4.497   3.649   0.294  0.00  0.00    -0.257 OA
BRANCH  17  19
ATOM     19  C   UNL d   1       3.990   5.934  -0.238  0.00  0.00     0.063 A 
ATOM     20  C   UNL d   1       3.046   6.971  -0.170  0.00  0.00     0.050 A 
ATOM     21 CL   UNL d   1       1.373   6.742   0.202  0.00  0.00    -0.083 Cl
ATOM     22  C   UNL d   1       3.452   8.304  -0.348  0.00  0.00     0.025 A 
ATOM     23  C   UNL d   1       4.793   8.618  -0.569  0.00  0.00     0.002 A 
ATOM     24  C   UNL d   1       5.740   7.601  -0.608  0.00  0.00     0.001 A 
ATOM     25  C   UNL d   1       5.342   6.269  -0.446  0.00  0.00     0.019 A 
ENDBRANCH  17  19
ENDBRANCH  16  17
ENDBRANCH   2  16
TORSDOF 6
