REMARK  8 active torsions:
REMARK  status: ('A' for Active; 'I' for Inactive)
REMARK    1  A    between atoms: S_12  and  C_2 
REMARK    2  A    between atoms: S_13  and  C_3 
REMARK    3  A    between atoms: C_8  and  C_11 
REMARK    4  A    between atoms: C_9  and  C_10 
REMARK    5  A    between atoms: C_25  and  S_12 
REMARK    6  A    between atoms: C_24  and  S_13 
REMARK    7  A    between atoms: C_22  and  C_25 
REMARK    8  A    between atoms: C_23  and  C_24 
ROOT
ATOM      1  S   UNL d   1       1.089   0.130  -0.171  0.00  0.00    -0.038 SA
ATOM      2  C   UNL d   1      -0.223   1.232  -0.073  0.00  0.00     0.129 A 
ATOM      3  C   UNL d   1      -0.051  -1.138   0.008  0.00  0.00     0.129 A 
ATOM      4  N   UNL d   1      -1.400   0.659   0.022  0.00  0.00    -0.287 N 
ATOM      5  HN  UNL d   1      -2.283   1.169   0.055  1.00  0.00     0.188 HD
ATOM      6  N   UNL d   1      -1.299  -0.716   0.074  0.00  0.00    -0.287 N 
ATOM      7  HN  UNL d   1      -2.103  -1.339   0.154  1.00  0.00     0.188 HD
ENDROOT
BRANCH   2   8
ATOM      8  S   UNL d   1      -0.007   2.968  -0.074  0.00  0.00    -0.099 SA
BRANCH   8   9
ATOM      9  C   UNL d   1      -1.548   3.537   0.708  0.00  0.00     0.120 C 
BRANCH   9  10
ATOM     10  C   UNL d   1      -1.792   3.187   2.164  0.00  0.00    -0.048 A 
ATOM     11  C   UNL d   1      -0.847   2.572   2.993  0.00  0.00     0.024 A 
ATOM     12  C   UNL d   1      -1.156   2.193   4.312  0.00  0.00     0.048 A 
ATOM     13  C   UNL d   1      -2.413   2.504   4.839  0.00  0.00     0.016 A 
ATOM     14  C   UNL d   1      -3.350   3.163   4.049  0.00  0.00     0.001 A 
ATOM     15  C   UNL d   1      -3.045   3.494   2.725  0.00  0.00     0.008 A 
BRANCH  12  16
ATOM     16  C   UNL d   1      -0.136   1.443   5.124  0.00  0.00     0.417 C 
ATOM     17  F   UNL d   1       0.854   0.924   4.346  0.00  0.00    -0.166 F 
ATOM     18  F   UNL d   1       0.485   2.227   6.047  0.00  0.00    -0.166 F 
ATOM     19  F   UNL d   1      -0.668   0.398   5.812  0.00  0.00    -0.166 F 
ENDBRANCH  12  16
ENDBRANCH   9  10
ENDBRANCH   8   9
ENDBRANCH   2   8
BRANCH   3  20
ATOM     20  S   UNL d   1       0.263  -2.857   0.105  0.00  0.00    -0.099 SA
BRANCH  20  21
ATOM     21  C   UNL d   1       2.053  -3.033   0.165  0.00  0.00     0.120 C 
BRANCH  21  22
ATOM     22  C   UNL d   1       2.797  -2.610   1.416  0.00  0.00    -0.048 A 
ATOM     23  C   UNL d   1       2.189  -2.219   2.619  0.00  0.00     0.024 A 
ATOM     24  C   UNL d   1       2.960  -1.855   3.741  0.00  0.00     0.048 A 
ATOM     25  C   UNL d   1       4.358  -1.881   3.650  0.00  0.00     0.016 A 
ATOM     26  C   UNL d   1       4.977  -2.294   2.476  0.00  0.00     0.001 A 
ATOM     27  C   UNL d   1       4.203  -2.662   1.374  0.00  0.00     0.008 A 
BRANCH  24  28
ATOM     28  C   UNL d   1       2.312  -1.472   5.051  0.00  0.00     0.417 C 
ATOM     29  F   UNL d   1       0.956  -1.494   5.015  0.00  0.00    -0.166 F 
ATOM     30  F   UNL d   1       2.671  -2.311   6.064  0.00  0.00    -0.166 F 
ATOM     31  F   UNL d   1       2.674  -0.226   5.468  0.00  0.00    -0.166 F 
ENDBRANCH  24  28
ENDBRANCH  21  22
ENDBRANCH  20  21
ENDBRANCH   3  20
TORSDOF 8
