REMARK  5 active torsions:
REMARK  status: ('A' for Active; 'I' for Inactive)
REMARK    1  A    between atoms: C_2  and  S_1 
REMARK    2  A    between atoms: C_7  and  S_1 
REMARK    3  A    between atoms: N_21  and  C_5 
REMARK    4  A    between atoms: C_15  and  C_6 
REMARK    5  A    between atoms: C_11  and  C_7 
ROOT
ATOM      1  C   UNL d   1       0.369  -1.640  -0.152  0.00  0.00     0.113 A 
ATOM      2  N   UNL d   1       0.717  -3.985  -0.152  0.00  0.00    -0.331 N 
ATOM      3  HN  UNL d   1       1.321  -4.793  -0.001  1.00  0.00     0.168 HD
ATOM      4  C   UNL d   1       1.178  -2.734   0.033  0.00  0.00     0.102 A 
ATOM      5  C   UNL d   1      -0.565  -4.141  -0.543  0.00  0.00     0.116 A 
ATOM      6  N   UNL d   1      -1.405  -3.120  -0.794  0.00  0.00    -0.350 N 
ATOM      7  HN  UNL d   1      -2.362  -3.275  -1.110  1.00  0.00     0.166 HD
ATOM      8  C   UNL d   1      -0.909  -1.883  -0.603  0.00  0.00     0.116 A 
ENDROOT
BRANCH   1   9
ATOM      9  S   UNL d   1       0.887   0.019   0.034  0.00  0.00     0.185 S 
ATOM     10  O   UNL d   1       0.484   0.686  -1.197  0.00  0.00    -0.222 OA
ATOM     11  O   UNL d   1       2.287   0.055   0.414  0.00  0.00    -0.222 OA
BRANCH   9  12
ATOM     12  C   UNL d   1      -0.098   0.720   1.337  0.00  0.00     0.210 C 
BRANCH  12  13
ATOM     13  C   UNL d   1       0.047  -0.029   2.599  0.00  0.00     0.066 A 
ATOM     14  O   UNL d   1      -0.810  -1.073   2.786  0.00  0.00    -0.326 OA
ATOM     15  C   UNL d   1      -0.571  -1.567   4.028  0.00  0.00     0.142 A 
ATOM     16  C   UNL d   1       0.421  -0.845   4.649  0.00  0.00     0.027 A 
ATOM     17  C   UNL d   1       0.825   0.148   3.724  0.00  0.00     0.035 A 
ENDBRANCH  12  13
ENDBRANCH   9  12
ENDBRANCH   1   9
BRANCH   4  18
ATOM     18  N   UNL d   1       2.473  -2.678   0.519  0.00  0.00    -0.287 NA
ATOM     19  H   UNL d   1       2.915  -3.589   0.452  0.00  0.00     0.125 HD
ATOM     20  H   UNL d   1       3.037  -1.915   0.145  0.00  0.00     0.125 HD
ENDBRANCH   4  18
BRANCH   5  21
ATOM     21  C   UNL d   1      -1.089  -5.513  -0.655  0.00  0.00     0.011 A 
ATOM     22  C   UNL d   1      -2.425  -5.764  -1.005  0.00  0.00     0.032 A 
ATOM     23  C   UNL d   1      -2.880  -7.072  -1.064  0.00  0.00     0.088 A 
ATOM     24  N   UNL d   1      -2.109  -8.147  -0.806  0.00  0.00    -0.375 N 
ATOM     25  C   UNL d   1      -0.825  -7.901  -0.476  0.00  0.00     0.088 A 
ATOM     26  HN  UNL d   1      -2.477  -9.097  -0.858  1.00  0.00     0.164 HD
ATOM     27  C   UNL d   1      -0.281  -6.630  -0.391  0.00  0.00     0.032 A 
ENDBRANCH   5  21
TORSDOF 5
