REMARK  5 active torsions:
REMARK  status: ('A' for Active; 'I' for Inactive)
REMARK    1  A    between atoms: N_2  and  C_9 
REMARK    2  A    between atoms: N_3  and  C_10 
REMARK       I    between atoms: C_4  and  N_6 
REMARK    3  A    between atoms: C_7  and  C_4 
REMARK    4  A    between atoms: N_6  and  C_5 
REMARK    5  A    between atoms: C_20  and  N_6 
ROOT
ATOM      1  C   UNL d   1      -3.058  -0.317  -2.209  0.00  0.00     0.259 C 
ATOM      2  N   UNL d   1      -2.702   0.817  -1.460  0.00  0.00    -0.305 N 
ATOM      3  O   UNL d   1      -2.799  -1.463  -1.846  0.00  0.00    -0.267 OA
ENDROOT
BRANCH   2   4
ATOM      4  C   UNL d   1      -1.873   0.684  -0.238  0.00  0.00     0.131 A 
ATOM      5  C   UNL d   1      -0.424   0.298  -0.521  0.00  0.00     0.174 A 
ATOM      6  S   UNL d   1      -0.117  -1.196   0.402  0.00  0.00     0.167 S 
ATOM      7  C   UNL d   1      -1.692  -1.322   1.097  0.00  0.00     0.107 A 
ATOM      8  O   UNL d   1       0.833  -0.881   1.454  0.00  0.00    -0.223 OA
ATOM      9  O   UNL d   1       0.121  -2.280  -0.526  0.00  0.00    -0.223 OA
ATOM     10  C   UNL d   1      -2.479  -0.307   0.721  0.00  0.00     0.011 A 
ENDBRANCH   2   4
BRANCH   2  11
ATOM     11  C   UNL d   1      -3.084   2.142  -1.791  0.00  0.00     0.038 A 
ATOM     12  C   UNL d   1      -4.432   2.502  -1.835  0.00  0.00     0.030 A 
ATOM     13  C   UNL d   1      -4.788   3.822  -2.123  0.00  0.00     0.009 A 
ATOM     14  C   UNL d   1      -3.804   4.783  -2.395  0.00  0.00    -0.062 A 
ATOM     15  C   UNL d   1      -2.458   4.411  -2.365  0.00  0.00     0.009 A 
ATOM     16  C   UNL d   1      -4.200   6.200  -2.695  0.00  0.00     0.048 C 
ATOM     17  C   UNL d   1      -2.098   3.102  -2.045  0.00  0.00     0.030 A 
ENDBRANCH   2  11
BRANCH   1  18
ATOM     18  C   UNL d   1      -3.740  -0.207  -3.531  0.00  0.00     0.037 A 
ATOM     19  C   UNL d   1      -3.351   0.721  -4.504  0.00  0.00     0.053 A 
ATOM     20  C   UNL d   1      -4.002   0.743  -5.748  0.00  0.00     0.106 A 
ATOM     21  C   UNL d   1      -4.999  -0.190  -6.058  0.00  0.00     0.072 A 
ATOM     22  C   UNL d   1      -5.342  -1.150  -5.098  0.00  0.00     0.106 A 
ATOM     23  C   UNL d   1      -4.724  -1.161  -3.840  0.00  0.00     0.053 A 
BRANCH  20  24
ATOM     24  N   UNL d   1      -3.624   1.759  -6.741  0.00  0.00    -0.116 N 
ATOM     25  O   UNL d   1      -4.232   1.761  -7.818  0.00  0.00    -0.532 OA
ATOM     26  O   UNL d   1      -2.727   2.558  -6.433  0.00  0.00    -0.532 OA
ENDBRANCH  20  24
BRANCH  22  27
ATOM     27  N   UNL d   1      -6.355  -2.166  -5.421  0.00  0.00    -0.116 N 
ATOM     28  O   UNL d   1      -6.827  -2.159  -6.565  0.00  0.00    -0.532 OA
ATOM     29  O   UNL d   1      -6.678  -2.960  -4.528  0.00  0.00    -0.532 OA
ENDBRANCH  22  27
ENDBRANCH   1  18
TORSDOF 5
