REMARK  10 active torsions:
REMARK  status: ('A' for Active; 'I' for Inactive)
REMARK    1  A    between atoms: C_6  and  C_1 
REMARK    2  A    between atoms: N_7  and  C_2 
REMARK    3  A    between atoms: C_8  and  C_4 
REMARK    4  A    between atoms: O_20  and  C_6 
REMARK       I    between atoms: C_9  and  N_7 
REMARK    5  A    between atoms: C_23  and  C_9 
REMARK    6  A    between atoms: C_10  and  C_11 
REMARK    7  A    between atoms: C_12  and  C_24 
REMARK    8  A    between atoms: O_22  and  C_12 
REMARK    9  A    between atoms: O_21  and  C_23 
REMARK   10  A    between atoms: C_24  and  O_21 
ROOT
ATOM      1  C   UNL d   1       0.121   1.353   0.094  0.00  0.00     0.107 A 
ATOM      2  C   UNL d   1       1.406   0.859  -0.079  0.00  0.00     0.059 A 
ATOM      3  S   UNL d   1      -1.021   0.066   0.147  0.00  0.00    -0.081 SA
ATOM      4  C   UNL d   1       0.166  -1.136  -0.098  0.00  0.00     0.018 A 
ATOM      5  C   UNL d   1       1.413  -0.561  -0.244  0.00  0.00     0.051 A 
ENDROOT
BRANCH   2   6
ATOM      6  N   UNL d   1       2.595   1.583  -0.124  0.00  0.00    -0.324 N 
ATOM      7  C   UNL d   1       2.894   2.580   0.791  0.00  0.00     0.245 C 
ATOM      8  O   UNL d   1       2.198   2.914   1.744  0.00  0.00    -0.271 OA
ATOM      9  H   UNL d   1       3.385   1.129  -0.566  0.00  0.00     0.169 HD
BRANCH   7  10
ATOM     10  C   UNL d   1       4.260   3.226   0.524  0.00  0.00     0.271 C 
BRANCH  10  11
ATOM     11  O   UNL d   1       4.358   3.874  -0.744  0.00  0.00    -0.372 OA
BRANCH  11  12
ATOM     12  C   UNL d   1       3.467   5.006  -0.806  0.00  0.00     0.277 C 
BRANCH  12  13
ATOM     13  C   UNL d   1       3.592   5.678  -2.164  0.00  0.00     0.164 C 
ATOM     14  O   UNL d   1       2.944   6.651  -2.527  0.00  0.00    -0.648 OA
BRANCH  13  15
ATOM     15  O   UNL d   1       4.530   5.079  -2.944  0.00  0.00    -0.775 OA
ATOM     16  H   UNL d   1       4.907   4.331  -2.433  0.00  0.00     0.167 HD
ENDBRANCH  13  15
ENDBRANCH  12  13
ENDBRANCH  11  12
ENDBRANCH  10  11
ENDBRANCH   7  10
ENDBRANCH   2   6
BRANCH   1  17
ATOM     17  C   UNL d   1      -0.357   2.730   0.117  0.00  0.00     0.302 C 
ATOM     18  O   UNL d   1       0.222   3.692  -0.378  0.00  0.00    -0.259 OA
BRANCH  17  19
ATOM     19  O   UNL d   1      -1.582   2.808   0.720  0.00  0.00    -0.322 OA
ATOM     20  C   UNL d   1      -2.206   4.092   0.730  0.00  0.00     0.213 C 
ENDBRANCH  17  19
ENDBRANCH   1  17
BRANCH   4  21
ATOM     21  C   UNL d   1      -0.195  -2.561  -0.075  0.00  0.00    -0.019 A 
ATOM     22  C   UNL d   1      -1.391  -3.037  -0.623  0.00  0.00     0.013 A 
ATOM     23  C   UNL d   1      -1.728  -4.394  -0.543  0.00  0.00     0.009 A 
ATOM     24  C   UNL d   1      -0.883  -5.328   0.083  0.00  0.00    -0.051 A 
ATOM     25  C   UNL d   1       0.327  -4.844   0.603  0.00  0.00     0.009 A 
ATOM     26  C   UNL d   1       0.664  -3.487   0.525  0.00  0.00     0.013 A 
BRANCH  24  27
ATOM     27  C   UNL d   1      -1.307  -6.801   0.202  0.00  0.00    -0.024 C 
ATOM     28  C   UNL d   1      -0.267  -7.685   0.926  0.00  0.00     0.019 C 
ATOM     29  C   UNL d   1      -2.624  -6.895   1.003  0.00  0.00     0.019 C 
ATOM     30  C   UNL d   1      -1.527  -7.406  -1.200  0.00  0.00     0.019 C 
ENDBRANCH  24  27
ENDBRANCH   4  21
TORSDOF 10
