REMARK  6 active torsions:
REMARK  status: ('A' for Active; 'I' for Inactive)
REMARK    1  A    between atoms: C_6  and  C_1 
REMARK    2  A    between atoms: C_8  and  C_2 
REMARK    3  A    between atoms: C_5  and  C_12 
REMARK       I    between atoms: N_13  and  C_8 
REMARK    4  A    between atoms: N_16  and  C_10 
REMARK    5  A    between atoms: N_17  and  C_11 
REMARK    6  A    between atoms: C_12  and  N_13 
ROOT
ATOM      1  C   UNL d   1      -2.200  -2.625  -2.455  0.00  0.00     0.256 C 
ATOM      2  N   UNL d   1      -2.258  -2.456  -1.095  0.00  0.00    -0.352 N 
ATOM      3  O   UNL d   1      -2.172  -3.736  -2.980  0.00  0.00    -0.267 OA
ATOM      4  H   UNL d   1      -2.197  -1.523  -0.726  0.00  0.00     0.163 HD
ENDROOT
BRANCH   1   5
ATOM      5  C   UNL d   1      -2.196  -1.423  -3.288  0.00  0.00     0.092 A 
ATOM      6  C   UNL d   1      -2.036  -0.009  -3.057  0.00  0.00     0.086 A 
ATOM      7  N   UNL d   1      -2.061   0.659  -4.224  0.00  0.00    -0.259 N 
ATOM      8  O   UNL d   1      -2.282  -0.259  -5.208  0.00  0.00    -0.241 OA
ATOM      9  HN  UNL d   1      -1.936   1.664  -4.350  1.00  0.00     0.195 HD
ATOM     10  C   UNL d   1      -2.360  -1.493  -4.667  0.00  0.00     0.090 A 
ATOM     11  C   UNL d   1      -2.572  -2.580  -5.646  0.00  0.00     0.080 C 
BRANCH   6  12
ATOM     12  C   UNL d   1      -1.801   0.804  -1.856  0.00  0.00     0.037 A 
ATOM     13  C   UNL d   1      -0.640   0.656  -1.077  0.00  0.00     0.048 A 
ATOM     14 CL   UNL d   1       0.521  -0.597  -1.357  0.00  0.00    -0.083 Cl
ATOM     15  C   UNL d   1      -0.348   1.553  -0.036  0.00  0.00     0.025 A 
ATOM     16  C   UNL d   1      -1.186   2.634   0.224  0.00  0.00     0.003 A 
ATOM     17  C   UNL d   1      -2.337   2.804  -0.536  0.00  0.00     0.025 A 
ATOM     18  C   UNL d   1      -2.654   1.892  -1.554  0.00  0.00     0.048 A 
ATOM     19 CL   UNL d   1      -4.146   2.182  -2.391  0.00  0.00    -0.083 Cl
ENDBRANCH   6  12
ENDBRANCH   1   5
BRANCH   2  20
ATOM     20  C   UNL d   1      -2.127  -3.518  -0.098  0.00  0.00     0.166 C 
BRANCH  20  21
ATOM     21  C   UNL d   1      -2.828  -4.859  -0.262  0.00  0.00     0.013 C 
ATOM     22  C   UNL d   1      -2.021  -6.072  -0.335  0.00  0.00     0.039 C 
ATOM     23  C   UNL d   1      -2.663  -7.270   0.080  0.00  0.00     0.030 C 
ATOM     24  C   UNL d   1      -3.990  -7.344   0.453  0.00  0.00     0.005 C 
ATOM     25  C   UNL d   1      -4.765  -6.211   0.357  0.00  0.00     0.030 C 
ATOM     26  C   UNL d   1      -4.258  -4.954  -0.058  0.00  0.00     0.039 C 
BRANCH  22  27
ATOM     27  N   UNL d   1      -0.674  -6.193  -0.736  0.00  0.00    -0.389 N 
ATOM     28  C   UNL d   1      -0.099  -7.540  -0.921  0.00  0.00     0.149 C 
ATOM     29  C   UNL d   1       0.171  -5.157  -1.315  0.00  0.00     0.149 C 
ENDBRANCH  22  27
BRANCH  26  30
ATOM     30  N   UNL d   1      -5.250  -3.954  -0.181  0.00  0.00    -0.389 N 
ATOM     31  C   UNL d   1      -5.019  -2.529  -0.312  0.00  0.00     0.149 C 
ATOM     32  C   UNL d   1      -6.420  -4.401  -0.973  0.00  0.00     0.149 C 
ENDBRANCH  26  30
ENDBRANCH  20  21
ENDBRANCH   2  20
TORSDOF 6
