REMARK  4 active torsions:
REMARK  status: ('A' for Active; 'I' for Inactive)
REMARK    1  A    between atoms: S_5  and  C_1 
REMARK    2  A    between atoms: N_7  and  C_2 
REMARK    3  A    between atoms: C_10  and  C_4 
REMARK       I    between atoms: C_8  and  N_7 
REMARK       I    between atoms: N_9  and  C_8 
REMARK    4  A    between atoms: C_16  and  N_9 
ROOT
ATOM      1  C   UNL d   1       0.694  -0.924  -0.382  0.00  0.00     0.112 A 
ATOM      2  C   UNL d   1      -0.456   1.260  -0.503  0.00  0.00     0.086 A 
ATOM      3  S   UNL d   1      -0.874  -0.350  -0.781  0.00  0.00    -0.059 SA
ATOM      4  C   UNL d   1       1.552   0.135  -0.112  0.00  0.00     0.000 A 
ATOM      5  C   UNL d   1       0.889   1.415  -0.211  0.00  0.00    -0.016 A 
ATOM      6  C   UNL d   1       1.546   2.746   0.022  0.00  0.00     0.052 C 
ENDROOT
BRANCH   2   7
ATOM      7  N   UNL d   1      -1.369   2.293  -0.527  0.00  0.00    -0.302 N 
ATOM      8  C   UNL d   1      -2.707   2.403  -0.744  0.00  0.00     0.325 C 
ATOM      9  N   UNL d   1      -3.400   1.324  -1.198  0.00  0.00    -0.309 N 
ATOM     10  O   UNL d   1      -3.183   3.518  -0.521  0.00  0.00    -0.247 OA
ATOM     11  H   UNL d   1      -2.845   0.509  -1.410  0.00  0.00     0.170 HD
ATOM     12  H   UNL d   1      -1.013   3.198  -0.242  0.00  0.00     0.171 HD
BRANCH   9  13
ATOM     13  C   UNL d   1      -4.788   1.247  -1.457  0.00  0.00     0.036 A 
ATOM     14  C   UNL d   1      -5.685   2.291  -1.217  0.00  0.00     0.029 A 
ATOM     15  C   UNL d   1      -7.052   2.143  -1.485  0.00  0.00     0.002 A 
ATOM     16  C   UNL d   1      -7.535   0.944  -1.998  0.00  0.00     0.000 A 
ATOM     17  C   UNL d   1      -6.652  -0.103  -2.246  0.00  0.00     0.002 A 
ATOM     18  C   UNL d   1      -5.286   0.046  -1.978  0.00  0.00     0.029 A 
ENDBRANCH   9  13
ENDBRANCH   2   7
BRANCH   1  19
ATOM     19  S   UNL d   1       0.912  -2.698  -0.306  0.00  0.00     0.179 S 
ATOM     20  O   UNL d   1       1.849  -3.015  -1.368  0.00  0.00    -0.222 OA
ATOM     21  O   UNL d   1       1.207  -2.971   1.087  0.00  0.00    -0.222 OA
ATOM     22  C   UNL d   1      -0.618  -3.487  -0.708  0.00  0.00     0.167 C 
ENDBRANCH   1  19
BRANCH   4  23
ATOM     23  C   UNL d   1       2.916   0.006   0.318  0.00  0.00     0.004 C 
ATOM     24  C   UNL d   1       3.862  -0.786  -0.201  0.00  0.00     0.012 C 
ENDBRANCH   4  23
TORSDOF 4
