REMARK  2 active torsions:
REMARK  status: ('A' for Active; 'I' for Inactive)
REMARK    1  A    between atoms: C_10  and  C_1 
REMARK    2  A    between atoms: C_11  and  C_1 
ROOT
ATOM      1  C   UNL d   1       2.453  -0.024   2.368  0.00  0.00    -0.116 C 
ATOM      2  C   UNL d   1       1.897  -0.092   3.431  0.00  0.00     0.012 C 
ATOM      3  C   UNL d   1       3.121   0.036   1.054  0.00  0.00     0.124 C 
ENDROOT
BRANCH   3   4
ATOM      4  C   UNL d   1       2.141   0.012  -0.136  0.00  0.00     0.128 C 
ATOM      5  C   UNL d   1       1.188   1.218  -0.070  0.00  0.00     0.182 C 
ATOM      6  C   UNL d   1      -0.191   0.731  -0.028  0.00  0.00     0.025 A 
ATOM      7  O   UNL d   1       1.474   2.403  -0.045  0.00  0.00    -0.291 OA
ATOM      8  C   UNL d   1      -1.365   1.461  -0.027  0.00  0.00     0.016 A 
ATOM      9  C   UNL d   1      -0.202  -0.655   0.014  0.00  0.00     0.025 A 
ATOM     10  C   UNL d   1      -2.570   0.750  -0.002  0.00  0.00     0.001 A 
ATOM     11  C   UNL d   1      -2.578  -0.658   0.028  0.00  0.00     0.001 A 
ATOM     12  C   UNL d   1      -1.380  -1.377   0.043  0.00  0.00     0.016 A 
ATOM     13  C   UNL d   1       1.166  -1.164   0.025  0.00  0.00     0.182 C 
ATOM     14  O   UNL d   1       1.426  -2.350   0.147  0.00  0.00    -0.291 OA
BRANCH   4  15
ATOM     15  C   UNL d   1       2.913  -0.022  -1.468  0.00  0.00    -0.033 A 
ATOM     16  C   UNL d   1       3.725   1.065  -1.844  0.00  0.00     0.009 A 
ATOM     17  C   UNL d   1       4.521   1.011  -2.992  0.00  0.00     0.001 A 
ATOM     18  C   UNL d   1       4.511  -0.123  -3.797  0.00  0.00     0.000 A 
ATOM     19  C   UNL d   1       3.687  -1.192  -3.469  0.00  0.00     0.001 A 
ATOM     20  C   UNL d   1       2.895  -1.143  -2.319  0.00  0.00     0.009 A 
ENDBRANCH   4  15
ENDBRANCH   3   4
TORSDOF 2
