REMARK  2 active torsions:
REMARK  status: ('A' for Active; 'I' for Inactive)
REMARK    1  A    between atoms: C_3  and  N_1 
REMARK    2  A    between atoms: N_9  and  C_4 
ROOT
ATOM      1  C   UNL d   1       0.474   0.921   1.003  0.00  0.00     0.682 A 
ATOM      2  N   UNL d   1       1.131   2.051   1.321  0.00  0.00    -0.202 N 
ATOM      3  HN  UNL d   1       2.040   2.279   0.917  1.00  0.00     0.183 HD
ATOM      4  N   UNL d   1      -0.726   0.564   1.485  0.00  0.00    -0.202 N 
ATOM      5  HN  UNL d   1      -1.184  -0.302   1.202  1.00  0.00     0.183 HD
ATOM      6  C   UNL d   1      -0.705   2.590   2.763  0.00  0.00     0.035 A 
ATOM      7  C   UNL d   1      -1.289   1.413   2.361  0.00  0.00     0.107 A 
ATOM      8  C   UNL d   1       0.520   2.862   2.202  0.00  0.00     0.107 A 
ENDROOT
BRANCH   1   9
ATOM      9  N   UNL d   1       1.028   0.051   0.068  0.00  0.00    -0.188 N 
ATOM     10  C   UNL d   1       2.313   0.004  -0.012  0.00  0.00     0.195 C 
ATOM     11  HN  UNL d   1       0.439  -0.528  -0.531  1.00  0.00     0.185 HD
BRANCH  10  12
ATOM     12  N   UNL d   1       3.047  -0.786  -0.869  0.00  0.00    -0.385 N 
ATOM     13  C   UNL d   1       2.407  -1.688  -1.812  0.00  0.00     0.149 C 
ATOM     14  C   UNL d   1       4.498  -0.767  -0.883  0.00  0.00     0.149 C 
ENDBRANCH  10  12
ENDBRANCH   1   9
TORSDOF 2
