REMARK  6 active torsions:
REMARK  status: ('A' for Active; 'I' for Inactive)
REMARK    1  A    between atoms: N_5  and  C_1 
REMARK       I    between atoms: C_6  and  N_5 
REMARK    2  A    between atoms: C_10  and  C_6 
REMARK    3  A    between atoms: C_7  and  C_17 
REMARK    4  A    between atoms: S_16  and  C_23 
REMARK    5  A    between atoms: C_17  and  S_16 
REMARK    6  A    between atoms: C_23  and  C_22 
ROOT
ATOM      1  C   UNL d   1      -1.253  -3.763   0.077  0.00  0.00     0.032 A 
ATOM      2  C   UNL d   1      -0.346  -3.352   1.063  0.00  0.00     0.017 A 
ATOM      3  C   UNL d   1      -0.919  -4.829  -0.765  0.00  0.00     0.017 A 
ATOM      4  C   UNL d   1       0.904  -3.965   1.172  0.00  0.00     0.009 A 
ATOM      5  C   UNL d   1       0.332  -5.443  -0.652  0.00  0.00     0.009 A 
ATOM      6  C   UNL d   1       1.265  -4.999   0.297  0.00  0.00    -0.049 A 
ENDROOT
BRANCH   1   7
ATOM      7  C   UNL d   1      -2.531  -3.005  -0.053  0.00  0.00     0.257 C 
ATOM      8  N   UNL d   1      -3.009  -2.890  -1.342  0.00  0.00    -0.307 N 
ATOM      9  H   UNL d   1      -2.496  -3.310  -2.103  0.00  0.00     0.170 HD
ATOM     10  O   UNL d   1      -3.010  -2.510   0.959  0.00  0.00    -0.267 OA
BRANCH   8  11
ATOM     11  C   UNL d   1      -4.051  -2.061  -1.718  0.00  0.00     0.130 A 
ATOM     12  N   UNL d   1      -4.793  -1.304  -0.906  0.00  0.00    -0.245 N 
ATOM     13  O   UNL d   1      -5.642  -0.577  -1.716  0.00  0.00    -0.241 OA
ATOM     14  HN  UNL d   1      -4.743  -1.270   0.112  1.00  0.00     0.196 HD
ATOM     15  C   UNL d   1      -5.416  -0.905  -3.014  0.00  0.00     0.076 A 
ATOM     16  C   UNL d   1      -4.443  -1.871  -3.067  0.00  0.00     0.084 A 
ATOM     17  C   UNL d   1      -6.204  -0.177  -4.022  0.00  0.00     0.079 C 
ENDBRANCH   8  11
ENDBRANCH   1   7
BRANCH   6  18
ATOM     18  C   UNL d   1       2.640  -5.619   0.385  0.00  0.00     0.112 C 
BRANCH  18  19
ATOM     19  S   UNL d   1       3.599  -5.488  -1.157  0.00  0.00    -0.160 SA
BRANCH  19  20
ATOM     20  C   UNL d   1       3.723  -3.669  -1.290  0.00  0.00     0.116 C 
BRANCH  20  21
ATOM     21  C   UNL d   1       4.500  -3.280  -2.527  0.00  0.00    -0.005 A 
ATOM     22  C   UNL d   1       3.856  -3.096  -3.768  0.00  0.00     0.042 A 
ATOM     23 CL   UNL d   1       2.137  -3.230  -3.945  0.00  0.00    -0.084 Cl
ATOM     24  C   UNL d   1       4.585  -2.797  -4.926  0.00  0.00     0.024 A 
ATOM     25  C   UNL d   1       5.970  -2.680  -4.874  0.00  0.00     0.003 A 
ATOM     26  C   UNL d   1       6.627  -2.852  -3.660  0.00  0.00     0.024 A 
ATOM     27  C   UNL d   1       5.902  -3.150  -2.499  0.00  0.00     0.042 A 
ATOM     28 CL   UNL d   1       6.818  -3.349  -1.043  0.00  0.00    -0.084 Cl
ENDBRANCH  20  21
ENDBRANCH  19  20
ENDBRANCH  18  19
ENDBRANCH   6  18
TORSDOF 6
