REMARK  5 active torsions:
REMARK  status: ('A' for Active; 'I' for Inactive)
REMARK    1  A    between atoms: N_2  and  C_1 
REMARK    2  A    between atoms: C_3  and  C_7 
REMARK       I    between atoms: N_6  and  C_3 
REMARK    3  A    between atoms: O_10  and  C_5 
REMARK    4  A    between atoms: N_8  and  N_6 
REMARK    5  A    between atoms: C_16  and  O_10 
ROOT
ATOM      1  C   UNL d   1       1.387  -0.345   0.184  0.00  0.00     0.137 A 
ATOM      2  C   UNL d   1       0.446  -1.387   0.149  0.00  0.00     0.056 A 
ATOM      3  C   UNL d   1       1.006   0.994   0.049  0.00  0.00     0.109 A 
ATOM      4  C   UNL d   1      -0.911  -1.073   0.011  0.00  0.00     0.035 A 
ATOM      5  C   UNL d   1      -0.361   1.295   0.024  0.00  0.00     0.041 A 
ATOM      6  C   UNL d   1      -1.310   0.273   0.002  0.00  0.00     0.020 A 
ENDROOT
BRANCH   4   7
ATOM      7  C   UNL d   1      -1.922  -2.168  -0.100  0.00  0.00     0.266 C 
ATOM      8  N   UNL d   1      -3.057  -1.825  -0.827  0.00  0.00    -0.285 N 
ATOM      9  H   UNL d   1      -3.077  -0.952  -1.344  0.00  0.00     0.184 HD
ATOM     10  O   UNL d   1      -1.694  -3.256   0.413  0.00  0.00    -0.266 OA
BRANCH   8  11
ATOM     11  N   UNL d   1      -4.193  -2.629  -0.971  0.00  0.00    -0.225 NA
ATOM     12  C   UNL d   1      -4.865  -2.978   0.291  0.00  0.00     0.140 C 
ATOM     13  C   UNL d   1      -6.220  -3.627  -0.034  0.00  0.00     0.183 C 
ATOM     14  O   UNL d   1      -6.062  -4.794  -0.854  0.00  0.00    -0.389 OA
ATOM     15  C   UNL d   1      -5.363  -4.474  -2.066  0.00  0.00     0.183 C 
ATOM     16  C   UNL d   1      -3.991  -3.842  -1.779  0.00  0.00     0.140 C 
ENDBRANCH   8  11
ENDBRANCH   4   7
BRANCH   1  17
ATOM     17  N   UNL d   1       2.787  -0.680   0.360  0.00  0.00    -0.113 N 
ATOM     18  O   UNL d   1       3.267  -1.511  -0.425  0.00  0.00    -0.532 OA
ATOM     19  O   UNL d   1       3.389  -0.143   1.298  0.00  0.00    -0.532 OA
ENDBRANCH   1  17
BRANCH   3  20
ATOM     20  O   UNL d   1       1.968   1.977  -0.054  0.00  0.00    -0.308 OA
BRANCH  20  21
ATOM     21  C   UNL d   1       1.683   3.044  -0.880  0.00  0.00     0.076 A 
ATOM     22  C   UNL d   1       1.852   4.324  -0.354  0.00  0.00     0.039 A 
ATOM     23  C   UNL d   1       1.484   5.438  -1.111  0.00  0.00     0.026 A 
ATOM     24  C   UNL d   1       0.964   5.263  -2.395  0.00  0.00     0.034 A 
ATOM     25  C   UNL d   1       0.848   3.987  -2.945  0.00  0.00     0.026 A 
ATOM     26 CL   UNL d   1       0.448   6.631  -3.302  0.00  0.00    -0.084 Cl
ATOM     27  C   UNL d   1       1.228   2.873  -2.194  0.00  0.00     0.039 A 
ENDBRANCH  20  21
ENDBRANCH   3  20
TORSDOF 5
