REMARK  4 active torsions:
REMARK  status: ('A' for Active; 'I' for Inactive)
REMARK    1  A    between atoms: C_4  and  C_1 
REMARK    2  A    between atoms: C_2  and  C_4 
REMARK    3  A    between atoms: C_12  and  C_3 
REMARK    4  A    between atoms: O_18  and  C_5 
ROOT
ATOM      1  C   UNL d   1      -1.878  -3.365   0.197  0.00  0.00     0.076 A 
ATOM      2  C   UNL d   1      -2.735  -3.296  -0.962  0.00  0.00     0.085 A 
ATOM      3  N   UNL d   1      -3.739  -4.179  -0.823  0.00  0.00    -0.259 N 
ATOM      4  HN  UNL d   1      -4.442  -4.408  -1.525  1.00  0.00     0.195 HD
ATOM      5  O   UNL d   1      -3.644  -4.712   0.432  0.00  0.00    -0.241 OA
ATOM      6  C   UNL d   1      -2.543  -4.232   1.053  0.00  0.00     0.089 A 
ATOM      7  C   UNL d   1      -2.323  -4.747   2.424  0.00  0.00     0.080 C 
ENDROOT
BRANCH   1   8
ATOM      8  C   UNL d   1      -0.614  -2.689   0.478  0.00  0.00     0.203 C 
ATOM      9  O   UNL d   1      -0.456  -1.496   0.210  0.00  0.00    -0.286 OA
BRANCH   8  10
ATOM     10  C   UNL d   1       0.430  -3.497   1.115  0.00  0.00     0.091 C 
ATOM     11  C   UNL d   1       0.617  -4.878   1.076  0.00  0.00     0.173 C 
ATOM     12  N   UNL d   1       1.588  -5.146   2.002  0.00  0.00    -0.275 N 
ATOM     13  C   UNL d   1       1.933  -6.436   2.554  0.00  0.00     0.180 C 
ATOM     14  N   UNL d   1       2.199  -4.047   2.471  0.00  0.00    -0.300 N 
ATOM     15  C   UNL d   1       1.518  -3.035   1.918  0.00  0.00     0.040 C 
ATOM     16  HN  UNL d   1       2.997  -3.994   3.103  1.00  0.00     0.187 HD
ATOM     17  C   UNL d   1       1.945  -1.643   2.209  0.00  0.00     0.071 C 
BRANCH  11  18
ATOM     18  O   UNL d   1       0.033  -5.876   0.417  0.00  0.00    -0.344 OA
ATOM     19  H   UNL d   1      -0.560  -5.523  -0.271  0.00  0.00     0.219 HD
ENDBRANCH  11  18
ENDBRANCH   8  10
ENDBRANCH   1   8
BRANCH   2  20
ATOM     20  C   UNL d   1      -2.648  -2.501  -2.205  0.00  0.00     0.037 A 
ATOM     21  C   UNL d   1      -1.444  -2.357  -2.924  0.00  0.00     0.048 A 
ATOM     22 CL   UNL d   1      -0.004  -3.251  -2.556  0.00  0.00    -0.083 Cl
ATOM     23  C   UNL d   1      -1.369  -1.550  -4.073  0.00  0.00     0.025 A 
ATOM     24  C   UNL d   1      -2.506  -0.936  -4.585  0.00  0.00     0.003 A 
ATOM     25  C   UNL d   1      -3.723  -1.129  -3.947  0.00  0.00     0.025 A 
ATOM     26  C   UNL d   1      -3.797  -1.884  -2.764  0.00  0.00     0.048 A 
ATOM     27 CL   UNL d   1      -5.388  -1.987  -2.071  0.00  0.00    -0.083 Cl
ENDBRANCH   2  20
TORSDOF 4
