REMARK  3 active torsions:
REMARK  status: ('A' for Active; 'I' for Inactive)
REMARK    1  A    between atoms: C_5  and  C_1 
REMARK    2  A    between atoms: C_8  and  C_2 
REMARK       I    between atoms: N_11  and  C_8 
REMARK    3  A    between atoms: N_12  and  N_11 
ROOT
ATOM      1  C   UNL d   1      -1.305  -0.833   0.075  0.00  0.00     0.085 A 
ATOM      2  C   UNL d   1       0.035  -1.337  -0.050  0.00  0.00     0.094 A 
ATOM      3  N   UNL d   1      -1.277   0.497   0.266  0.00  0.00    -0.259 N 
ATOM      4  HN  UNL d   1      -2.079   1.104   0.435  1.00  0.00     0.195 HD
ATOM      5  O   UNL d   1       0.035   0.883   0.190  0.00  0.00    -0.241 OA
ATOM      6  C   UNL d   1       0.827  -0.203   0.003  0.00  0.00     0.090 A 
ATOM      7  C   UNL d   1       2.265   0.107  -0.117  0.00  0.00     0.080 C 
ENDROOT
BRANCH   1   8
ATOM      8  C   UNL d   1      -2.580  -1.560   0.124  0.00  0.00     0.015 A 
ATOM      9  C   UNL d   1      -3.748  -1.111  -0.521  0.00  0.00     0.046 A 
ATOM     10 CL   UNL d   1      -3.796   0.285  -1.546  0.00  0.00    -0.083 Cl
ATOM     11  C   UNL d   1      -4.952  -1.818  -0.386  0.00  0.00     0.025 A 
ATOM     12  C   UNL d   1      -5.007  -2.986   0.372  0.00  0.00     0.002 A 
ATOM     13  C   UNL d   1      -3.859  -3.452   1.001  0.00  0.00     0.001 A 
ATOM     14  C   UNL d   1      -2.661  -2.740   0.888  0.00  0.00     0.015 A 
ENDBRANCH   1   8
BRANCH   2  15
ATOM     15  C   UNL d   1       0.461  -2.712  -0.216  0.00  0.00     0.270 C 
ATOM     16  O   UNL d   1      -0.190  -3.539  -0.849  0.00  0.00    -0.266 OA
ATOM     17  N   UNL d   1       1.622  -3.056   0.470  0.00  0.00    -0.290 N 
ATOM     18  H   UNL d   1       2.108  -2.377   1.048  0.00  0.00     0.183 HD
BRANCH  17  19
ATOM     19  N   UNL d   1       2.095  -4.387   0.441  0.00  0.00    -0.247 NA
ATOM     20  H   UNL d   1       1.544  -4.889  -0.272  0.00  0.00     0.143 HD
ATOM     21  H   UNL d   1       1.836  -4.842   1.321  0.00  0.00     0.143 HD
ENDBRANCH  17  19
ENDBRANCH   2  15
TORSDOF 3
