REMARK  4 active torsions:
REMARK  status: ('A' for Active; 'I' for Inactive)
REMARK    1  A    between atoms: N_4  and  C_1 
REMARK    2  A    between atoms: C_5  and  C_9 
REMARK    3  A    between atoms: C_10  and  C_5 
REMARK       I    between atoms: N_12  and  C_10 
REMARK    4  A    between atoms: C_17  and  N_12 
ROOT
ATOM      1  C   UNL d   1       1.743   2.897  -0.282  0.00  0.00     0.116 C 
ATOM      2  C   UNL d   1       2.247   3.925  -1.126  0.00  0.00     0.105 C 
ATOM      3  N   UNL d   1       2.775   4.685  -1.826  0.00  0.00    -0.191 NA
ENDROOT
BRANCH   1   4
ATOM      4  C   UNL d   1       0.476   2.832   0.176  0.00  0.00     0.077 C 
ATOM      5  C   UNL d   1      -0.512   3.813  -0.098  0.00  0.00     0.110 A 
ATOM      6  N   UNL d   1      -1.871   3.506  -0.059  0.00  0.00    -0.318 N 
ATOM      7  N   UNL d   1      -0.336   5.086  -0.391  0.00  0.00    -0.348 N 
ATOM      8  C   UNL d   1      -2.542   4.686  -0.284  0.00  0.00     0.192 A 
ATOM      9  C   UNL d   1      -2.454   2.195   0.137  0.00  0.00     0.159 C 
ATOM     10  C   UNL d   1      -1.582   5.640  -0.503  0.00  0.00     0.144 A 
ATOM     11  HN  UNL d   1       0.557   5.566  -0.510  1.00  0.00     0.167 HD
BRANCH   8  12
ATOM     12  N   UNL d   1      -3.954   4.867  -0.280  0.00  0.00    -0.096 N 
ATOM     13  O   UNL d   1      -4.657   3.919   0.085  0.00  0.00    -0.530 OA
ATOM     14  O   UNL d   1      -4.367   5.976  -0.632  0.00  0.00    -0.530 OA
ENDBRANCH   8  12
ENDBRANCH   1   4
BRANCH   1  15
ATOM     15  C   UNL d   1       2.627   1.732   0.081  0.00  0.00     0.266 C 
ATOM     16  N   UNL d   1       3.924   1.780  -0.403  0.00  0.00    -0.322 N 
ATOM     17  H   UNL d   1       4.260   2.638  -0.828  0.00  0.00     0.169 HD
ATOM     18  O   UNL d   1       2.168   0.818   0.764  0.00  0.00    -0.267 OA
BRANCH  16  19
ATOM     19  C   UNL d   1       4.863   0.719  -0.388  0.00  0.00     0.035 A 
ATOM     20  C   UNL d   1       4.543  -0.595  -0.025  0.00  0.00     0.032 A 
ATOM     21  C   UNL d   1       5.505  -1.607  -0.092  0.00  0.00     0.044 A 
ATOM     22  C   UNL d   1       6.790  -1.306  -0.515  0.00  0.00     0.116 A 
ATOM     23  C   UNL d   1       7.134  -0.008  -0.871  0.00  0.00     0.044 A 
ATOM     24  F   UNL d   1       7.707  -2.279  -0.590  0.00  0.00    -0.206 F 
ATOM     25  C   UNL d   1       6.169   1.003  -0.812  0.00  0.00     0.032 A 
ENDBRANCH  16  19
ENDBRANCH   1  15
TORSDOF 4
