REMARK  2 active torsions:
REMARK  status: ('A' for Active; 'I' for Inactive)
REMARK    1  A    between atoms: S_3  and  C_1 
REMARK    2  A    between atoms: N_10  and  S_3 
ROOT
ATOM      1  C   UNL d   1      -0.166  -1.313  -0.008  0.00  0.00     0.137 A 
ATOM      2  C   UNL d   1       1.085  -0.754  -0.005  0.00  0.00     0.144 A 
ATOM      3  C   UNL d   1      -1.059  -0.217  -0.005  0.00  0.00     0.048 A 
ATOM      4  N   UNL d   1      -0.397   0.952  -0.003  0.00  0.00    -0.301 N 
ATOM      5  HN  UNL d   1      -0.791   1.893  -0.000  1.00  0.00     0.187 HD
ATOM      6  N   UNL d   1       0.908   0.600  -0.004  0.00  0.00    -0.284 N 
ATOM      7 CL   UNL d   1       2.647  -1.431  -0.002  0.00  0.00    -0.061 Cl
ATOM      8  C   UNL d   1      -2.545  -0.209  -0.005  0.00  0.00     0.071 C 
ATOM      9  C   UNL d   1       1.888   1.660  -0.007  0.00  0.00     0.179 C 
ENDROOT
BRANCH   1  10
ATOM     10  S   UNL d   1      -0.609  -2.959  -0.016  0.00  0.00     0.244 S 
ATOM     11  O   UNL d   1      -1.268  -3.148   1.254  0.00  0.00    -0.206 OA
ATOM     12  O   UNL d   1      -1.263  -3.138  -1.288  0.00  0.00    -0.206 OA
BRANCH  10  13
ATOM     13  N   UNL d   1       0.756  -3.927  -0.017  0.00  0.00    -0.225 NA
ATOM     14  H   UNL d   1       1.297  -3.832   0.842  0.00  0.00     0.136 HD
ATOM     15  H   UNL d   1       1.298  -3.827  -0.873  0.00  0.00     0.136 HD
ENDBRANCH  10  13
ENDBRANCH   1  10
TORSDOF 2
