REMARK  3 active torsions:
REMARK  status: ('A' for Active; 'I' for Inactive)
REMARK    1  A    between atoms: C_2  and  C_1 
REMARK    2  A    between atoms: C_14  and  C_7 
REMARK    3  A    between atoms: N_10  and  C_9 
ROOT
ATOM      1  C   UNL d   1      -0.428  -2.818   0.168  0.00  0.00     0.201 A 
ATOM      2  N   UNL d   1      -0.073  -3.581   1.194  0.00  0.00    -0.316 N 
ATOM      3  HN  UNL d   1       0.263  -3.286   2.110  1.00  0.00     0.169 HD
ATOM      4  C   UNL d   1      -0.262  -4.859   0.735  0.00  0.00     0.162 A 
ATOM      5  N   UNL d   1      -0.705  -4.933  -0.522  0.00  0.00    -0.240 N 
ATOM      6  HN  UNL d   1      -0.908  -5.767  -1.073  1.00  0.00     0.196 HD
ATOM      7  O   UNL d   1      -0.821  -3.602  -0.900  0.00  0.00    -0.215 OA
ENDROOT
BRANCH   1   8
ATOM      8  C   UNL d   1      -0.375  -1.390   0.126  0.00  0.00     0.122 C 
ATOM      9  C   UNL d   1      -1.133  -0.651  -0.698  0.00  0.00     0.048 C 
ATOM     10  C   UNL d   1      -0.697   0.749  -0.480  0.00  0.00     0.313 C 
ATOM     11  C   UNL d   1      -2.208  -0.951  -1.672  0.00  0.00     0.057 C 
ATOM     12  O   UNL d   1      -1.120   1.724  -1.076  0.00  0.00    -0.258 OA
ATOM     13  O   UNL d   1       0.288   0.747   0.478  0.00  0.00    -0.192 OA
ATOM     14  N   UNL d   1       0.413  -0.574   0.920  0.00  0.00    -0.248 N 
ATOM     15  C   UNL d   1       1.722  -0.881   1.457  0.00  0.00     0.186 C 
ENDBRANCH   1   8
BRANCH   4  16
ATOM     16  C   UNL d   1       0.024  -6.059   1.572  0.00  0.00     0.123 A 
ATOM     17  O   UNL d   1      -0.076  -7.360   1.152  0.00  0.00    -0.285 OA
ATOM     18  C   UNL d   1       0.286  -8.134   2.209  0.00  0.00     0.215 A 
ATOM     19  C   UNL d   1       0.605  -7.376   3.309  0.00  0.00     0.066 A 
ATOM     20  C   UNL d   1       0.438  -6.030   2.895  0.00  0.00     0.046 A 
BRANCH  18  21
ATOM     21  N   UNL d   1       0.280  -9.548   2.001  0.00  0.00    -0.090 N 
ATOM     22  O   UNL d   1       0.618 -10.242   2.970  0.00  0.00    -0.530 OA
ATOM     23  O   UNL d   1      -0.052  -9.970   0.887  0.00  0.00    -0.530 OA
ENDBRANCH  18  21
ENDBRANCH   4  16
TORSDOF 3
