REMARK  6 active torsions:
REMARK  status: ('A' for Active; 'I' for Inactive)
REMARK       I    between atoms: C_2  and  N_7 
REMARK       I    between atoms: N_8  and  C_2 
REMARK       I    between atoms: C_3  and  N_6 
REMARK       I    between atoms: N_9  and  C_3 
REMARK    1  A    between atoms: N_7  and  C_4 
REMARK    2  A    between atoms: N_6  and  C_5 
REMARK    3  A    between atoms: C_20  and  N_8 
REMARK    4  A    between atoms: C_19  and  N_9 
REMARK    5  A    between atoms: C_17  and  C_20 
REMARK    6  A    between atoms: C_18  and  C_19 
ROOT
ATOM      1  C   UNL d   1       0.437   0.291  -0.486  0.00  0.00     0.169 A 
ATOM      2  C   UNL d   1      -0.239  -0.732   0.179  0.00  0.00     0.077 A 
ATOM      3  C   UNL d   1      -0.212   1.420  -1.002  0.00  0.00     0.077 A 
ATOM      4  F   UNL d   1       1.752   0.208  -0.737  0.00  0.00    -0.201 F 
ATOM      5  C   UNL d   1      -1.632  -0.617   0.269  0.00  0.00     0.033 A 
ATOM      6  C   UNL d   1      -1.593   1.522  -0.904  0.00  0.00     0.033 A 
ATOM      7  C   UNL d   1      -2.302   0.498  -0.264  0.00  0.00     0.005 A 
ENDROOT
BRANCH   2   8
ATOM      8  N   UNL d   1       0.359  -1.877   0.753  0.00  0.00    -0.306 N 
ATOM      9  C   UNL d   1       1.645  -2.237   1.035  0.00  0.00     0.321 C 
ATOM     10  N   UNL d   1       2.623  -1.310   0.921  0.00  0.00    -0.339 N 
ATOM     11  O   UNL d   1       1.858  -3.377   1.447  0.00  0.00    -0.247 OA
ATOM     12  H   UNL d   1       2.412  -0.449   0.453  0.00  0.00     0.164 HD
ATOM     13  H   UNL d   1      -0.273  -2.613   1.050  0.00  0.00     0.171 HD
BRANCH  10  14
ATOM     14  C   UNL d   1       4.029  -1.565   1.122  0.00  0.00     0.164 C 
BRANCH  14  15
ATOM     15  C   UNL d   1       4.806  -1.482  -0.166  0.00  0.00    -0.025 A 
ATOM     16  C   UNL d   1       5.952  -0.697  -0.261  0.00  0.00     0.096 A 
ATOM     17  N   UNL d   1       6.726  -0.604  -1.367  0.00  0.00    -0.375 N 
ATOM     18  C   UNL d   1       6.347  -1.334  -2.437  0.00  0.00     0.087 A 
ATOM     19  HN  UNL d   1       7.556  -0.011  -1.391  1.00  0.00     0.164 HD
ATOM     20  C   UNL d   1       5.225  -2.146  -2.452  0.00  0.00     0.018 A 
ATOM     21  C   UNL d   1       4.448  -2.220  -1.299  0.00  0.00     0.011 A 
ENDBRANCH  14  15
ENDBRANCH  10  14
ENDBRANCH   2   8
BRANCH   3  22
ATOM     22  N   UNL d   1       0.629   2.428  -1.494  0.00  0.00    -0.306 N 
ATOM     23  C   UNL d   1       0.528   3.301  -2.522  0.00  0.00     0.321 C 
ATOM     24  N   UNL d   1      -0.434   3.058  -3.456  0.00  0.00    -0.339 N 
ATOM     25  O   UNL d   1       1.400   4.159  -2.661  0.00  0.00    -0.247 OA
ATOM     26  H   UNL d   1      -0.901   2.166  -3.364  0.00  0.00     0.164 HD
ATOM     27  H   UNL d   1       1.587   2.406  -1.153  0.00  0.00     0.171 HD
BRANCH  24  28
ATOM     28  C   UNL d   1      -0.185   3.492  -4.817  0.00  0.00     0.164 C 
BRANCH  28  29
ATOM     29  C   UNL d   1      -0.816   4.790  -5.219  0.00  0.00    -0.025 A 
ATOM     30  C   UNL d   1      -1.819   5.417  -4.494  0.00  0.00     0.096 A 
ATOM     31  N   UNL d   1      -2.449   6.551  -4.885  0.00  0.00    -0.375 N 
ATOM     32  C   UNL d   1      -2.049   7.096  -6.053  0.00  0.00     0.087 A 
ATOM     33  HN  UNL d   1      -3.190   6.972  -4.324  1.00  0.00     0.164 HD
ATOM     34  C   UNL d   1      -1.055   6.563  -6.851  0.00  0.00     0.018 A 
ATOM     35  C   UNL d   1      -0.433   5.392  -6.427  0.00  0.00     0.011 A 
ENDBRANCH  28  29
ENDBRANCH  24  28
ENDBRANCH   3  22
TORSDOF 6
