REMARK  6 active torsions:
REMARK  status: ('A' for Active; 'I' for Inactive)
REMARK    1  A    between atoms: C_3  and  N_1 
REMARK       I    between atoms: C_8  and  N_1 
REMARK       I    between atoms: N_2  and  C_7 
REMARK    2  A    between atoms: C_4  and  N_2 
REMARK    3  A    between atoms: C_7  and  C_23 
REMARK    4  A    between atoms: C_24  and  C_8 
REMARK    5  A    between atoms: C_23  and  C_25 
REMARK    6  A    between atoms: C_25  and  C_24 
ROOT
ATOM      1  C   UNL d   1       4.650  -1.003  -0.708  0.00  0.00     0.019 C 
ENDROOT
BRANCH   1   2
ATOM      2  C   UNL d   1       5.641  -2.125  -1.041  0.00  0.00     0.103 C 
BRANCH   2   3
ATOM      3  C   UNL d   1       7.060  -1.596  -0.930  0.00  0.00     0.222 C 
ATOM      4  N   UNL d   1       8.030  -2.583  -0.995  0.00  0.00    -0.325 N 
ATOM      5  H   UNL d   1       7.758  -3.460  -1.424  0.00  0.00     0.169 HD
ATOM      6  O   UNL d   1       7.287  -0.389  -0.870  0.00  0.00    -0.273 OA
BRANCH   4   7
ATOM      7  C   UNL d   1       9.416  -2.314  -0.878  0.00  0.00     0.073 A 
ATOM      8  C   UNL d   1       9.947  -1.271  -0.099  0.00  0.00     0.145 A 
ATOM      9  C   UNL d   1      11.307  -0.985  -0.103  0.00  0.00     0.086 A 
ATOM     10  F   UNL d   1       9.175  -0.569   0.743  0.00  0.00    -0.204 F 
ATOM     11  C   UNL d   1      12.158  -1.769  -0.867  0.00  0.00     0.119 A 
ATOM     12  C   UNL d   1      11.669  -2.852  -1.593  0.00  0.00     0.044 A 
ATOM     13  F   UNL d   1      13.466  -1.491  -0.896  0.00  0.00    -0.206 F 
ATOM     14  C   UNL d   1      10.301  -3.137  -1.587  0.00  0.00     0.036 A 
ENDBRANCH   4   7
ENDBRANCH   2   3
ENDBRANCH   1   2
BRANCH   1  15
ATOM     15  C   UNL d   1       3.192  -1.413  -0.854  0.00  0.00     0.103 C 
BRANCH  15  16
ATOM     16  C   UNL d   1       2.170  -0.296  -0.646  0.00  0.00     0.222 C 
ATOM     17  N   UNL d   1       2.521   0.677   0.267  0.00  0.00    -0.325 N 
ATOM     18  H   UNL d   1       3.506   0.834   0.451  0.00  0.00     0.169 HD
ATOM     19  O   UNL d   1       1.090  -0.348  -1.234  0.00  0.00    -0.273 OA
BRANCH  17  20
ATOM     20  C   UNL d   1       1.671   1.682   0.780  0.00  0.00     0.073 A 
ATOM     21  C   UNL d   1       2.269   2.829   1.323  0.00  0.00     0.145 A 
ATOM     22  C   UNL d   1       1.510   3.870   1.843  0.00  0.00     0.086 A 
ATOM     23  F   UNL d   1       3.607   2.940   1.317  0.00  0.00    -0.204 F 
ATOM     24  C   UNL d   1       0.129   3.745   1.853  0.00  0.00     0.119 A 
ATOM     25  C   UNL d   1      -0.492   2.604   1.352  0.00  0.00     0.044 A 
ATOM     26  F   UNL d   1      -0.619   4.734   2.358  0.00  0.00    -0.206 F 
ATOM     27  C   UNL d   1       0.279   1.572   0.808  0.00  0.00     0.036 A 
ENDBRANCH  17  20
ENDBRANCH  15  16
ENDBRANCH   1  15
TORSDOF 6
