REMARK  7 active torsions:
REMARK  status: ('A' for Active; 'I' for Inactive)
REMARK    1  A    between atoms: C_10  and  N_1 
REMARK    2  A    between atoms: S_8  and  C_2 
REMARK    3  A    between atoms: N_7  and  C_9 
REMARK    4  A    between atoms: C_16  and  S_8 
REMARK    5  A    between atoms: C_12  and  C_14 
REMARK    6  A    between atoms: C_14  and  C_16 
REMARK    7  A    between atoms: O_23  and  C_20 
ROOT
ATOM      1  N   UNL d   1       0.508   0.386   0.016  0.00  0.00    -0.219 N 
ATOM      2  C   UNL d   1       0.881  -0.916  -0.284  0.00  0.00     0.177 A 
ATOM      3  N   UNL d   1      -0.129  -1.721  -0.036  0.00  0.00    -0.264 N 
ATOM      4  HN  UNL d   1      -0.163  -2.729  -0.191  1.00  0.00     0.186 HD
ATOM      5  N   UNL d   1      -1.124  -0.933   0.472  0.00  0.00    -0.006 NA
ATOM      6  N   UNL d   1      -0.732   0.329   0.570  0.00  0.00     0.001 NA
ENDROOT
BRANCH   2   7
ATOM      7  S   UNL d   1       2.489  -1.443  -0.664  0.00  0.00    -0.084 SA
BRANCH   7   8
ATOM      8  C   UNL d   1       2.418  -3.171  -0.110  0.00  0.00     0.166 C 
BRANCH   8   9
ATOM      9  C   UNL d   1       3.776  -3.855  -0.197  0.00  0.00     0.169 C 
ATOM     10  O   UNL d   1       4.783  -3.321  -0.656  0.00  0.00    -0.291 OA
BRANCH   9  11
ATOM     11  C   UNL d   1       3.892  -5.259   0.313  0.00  0.00     0.013 A 
ATOM     12  C   UNL d   1       2.792  -5.982   0.786  0.00  0.00     0.051 A 
ATOM     13  C   UNL d   1       2.978  -7.290   1.270  0.00  0.00     0.103 A 
ATOM     14  C   UNL d   1       4.247  -7.883   1.277  0.00  0.00     0.036 A 
ATOM     15  C   UNL d   1       5.338  -7.164   0.797  0.00  0.00     0.003 A 
ATOM     16  C   UNL d   1       5.162  -5.862   0.319  0.00  0.00     0.015 A 
BRANCH  13  17
ATOM     17  N   UNL d   1       1.826  -8.045   1.782  0.00  0.00    -0.116 N 
ATOM     18  O   UNL d   1       0.720  -7.487   1.753  0.00  0.00    -0.532 OA
ATOM     19  O   UNL d   1       2.029  -9.186   2.213  0.00  0.00    -0.532 OA
ENDBRANCH  13  17
ENDBRANCH   9  11
ENDBRANCH   8   9
ENDBRANCH   7   8
ENDBRANCH   2   7
BRANCH   1  20
ATOM     20  C   UNL d   1       1.187   1.622  -0.122  0.00  0.00     0.057 A 
ATOM     21  C   UNL d   1       2.142   1.822  -1.127  0.00  0.00     0.034 A 
ATOM     22  C   UNL d   1       2.828   3.036  -1.205  0.00  0.00     0.039 A 
ATOM     23  C   UNL d   1       2.570   4.038  -0.279  0.00  0.00     0.065 A 
ATOM     24  C   UNL d   1       1.599   3.870   0.702  0.00  0.00     0.039 A 
ATOM     25  C   UNL d   1       0.888   2.668   0.768  0.00  0.00     0.034 A 
BRANCH  23  26
ATOM     26  O   UNL d   1       3.303   5.184  -0.367  0.00  0.00    -0.361 OA
ATOM     27  H   UNL d   1       3.098   5.745   0.399  0.00  0.00     0.217 HD
ENDBRANCH  23  26
ENDBRANCH   1  20
TORSDOF 7
