REMARK  2 active torsions:
REMARK  status: ('A' for Active; 'I' for Inactive)
REMARK    1  A    between atoms: C_4  and  C_1 
REMARK    2  A    between atoms: C_14  and  C_5 
ROOT
ATOM      1  C   UNL d   1       0.242   1.118  -0.006  0.00  0.00     0.156 A 
ATOM      2  N   UNL d   1       1.253   0.192  -0.143  0.00  0.00    -0.321 N 
ATOM      3  HN  UNL d   1       2.248   0.349  -0.304  1.00  0.00     0.169 HD
ATOM      4  C   UNL d   1       0.609  -0.946  -0.014  0.00  0.00     0.156 A 
ATOM      5  N   UNL d   1      -0.976   0.590   0.178  0.00  0.00    -0.241 N 
ATOM      6  HN  UNL d   1      -1.865   1.076   0.294  1.00  0.00     0.196 HD
ATOM      7  O   UNL d   1      -0.736  -0.783   0.172  0.00  0.00    -0.222 OA
ENDROOT
BRANCH   1   8
ATOM      8  C   UNL d   1       0.549   2.550  -0.033  0.00  0.00     0.103 A 
ATOM      9  N   UNL d   1      -0.355   3.526   0.133  0.00  0.00    -0.257 N 
ATOM     10  O   UNL d   1       0.360   4.710   0.056  0.00  0.00    -0.242 OA
ATOM     11  HN  UNL d   1      -1.358   3.419   0.284  1.00  0.00     0.195 HD
ATOM     12  C   UNL d   1       1.675   4.434  -0.158  0.00  0.00     0.074 A 
ATOM     13  C   UNL d   1       1.847   3.073  -0.224  0.00  0.00     0.070 A 
ATOM     14  C   UNL d   1       2.579   5.591  -0.264  0.00  0.00     0.079 C 
ENDBRANCH   1   8
BRANCH   4  15
ATOM     15  C   UNL d   1       1.136  -2.351  -0.005  0.00  0.00     0.016 C 
ATOM     16  C   UNL d   1       2.664  -2.339  -0.195  0.00  0.00     0.023 C 
ATOM     17  C   UNL d   1       0.806  -3.017   1.342  0.00  0.00     0.023 C 
ATOM     18  C   UNL d   1       0.502  -3.161  -1.146  0.00  0.00     0.023 C 
ENDBRANCH   4  15
TORSDOF 2
