REMARK  4 active torsions:
REMARK  status: ('A' for Active; 'I' for Inactive)
REMARK    1  A    between atoms: C_8  and  C_1 
REMARK    2  A    between atoms: C_7  and  N_2 
REMARK    3  A    between atoms: O_16  and  C_8 
REMARK    4  A    between atoms: C_19  and  O_16 
ROOT
ATOM      1  C   UNL d   1      -0.251   1.236   0.025  0.00  0.00     0.080 C 
ATOM      2  N   UNL d   1       1.076  -0.535  -0.191  0.00  0.00    -0.260 N 
ATOM      3  C   UNL d   1       1.082   0.847  -0.045  0.00  0.00     0.048 C 
ATOM      4  N   UNL d   1      -0.177  -0.991  -0.452  0.00  0.00    -0.304 N 
ATOM      5  HN  UNL d   1      -0.451  -1.930  -0.742  1.00  0.00     0.186 HD
ATOM      6  C   UNL d   1      -0.968   0.061  -0.246  0.00  0.00     0.127 C 
ATOM      7  C   UNL d   1       2.296   1.708  -0.040  0.00  0.00     0.071 C 
ENDROOT
BRANCH   2   8
ATOM      8  C   UNL d   1       2.148  -1.468  -0.098  0.00  0.00     0.058 A 
ATOM      9  C   UNL d   1       2.031  -2.710  -0.744  0.00  0.00     0.057 A 
ATOM     10  C   UNL d   1       3.085  -3.629  -0.706  0.00  0.00     0.058 A 
ATOM     11 CL   UNL d   1       2.895  -5.109  -1.576  0.00  0.00    -0.082 Cl
ATOM     12  C   UNL d   1       4.250  -3.326   0.008  0.00  0.00     0.055 A 
ATOM     13  C   UNL d   1       4.346  -2.114   0.696  0.00  0.00     0.028 A 
ATOM     14 CL   UNL d   1       5.600  -4.400   0.084  0.00  0.00    -0.083 Cl
ATOM     15  C   UNL d   1       3.299  -1.188   0.649  0.00  0.00     0.033 A 
ENDBRANCH   2   8
BRANCH   1  16
ATOM     16  C   UNL d   1      -0.760   2.569   0.294  0.00  0.00     0.296 C 
ATOM     17  O   UNL d   1      -0.040   3.530   0.535  0.00  0.00    -0.259 OA
BRANCH  16  18
ATOM     18  O   UNL d   1      -2.124   2.605   0.306  0.00  0.00    -0.318 OA
BRANCH  18  19
ATOM     19  C   UNL d   1      -2.700   3.839   0.755  0.00  0.00     0.174 C 
ATOM     20  C   UNL d   1      -2.801   3.824   2.269  0.00  0.00     0.034 C 
ENDBRANCH  18  19
ENDBRANCH  16  18
ENDBRANCH   1  16
TORSDOF 4
