REMARK  2 active torsions:
REMARK  status: ('A' for Active; 'I' for Inactive)
REMARK    1  A    between atoms: C_11  and  C_2 
REMARK    2  A    between atoms: C_12  and  C_9 
ROOT
ATOM      1  N   UNL d   1      -0.897  -0.859  -0.004  0.00  0.00    -0.234 N 
ATOM      2  C   UNL d   1      -2.271  -0.642  -0.005  0.00  0.00     0.144 A 
ATOM      3  C   UNL d   1      -0.009   0.230  -0.005  0.00  0.00     0.150 A 
ATOM      4  N   UNL d   1      -0.439   1.529  -0.005  0.00  0.00    -0.336 N 
ATOM      5  HN  UNL d   1       0.222   2.305  -0.005  1.00  0.00     0.167 HD
ATOM      6  C   UNL d   1      -2.742   0.623  -0.011  0.00  0.00     0.071 A 
ATOM      7  N   UNL d   1      -0.221  -2.032   0.003  0.00  0.00    -0.302 N 
ATOM      8  HN  UNL d   1      -0.615  -2.973   0.005  1.00  0.00     0.186 HD
ATOM      9  C   UNL d   1      -1.731   1.738  -0.006  0.00  0.00     0.120 A 
ATOM     10  C   UNL d   1       1.256  -0.315   0.001  0.00  0.00     0.107 A 
ATOM     11  C   UNL d   1       1.068  -1.698   0.005  0.00  0.00     0.134 A 
ATOM     12  C   UNL d   1       2.491   0.389   0.005  0.00  0.00     0.105 C 
ATOM     13  N   UNL d   1       3.516   0.929   0.006  0.00  0.00    -0.191 NA
ENDROOT
BRANCH   2  14
ATOM     14  C   UNL d   1      -3.179  -1.821   0.017  0.00  0.00     0.434 C 
ATOM     15  F   UNL d   1      -2.592  -3.038  -0.010  0.00  0.00    -0.165 F 
ATOM     16  F   UNL d   1      -3.957  -1.795   1.133  0.00  0.00    -0.165 F 
ATOM     17  F   UNL d   1      -4.037  -1.786  -1.038  0.00  0.00    -0.165 F 
ENDBRANCH   2  14
BRANCH   9  18
ATOM     18  C   UNL d   1      -2.275   3.175   0.008  0.00  0.00     0.432 C 
ATOM     19  F   UNL d   1      -3.636   3.213  -0.006  0.00  0.00    -0.165 F 
ATOM     20  F   UNL d   1      -1.886   3.859   1.116  0.00  0.00    -0.165 F 
ATOM     21  F   UNL d   1      -1.862   3.893  -1.069  0.00  0.00    -0.165 F 
ENDBRANCH   9  18
TORSDOF 2
