REMARK  8 active torsions:
REMARK  status: ('A' for Active; 'I' for Inactive)
REMARK    1  A    between atoms: C_4  and  N_1 
REMARK    2  A    between atoms: N_2  and  N_8 
REMARK    3  A    between atoms: C_11  and  C_5 
REMARK    4  A    between atoms: C_12  and  C_5 
REMARK    5  A    between atoms: N_8  and  C_15 
REMARK    6  A    between atoms: C_9  and  C_16 
REMARK    7  A    between atoms: O_17  and  C_9 
REMARK    8  A    between atoms: C_16  and  C_11 
ROOT
ATOM      1  N   UNL d   1      -1.540   3.323  -4.795  0.00  0.00    -0.320 N 
ATOM      2  HN  UNL d   1      -0.926   2.684  -5.300  1.00  0.00     0.181 HD
ATOM      3  C   UNL d   1      -2.135   4.302  -5.428  0.00  0.00     0.031 C 
ENDROOT
BRANCH   1   4
ATOM      4  N   UNL d   1      -1.744   3.167  -3.469  0.00  0.00    -0.206 NA
ATOM      5  H   UNL d   1      -1.212   3.830  -2.902  0.00  0.00     0.153 HD
BRANCH   4   6
ATOM      6  C   UNL d   1      -1.593   1.865  -2.927  0.00  0.00     0.027 A 
ATOM      7  C   UNL d   1      -1.404   1.735  -1.541  0.00  0.00     0.027 A 
ATOM      8  C   UNL d   1      -1.319   0.478  -0.935  0.00  0.00     0.038 A 
ATOM      9  C   UNL d   1      -1.456  -0.672  -1.720  0.00  0.00     0.103 A 
ATOM     10  C   UNL d   1      -1.692  -0.567  -3.096  0.00  0.00     0.038 A 
ATOM     11  C   UNL d   1      -1.773   0.701  -3.689  0.00  0.00     0.027 A 
BRANCH   9  12
ATOM     12  N   UNL d   1      -1.362  -1.994  -1.087  0.00  0.00    -0.116 N 
ATOM     13  O   UNL d   1      -1.505  -2.991  -1.809  0.00  0.00    -0.532 OA
ATOM     14  O   UNL d   1      -1.147  -2.035   0.132  0.00  0.00    -0.532 OA
ENDBRANCH   9  12
ENDBRANCH   4   6
ENDBRANCH   1   4
BRANCH   3  15
ATOM     15  C   UNL d   1      -3.211   5.250  -4.869  0.00  0.00     0.069 C 
BRANCH  15  16
ATOM     16  C   UNL d   1      -3.729   5.024  -3.456  0.00  0.00     0.116 C 
BRANCH  16  17
ATOM     17  C   UNL d   1      -4.865   5.941  -3.094  0.00  0.00     0.139 C 
ATOM     18  O   UNL d   1      -5.322   6.818  -3.809  0.00  0.00    -0.650 OA
BRANCH  17  19
ATOM     19  O   UNL d   1      -5.326   5.706  -1.841  0.00  0.00    -0.776 OA
ATOM     20  H   UNL d   1      -4.868   4.968  -1.388  0.00  0.00     0.167 HD
ENDBRANCH  17  19
ENDBRANCH  16  17
ENDBRANCH  15  16
ENDBRANCH   3  15
BRANCH   3  21
ATOM     21  C   UNL d   1      -1.728   4.514  -6.873  0.00  0.00    -0.013 A 
ATOM     22  C   UNL d   1      -0.719   3.705  -7.421  0.00  0.00     0.013 A 
ATOM     23  C   UNL d   1      -0.337   3.841  -8.758  0.00  0.00     0.001 A 
ATOM     24  C   UNL d   1      -0.953   4.794  -9.564  0.00  0.00     0.000 A 
ATOM     25  C   UNL d   1      -1.933   5.625  -9.027  0.00  0.00     0.001 A 
ATOM     26  C   UNL d   1      -2.316   5.493  -7.686  0.00  0.00     0.013 A 
ENDBRANCH   3  21
TORSDOF 8
