REMARK  2 active torsions:
REMARK  status: ('A' for Active; 'I' for Inactive)
REMARK    1  A    between atoms: C_15  and  N_5 
REMARK    2  A    between atoms: C_17  and  C_14 
ROOT
ATOM      1  C   UNL d   1      -1.046  -0.892  -0.000  0.00  0.00     0.140 A 
ATOM      2  C   UNL d   1      -0.458   0.340  -0.021  0.00  0.00     0.114 A 
ATOM      3  C   UNL d   1       1.783  -0.682  -0.007  0.00  0.00     0.139 A 
ATOM      4  N   UNL d   1      -2.461  -0.927   0.078  0.00  0.00    -0.288 N 
ATOM      5  N   UNL d   1      -0.209  -2.074  -0.010  0.00  0.00    -0.261 N 
ATOM      6  C   UNL d   1       0.958   0.415  -0.019  0.00  0.00     0.129 A 
ATOM      7  N   UNL d   1      -2.632   1.429  -0.058  0.00  0.00    -0.270 N 
ATOM      8  C   UNL d   1      -3.267   0.213  -0.052  0.00  0.00     0.332 C 
ATOM      9  C   UNL d   1       1.233  -2.011  -0.014  0.00  0.00     0.283 A 
ATOM     10  C   UNL d   1      -1.264   1.583  -0.004  0.00  0.00     0.268 C 
ATOM     11  N   UNL d   1       3.108  -0.329  -0.018  0.00  0.00    -0.329 N 
ATOM     12  HN  UNL d   1       3.924  -0.941  -0.017  1.00  0.00     0.168 HD
ATOM     13  O   UNL d   1       1.802   1.510  -0.025  0.00  0.00    -0.289 OA
ATOM     14  C   UNL d   1       3.077   0.987  -0.031  0.00  0.00     0.159 A 
ATOM     15  O   UNL d   1      -4.501   0.127  -0.136  0.00  0.00    -0.246 OA
ATOM     16  O   UNL d   1      -0.732   2.694   0.050  0.00  0.00    -0.267 OA
ATOM     17  O   UNL d   1       1.978  -2.988  -0.056  0.00  0.00    -0.265 OA
ATOM     18  C   UNL d   1      -3.255  -2.122   0.329  0.00  0.00     0.163 C 
ATOM     19  C   UNL d   1      -3.445   2.635  -0.049  0.00  0.00     0.164 C 
ENDROOT
BRANCH  14  20
ATOM     20  C   UNL d   1       4.201   1.923  -0.097  0.00  0.00     0.015 A 
ATOM     21  C   UNL d   1       4.024   3.308  -0.024  0.00  0.00     0.016 A 
ATOM     22  C   UNL d   1       5.115   4.177  -0.147  0.00  0.00     0.007 A 
ATOM     23  C   UNL d   1       6.408   3.679  -0.349  0.00  0.00    -0.062 A 
ATOM     24  C   UNL d   1       6.599   2.297  -0.397  0.00  0.00     0.007 A 
ATOM     25  C   UNL d   1       7.558   4.629  -0.524  0.00  0.00     0.048 C 
ATOM     26  C   UNL d   1       5.507   1.428  -0.269  0.00  0.00     0.016 A 
ENDBRANCH  14  20
BRANCH   5  27
ATOM     27  C   UNL d   1      -0.673  -3.423  -0.138  0.00  0.00     0.044 A 
ATOM     28  C   UNL d   1      -0.330  -4.365   0.848  0.00  0.00     0.030 A 
ATOM     29  C   UNL d   1      -0.703  -5.700   0.713  0.00  0.00     0.002 A 
ATOM     30  C   UNL d   1      -1.424  -6.106  -0.406  0.00  0.00     0.000 A 
ATOM     31  C   UNL d   1      -1.773  -5.177  -1.389  0.00  0.00     0.002 A 
ATOM     32  C   UNL d   1      -1.388  -3.840  -1.265  0.00  0.00     0.030 A 
ENDBRANCH   5  27
TORSDOF 2
