REMARK  4 active torsions:
REMARK  status: ('A' for Active; 'I' for Inactive)
REMARK    1  A    between atoms: C_6  and  C_1 
REMARK    2  A    between atoms: C_7  and  C_2 
REMARK    3  A    between atoms: C_10  and  N_3 
REMARK       I    between atoms: N_9  and  C_7 
REMARK    4  A    between atoms: C_18  and  N_9 
ROOT
ATOM      1  C   UNL d   1       0.979  -0.314  -0.124  0.00  0.00     0.157 C 
ATOM      2  C   UNL d   1      -0.189  -1.034   0.174  0.00  0.00     0.082 C 
ATOM      3  N   UNL d   1       0.601   1.023  -0.243  0.00  0.00    -0.251 N 
ATOM      4  N   UNL d   1      -0.704   1.188   0.093  0.00  0.00    -0.303 N 
ATOM      5  HN  UNL d   1      -1.231   2.061   0.111  1.00  0.00     0.186 HD
ATOM      6  C   UNL d   1      -1.147  -0.025   0.393  0.00  0.00     0.127 C 
ENDROOT
BRANCH   2   7
ATOM      7  C   UNL d   1      -0.506  -2.464   0.273  0.00  0.00     0.255 C 
ATOM      8  N   UNL d   1       0.480  -3.335  -0.108  0.00  0.00    -0.352 N 
ATOM      9  H   UNL d   1       1.321  -2.945  -0.500  0.00  0.00     0.163 HD
ATOM     10  O   UNL d   1      -1.615  -2.834   0.629  0.00  0.00    -0.268 OA
BRANCH   8  11
ATOM     11  C   UNL d   1       0.354  -4.781  -0.305  0.00  0.00     0.084 C 
ATOM     12  C   UNL d   1      -0.178  -5.543   0.913  0.00  0.00     0.025 C 
ATOM     13  C   UNL d   1       0.747  -5.381   2.115  0.00  0.00     0.002 C 
ATOM     14  C   UNL d   1       2.165  -5.851   1.799  0.00  0.00     0.000 C 
ATOM     15  C   UNL d   1       2.723  -5.261   0.505  0.00  0.00     0.002 C 
ATOM     16  C   UNL d   1       1.740  -5.348  -0.669  0.00  0.00     0.025 C 
ENDBRANCH   8  11
ENDBRANCH   2   7
BRANCH   1  17
ATOM     17  C   UNL d   1       2.363  -0.730  -0.385  0.00  0.00     0.435 C 
ATOM     18  F   UNL d   1       2.509  -2.072  -0.503  0.00  0.00    -0.165 F 
ATOM     19  F   UNL d   1       2.856  -0.222  -1.539  0.00  0.00    -0.165 F 
ATOM     20  F   UNL d   1       3.197  -0.366   0.620  0.00  0.00    -0.165 F 
ENDBRANCH   1  17
BRANCH   3  21
ATOM     21  C   UNL d   1       1.317   2.194  -0.668  0.00  0.00     0.057 A 
ATOM     22  C   UNL d   1       0.583   3.236  -1.271  0.00  0.00     0.033 A 
ATOM     23  C   UNL d   1       1.214   4.414  -1.691  0.00  0.00     0.026 A 
ATOM     24  C   UNL d   1       2.580   4.572  -1.494  0.00  0.00     0.034 A 
ATOM     25  C   UNL d   1       3.321   3.554  -0.902  0.00  0.00     0.026 A 
ATOM     26 CL   UNL d   1       3.354   6.037  -1.954  0.00  0.00    -0.084 Cl
ATOM     27  C   UNL d   1       2.693   2.369  -0.492  0.00  0.00     0.033 A 
ENDBRANCH   3  21
TORSDOF 4
