REMARK  5 active torsions:
REMARK  status: ('A' for Active; 'I' for Inactive)
REMARK    1  A    between atoms: C_8  and  C_3 
REMARK    2  A    between atoms: N_12  and  C_4 
REMARK    3  A    between atoms: C_14  and  C_5 
REMARK    4  A    between atoms: C_6  and  C_7 
REMARK       I    between atoms: C_7  and  N_13 
REMARK    5  A    between atoms: O_28  and  C_14 
ROOT
ATOM      1  C   UNL d   1      -1.036   6.581   0.147  0.00  0.00     0.251 C 
ATOM      2  N   UNL d   1       0.171   2.700  -0.288  0.00  0.00    -0.253 NA
ATOM      3  N   UNL d   1       0.011   5.670   0.010  0.00  0.00    -0.349 N 
ATOM      4  C   UNL d   1      -0.338   3.568  -1.373  0.00  0.00     0.118 C 
ATOM      5  O   UNL d   1      -1.774   6.820  -0.813  0.00  0.00    -0.270 OA
ATOM      6  C   UNL d   1       0.202   5.009  -1.292  0.00  0.00     0.140 C 
ATOM      7  C   UNL d   1       0.496   3.975   1.809  0.00  0.00     0.035 C 
ATOM      8  C   UNL d   1      -0.379   2.991   1.040  0.00  0.00     0.100 C 
ATOM      9  C   UNL d   1       0.934   5.222   1.049  0.00  0.00     0.127 C 
ENDROOT
BRANCH   2  10
ATOM     10  C   UNL d   1       0.124   1.334  -0.589  0.00  0.00     0.160 A 
ATOM     11  N   UNL d   1      -0.441   0.932  -1.734  0.00  0.00    -0.328 N 
ATOM     12  C   UNL d   1      -0.417  -0.388  -2.096  0.00  0.00     0.136 A 
ATOM     13  HN  UNL d   1      -0.892   1.615  -2.342  1.00  0.00     0.168 HD
ATOM     14  C   UNL d   1       0.195  -1.335  -1.300  0.00  0.00     0.086 A 
ATOM     15  C   UNL d   1       0.735  -0.839  -0.129  0.00  0.00     0.110 A 
ATOM     16  N   UNL d   1       0.702   0.464   0.244  0.00  0.00    -0.342 N 
ATOM     17  HN  UNL d   1       1.104   0.770   1.130  1.00  0.00     0.167 HD
BRANCH  12  18
ATOM     18  C   UNL d   1      -1.073  -0.706  -3.424  0.00  0.00     0.433 C 
ATOM     19  F   UNL d   1      -1.629   0.396  -4.017  0.00  0.00    -0.165 F 
ATOM     20  F   UNL d   1      -0.202  -1.195  -4.351  0.00  0.00    -0.165 F 
ATOM     21  F   UNL d   1      -2.100  -1.597  -3.328  0.00  0.00    -0.165 F 
ENDBRANCH  12  18
BRANCH  14  22
ATOM     22  C   UNL d   1       0.357  -2.785  -1.554  0.00  0.00     0.296 C 
ATOM     23  O   UNL d   1       0.960  -3.524  -0.786  0.00  0.00    -0.259 OA
BRANCH  22  24
ATOM     24  O   UNL d   1      -0.234  -3.160  -2.695  0.00  0.00    -0.322 OA
ATOM     25  C   UNL d   1      -0.121  -4.552  -3.017  0.00  0.00     0.213 C 
ENDBRANCH  22  24
ENDBRANCH  14  22
ENDBRANCH   2  10
BRANCH   1  26
ATOM     26  C   UNL d   1      -1.370   7.180   1.547  0.00  0.00     0.245 C 
ATOM     27  O   UNL d   1      -0.311   7.575   2.408  0.00  0.00    -0.331 OA
ATOM     28  C   UNL d   1       0.172   8.817   2.103  0.00  0.00     0.103 A 
ATOM     29  C   UNL d   1       1.469   9.105   2.525  0.00  0.00     0.040 A 
ATOM     30  C   UNL d   1      -0.565   9.766   1.397  0.00  0.00     0.102 A 
ATOM     31  C   UNL d   1       2.058  10.321   2.180  0.00  0.00     0.003 A 
ATOM     32  C   UNL d   1       1.335  11.262   1.448  0.00  0.00     0.003 A 
ATOM     33  C   UNL d   1       0.016  10.992   1.074  0.00  0.00     0.039 A 
ATOM     34  O   UNL d   1      -1.844   9.554   0.967  0.00  0.00    -0.345 OA
ATOM     35  C   UNL d   1      -2.401   8.319   1.443  0.00  0.00     0.218 C 
ENDBRANCH   1  26
TORSDOF 5
