REMARK  3 active torsions:
REMARK  status: ('A' for Active; 'I' for Inactive)
REMARK    1  A    between atoms: C_3  and  C_1 
REMARK       I    between atoms: N_6  and  C_3 
REMARK    2  A    between atoms: N_8  and  N_6 
REMARK    3  A    between atoms: C_9  and  N_8 
ROOT
ATOM      1  C   UNL d   1       3.391  -1.491   0.070  0.00  0.00     0.273 C 
ATOM      2  N   UNL d   1       3.733  -2.839   0.035  0.00  0.00    -0.282 N 
ATOM      3  O   UNL d   1       2.213  -1.131   0.058  0.00  0.00    -0.266 OA
ATOM      4  H   UNL d   1       4.687  -3.096  -0.185  0.00  0.00     0.184 HD
ENDROOT
BRANCH   2   5
ATOM      5  N   UNL d   1       2.711  -3.786  -0.200  0.00  0.00    -0.203 NA
ATOM      6  H   UNL d   1       1.819  -3.411   0.143  0.00  0.00     0.153 HD
BRANCH   5   7
ATOM      7  C   UNL d   1       2.982  -5.095   0.285  0.00  0.00     0.033 A 
ATOM      8  C   UNL d   1       1.947  -5.940   0.751  0.00  0.00    -0.038 A 
ATOM      9  C   UNL d   1       2.251  -7.256   1.164  0.00  0.00     0.032 A 
ATOM     10  C   UNL d   1       0.506  -5.519   0.886  0.00  0.00     0.050 C 
ATOM     11  C   UNL d   1       3.544  -7.758   1.062  0.00  0.00     0.034 A 
ATOM     12  C   UNL d   1       4.557  -6.963   0.547  0.00  0.00     0.026 A 
ATOM     13 CL   UNL d   1       3.884  -9.373   1.546  0.00  0.00    -0.084 Cl
ATOM     14  C   UNL d   1       4.269  -5.653   0.153  0.00  0.00     0.027 A 
ENDBRANCH   5   7
ENDBRANCH   2   5
BRANCH   1  15
ATOM     15  C   UNL d   1       4.510  -0.555   0.133  0.00  0.00     0.075 A 
ATOM     16  S   UNL d   1       6.134  -1.075   0.255  0.00  0.00    -0.084 SA
ATOM     17  C   UNL d   1       6.741   0.533   0.355  0.00  0.00     0.016 A 
ATOM     18  C   UNL d   1       8.085   0.928   0.510  0.00  0.00     0.019 A 
ATOM     19  C   UNL d   1       5.710   1.470   0.266  0.00  0.00    -0.018 A 
ATOM     20  C   UNL d   1       8.387   2.290   0.578  0.00  0.00     0.001 A 
ATOM     21  C   UNL d   1       7.380   3.241   0.489  0.00  0.00     0.001 A 
ATOM     22  C   UNL d   1       6.048   2.844   0.332  0.00  0.00     0.013 A 
ATOM     23  C   UNL d   1       4.435   0.825   0.128  0.00  0.00     0.037 A 
ENDBRANCH   1  15
TORSDOF 3
