REMARK  1 active torsions:
REMARK  status: ('A' for Active; 'I' for Inactive)
REMARK    1  A    between atoms: C_7  and  C_3 
ROOT
ATOM      1  C   UNL d   1       2.036  -2.414  -0.007  0.00  0.00    -0.006 A 
ATOM      2  C   UNL d   1       2.835  -4.434  -1.073  0.00  0.00     0.155 A 
ATOM      3  C   UNL d   1       1.972  -3.342  -1.056  0.00  0.00     0.059 A 
ATOM      4  C   UNL d   1       3.758  -4.622  -0.050  0.00  0.00     0.154 A 
ATOM      5  C   UNL d   1       2.964  -2.622   1.030  0.00  0.00     0.017 A 
ATOM      6  C   UNL d   1       3.825  -3.724   1.008  0.00  0.00     0.046 A 
ATOM      7  F   UNL d   1       2.777  -5.305  -2.090  0.00  0.00    -0.203 F 
ATOM      8  F   UNL d   1       4.590  -5.672  -0.072  0.00  0.00    -0.203 F 
ENDROOT
BRANCH   1   9
ATOM      9  C   UNL d   1       1.142  -1.262  -0.004  0.00  0.00     0.049 A 
ATOM     10  N   UNL d   1      -0.114  -1.320  -0.586  0.00  0.00    -0.353 N 
ATOM     11  C   UNL d   1      -0.733  -0.167  -0.440  0.00  0.00     0.047 A 
ATOM     12  HN  UNL d   1      -0.503  -2.137  -1.059  1.00  0.00     0.166 HD
ATOM     13  S   UNL d   1       0.165   1.059   0.362  0.00  0.00    -0.087 SA
ATOM     14  C   UNL d   1      -2.114   0.122  -0.912  0.00  0.00     0.076 C 
ATOM     15  C   UNL d   1       1.469  -0.036   0.543  0.00  0.00     0.081 A 
ENDBRANCH   1   9
TORSDOF 1
