REMARK  5 active torsions:
REMARK  status: ('A' for Active; 'I' for Inactive)
REMARK    1  A    between atoms: N_8  and  C_1 
REMARK    2  A    between atoms: C_13  and  C_2 
REMARK    3  A    between atoms: C_6  and  C_9 
REMARK    4  A    between atoms: C_7  and  C_10 
REMARK    5  A    between atoms: C_11  and  N_8 
ROOT
ATOM      1  C   UNL d   1       0.869   1.827   0.024  0.00  0.00     0.059 A 
ATOM      2  C   UNL d   1       1.972   1.047   0.145  0.00  0.00     0.053 A 
ATOM      3  C   UNL d   1       1.501  -0.378   0.154  0.00  0.00     0.196 A 
ATOM      4  C   UNL d   1      -0.327   0.972  -0.022  0.00  0.00     0.006 A 
ATOM      5  C   UNL d   1       0.055  -0.356   0.050  0.00  0.00     0.027 A 
ATOM      6  O   UNL d   1       2.165  -1.394   0.221  0.00  0.00    -0.286 OA
ATOM      7  C   UNL d   1      -1.678   1.283  -0.083  0.00  0.00     0.014 A 
ATOM      8  C   UNL d   1      -0.836  -1.414   0.040  0.00  0.00     0.016 A 
ATOM      9  C   UNL d   1      -2.192  -1.104  -0.032  0.00  0.00     0.001 A 
ATOM     10  C   UNL d   1      -2.611   0.236  -0.088  0.00  0.00     0.001 A 
ENDROOT
BRANCH   1  11
ATOM     11  N   UNL d   1       0.714   3.192  -0.111  0.00  0.00    -0.355 N 
ATOM     12  H   UNL d   1      -0.067   3.413  -0.727  0.00  0.00     0.166 HD
BRANCH  11  13
ATOM     13  C   UNL d   1       0.735   4.112   0.968  0.00  0.00     0.034 A 
ATOM     14  C   UNL d   1       1.354   3.846   2.193  0.00  0.00     0.045 A 
ATOM     15  C   UNL d   1       1.416   4.817   3.209  0.00  0.00     0.050 A 
ATOM     16  C   UNL d   1       0.843   6.079   2.987  0.00  0.00     0.032 A 
ATOM     17  C   UNL d   1       0.245   6.385   1.758  0.00  0.00     0.050 A 
ATOM     18  C   UNL d   1       0.211   5.399   0.757  0.00  0.00     0.045 A 
BRANCH  15  19
ATOM     19  C   UNL d   1       2.109   4.491   4.511  0.00  0.00     0.417 C 
ATOM     20  F   UNL d   1       2.182   5.552   5.363  0.00  0.00    -0.166 F 
ATOM     21  F   UNL d   1       1.481   3.501   5.201  0.00  0.00    -0.166 F 
ATOM     22  F   UNL d   1       3.391   4.072   4.330  0.00  0.00    -0.166 F 
ENDBRANCH  15  19
BRANCH  17  23
ATOM     23  C   UNL d   1      -0.343   7.750   1.489  0.00  0.00     0.417 C 
ATOM     24  F   UNL d   1      -0.183   8.626   2.518  0.00  0.00    -0.166 F 
ATOM     25  F   UNL d   1       0.211   8.348   0.398  0.00  0.00    -0.166 F 
ATOM     26  F   UNL d   1      -1.682   7.697   1.246  0.00  0.00    -0.166 F 
ENDBRANCH  17  23
ENDBRANCH  11  13
ENDBRANCH   1  11
BRANCH   2  27
ATOM     27  C   UNL d   1       3.395   1.425   0.209  0.00  0.00    -0.020 A 
ATOM     28  C   UNL d   1       4.307   0.624   0.920  0.00  0.00     0.012 A 
ATOM     29  C   UNL d   1       5.671   0.924   0.949  0.00  0.00     0.001 A 
ATOM     30  C   UNL d   1       6.151   2.040   0.274  0.00  0.00     0.000 A 
ATOM     31  C   UNL d   1       5.265   2.855  -0.425  0.00  0.00     0.001 A 
ATOM     32  C   UNL d   1       3.899   2.550  -0.459  0.00  0.00     0.012 A 
ENDBRANCH   2  27
TORSDOF 5
