REMARK  2 active torsions:
REMARK  status: ('A' for Active; 'I' for Inactive)
REMARK    1  A    between atoms: C_4  and  C_1 
REMARK       I    between atoms: N_7  and  C_4 
REMARK    2  A    between atoms: C_8  and  N_7 
ROOT
ATOM      1  C   UNL d   1       1.404  -2.763   0.048  0.00  0.00     0.258 C 
ATOM      2  N   UNL d   1       0.771  -3.994   0.048  0.00  0.00    -0.320 N 
ATOM      3  O   UNL d   1       0.851  -1.677  -0.037  0.00  0.00    -0.267 OA
ATOM      4  H   UNL d   1       1.327  -4.790   0.337  0.00  0.00     0.169 HD
ENDROOT
BRANCH   2   5
ATOM      5  C   UNL d   1      -0.617  -4.223  -0.091  0.00  0.00     0.074 A 
ATOM      6  C   UNL d   1      -1.522  -3.335  -0.693  0.00  0.00     0.146 A 
ATOM      7  C   UNL d   1      -2.891  -3.589  -0.695  0.00  0.00     0.086 A 
ATOM      8  F   UNL d   1      -1.103  -2.256  -1.367  0.00  0.00    -0.204 F 
ATOM      9  C   UNL d   1      -3.362  -4.757  -0.117  0.00  0.00     0.119 A 
ATOM     10  C   UNL d   1      -2.485  -5.692   0.417  0.00  0.00     0.044 A 
ATOM     11  F   UNL d   1      -4.678  -4.996  -0.089  0.00  0.00    -0.206 F 
ATOM     12  C   UNL d   1      -1.111  -5.434   0.418  0.00  0.00     0.036 A 
ENDBRANCH   2   5
BRANCH   1  13
ATOM     13  C   UNL d   1       2.866  -2.812   0.174  0.00  0.00     0.063 A 
ATOM     14  C   UNL d   1       3.635  -3.771   0.803  0.00  0.00     0.091 A 
ATOM     15  S   UNL d   1       5.310  -3.496   0.695  0.00  0.00    -0.065 SA
ATOM     16 CL   UNL d   1       3.118  -5.162   1.682  0.00  0.00    -0.075 Cl
ATOM     17  C   UNL d   1       5.053  -2.058  -0.153  0.00  0.00     0.077 A 
ATOM     18  C   UNL d   1       3.727  -1.771  -0.340  0.00  0.00     0.050 A 
ATOM     19 CL   UNL d   1       6.390  -1.125  -0.685  0.00  0.00    -0.076 Cl
ENDBRANCH   1  13
TORSDOF 2
