REMARK  6 active torsions:
REMARK  status: ('A' for Active; 'I' for Inactive)
REMARK    1  A    between atoms: C_15  and  C_1 
REMARK       I    between atoms: C_5  and  N_10 
REMARK       I    between atoms: N_7  and  C_5 
REMARK    2  A    between atoms: C_12  and  N_7 
REMARK    3  A    between atoms: N_10  and  C_24 
REMARK    4  A    between atoms: S_17  and  C_15 
REMARK    5  A    between atoms: C_25  and  S_17 
REMARK    6  A    between atoms: C_24  and  C_25 
ROOT
ATOM      1  C   UNL d   1       5.949  -4.402  -0.064  0.00  0.00     0.134 C 
ENDROOT
BRANCH   1   2
ATOM      2  N   UNL d   1       6.440  -5.756   0.102  0.00  0.00    -0.342 N 
ATOM      3  C   UNL d   1       7.019  -6.600  -0.799  0.00  0.00     0.320 C 
ATOM      4  N   UNL d   1       6.928  -6.237  -2.114  0.00  0.00    -0.309 N 
ATOM      5  O   UNL d   1       7.572  -7.598  -0.352  0.00  0.00    -0.247 OA
ATOM      6  H   UNL d   1       6.326  -5.460  -2.329  0.00  0.00     0.170 HD
ATOM      7  H   UNL d   1       6.578  -6.088   1.051  0.00  0.00     0.164 HD
BRANCH   4   8
ATOM      8  C   UNL d   1       7.546  -6.864  -3.220  0.00  0.00     0.036 A 
ATOM      9  C   UNL d   1       8.402  -7.964  -3.110  0.00  0.00     0.031 A 
ATOM     10  C   UNL d   1       9.031  -8.499  -4.240  0.00  0.00     0.026 A 
ATOM     11  C   UNL d   1       8.806  -7.936  -5.491  0.00  0.00     0.034 A 
ATOM     12  C   UNL d   1       7.937  -6.856  -5.625  0.00  0.00     0.026 A 
ATOM     13 CL   UNL d   1       9.613  -8.567  -6.872  0.00  0.00    -0.084 Cl
ATOM     14  C   UNL d   1       7.308  -6.324  -4.492  0.00  0.00     0.031 A 
ENDBRANCH   4   8
ENDBRANCH   1   2
BRANCH   1  15
ATOM     15  C   UNL d   1       4.452  -4.354  -0.371  0.00  0.00     0.094 C 
BRANCH  15  16
ATOM     16  S   UNL d   1       3.827  -2.644  -0.499  0.00  0.00    -0.163 SA
BRANCH  16  17
ATOM     17  C   UNL d   1       4.764  -2.076  -1.949  0.00  0.00     0.114 C 
BRANCH  17  18
ATOM     18  C   UNL d   1       4.497  -0.632  -2.238  0.00  0.00    -0.031 A 
ATOM     19  C   UNL d   1       3.436  -0.139  -3.091  0.00  0.00    -0.010 A 
ATOM     20  C   UNL d   1       3.482   1.255  -3.216  0.00  0.00     0.015 A 
ATOM     21  C   UNL d   1       2.414  -0.832  -3.789  0.00  0.00     0.037 A 
ATOM     22  C   UNL d   1       2.562   1.958  -4.016  0.00  0.00     0.021 A 
ATOM     23  S   UNL d   1       4.766   1.929  -2.291  0.00  0.00    -0.101 SA
ATOM     24  C   UNL d   1       1.572   1.247  -4.699  0.00  0.00     0.025 A 
ATOM     25  C   UNL d   1       1.500  -0.133  -4.581  0.00  0.00     0.035 A 
ATOM     26 CL   UNL d   1       0.273  -0.999  -5.422  0.00  0.00    -0.084 Cl
ATOM     27  C   UNL d   1       5.268   0.402  -1.739  0.00  0.00     0.059 A 
ENDBRANCH  17  18
ENDBRANCH  16  17
ENDBRANCH  15  16
ENDBRANCH   1  15
TORSDOF 6
