REMARK  6 active torsions:
REMARK  status: ('A' for Active; 'I' for Inactive)
REMARK    1  A    between atoms: S_4  and  C_1 
REMARK    2  A    between atoms: C_3  and  C_2 
REMARK       I    between atoms: N_5  and  C_3 
REMARK    3  A    between atoms: C_12  and  S_4 
REMARK    4  A    between atoms: C_11  and  N_5 
REMARK    5  A    between atoms: C_8  and  C_11 
REMARK    6  A    between atoms: O_13  and  C_8 
ROOT
ATOM      1  C   UNL d   1      -0.509   1.285  -0.665  0.00  0.00     0.090 C 
ATOM      2  C   UNL d   1       0.507   1.317   0.302  0.00  0.00     0.065 C 
ATOM      3  N   UNL d   1      -0.998   0.111  -1.129  0.00  0.00    -0.359 N 
ATOM      4  HN  UNL d   1      -1.777   0.088  -1.788  1.00  0.00     0.166 HD
ATOM      5  C   UNL d   1       1.184   0.133   0.614  0.00  0.00     0.021 C 
ATOM      6  C   UNL d   1      -0.420  -1.033  -0.692  0.00  0.00     0.089 C 
ATOM      7  C   UNL d   1       0.705  -1.069   0.113  0.00  0.00     0.018 C 
ENDROOT
BRANCH   2   8
ATOM      8  C   UNL d   1       0.804   2.522   1.126  0.00  0.00     0.254 C 
ATOM      9  N   UNL d   1      -0.306   3.215   1.556  0.00  0.00    -0.347 N 
ATOM     10  H   UNL d   1      -1.222   2.928   1.238  0.00  0.00     0.163 HD
ATOM     11  O   UNL d   1       1.956   2.791   1.443  0.00  0.00    -0.268 OA
BRANCH   9  12
ATOM     12  C   UNL d   1      -0.238   4.500   2.233  0.00  0.00     0.233 C 
BRANCH  12  13
ATOM     13  C   UNL d   1      -0.994   4.631   3.552  0.00  0.00     0.276 C 
ATOM     14  O   UNL d   1      -1.022   5.684   4.192  0.00  0.00    -0.263 OA
BRANCH  13  15
ATOM     15  O   UNL d   1      -1.637   3.490   3.922  0.00  0.00    -0.325 OA
ATOM     16  C   UNL d   1      -2.333   3.573   5.176  0.00  0.00     0.213 C 
ENDBRANCH  13  15
ENDBRANCH  12  13
ENDBRANCH   9  12
ENDBRANCH   2   8
BRANCH   1  17
ATOM     17  S   UNL d   1      -1.110   2.824  -1.357  0.00  0.00    -0.072 SA
BRANCH  17  18
ATOM     18  C   UNL d   1      -2.294   2.543  -2.645  0.00  0.00     0.007 A 
ATOM     19  C   UNL d   1      -3.216   1.499  -2.668  0.00  0.00     0.019 A 
ATOM     20  C   UNL d   1      -4.212   1.447  -3.651  0.00  0.00     0.008 A 
ATOM     21  C   UNL d   1      -4.324   2.457  -4.614  0.00  0.00    -0.062 A 
ATOM     22  C   UNL d   1      -3.399   3.502  -4.601  0.00  0.00     0.008 A 
ATOM     23  C   UNL d   1      -5.414   2.403  -5.637  0.00  0.00     0.048 C 
ATOM     24  C   UNL d   1      -2.396   3.541  -3.628  0.00  0.00     0.019 A 
ENDBRANCH  17  18
ENDBRANCH   1  17
TORSDOF 6
