REMARK  7 active torsions:
REMARK  status: ('A' for Active; 'I' for Inactive)
REMARK    1  A    between atoms: C_3  and  C_1 
REMARK    2  A    between atoms: C_5  and  C_1 
REMARK    3  A    between atoms: C_7  and  C_1 
REMARK    4  A    between atoms: O_21  and  C_1 
REMARK       I    between atoms: C_2  and  N_4 
REMARK       I    between atoms: N_6  and  C_2 
REMARK    5  A    between atoms: N_4  and  C_8 
REMARK    6  A    between atoms: O_24  and  C_5 
REMARK    7  A    between atoms: C_10  and  N_6 
ROOT
ATOM      1  C   UNL d   1       0.430   0.142  -1.311  0.00  0.00    -0.005 A 
ATOM      2  C   UNL d   1      -0.370   0.090  -4.090  0.00  0.00     0.038 A 
ATOM      3  C   UNL d   1       0.492  -1.032  -2.068  0.00  0.00     0.013 A 
ATOM      4  C   UNL d   1      -0.039   1.290  -1.976  0.00  0.00     0.013 A 
ATOM      5  C   UNL d   1       0.101  -1.066  -3.422  0.00  0.00     0.030 A 
ATOM      6  C   UNL d   1      -0.425   1.258  -3.331  0.00  0.00     0.030 A 
ENDROOT
BRANCH   2   7
ATOM      7  N   UNL d   1      -0.754   0.010  -5.503  0.00  0.00    -0.304 N 
ATOM      8  C   UNL d   1      -1.301   1.115  -6.196  0.00  0.00     0.327 C 
ATOM      9  N   UNL d   1      -1.571   0.878  -7.549  0.00  0.00    -0.309 N 
ATOM     10  O   UNL d   1      -1.522   2.208  -5.689  0.00  0.00    -0.246 OA
ATOM     11  H   UNL d   1      -0.824   0.396  -8.027  0.00  0.00     0.170 HD
ATOM     12  C   UNL d   1      -0.655  -1.310  -6.124  0.00  0.00     0.161 C 
BRANCH   9  13
ATOM     13  C   UNL d   1      -2.268   1.821  -8.349  0.00  0.00     0.037 C 
ATOM     14  C   UNL d   1      -3.279   2.621  -7.816  0.00  0.00     0.042 C 
ATOM     15  C   UNL d   1      -3.629   3.816  -8.441  0.00  0.00    -0.024 C 
ATOM     16  C   UNL d   1      -4.503   4.714  -7.818  0.00  0.00     0.012 C 
ATOM     17  C   UNL d   1      -2.979   4.179  -9.639  0.00  0.00    -0.026 C 
ATOM     18  C   UNL d   1      -4.526   6.046  -8.219  0.00  0.00     0.001 C 
ATOM     19  C   UNL d   1      -3.755   6.457  -9.303  0.00  0.00     0.001 C 
ATOM     20  C   UNL d   1      -3.054   5.515 -10.061  0.00  0.00     0.012 C 
ATOM     21  C   UNL d   1      -2.203   3.218 -10.306  0.00  0.00     0.014 C 
ATOM     22  C   UNL d   1      -1.852   2.029  -9.663  0.00  0.00     0.030 C 
ENDBRANCH   9  13
ENDBRANCH   2   7
BRANCH   1  23
ATOM     23  C   UNL d   1       0.874   0.176   0.159  0.00  0.00     0.271 C 
BRANCH  23  24
ATOM     24  C   UNL d   1       2.348  -0.258   0.355  0.00  0.00     0.432 C 
ATOM     25  F   UNL d   1       2.479  -1.466   0.952  0.00  0.00    -0.167 F 
ATOM     26  F   UNL d   1       3.057  -0.315  -0.795  0.00  0.00    -0.167 F 
ATOM     27  F   UNL d   1       2.993   0.632   1.161  0.00  0.00    -0.167 F 
ENDBRANCH  23  24
BRANCH  23  28
ATOM     28  C   UNL d   1       0.056  -0.791   1.026  0.00  0.00     0.307 C 
ATOM     29  O   UNL d   1      -0.486  -1.826   0.645  0.00  0.00    -0.261 OA
BRANCH  28  30
ATOM     30  O   UNL d   1       0.036  -0.373   2.334  0.00  0.00    -0.324 OA
ATOM     31  C   UNL d   1      -0.740  -1.208   3.191  0.00  0.00     0.213 C 
ENDBRANCH  28  30
ENDBRANCH  23  28
BRANCH  23  32
ATOM     32  O   UNL d   1       0.657   1.520   0.670  0.00  0.00    -0.368 OA
ATOM     33  H   UNL d   1       1.023   1.535   1.575  0.00  0.00     0.212 HD
ENDBRANCH  23  32
ENDBRANCH   1  23
TORSDOF 7
