REMARK  3 active torsions:
REMARK  status: ('A' for Active; 'I' for Inactive)
REMARK    1  A    between atoms: C_2  and  C_1 
REMARK    2  A    between atoms: N_11  and  C_3 
REMARK    3  A    between atoms: N_12  and  C_5 
ROOT
ATOM      1  C   UNL d   1       0.551   0.302  -1.477  0.00  0.00     0.049 C 
ATOM      2  C   UNL d   1       0.148   1.913  -3.257  0.00  0.00     0.028 C 
ATOM      3  C   UNL d   1       0.491   1.628  -1.933  0.00  0.00     0.041 C 
ATOM      4  C   UNL d   1      -0.306   0.874  -4.096  0.00  0.00     0.027 C 
ATOM      5  C   UNL d   1       0.217  -0.735  -2.361  0.00  0.00     0.018 C 
ATOM      6  C   UNL d   1      -0.194  -0.450  -3.666  0.00  0.00     0.026 C 
ENDROOT
BRANCH   1   7
ATOM      7  C   UNL d   1       0.981  -0.018  -0.068  0.00  0.00     0.417 C 
ATOM      8  F   UNL d   1       1.346   1.077   0.656  0.00  0.00    -0.166 F 
ATOM      9  F   UNL d   1       2.052  -0.860  -0.031  0.00  0.00    -0.166 F 
ATOM     10  F   UNL d   1       0.001  -0.631   0.652  0.00  0.00    -0.166 F 
ENDBRANCH   1   7
BRANCH   2  11
ATOM     11  N   UNL d   1       0.056   3.255  -3.691  0.00  0.00    -0.301 NA
ATOM     12  H   UNL d   1       0.663   3.877  -3.166  0.00  0.00     0.124 HD
ATOM     13  H   UNL d   1       0.260   3.306  -4.687  0.00  0.00     0.124 HD
ENDBRANCH   2  11
BRANCH   4  14
ATOM     14  N   UNL d   1      -0.664   1.155  -5.434  0.00  0.00    -0.301 NA
ATOM     15  H   UNL d   1      -1.243   0.427  -5.842  0.00  0.00     0.124 HD
ATOM     16  H   UNL d   1      -1.133   2.059  -5.479  0.00  0.00     0.124 HD
ENDBRANCH   4  14
TORSDOF 3
