REMARK  2 active torsions:
REMARK  status: ('A' for Active; 'I' for Inactive)
REMARK    1  A    between atoms: C_4  and  N_1 
REMARK    2  A    between atoms: C_2  and  C_6 
REMARK       I    between atoms: N_3  and  C_2 
ROOT
ATOM      1  C   UNL d   1       0.355   1.255   0.471  0.00  0.00     0.102 A 
ATOM      2  C   UNL d   1      -1.437   3.230   1.347  0.00  0.00     0.032 A 
ATOM      3  C   UNL d   1       0.806   2.569   0.650  0.00  0.00     0.037 A 
ATOM      4  C   UNL d   1      -0.989   0.932   0.691  0.00  0.00     0.037 A 
ATOM      5  C   UNL d   1      -0.091   3.548   1.094  0.00  0.00     0.019 A 
ATOM      6  C   UNL d   1      -1.885   1.931   1.085  0.00  0.00     0.019 A 
ENDROOT
BRANCH   2   7
ATOM      7  C   UNL d   1      -2.354   4.328   1.768  0.00  0.00     0.253 C 
ATOM      8  N   UNL d   1      -3.412   4.104   2.641  0.00  0.00    -0.345 N 
ATOM      9  C   UNL d   1      -3.734   2.901   3.418  0.00  0.00     0.156 C 
ATOM     10  C   UNL d   1      -4.384   5.180   2.865  0.00  0.00     0.156 C 
ATOM     11  C   UNL d   1      -5.152   2.408   3.057  0.00  0.00     0.289 C 
ATOM     12  N   UNL d   1      -6.176   3.450   3.256  0.00  0.00     0.086 N 
ATOM     13  C   UNL d   1      -5.809   4.688   2.538  0.00  0.00     0.289 C 
ATOM     14  H   UNL d   1      -7.074   3.117   2.905  0.00  0.00     0.316 HD
ATOM     15  O   UNL d   1      -2.123   5.440   1.291  0.00  0.00    -0.267 OA
ENDBRANCH   2   7
BRANCH   1  16
ATOM     16  N   UNL d   1       1.286   0.210   0.028  0.00  0.00    -0.116 N 
ATOM     17  O   UNL d   1       2.443   0.551  -0.254  0.00  0.00    -0.532 OA
ATOM     18  O   UNL d   1       0.857  -0.949  -0.036  0.00  0.00    -0.532 OA
ENDBRANCH   1  16
TORSDOF 2
