REMARK  3 active torsions:
REMARK  status: ('A' for Active; 'I' for Inactive)
REMARK    1  A    between atoms: C_2  and  C_1 
REMARK    2  A    between atoms: C_4  and  C_2 
REMARK    3  A    between atoms: N_12  and  C_3 
ROOT
ATOM      1  C   UNL d   1       0.895   0.147  -0.095  0.00  0.00     0.111 C 
ATOM      2  C   UNL d   1       0.203  -0.677   0.716  0.00  0.00     0.111 C 
ATOM      3  C   UNL d   1       0.262   1.078  -0.952  0.00  0.00     0.105 C 
ATOM      4  N   UNL d   1      -0.254   1.835  -1.672  0.00  0.00    -0.191 NA
ENDROOT
BRANCH   1   5
ATOM      5  C   UNL d   1       2.398   0.142   0.006  0.00  0.00     0.210 C 
ATOM      6  O   UNL d   1       2.920  -0.256   1.051  0.00  0.00    -0.285 OA
BRANCH   5   7
ATOM      7  C   UNL d   1       3.188   0.610  -1.135  0.00  0.00     0.056 A 
ATOM      8  S   UNL d   1       4.739   1.290  -0.839  0.00  0.00    -0.098 SA
ATOM      9  C   UNL d   1       5.000   1.603  -2.498  0.00  0.00     0.050 A 
ATOM     10  C   UNL d   1       3.949   1.175  -3.275  0.00  0.00     0.009 A 
ATOM     11  C   UNL d   1       2.913   0.586  -2.493  0.00  0.00     0.023 A 
ENDBRANCH   5   7
ENDBRANCH   1   5
BRANCH   2  12
ATOM     12  N   UNL d   1      -1.159  -0.941   0.851  0.00  0.00    -0.397 N 
ATOM     13  C   UNL d   1      -2.160  -0.720  -0.195  0.00  0.00     0.148 C 
ATOM     14  C   UNL d   1      -1.724  -1.380   2.131  0.00  0.00     0.148 C 
ENDBRANCH   2  12
TORSDOF 3
