REMARK  4 active torsions:
REMARK  status: ('A' for Active; 'I' for Inactive)
REMARK    1  A    between atoms: C_3  and  C_1 
REMARK    2  A    between atoms: C_8  and  C_2 
REMARK    3  A    between atoms: N_17  and  N_19 
REMARK    4  A    between atoms: C_25  and  C_21 
ROOT
ATOM      1  C   UNL d   1       0.350  -2.727  -0.034  0.00  0.00     0.056 A 
ATOM      2  N   UNL d   1       1.104  -3.190   1.019  0.00  0.00    -0.334 N 
ATOM      3  HN  UNL d   1       1.386  -2.625   1.820  1.00  0.00     0.168 HD
ATOM      4  C   UNL d   1       1.414  -4.458   0.856  0.00  0.00     0.163 A 
ATOM      5  C   UNL d   1       0.051  -3.671  -0.993  0.00  0.00     0.083 A 
ATOM      6  S   UNL d   1       0.790  -5.163  -0.590  0.00  0.00    -0.062 SA
ATOM      7  N   UNL d   1       2.162  -5.209   1.706  0.00  0.00    -0.280 N 
ATOM      8  H   UNL d   1       2.282  -6.187   1.460  0.00  0.00     0.189 HD
ENDROOT
BRANCH   1   9
ATOM      9  C   UNL d   1      -0.020  -1.315  -0.063  0.00  0.00     0.052 A 
ATOM     10  C   UNL d   1       0.760  -0.201   0.390  0.00  0.00     0.081 A 
ATOM     11  N   UNL d   1       0.098   0.941   0.125  0.00  0.00    -0.259 N 
ATOM     12  O   UNL d   1      -1.108   0.587  -0.430  0.00  0.00    -0.241 OA
ATOM     13  HN  UNL d   1       0.430   1.889   0.302  1.00  0.00     0.195 HD
ATOM     14  C   UNL d   1      -1.180  -0.761  -0.553  0.00  0.00     0.087 A 
ATOM     15  C   UNL d   1      -2.420  -1.290  -1.151  0.00  0.00     0.080 C 
BRANCH  10  16
ATOM     16  C   UNL d   1       2.116  -0.151   0.958  0.00  0.00     0.015 A 
ATOM     17  C   UNL d   1       2.479   0.705   2.017  0.00  0.00     0.048 A 
ATOM     18  C   UNL d   1       3.801   0.744   2.486  0.00  0.00     0.048 A 
ATOM     19 CL   UNL d   1       1.354   1.734   2.842  0.00  0.00    -0.083 Cl
ATOM     20  C   UNL d   1       4.765  -0.085   1.924  0.00  0.00     0.035 A 
ATOM     21  C   UNL d   1       4.430  -0.946   0.887  0.00  0.00     0.025 A 
ATOM     22 CL   UNL d   1       6.381  -0.045   2.513  0.00  0.00    -0.084 Cl
ATOM     23  C   UNL d   1       3.121  -0.964   0.397  0.00  0.00     0.017 A 
ENDBRANCH  10  16
ENDBRANCH   1   9
BRANCH   7  24
ATOM     24  N   UNL d   1       2.369  -4.822   2.994  0.00  0.00    -0.309 N 
ATOM     25  C   UNL d   1       3.081  -5.618   3.724  0.00  0.00     0.118 C 
ATOM     26  HN  UNL d   1       1.985  -3.953   3.363  1.00  0.00     0.186 HD
BRANCH  25  27
ATOM     27  C   UNL d   1       3.301  -5.337   5.155  0.00  0.00    -0.019 A 
ATOM     28  C   UNL d   1       2.694  -4.234   5.761  0.00  0.00     0.013 A 
ATOM     29  C   UNL d   1       2.873  -4.003   7.124  0.00  0.00     0.001 A 
ATOM     30  C   UNL d   1       3.660  -4.873   7.879  0.00  0.00     0.000 A 
ATOM     31  C   UNL d   1       4.272  -5.972   7.273  0.00  0.00     0.001 A 
ATOM     32  C   UNL d   1       4.093  -6.210   5.908  0.00  0.00     0.013 A 
ENDBRANCH  25  27
ENDBRANCH   7  24
TORSDOF 4
