REMARK  2 active torsions:
REMARK  status: ('A' for Active; 'I' for Inactive)
REMARK    1  A    between atoms: C_7  and  N_1 
REMARK    2  A    between atoms: C_8  and  C_2 
ROOT
ATOM      1  N   UNL d   1       1.038  -0.539  -0.107  0.00  0.00    -0.260 N 
ATOM      2  C   UNL d   1      -0.326   1.223   0.047  0.00  0.00     0.050 C 
ATOM      3  C   UNL d   1       1.015   0.847   0.022  0.00  0.00     0.046 C 
ATOM      4  N   UNL d   1      -0.208  -1.024  -0.346  0.00  0.00    -0.304 N 
ATOM      5  HN  UNL d   1      -0.468  -1.979  -0.592  1.00  0.00     0.186 HD
ATOM      6  C   UNL d   1      -1.016   0.020  -0.187  0.00  0.00     0.124 C 
ATOM      7  C   UNL d   1       2.233   1.706   0.023  0.00  0.00     0.071 C 
ENDROOT
BRANCH   1   8
ATOM      8  C   UNL d   1       2.136  -1.447  -0.053  0.00  0.00     0.058 A 
ATOM      9  C   UNL d   1       2.033  -2.677  -0.723  0.00  0.00     0.055 A 
ATOM     10  C   UNL d   1       3.115  -3.556  -0.733  0.00  0.00     0.036 A 
ATOM     11 CL   UNL d   1       3.010  -5.033  -1.611  0.00  0.00    -0.084 Cl
ATOM     12  C   UNL d   1       4.290  -3.243  -0.052  0.00  0.00     0.024 A 
ATOM     13  C   UNL d   1       4.379  -2.047   0.658  0.00  0.00     0.004 A 
ATOM     14  C   UNL d   1       3.305  -1.151   0.660  0.00  0.00     0.031 A 
ENDBRANCH   1   8
BRANCH   2  15
ATOM     15  C   UNL d   1      -0.860   2.573   0.230  0.00  0.00     0.159 C 
ATOM     16  O   UNL d   1      -0.125   3.527   0.482  0.00  0.00    -0.293 OA
ATOM     17  C   UNL d   1      -2.342   2.813   0.073  0.00  0.00     0.097 C 
ENDBRANCH   2  15
TORSDOF 2
