REMARK  6 active torsions:
REMARK  status: ('A' for Active; 'I' for Inactive)
REMARK    1  A    between atoms: C_6  and  C_1 
REMARK    2  A    between atoms: N_2  and  C_5 
REMARK    3  A    between atoms: O_8  and  C_4 
REMARK    4  A    between atoms: O_14  and  C_6 
REMARK    5  A    between atoms: C_13  and  O_8 
REMARK    6  A    between atoms: O_20  and  C_15 
ROOT
ATOM      1  C   UNL d   1      -0.029   0.688   0.808  0.00  0.00     0.073 C 
ATOM      2  C   UNL d   1      -0.691  -0.557   0.756  0.00  0.00     0.057 C 
ATOM      3  C   UNL d   1       0.996   0.949  -0.121  0.00  0.00     0.093 C 
ATOM      4  C   UNL d   1      -0.356  -1.502  -0.224  0.00  0.00     0.104 C 
ATOM      5  C   UNL d   1       1.219   0.044  -1.177  0.00  0.00     0.041 C 
ATOM      6  C   UNL d   1       0.578  -1.192  -1.212  0.00  0.00     0.039 C 
ENDROOT
BRANCH   3   7
ATOM      7  O   UNL d   1       1.792   2.079   0.019  0.00  0.00    -0.310 OA
BRANCH   7   8
ATOM      8  C   UNL d   1       3.121   1.962  -0.360  0.00  0.00     0.076 C 
ATOM      9  C   UNL d   1       3.686   3.008  -1.090  0.00  0.00     0.040 C 
ATOM     10  C   UNL d   1       4.964   2.861  -1.654  0.00  0.00     0.039 C 
ATOM     11  C   UNL d   1       5.670   1.667  -1.492  0.00  0.00     0.068 C 
ATOM     12  C   UNL d   1       5.132   0.662  -0.685  0.00  0.00     0.039 C 
ATOM     13  C   UNL d   1       3.885   0.822  -0.084  0.00  0.00     0.040 C 
BRANCH  11  14
ATOM     14  O   UNL d   1       6.867   1.340  -2.061  0.00  0.00    -0.356 OA
ATOM     15  C   UNL d   1       7.485   2.307  -2.898  0.00  0.00     0.210 C 
ENDBRANCH  11  14
ENDBRANCH   7   8
ENDBRANCH   3   7
BRANCH   1  16
ATOM     16  C   UNL d   1      -0.509   1.637   1.861  0.00  0.00     0.179 C 
ATOM     17  O   UNL d   1      -1.472   1.381   2.562  0.00  0.00    -0.646 OA
BRANCH  16  18
ATOM     18  O   UNL d   1       0.167   2.795   1.977  0.00  0.00    -0.773 OA
ATOM     19  H   UNL d   1       0.924   2.898   1.372  0.00  0.00     0.167 HD
ENDBRANCH  16  18
ENDBRANCH   1  16
BRANCH   4  20
ATOM     20  N   UNL d   1      -0.982  -2.831  -0.215  0.00  0.00    -0.116 N 
ATOM     21  O   UNL d   1      -1.798  -3.078   0.680  0.00  0.00    -0.532 OA
ATOM     22  O   UNL d   1      -0.636  -3.631  -1.097  0.00  0.00    -0.532 OA
ENDBRANCH   4  20
TORSDOF 6
