REMARK  7 active torsions:
REMARK  status: ('A' for Active; 'I' for Inactive)
REMARK    1  A    between atoms: C_2  and  S_1 
REMARK    2  A    between atoms: O_7  and  S_1 
REMARK    3  A    between atoms: C_6  and  C_3 
REMARK    4  A    between atoms: C_4  and  N_8 
REMARK    5  A    between atoms: O_22  and  C_6 
REMARK    6  A    between atoms: C_19  and  O_7 
REMARK    7  A    between atoms: N_8  and  C_16 
ROOT
ATOM      1  C   UNL d   1       1.575   0.586   5.292  0.00  0.00     0.012 A 
ATOM      2  C   UNL d   1       0.700   0.920   2.641  0.00  0.00     0.089 A 
ATOM      3  C   UNL d   1       0.224   0.813   5.011  0.00  0.00     0.026 A 
ATOM      4  C   UNL d   1       2.469   0.449   4.221  0.00  0.00     0.026 A 
ATOM      5  C   UNL d   1      -0.212   0.989   3.693  0.00  0.00     0.040 A 
ATOM      6  C   UNL d   1       2.036   0.616   2.905  0.00  0.00     0.040 A 
ENDROOT
BRANCH   2   7
ATOM      7  O   UNL d   1       0.379   1.108   1.323  0.00  0.00    -0.229 OA
BRANCH   7   8
ATOM      8  S   UNL d   1      -0.855   2.084   0.887  0.00  0.00     0.306 S 
ATOM      9  O   UNL d   1      -2.054   1.272   0.810  0.00  0.00    -0.193 OA
ATOM     10  O   UNL d   1      -0.832   3.300   1.678  0.00  0.00    -0.193 OA
BRANCH   8  11
ATOM     11  C   UNL d   1      -0.498   2.599  -0.762  0.00  0.00     0.125 A 
ATOM     12  C   UNL d   1       0.819   2.708  -1.190  0.00  0.00     0.143 A 
ATOM     13  C   UNL d   1       1.101   3.150  -2.478  0.00  0.00     0.086 A 
ATOM     14  F   UNL d   1       1.843   2.414  -0.379  0.00  0.00    -0.204 F 
ATOM     15  C   UNL d   1       0.050   3.481  -3.327  0.00  0.00     0.119 A 
ATOM     16  C   UNL d   1      -1.274   3.372  -2.911  0.00  0.00     0.044 A 
ATOM     17  F   UNL d   1       0.317   3.918  -4.564  0.00  0.00    -0.206 F 
ATOM     18  C   UNL d   1      -1.556   2.924  -1.621  0.00  0.00     0.032 A 
ENDBRANCH   8  11
ENDBRANCH   7   8
ENDBRANCH   2   7
BRANCH   1  19
ATOM     19  N   UNL d   1       1.951   0.312   6.641  0.00  0.00    -0.262 NA
ATOM     20  H   UNL d   1       1.845  -0.706   6.733  0.00  0.00     0.133 HD
BRANCH  19  21
ATOM     21  C   UNL d   1       3.213   0.678   7.100  0.00  0.00     0.012 C 
ATOM     22  C   UNL d   1       4.302  -0.102   7.245  0.00  0.00     0.044 C 
ATOM     23  C   UNL d   1       5.552   0.552   7.727  0.00  0.00     0.120 C 
ATOM     24  S   UNL d   1       5.058   2.207   8.279  0.00  0.00    -0.159 SA
ATOM     25  C   UNL d   1       3.408   2.117   7.524  0.00  0.00     0.126 C 
BRANCH  22  26
ATOM     26  C   UNL d   1       4.421  -1.532   6.897  0.00  0.00     0.291 C 
ATOM     27  O   UNL d   1       5.497  -2.089   6.744  0.00  0.00    -0.260 OA
BRANCH  26  28
ATOM     28  O   UNL d   1       3.202  -2.122   6.793  0.00  0.00    -0.323 OA
ATOM     29  C   UNL d   1       3.260  -3.509   6.453  0.00  0.00     0.213 C 
ENDBRANCH  26  28
ENDBRANCH  22  26
ENDBRANCH  19  21
ENDBRANCH   1  19
TORSDOF 7
