REMARK  2 active torsions:
REMARK  status: ('A' for Active; 'I' for Inactive)
REMARK    1  A    between atoms: C_2  and  S_1 
REMARK    2  A    between atoms: C_6  and  S_1 
ROOT
ATOM      1  N   UNL d   1      -0.354   0.176   3.379  0.00  0.00    -0.196 NA
ATOM      2  C   UNL d   1       1.555  -0.325   1.671  0.00  0.00     0.269 C 
ATOM      3  C   UNL d   1       0.472  -0.053   2.595  0.00  0.00     0.074 C 
ENDROOT
BRANCH   2   4
ATOM      4  S   UNL d   1       0.999   0.065   0.040  0.00  0.00     0.188 S 
ATOM      5  O   UNL d   1       2.148   0.019  -0.847  0.00  0.00    -0.222 OA
ATOM      6  O   UNL d   1      -0.148  -0.780  -0.247  0.00  0.00    -0.222 OA
BRANCH   4   7
ATOM      7  C   UNL d   1       0.440   1.768   0.045  0.00  0.00     0.066 A 
ATOM      8  C   UNL d   1      -0.910   1.996  -0.286  0.00  0.00     0.032 A 
ATOM      9  C   UNL d   1      -1.430   3.298  -0.384  0.00  0.00    -0.039 A 
ATOM     10  C   UNL d   1      -2.862   3.498  -0.795  0.00  0.00     0.050 C 
ATOM     11  C   UNL d   1      -0.575   4.375  -0.133  0.00  0.00     0.040 A 
ATOM     12  C   UNL d   1       0.765   4.152   0.199  0.00  0.00     0.032 A 
ATOM     13 CL   UNL d   1      -1.117   6.011  -0.247  0.00  0.00    -0.084 Cl
ATOM     14  C   UNL d   1       1.304   2.852   0.279  0.00  0.00    -0.039 A 
ATOM     15  C   UNL d   1       2.776   2.768   0.565  0.00  0.00     0.050 C 
ENDBRANCH   4   7
ENDBRANCH   2   4
TORSDOF 2
