REMARK  3 active torsions:
REMARK  status: ('A' for Active; 'I' for Inactive)
REMARK    1  A    between atoms: C_14  and  N_3 
REMARK    2  A    between atoms: C_9  and  C_4 
REMARK       I    between atoms: N_11  and  C_9 
REMARK    3  A    between atoms: C_15  and  N_11 
ROOT
ATOM      1  N   UNL d   1      -0.304  -1.039  -0.040  0.00  0.00    -0.272 N 
ATOM      2  HN  UNL d   1      -0.623  -2.004  -0.130  1.00  0.00     0.189 HD
ATOM      3  N   UNL d   1       0.973  -0.566   0.075  0.00  0.00    -0.196 N 
ATOM      4  C   UNL d   1      -1.038   0.099  -0.005  0.00  0.00     0.141 A 
ATOM      5  N   UNL d   1       1.093   0.774   0.236  0.00  0.00    -0.281 N 
ATOM      6  HN  UNL d   1       1.939   1.319   0.405  1.00  0.00     0.189 HD
ATOM      7  C   UNL d   1      -0.164   1.206   0.119  0.00  0.00     0.057 A 
ATOM      8  C   UNL d   1      -0.426   2.662   0.091  0.00  0.00     0.072 C 
ENDROOT
BRANCH   4   9
ATOM      9  C   UNL d   1      -2.504   0.115  -0.114  0.00  0.00     0.272 C 
ATOM     10  N   UNL d   1      -3.073  -1.125  -0.316  0.00  0.00    -0.350 N 
ATOM     11  H   UNL d   1      -2.416  -1.904  -0.316  0.00  0.00     0.163 HD
ATOM     12  O   UNL d   1      -3.169   1.142  -0.040  0.00  0.00    -0.266 OA
BRANCH  10  13
ATOM     13  C   UNL d   1      -4.497  -1.379  -0.477  0.00  0.00     0.099 C 
ATOM     14  C   UNL d   1      -5.177  -0.587  -1.596  0.00  0.00     0.165 C 
ATOM     15  S   UNL d   1      -6.918  -0.854  -1.312  0.00  0.00     0.146 S 
ATOM     16  O   UNL d   1      -7.348  -1.974  -2.125  0.00  0.00    -0.228 OA
ATOM     17  O   UNL d   1      -7.607   0.420  -1.332  0.00  0.00    -0.228 OA
ATOM     18  C   UNL d   1      -6.777  -1.414   0.380  0.00  0.00     0.142 C 
ATOM     19  C   UNL d   1      -5.332  -1.119   0.782  0.00  0.00     0.041 C 
ENDBRANCH  10  13
ENDBRANCH   4   9
BRANCH   3  20
ATOM     20  C   UNL d   1       2.132  -1.380  -0.046  0.00  0.00     0.074 A 
ATOM     21  C   UNL d   1       2.034  -2.731  -0.400  0.00  0.00     0.033 A 
ATOM     22  C   UNL d   1       3.201  -3.478  -0.599  0.00  0.00     0.002 A 
ATOM     23  C   UNL d   1       4.455  -2.893  -0.429  0.00  0.00     0.000 A 
ATOM     24  C   UNL d   1       4.556  -1.555  -0.050  0.00  0.00     0.002 A 
ATOM     25  C   UNL d   1       3.399  -0.801   0.141  0.00  0.00     0.033 A 
ENDBRANCH   3  20
TORSDOF 3
