REMARK  10 active torsions:
REMARK  status: ('A' for Active; 'I' for Inactive)
REMARK    1  A    between atoms: S_25  and  C_2 
REMARK    2  A    between atoms: S_26  and  C_5 
REMARK    3  A    between atoms: C_11  and  C_27 
REMARK    4  A    between atoms: C_12  and  C_28 
REMARK    5  A    between atoms: C_37  and  C_18 
REMARK    6  A    between atoms: C_38  and  C_19 
REMARK    7  A    between atoms: C_29  and  S_25 
REMARK    8  A    between atoms: C_30  and  S_26 
REMARK    9  A    between atoms: C_27  and  C_30 
REMARK   10  A    between atoms: C_28  and  C_29 
ROOT
ATOM      1  C   UNL d   1      -0.374  -1.270   0.119  0.00  0.00     0.103 A 
ATOM      2  C   UNL d   1       0.847  -0.766  -0.296  0.00  0.00     0.082 A 
ATOM      3  N   UNL d   1      -0.777   1.029   0.389  0.00  0.00    -0.319 N 
ATOM      4  HN  UNL d   1      -1.289   1.886   0.600  1.00  0.00     0.175 HD
ATOM      5  C   UNL d   1      -1.249  -0.209   0.515  0.00  0.00     0.099 A 
ATOM      6  S   UNL d   1       0.779   0.944  -0.166  0.00  0.00    -0.005 SA
ATOM      7  C   UNL d   1      -0.689  -2.667   0.156  0.00  0.00     0.104 C 
ATOM      8  N   UNL d   1      -0.939  -3.795   0.174  0.00  0.00    -0.191 NA
ENDROOT
BRANCH   2   9
ATOM      9  S   UNL d   1       2.283  -1.667  -0.779  0.00  0.00    -0.112 SA
BRANCH   9  10
ATOM     10  C   UNL d   1       2.775  -0.829  -2.317  0.00  0.00     0.164 C 
BRANCH  10  11
ATOM     11  C   UNL d   1       4.122  -1.299  -2.845  0.00  0.00     0.169 C 
ATOM     12  O   UNL d   1       4.897  -1.986  -2.179  0.00  0.00    -0.291 OA
BRANCH  11  13
ATOM     13  C   UNL d   1       4.536  -0.934  -4.250  0.00  0.00     0.017 A 
ATOM     14  C   UNL d   1       5.355  -1.889  -4.890  0.00  0.00     0.024 A 
ATOM     15  C   UNL d   1       5.867  -1.724  -6.198  0.00  0.00    -0.042 A 
ATOM     16  C   UNL d   1       6.803  -2.790  -6.778  0.00  0.00    -0.020 C 
ATOM     17  C   UNL d   1       5.476  -0.588  -6.920  0.00  0.00    -0.043 A 
ATOM     18  C   UNL d   1       7.468  -2.328  -8.097  0.00  0.00     0.015 C 
ATOM     19  C   UNL d   1       5.999  -4.087  -7.012  0.00  0.00     0.020 C 
ATOM     20  C   UNL d   1       7.964  -3.095  -5.801  0.00  0.00     0.020 C 
ATOM     21  C   UNL d   1       6.505  -1.616  -9.028  0.00  0.00     0.015 C 
ATOM     22  C   UNL d   1       5.862  -0.362  -8.389  0.00  0.00    -0.020 C 
ATOM     23  C   UNL d   1       6.829   0.839  -8.493  0.00  0.00     0.020 C 
ATOM     24  C   UNL d   1       4.604  -0.050  -9.237  0.00  0.00     0.020 C 
ATOM     25  C   UNL d   1       4.700   0.390  -6.255  0.00  0.00     0.016 A 
ATOM     26  C   UNL d   1       4.226   0.257  -4.932  0.00  0.00    -0.044 A 
BRANCH  26  27
ATOM     27  C   UNL d   1       3.441   1.389  -4.302  0.00  0.00     0.035 C 
ATOM     28  C   UNL d   1       3.255   2.680  -5.096  0.00  0.00     0.010 C 
ENDBRANCH  26  27
ENDBRANCH  11  13
ENDBRANCH  10  11
ENDBRANCH   9  10
ENDBRANCH   2   9
BRANCH   5  29
ATOM     29  S   UNL d   1      -2.881  -0.463   1.129  0.00  0.00    -0.102 SA
BRANCH  29  30
ATOM     30  C   UNL d   1      -3.161   1.054   2.102  0.00  0.00     0.164 C 
BRANCH  30  31
ATOM     31  C   UNL d   1      -4.521   1.039   2.793  0.00  0.00     0.169 C 
ATOM     32  O   UNL d   1      -5.362   0.164   2.599  0.00  0.00    -0.291 OA
BRANCH  31  33
ATOM     33  C   UNL d   1      -4.854   2.171   3.730  0.00  0.00     0.017 C 
ATOM     34  C   UNL d   1      -4.293   3.443   3.510  0.00  0.00     0.024 C 
ATOM     35  C   UNL d   1      -4.613   4.575   4.302  0.00  0.00    -0.042 C 
ATOM     36  C   UNL d   1      -3.873   5.898   4.056  0.00  0.00    -0.020 C 
ATOM     37  C   UNL d   1      -5.613   4.441   5.282  0.00  0.00    -0.043 C 
ATOM     38  C   UNL d   1      -4.183   6.965   5.134  0.00  0.00     0.015 C 
ATOM     39  C   UNL d   1      -4.243   6.441   2.658  0.00  0.00     0.020 C 
ATOM     40  C   UNL d   1      -2.341   5.679   4.108  0.00  0.00     0.020 C 
ATOM     41  C   UNL d   1      -5.642   6.984   5.546  0.00  0.00     0.015 C 
ATOM     42  C   UNL d   1      -6.123   5.627   6.111  0.00  0.00    -0.020 C 
ATOM     43  C   UNL d   1      -5.646   5.457   7.570  0.00  0.00     0.020 C 
ATOM     44  C   UNL d   1      -7.670   5.691   6.103  0.00  0.00     0.020 C 
ATOM     45  C   UNL d   1      -6.128   3.149   5.535  0.00  0.00     0.016 C 
ATOM     46  C   UNL d   1      -5.738   2.007   4.807  0.00  0.00    -0.044 C 
BRANCH  46  47
ATOM     47  C   UNL d   1      -6.252   0.663   5.282  0.00  0.00     0.035 C 
ATOM     48  C   UNL d   1      -7.633   0.300   4.761  0.00  0.00     0.010 C 
ENDBRANCH  46  47
ENDBRANCH  31  33
ENDBRANCH  30  31
ENDBRANCH  29  30
ENDBRANCH   5  29
TORSDOF 10
