REMARK  6 active torsions:
REMARK  status: ('A' for Active; 'I' for Inactive)
REMARK    1  A    between atoms: C_14  and  C_6 
REMARK    2  A    between atoms: N_7  and  C_9 
REMARK    3  A    between atoms: N_8  and  C_15 
REMARK    4  A    between atoms: O_23  and  C_14 
REMARK    5  A    between atoms: C_28  and  O_23 
REMARK    6  A    between atoms: C_24  and  C_28 
ROOT
ATOM      1  C   UNL d   1      -1.427   0.557   0.073  0.00  0.00     0.003 C 
ATOM      2  C   UNL d   1       0.912   0.284  -0.101  0.00  0.00     0.018 C 
ATOM      3  C   UNL d   1      -0.204   1.294   0.020  0.00  0.00    -0.008 C 
ATOM      4  C   UNL d   1       0.285  -1.078  -0.038  0.00  0.00    -0.009 C 
ATOM      5  C   UNL d   1      -1.091  -0.865   0.213  0.00  0.00    -0.013 C 
ATOM      6  C   UNL d   1      -2.658   1.227  -0.065  0.00  0.00     0.053 C 
ATOM      7  C   UNL d   1      -1.438   3.345   0.120  0.00  0.00     0.104 C 
ATOM      8  C   UNL d   1       2.243   0.543  -0.190  0.00  0.00     0.136 C 
ATOM      9  C   UNL d   1      -0.207   2.681   0.076  0.00  0.00     0.049 C 
ATOM     10  C   UNL d   1      -2.649   2.634   0.013  0.00  0.00     0.054 C 
ATOM     11  C   UNL d   1       0.794  -2.370  -0.127  0.00  0.00     0.049 C 
ATOM     12  C   UNL d   1      -0.050  -3.446   0.193  0.00  0.00     0.103 C 
ATOM     13  C   UNL d   1       2.778   1.859  -0.227  0.00  0.00     0.111 C 
ATOM     14  C   UNL d   1       3.239  -0.472  -0.231  0.00  0.00     0.111 C 
ATOM     15  N   UNL d   1       3.235   2.928  -0.258  0.00  0.00    -0.191 NA
ATOM     16  N   UNL d   1       4.061  -1.292  -0.250  0.00  0.00    -0.191 NA
ATOM     17  C   UNL d   1      -1.873  -1.927   0.656  0.00  0.00     0.015 C 
ATOM     18  C   UNL d   1      -1.356  -3.224   0.643  0.00  0.00     0.037 C 
ENDROOT
BRANCH   6  19
ATOM     19  C   UNL d   1      -3.936   0.519  -0.440  0.00  0.00     0.294 C 
ATOM     20  O   UNL d   1      -4.064  -0.686  -0.544  0.00  0.00    -0.259 OA
BRANCH  19  21
ATOM     21  O   UNL d   1      -4.912   1.414  -0.730  0.00  0.00    -0.313 OA
BRANCH  21  22
ATOM     22  C   UNL d   1      -6.171   0.886  -1.177  0.00  0.00     0.219 C 
BRANCH  22  23
ATOM     23  C   UNL d   1      -6.544   1.126  -2.633  0.00  0.00    -0.017 A 
ATOM     24  C   UNL d   1      -6.072   2.166  -3.449  0.00  0.00     0.019 A 
ATOM     25 BR   UNL d   1      -4.472   3.137  -3.133  0.00  0.00    -0.050 Br
ATOM     26  C   UNL d   1      -6.741   2.500  -4.637  0.00  0.00     0.020 A 
ATOM     27  C   UNL d   1      -7.814   1.738  -5.090  0.00  0.00     0.001 A 
ATOM     28  C   UNL d   1      -8.204   0.617  -4.372  0.00  0.00     0.001 A 
ATOM     29  C   UNL d   1      -7.594   0.329  -3.147  0.00  0.00     0.011 A 
ENDBRANCH  22  23
ENDBRANCH  21  22
ENDBRANCH  19  21
ENDBRANCH   6  19
BRANCH   7  30
ATOM     30  N   UNL d   1      -1.468   4.810   0.248  0.00  0.00    -0.116 N 
ATOM     31  O   UNL d   1      -0.387   5.394   0.394  0.00  0.00    -0.532 OA
ATOM     32  O   UNL d   1      -2.573   5.368   0.224  0.00  0.00    -0.532 OA
ENDBRANCH   7  30
BRANCH  12  33
ATOM     33  N   UNL d   1       0.446  -4.824   0.069  0.00  0.00    -0.116 N 
ATOM     34  O   UNL d   1       1.616  -4.984  -0.302  0.00  0.00    -0.532 OA
ATOM     35  O   UNL d   1      -0.342  -5.744   0.333  0.00  0.00    -0.532 OA
ENDBRANCH  12  33
TORSDOF 6
