REMARK  5 active torsions:
REMARK  status: ('A' for Active; 'I' for Inactive)
REMARK    1  A    between atoms: C_7  and  C_1 
REMARK    2  A    between atoms: C_16  and  C_6 
REMARK    3  A    between atoms: N_17  and  C_10 
REMARK    4  A    between atoms: O_13  and  C_16 
REMARK    5  A    between atoms: C_14  and  O_13 
ROOT
ATOM      1  C   UNL d   1      -0.115  -1.154  -0.066  0.00  0.00     0.055 A 
ATOM      2  N   UNL d   1      -0.633   1.130  -0.168  0.00  0.00    -0.355 N 
ATOM      3  HN  UNL d   1      -1.227   1.959  -0.198  1.00  0.00     0.166 HD
ATOM      4  C   UNL d   1      -1.100  -0.174  -0.120  0.00  0.00     0.025 A 
ATOM      5  S   UNL d   1       1.432  -0.393  -0.154  0.00  0.00    -0.070 SA
ATOM      6  C   UNL d   1       0.682   1.149  -0.170  0.00  0.00     0.076 A 
ATOM      7  C   UNL d   1      -2.575  -0.377  -0.073  0.00  0.00     0.070 C 
ENDROOT
BRANCH   1   8
ATOM      8  C   UNL d   1      -0.253  -2.611   0.042  0.00  0.00     0.054 A 
ATOM      9  N   UNL d   1      -1.371  -3.104  -0.531  0.00  0.00    -0.332 N 
ATOM     10  C   UNL d   1      -1.587  -4.414  -0.419  0.00  0.00     0.155 A 
ATOM     11  HN  UNL d   1      -2.025  -2.499  -1.028  1.00  0.00     0.168 HD
ATOM     12  N   UNL d   1      -0.766  -5.272   0.189  0.00  0.00    -0.343 N 
ATOM     13  C   UNL d   1       0.338  -4.748   0.751  0.00  0.00     0.093 A 
ATOM     14  HN  UNL d   1      -0.965  -6.271   0.225  1.00  0.00     0.167 HD
ATOM     15  C   UNL d   1       0.647  -3.412   0.712  0.00  0.00     0.048 A 
BRANCH  10  16
ATOM     16  N   UNL d   1      -2.724  -4.923  -1.008  0.00  0.00    -0.274 NA
ATOM     17  H   UNL d   1      -3.014  -4.319  -1.765  0.00  0.00     0.127 HD
ATOM     18  H   UNL d   1      -2.586  -5.900  -1.224  0.00  0.00     0.127 HD
ENDBRANCH  10  16
ENDBRANCH   1   8
BRANCH   6  19
ATOM     19  C   UNL d   1       1.489   2.407  -0.041  0.00  0.00     0.240 C 
BRANCH  19  20
ATOM     20  O   UNL d   1       1.813   2.894  -1.346  0.00  0.00    -0.343 OA
BRANCH  20  21
ATOM     21  C   UNL d   1       2.411   4.133  -1.373  0.00  0.00     0.090 A 
ATOM     22  C   UNL d   1       3.328   4.407  -2.399  0.00  0.00     0.067 A 
ATOM     23 CL   UNL d   1       3.740   3.219  -3.584  0.00  0.00    -0.081 Cl
ATOM     24  C   UNL d   1       3.952   5.660  -2.482  0.00  0.00     0.026 A 
ATOM     25  C   UNL d   1       3.657   6.656  -1.551  0.00  0.00     0.002 A 
ATOM     26  C   UNL d   1       2.731   6.402  -0.548  0.00  0.00     0.003 A 
ATOM     27  C   UNL d   1       2.105   5.154  -0.464  0.00  0.00     0.038 A 
ENDBRANCH  20  21
ENDBRANCH  19  20
ENDBRANCH   6  19
TORSDOF 5
