REMARK  8 active torsions:
REMARK  status: ('A' for Active; 'I' for Inactive)
REMARK    1  A    between atoms: C_3  and  C_1 
REMARK    2  A    between atoms: C_2  and  C_3 
REMARK    3  A    between atoms: N_21  and  C_16 
REMARK    4  A    between atoms: N_22  and  C_17 
REMARK    5  A    between atoms: C_27  and  N_21 
REMARK    6  A    between atoms: C_28  and  N_21 
REMARK    7  A    between atoms: C_29  and  N_22 
REMARK    8  A    between atoms: C_30  and  N_22 
ROOT
ATOM      1  C   UNL d   1      -2.986  -2.271  -0.128  0.00  0.00     0.204 C 
ATOM      2  O   UNL d   1      -4.140  -1.907  -0.356  0.00  0.00    -0.286 OA
ENDROOT
BRANCH   1   3
ATOM      3  C   UNL d   1      -2.630  -3.728  -0.151  0.00  0.00     0.091 C 
ATOM      4  C   UNL d   1      -3.613  -4.774   0.239  0.00  0.00     0.302 C 
ATOM      5  O   UNL d   1      -3.181  -6.109   0.190  0.00  0.00    -0.274 OA
ATOM      6  O   UNL d   1      -4.764  -4.517   0.579  0.00  0.00    -0.259 OA
ATOM      7  C   UNL d   1      -1.854  -6.454  -0.131  0.00  0.00     0.091 A 
ATOM      8  C   UNL d   1      -0.973  -5.465  -0.529  0.00  0.00    -0.001 A 
ATOM      9  C   UNL d   1      -1.445  -7.787   0.015  0.00  0.00     0.067 A 
ATOM     10  C   UNL d   1      -1.421  -4.092  -0.614  0.00  0.00     0.036 C 
ATOM     11  C   UNL d   1       0.350  -5.803  -0.770  0.00  0.00     0.016 A 
ATOM     12  C   UNL d   1       0.772  -7.125  -0.601  0.00  0.00     0.030 A 
ATOM     13  C   UNL d   1      -0.102  -8.156  -0.202  0.00  0.00     0.032 A 
BRANCH  13  14
ATOM     14  N   UNL d   1       0.351  -9.451   0.027  0.00  0.00    -0.382 N 
BRANCH  14  15
ATOM     15  C   UNL d   1      -0.460 -10.584  -0.437  0.00  0.00     0.118 C 
ATOM     16  C   UNL d   1      -1.099 -11.310   0.737  0.00  0.00     0.026 C 
ENDBRANCH  14  15
BRANCH  14  17
ATOM     17  C   UNL d   1       1.775  -9.723   0.276  0.00  0.00     0.118 C 
ATOM     18  C   UNL d   1       2.216  -9.174   1.627  0.00  0.00     0.026 C 
ENDBRANCH  14  17
ENDBRANCH  13  14
ENDBRANCH   1   3
BRANCH   1  19
ATOM     19  C   UNL d   1      -1.913  -1.237   0.085  0.00  0.00     0.091 A 
ATOM     20  C   UNL d   1      -0.713  -1.445   0.931  0.00  0.00     0.302 A 
ATOM     21  O   UNL d   1       0.261  -0.448   0.922  0.00  0.00    -0.274 OA
ATOM     22  O   UNL d   1      -0.556  -2.460   1.603  0.00  0.00    -0.259 OA
ATOM     23  C   UNL d   1       0.077   0.764   0.231  0.00  0.00     0.091 A 
ATOM     24  C   UNL d   1      -1.091   0.987  -0.480  0.00  0.00    -0.001 A 
ATOM     25  C   UNL d   1       1.111   1.710   0.275  0.00  0.00     0.067 A 
ATOM     26  C   UNL d   1      -2.099  -0.060  -0.537  0.00  0.00     0.036 A 
ATOM     27  C   UNL d   1      -1.231   2.191  -1.155  0.00  0.00     0.016 A 
ATOM     28  C   UNL d   1      -0.193   3.137  -1.127  0.00  0.00     0.030 A 
ATOM     29  C   UNL d   1       1.008   2.922  -0.425  0.00  0.00     0.032 A 
BRANCH  29  30
ATOM     30  N   UNL d   1       2.062   3.832  -0.460  0.00  0.00    -0.382 N 
BRANCH  30  31
ATOM     31  C   UNL d   1       2.802   4.129   0.778  0.00  0.00     0.118 C 
ATOM     32  C   UNL d   1       4.190   3.505   0.752  0.00  0.00     0.026 C 
ENDBRANCH  30  31
BRANCH  30  33
ATOM     33  C   UNL d   1       2.187   4.814  -1.548  0.00  0.00     0.118 C 
ATOM     34  C   UNL d   1       2.524   4.130  -2.867  0.00  0.00     0.026 C 
ENDBRANCH  30  33
ENDBRANCH  29  30
ENDBRANCH   1  19
TORSDOF 8
