REMARK  4 active torsions:
REMARK  status: ('A' for Active; 'I' for Inactive)
REMARK    1  A    between atoms: C_2  and  C_1 
REMARK       I    between atoms: N_10  and  C_2 
REMARK    2  A    between atoms: C_21  and  N_10 
REMARK    3  A    between atoms: C_15  and  C_22 
REMARK    4  A    between atoms: C_22  and  C_21 
ROOT
ATOM      1  C   UNL d   1      -3.047   0.575   0.206  0.00  0.00     0.226 C 
ATOM      2  O   UNL d   1      -3.510   1.300   1.085  0.00  0.00    -0.273 OA
ATOM      3  N   UNL d   1      -3.858  -0.025  -0.736  0.00  0.00    -0.360 N 
ATOM      4  H   UNL d   1      -3.461  -0.654  -1.418  0.00  0.00     0.162 HD
ENDROOT
BRANCH   1   5
ATOM      5  C   UNL d   1      -1.543   0.281   0.088  0.00  0.00     0.042 C 
ATOM      6  C   UNL d   1      -0.774   1.030   1.210  0.00  0.00     0.024 C 
ATOM      7  C   UNL d   1       0.736   0.757   1.119  0.00  0.00    -0.013 C 
ATOM      8  C   UNL d   1       0.983  -0.753   1.260  0.00  0.00     0.009 C 
ATOM      9  C   UNL d   1       1.251   1.233  -0.249  0.00  0.00     0.009 C 
ATOM     10  C   UNL d   1       0.250  -1.512   0.143  0.00  0.00    -0.013 C 
ATOM     11  C   UNL d   1      -1.261  -1.232   0.240  0.00  0.00     0.024 C 
ATOM     12  C   UNL d   1       0.767  -1.026  -1.222  0.00  0.00     0.009 C 
ATOM     13  C   UNL d   1       0.519   0.485  -1.375  0.00  0.00    -0.013 C 
ATOM     14  C   UNL d   1      -0.992   0.762  -1.276  0.00  0.00     0.024 C 
ENDBRANCH   1   5
BRANCH   3  15
ATOM     15  C   UNL d   1      -5.298   0.171  -0.686  0.00  0.00     0.127 C 
BRANCH  15  16
ATOM     16  C   UNL d   1      -6.040  -0.558  -1.805  0.00  0.00     0.058 C 
BRANCH  16  17
ATOM     17  C   UNL d   1      -7.534  -0.344  -1.728  0.00  0.00    -0.057 A 
ATOM     18  C   UNL d   1      -8.135   0.734  -2.395  0.00  0.00     0.009 A 
ATOM     19  C   UNL d   1      -9.516   0.934  -2.319  0.00  0.00     0.024 A 
ATOM     20  C   UNL d   1     -10.303   0.062  -1.570  0.00  0.00     0.034 A 
ATOM     21  C   UNL d   1      -9.718  -1.004  -0.890  0.00  0.00     0.024 A 
ATOM     22 CL   UNL d   1     -12.005   0.301  -1.485  0.00  0.00    -0.084 Cl
ATOM     23  C   UNL d   1      -8.337  -1.205  -0.966  0.00  0.00     0.009 A 
ENDBRANCH  16  17
ENDBRANCH  15  16
ENDBRANCH   3  15
TORSDOF 4
