REMARK  6 active torsions:
REMARK  status: ('A' for Active; 'I' for Inactive)
REMARK    1  A    between atoms: N_2  and  S_1 
REMARK    2  A    between atoms: C_7  and  S_1 
REMARK    3  A    between atoms: C_4  and  N_2 
REMARK    4  A    between atoms: N_5  and  C_4 
REMARK       I    between atoms: C_6  and  N_5 
REMARK    5  A    between atoms: O_10  and  C_6 
REMARK    6  A    between atoms: C_16  and  O_10 
ROOT
ATOM      1  C   UNL d   1      -0.259  -0.791  -2.213  0.00  0.00     0.187 C 
ATOM      2  S   UNL d   1      -1.319  -1.739  -3.099  0.00  0.00    -0.040 SA
ENDROOT
BRANCH   1   3
ATOM      3  N   UNL d   1      -0.378  -0.810  -0.829  0.00  0.00    -0.289 N 
ATOM      4  HN  UNL d   1      -0.771   0.016  -0.378  1.00  0.00     0.178 HD
BRANCH   3   5
ATOM      5  S   UNL d   1       0.040  -1.987   0.077  0.00  0.00     0.054 S 
ATOM      6  O   UNL d   1       1.303  -2.692  -0.027  0.00  0.00    -0.245 OA
ATOM      7  C   UNL d   1      -1.238  -3.236   0.071  0.00  0.00     0.142 C 
BRANCH   5   8
ATOM      8  C   UNL d   1      -0.074  -1.373   1.758  0.00  0.00     0.038 A 
ATOM      9  C   UNL d   1      -1.321  -0.990   2.271  0.00  0.00     0.023 A 
ATOM     10  C   UNL d   1      -1.432  -0.624   3.615  0.00  0.00     0.025 A 
ATOM     11  C   UNL d   1      -0.301  -0.631   4.431  0.00  0.00     0.034 A 
ATOM     12  C   UNL d   1       0.944  -0.994   3.916  0.00  0.00     0.025 A 
ATOM     13 CL   UNL d   1      -0.447  -0.199   6.091  0.00  0.00    -0.084 Cl
ATOM     14  C   UNL d   1       1.061  -1.369   2.574  0.00  0.00     0.023 A 
ENDBRANCH   5   8
ENDBRANCH   3   5
ENDBRANCH   1   3
BRANCH   1  15
ATOM     15  N   UNL d   1       0.565   0.045  -2.918  0.00  0.00    -0.278 N 
ATOM     16  C   UNL d   1       1.604   0.881  -2.567  0.00  0.00     0.372 C 
ATOM     17  O   UNL d   1       2.129   1.583  -3.424  0.00  0.00    -0.238 OA
ATOM     18  H   UNL d   1       0.404   0.043  -3.913  0.00  0.00     0.173 HD
BRANCH  16  19
ATOM     19  O   UNL d   1       2.015   0.766  -1.256  0.00  0.00    -0.261 OA
BRANCH  19  20
ATOM     20  C   UNL d   1       3.406   0.872  -1.149  0.00  0.00     0.081 A 
ATOM     21  C   UNL d   1       3.951   1.835  -0.303  0.00  0.00     0.037 A 
ATOM     22  C   UNL d   1       5.335   1.872  -0.118  0.00  0.00     0.003 A 
ATOM     23  C   UNL d   1       6.157   0.948  -0.770  0.00  0.00     0.000 A 
ATOM     24  C   UNL d   1       5.601  -0.013  -1.612  0.00  0.00     0.003 A 
ATOM     25  C   UNL d   1       4.223  -0.060  -1.796  0.00  0.00     0.037 A 
ENDBRANCH  19  20
ENDBRANCH  16  19
ENDBRANCH   1  15
TORSDOF 6
