REMARK  8 active torsions:
REMARK  status: ('A' for Active; 'I' for Inactive)
REMARK    1  A    between atoms: C_10  and  C_3 
REMARK    2  A    between atoms: C_22  and  C_4 
REMARK    3  A    between atoms: C_7  and  N_9 
REMARK    4  A    between atoms: N_14  and  C_7 
REMARK    5  A    between atoms: C_8  and  C_19 
REMARK       I    between atoms: N_11  and  C_8 
REMARK    6  A    between atoms: N_9  and  N_11 
REMARK    7  A    between atoms: S_17  and  C_22 
REMARK    8  A    between atoms: C_19  and  S_17 
ROOT
ATOM      1  C   UNL d   1       0.088  -2.621  -0.014  0.00  0.00     0.139 C 
ENDROOT
BRANCH   1   2
ATOM      2  S   UNL d   1       1.798  -3.254   0.128  0.00  0.00    -0.153 SA
BRANCH   2   3
ATOM      3  C   UNL d   1       1.479  -5.045   0.154  0.00  0.00     0.178 C 
BRANCH   3   4
ATOM      4  C   UNL d   1       2.764  -5.869   0.251  0.00  0.00     0.245 C 
ATOM      5  N   UNL d   1       3.939  -5.160   0.341  0.00  0.00    -0.267 N 
ATOM      6  H   UNL d   1       3.954  -4.138   0.313  0.00  0.00     0.190 HD
ATOM      7  O   UNL d   1       2.737  -7.103   0.262  0.00  0.00    -0.271 OA
BRANCH   5   8
ATOM      8  N   UNL d   1       5.153  -5.836   0.436  0.00  0.00    -0.274 N 
ATOM      9  H   UNL d   1       5.093  -6.849   0.384  0.00  0.00     0.189 HD
BRANCH   8  10
ATOM     10  C   UNL d   1       6.360  -5.158   0.525  0.00  0.00     0.186 C 
ATOM     11  S   UNL d   1       6.482  -3.488   0.536  0.00  0.00    -0.040 SA
BRANCH  10  12
ATOM     12  N   UNL d   1       7.417  -6.040   0.605  0.00  0.00    -0.370 N 
ATOM     13  C   UNL d   1       8.831  -5.720   0.732  0.00  0.00     0.148 C 
ATOM     14  H   UNL d   1       7.191  -7.022   0.640  0.00  0.00     0.161 HD
ENDBRANCH  10  12
ENDBRANCH   8  10
ENDBRANCH   5   8
ENDBRANCH   3   4
ENDBRANCH   2   3
ENDBRANCH   1   2
BRANCH   1  15
ATOM     15  C   UNL d   1       0.149  -1.123  -0.065  0.00  0.00     0.060 A 
ATOM     16  N   UNL d   1       0.340  -0.424  -1.165  0.00  0.00    -0.352 N 
ATOM     17  C   UNL d   1       0.537   0.913  -0.855  0.00  0.00     0.049 A 
ATOM     18  HN  UNL d   1       0.343  -0.811  -2.109  1.00  0.00     0.166 HD
ATOM     19  C   UNL d   1       0.445   1.212   0.491  0.00  0.00     0.081 A 
ATOM     20  S   UNL d   1       0.076  -0.201   1.387  0.00  0.00    -0.086 SA
BRANCH  17  21
ATOM     21  C   UNL d   1       0.865   1.885  -1.893  0.00  0.00    -0.009 A 
ATOM     22  C   UNL d   1       0.555   3.246  -1.758  0.00  0.00     0.015 A 
ATOM     23  C   UNL d   1       0.881   4.154  -2.772  0.00  0.00     0.024 A 
ATOM     24  C   UNL d   1       1.516   3.705  -3.928  0.00  0.00     0.034 A 
ATOM     25  C   UNL d   1       1.830   2.358  -4.080  0.00  0.00     0.024 A 
ATOM     26 CL   UNL d   1       1.907   4.823  -5.176  0.00  0.00    -0.084 Cl
ATOM     27  C   UNL d   1       1.502   1.451  -3.066  0.00  0.00     0.015 A 
ENDBRANCH  17  21
ENDBRANCH   1  15
TORSDOF 8
