REMARK  3 active torsions:
REMARK  status: ('A' for Active; 'I' for Inactive)
REMARK    1  A    between atoms: C_4  and  C_1 
REMARK    2  A    between atoms: C_3  and  N_6 
REMARK       I    between atoms: N_7  and  C_4 
REMARK    3  A    between atoms: N_6  and  N_7 
ROOT
ATOM      1  C   UNL d   1       3.404  -1.519  -0.010  0.00  0.00     0.273 C 
ATOM      2  N   UNL d   1       3.622  -2.882   0.135  0.00  0.00    -0.282 N 
ATOM      3  O   UNL d   1       4.351  -0.736  -0.140  0.00  0.00    -0.266 OA
ATOM      4  H   UNL d   1       2.868  -3.483   0.457  0.00  0.00     0.184 HD
ENDROOT
BRANCH   2   5
ATOM      5  N   UNL d   1       4.922  -3.338   0.351  0.00  0.00    -0.200 NA
ATOM      6  H   UNL d   1       5.624  -2.592   0.226  0.00  0.00     0.153 HD
BRANCH   5   7
ATOM      7  C   UNL d   1       5.330  -4.556  -0.274  0.00  0.00     0.073 A 
ATOM      8  C   UNL d   1       4.480  -5.537  -0.825  0.00  0.00     0.073 A 
ATOM      9 CL   UNL d   1       2.767  -5.383  -1.006  0.00  0.00    -0.081 Cl
ATOM     10  C   UNL d   1       5.032  -6.740  -1.275  0.00  0.00     0.113 A 
ATOM     11  N   UNL d   1       6.342  -7.064  -1.201  0.00  0.00    -0.372 N 
ATOM     12  C   UNL d   1       7.148  -6.133  -0.652  0.00  0.00     0.113 A 
ATOM     13  HN  UNL d   1       6.698  -7.958  -1.538  1.00  0.00     0.164 HD
ATOM     14  C   UNL d   1       6.702  -4.898  -0.190  0.00  0.00     0.073 A 
ATOM     15 CL   UNL d   1       7.866  -3.815   0.494  0.00  0.00    -0.081 Cl
ENDBRANCH   5   7
ENDBRANCH   2   5
BRANCH   1  16
ATOM     16  C   UNL d   1       2.013  -1.086   0.008  0.00  0.00     0.075 A 
ATOM     17  S   UNL d   1       0.710  -2.187   0.119  0.00  0.00    -0.084 SA
ATOM     18  C   UNL d   1      -0.474  -0.944  -0.001  0.00  0.00     0.016 A 
ATOM     19  C   UNL d   1      -1.874  -1.102  -0.021  0.00  0.00     0.019 A 
ATOM     20  C   UNL d   1       0.119   0.317  -0.082  0.00  0.00    -0.018 A 
ATOM     21  C   UNL d   1      -2.682   0.032  -0.127  0.00  0.00     0.001 A 
ATOM     22  C   UNL d   1      -2.115   1.297  -0.199  0.00  0.00     0.001 A 
ATOM     23  C   UNL d   1      -0.725   1.450  -0.176  0.00  0.00     0.013 A 
ATOM     24  C   UNL d   1       1.551   0.214  -0.067  0.00  0.00     0.037 A 
ENDBRANCH   1  16
TORSDOF 3
