REMARK  5 active torsions:
REMARK  status: ('A' for Active; 'I' for Inactive)
REMARK    1  A    between atoms: C_2  and  C_1 
REMARK    2  A    between atoms: S_14  and  C_7 
REMARK    3  A    between atoms: S_15  and  C_10 
REMARK    4  A    between atoms: C_17  and  S_14 
REMARK    5  A    between atoms: C_19  and  C_17 
ROOT
ATOM      1  C   UNL d   1       0.012   1.109  -0.086  0.00  0.00     0.152 A 
ATOM      2  N   UNL d   1       0.847   0.019   0.024  0.00  0.00    -0.314 N 
ATOM      3  N   UNL d   1      -1.232   0.676  -0.169  0.00  0.00    -0.281 N 
ATOM      4  HN  UNL d   1      -2.063   1.262  -0.239  1.00  0.00     0.188 HD
ATOM      5  C   UNL d   1       0.032  -1.083  -0.040  0.00  0.00     0.163 A 
ATOM      6  N   UNL d   1      -1.219  -0.701  -0.146  0.00  0.00    -0.278 N 
ATOM      7  HN  UNL d   1      -2.034  -1.312  -0.200  1.00  0.00     0.189 HD
ATOM      8  C   UNL d   1       2.276   0.003   0.197  0.00  0.00     0.160 C 
ENDROOT
BRANCH   1   9
ATOM      9  C   UNL d   1       0.379   2.494  -0.151  0.00  0.00     0.097 A 
ATOM     10  N   UNL d   1      -0.344   3.561   0.356  0.00  0.00    -0.328 N 
ATOM     11  C   UNL d   1       0.342   4.710   0.032  0.00  0.00     0.146 A 
ATOM     12  C   UNL d   1      -1.574   3.514   1.114  0.00  0.00     0.159 C 
ATOM     13  N   UNL d   1       1.448   4.451  -0.625  0.00  0.00    -0.344 N 
ATOM     14  C   UNL d   1       1.466   3.091  -0.762  0.00  0.00     0.123 A 
ATOM     15  HN  UNL d   1       2.143   5.118  -0.960  1.00  0.00     0.167 HD
BRANCH  11  16
ATOM     16  S   UNL d   1      -0.213   6.302   0.444  0.00  0.00    -0.098 SA
ATOM     17  C   UNL d   1       1.093   7.319  -0.286  0.00  0.00     0.099 C 
ENDBRANCH  11  16
ENDBRANCH   1   9
BRANCH   5  18
ATOM     18  S   UNL d   1       0.612  -2.715   0.039  0.00  0.00    -0.088 SA
BRANCH  18  19
ATOM     19  C   UNL d   1      -0.725  -3.605  -0.812  0.00  0.00     0.121 C 
BRANCH  19  20
ATOM     20  C   UNL d   1      -0.515  -5.104  -0.808  0.00  0.00    -0.049 A 
ATOM     21  C   UNL d   1      -1.089  -5.902   0.195  0.00  0.00     0.008 A 
ATOM     22  C   UNL d   1      -0.931  -7.290   0.182  0.00  0.00     0.001 A 
ATOM     23  C   UNL d   1      -0.188  -7.899  -0.826  0.00  0.00     0.000 A 
ATOM     24  C   UNL d   1       0.403  -7.119  -1.821  0.00  0.00     0.001 A 
ATOM     25  C   UNL d   1       0.244  -5.730  -1.810  0.00  0.00     0.008 A 
ENDBRANCH  19  20
ENDBRANCH  18  19
ENDBRANCH   5  18
TORSDOF 5
