REMARK  7 active torsions:
REMARK  status: ('A' for Active; 'I' for Inactive)
REMARK    1  A    between atoms: C_2  and  S_1 
REMARK    2  A    between atoms: N_3  and  S_1 
REMARK    3  A    between atoms: C_4  and  C_7 
REMARK    4  A    between atoms: C_5  and  C_6 
REMARK    5  A    between atoms: C_13  and  C_16 
REMARK    6  A    between atoms: C_25  and  C_13 
REMARK    7  A    between atoms: C_26  and  C_13 
ROOT
ATOM      1  N   UNL d   1       0.372   1.334   0.688  0.00  0.00    -0.206 NA
ATOM      2  C   UNL d   1       1.124   2.560   0.293  0.00  0.00     0.108 C 
ATOM      3  C   UNL d   1      -1.111   1.524   0.653  0.00  0.00     0.108 C 
ATOM      4  C   UNL d   1      -0.818   4.034   1.047  0.00  0.00     0.001 C 
ATOM      5  C   UNL d   1       0.694   3.744   1.151  0.00  0.00     0.021 C 
ATOM      6  C   UNL d   1      -1.533   2.736   1.483  0.00  0.00     0.021 C 
ENDROOT
BRANCH   1   7
ATOM      7  S   UNL d   1       0.852  -0.074  -0.179  0.00  0.00     0.243 S 
ATOM      8  O   UNL d   1       0.004  -1.173   0.232  0.00  0.00    -0.206 OA
ATOM      9  O   UNL d   1       0.985   0.293  -1.571  0.00  0.00    -0.206 OA
BRANCH   7  10
ATOM     10  C   UNL d   1       2.473  -0.436   0.464  0.00  0.00     0.076 A 
ATOM     11  C   UNL d   1       2.598  -0.748   1.822  0.00  0.00     0.041 A 
ATOM     12  C   UNL d   1       3.829  -1.183   2.333  0.00  0.00     0.050 A 
ATOM     13  C   UNL d   1       4.928  -1.285   1.460  0.00  0.00     0.032 A 
ATOM     14  C   UNL d   1       4.809  -0.977   0.091  0.00  0.00     0.050 A 
ATOM     15  C   UNL d   1       3.568  -0.539  -0.401  0.00  0.00     0.041 A 
BRANCH  12  16
ATOM     16  C   UNL d   1       3.971  -1.591   3.782  0.00  0.00     0.417 C 
ATOM     17  F   UNL d   1       2.816  -1.487   4.493  0.00  0.00    -0.166 F 
ATOM     18  F   UNL d   1       4.380  -2.883   3.915  0.00  0.00    -0.166 F 
ATOM     19  F   UNL d   1       4.890  -0.837   4.445  0.00  0.00    -0.166 F 
ENDBRANCH  12  16
BRANCH  14  20
ATOM     20  C   UNL d   1       5.995  -1.172  -0.828  0.00  0.00     0.417 C 
ATOM     21  F   UNL d   1       5.725  -0.898  -2.133  0.00  0.00    -0.166 F 
ATOM     22  F   UNL d   1       7.051  -0.384  -0.487  0.00  0.00    -0.166 F 
ATOM     23  F   UNL d   1       6.459  -2.452  -0.801  0.00  0.00    -0.166 F 
ENDBRANCH  14  20
ENDBRANCH   7  10
ENDBRANCH   1   7
BRANCH   4  24
ATOM     24  C   UNL d   1      -1.298   4.530  -0.367  0.00  0.00     0.056 C 
BRANCH  24  25
ATOM     25  C   UNL d   1      -2.794   4.859  -0.377  0.00  0.00    -0.049 A 
ATOM     26  C   UNL d   1      -3.333   5.848   0.462  0.00  0.00     0.008 A 
ATOM     27  C   UNL d   1      -4.697   6.145   0.433  0.00  0.00     0.001 A 
ATOM     28  C   UNL d   1      -5.542   5.460  -0.436  0.00  0.00     0.000 A 
ATOM     29  C   UNL d   1      -5.025   4.476  -1.275  0.00  0.00     0.001 A 
ATOM     30  C   UNL d   1      -3.661   4.177  -1.248  0.00  0.00     0.008 A 
ENDBRANCH  24  25
BRANCH  24  31
ATOM     31  C   UNL d   1      -0.496   5.673  -0.992  0.00  0.00    -0.049 A 
ATOM     32  C   UNL d   1      -0.335   5.706  -2.390  0.00  0.00     0.008 A 
ATOM     33  C   UNL d   1       0.398   6.721  -3.007  0.00  0.00     0.001 A 
ATOM     34  C   UNL d   1       0.979   7.725  -2.237  0.00  0.00     0.000 A 
ATOM     35  C   UNL d   1       0.805   7.726  -0.855  0.00  0.00     0.001 A 
ATOM     36  C   UNL d   1       0.062   6.716  -0.238  0.00  0.00     0.008 A 
ENDBRANCH  24  31
ENDBRANCH   4  24
TORSDOF 7
