REMARK  4 active torsions:
REMARK  status: ('A' for Active; 'I' for Inactive)
REMARK    1  A    between atoms: C_4  and  C_1 
REMARK       I    between atoms: N_12  and  C_4 
REMARK    2  A    between atoms: C_6  and  C_18 
REMARK    3  A    between atoms: C_17  and  N_12 
REMARK    4  A    between atoms: C_18  and  C_17 
ROOT
ATOM      1  C   UNL d   1      -3.957  -4.021  -1.364  0.00  0.00     0.253 C 
ATOM      2  O   UNL d   1      -3.029  -4.145  -0.570  0.00  0.00    -0.268 OA
ATOM      3  N   UNL d   1      -4.944  -3.084  -1.176  0.00  0.00    -0.357 N 
ATOM      4  H   UNL d   1      -5.768  -3.105  -1.768  0.00  0.00     0.162 HD
ENDROOT
BRANCH   3   5
ATOM      5  C   UNL d   1      -4.997  -2.260   0.017  0.00  0.00     0.127 C 
BRANCH   5   6
ATOM      6  C   UNL d   1      -6.192  -1.302   0.023  0.00  0.00     0.060 C 
BRANCH   6   7
ATOM      7  C   UNL d   1      -7.518  -2.006   0.014  0.00  0.00    -0.029 A 
ATOM      8  C   UNL d   1      -7.995  -2.865   0.986  0.00  0.00     0.096 A 
ATOM      9  N   UNL d   1      -9.230  -3.310   0.603  0.00  0.00    -0.365 N 
ATOM     10  C   UNL d   1      -9.582  -2.756  -0.605  0.00  0.00     0.042 A 
ATOM     11  H   UNL d   1      -9.807  -3.954   1.126  0.00  0.00     0.165 HD
ATOM     12  C   UNL d   1      -8.530  -1.927  -0.998  0.00  0.00    -0.002 A 
ATOM     13  C   UNL d   1     -10.742  -2.926  -1.370  0.00  0.00     0.030 A 
ATOM     14  C   UNL d   1      -8.650  -1.230  -2.219  0.00  0.00     0.014 A 
ATOM     15  C   UNL d   1      -9.803  -1.391  -2.998  0.00  0.00     0.001 A 
ATOM     16  C   UNL d   1     -10.832  -2.228  -2.577  0.00  0.00     0.002 A 
ENDBRANCH   6   7
ENDBRANCH   5   6
ENDBRANCH   3   5
BRANCH   1  17
ATOM     17  C   UNL d   1      -4.029  -4.912  -2.571  0.00  0.00     0.053 A 
ATOM     18  C   UNL d   1      -5.015  -4.894  -3.573  0.00  0.00     0.051 A 
ATOM     19  C   UNL d   1      -4.941  -5.780  -4.660  0.00  0.00     0.048 A 
ATOM     20 CL   UNL d   1      -6.377  -3.829  -3.597  0.00  0.00    -0.083 Cl
ATOM     21  C   UNL d   1      -3.891  -6.687  -4.759  0.00  0.00     0.035 A 
ATOM     22  C   UNL d   1      -2.908  -6.726  -3.780  0.00  0.00     0.025 A 
ATOM     23 CL   UNL d   1      -3.810  -7.758  -6.102  0.00  0.00    -0.084 Cl
ATOM     24  C   UNL d   1      -2.979  -5.846  -2.696  0.00  0.00     0.020 A 
ENDBRANCH   1  17
TORSDOF 4
