REMARK  6 active torsions:
REMARK  status: ('A' for Active; 'I' for Inactive)
REMARK    1  A    between atoms: S_2  and  C_1 
REMARK    2  A    between atoms: C_14  and  S_2 
REMARK    3  A    between atoms: S_17  and  C_3 
REMARK    4  A    between atoms: C_7  and  C_5 
REMARK       I    between atoms: N_10  and  C_7 
REMARK    5  A    between atoms: C_8  and  C_9 
REMARK       I    between atoms: C_9  and  N_11 
REMARK    6  A    between atoms: N_11  and  N_10 
ROOT
ATOM      1  C   UNL d   1      -0.223  -2.641  -0.052  0.00  0.00     0.277 C 
ATOM      2  N   UNL d   1      -1.540  -2.983  -0.289  0.00  0.00    -0.263 N 
ATOM      3  O   UNL d   1       0.619  -3.526   0.126  0.00  0.00    -0.265 OA
ATOM      4  H   UNL d   1      -2.286  -2.311  -0.468  0.00  0.00     0.190 HD
ENDROOT
BRANCH   1   5
ATOM      5  C   UNL d   1       0.128  -1.229  -0.043  0.00  0.00     0.077 A 
ATOM      6  C   UNL d   1       1.385  -0.729   0.207  0.00  0.00     0.050 A 
ATOM      7  C   UNL d   1       1.492   0.698   0.065  0.00  0.00     0.084 A 
ATOM      8  C   UNL d   1       0.285   1.262  -0.319  0.00  0.00     0.063 A 
ATOM      9  S   UNL d   1      -0.956   0.035  -0.372  0.00  0.00    -0.076 SA
BRANCH   7  10
ATOM     10  S   UNL d   1       3.059   1.428   0.266  0.00  0.00     0.180 S 
ATOM     11  O   UNL d   1       2.822   2.669   0.968  0.00  0.00    -0.222 OA
ATOM     12  O   UNL d   1       3.871   0.390   0.872  0.00  0.00    -0.222 OA
BRANCH  10  13
ATOM     13  C   UNL d   1       3.678   1.748  -1.387  0.00  0.00     0.105 C 
ATOM     14  C   UNL d   1       5.104   2.294  -1.289  0.00  0.00     0.026 C 
ATOM     15  C   UNL d   1       3.666   0.493  -2.255  0.00  0.00     0.026 C 
ENDBRANCH  10  13
ENDBRANCH   7  10
BRANCH   8  16
ATOM     16  S   UNL d   1      -0.212   2.853  -0.897  0.00  0.00    -0.126 SA
ATOM     17  C   UNL d   1       0.592   4.103   0.109  0.00  0.00     0.096 C 
ENDBRANCH   8  16
ENDBRANCH   1   5
BRANCH   2  18
ATOM     18  N   UNL d   1      -1.861  -4.345  -0.340  0.00  0.00    -0.263 N 
ATOM     19  C   UNL d   1      -3.165  -4.730  -0.545  0.00  0.00     0.271 C 
ATOM     20  O   UNL d   1      -4.057  -3.910  -0.743  0.00  0.00    -0.266 OA
ATOM     21  H   UNL d   1      -1.100  -4.997  -0.129  0.00  0.00     0.190 HD
BRANCH  19  22
ATOM     22  C   UNL d   1      -3.462  -6.198  -0.583  0.00  0.00     0.055 A 
ATOM     23  C   UNL d   1      -2.692  -7.205   0.022  0.00  0.00     0.049 A 
ATOM     24 CL   UNL d   1      -1.294  -6.903   0.995  0.00  0.00    -0.083 Cl
ATOM     25  C   UNL d   1      -3.061  -8.553  -0.115  0.00  0.00     0.025 A 
ATOM     26  C   UNL d   1      -4.199  -8.908  -0.838  0.00  0.00     0.002 A 
ATOM     27  C   UNL d   1      -4.980  -7.919  -1.424  0.00  0.00     0.001 A 
ATOM     28  C   UNL d   1      -4.616  -6.576  -1.295  0.00  0.00     0.019 A 
ENDBRANCH  19  22
ENDBRANCH   2  18
TORSDOF 6
