REMARK  6 active torsions:
REMARK  status: ('A' for Active; 'I' for Inactive)
REMARK    1  A    between atoms: C_15  and  N_1 
REMARK    2  A    between atoms: S_12  and  C_2 
REMARK    3  A    between atoms: S_13  and  C_3 
REMARK       I    between atoms: C_8  and  N_14 
REMARK    4  A    between atoms: C_9  and  C_8 
REMARK    5  A    between atoms: N_14  and  C_18 
REMARK    6  A    between atoms: C_18  and  C_15 
ROOT
ATOM      1  C   UNL d   1      -0.554  -2.645  -0.049  0.00  0.00     0.153 C 
ENDROOT
BRANCH   1   2
ATOM      2  N   UNL d   1      -0.213  -1.237  -0.164  0.00  0.00    -0.304 N 
ATOM      3  C   UNL d   1      -0.117  -0.476  -1.302  0.00  0.00     0.163 A 
ATOM      4  N   UNL d   1       0.302   0.732  -0.999  0.00  0.00    -0.278 N 
ATOM      5  N   UNL d   1       0.444   0.799   0.358  0.00  0.00    -0.278 N 
ATOM      6  HN  UNL d   1       0.489   1.486  -1.661  1.00  0.00     0.189 HD
ATOM      7  C   UNL d   1       0.107  -0.370   0.852  0.00  0.00     0.163 A 
ATOM      8  HN  UNL d   1       0.756   1.610   0.892  1.00  0.00     0.189 HD
BRANCH   3   9
ATOM      9  S   UNL d   1      -0.531  -1.018  -2.890  0.00  0.00    -0.097 SA
ATOM     10  C   UNL d   1      -0.248   0.504  -3.832  0.00  0.00     0.099 C 
ENDBRANCH   3   9
BRANCH   7  11
ATOM     11  S   UNL d   1       0.060  -0.763   2.536  0.00  0.00    -0.097 SA
ATOM     12  C   UNL d   1       0.427   0.866   3.244  0.00  0.00     0.099 C 
ENDBRANCH   7  11
ENDBRANCH   1   2
BRANCH   1  13
ATOM     13  C   UNL d   1       0.694  -3.518   0.095  0.00  0.00     0.143 C 
BRANCH  13  14
ATOM     14  N   UNL d   1       0.411  -4.933   0.309  0.00  0.00    -0.355 N 
ATOM     15  C   UNL d   1       0.394  -5.823  -0.746  0.00  0.00     0.251 C 
ATOM     16  O   UNL d   1       0.391  -5.442  -1.912  0.00  0.00    -0.268 OA
ATOM     17  H   UNL d   1       0.332  -5.254   1.263  0.00  0.00     0.162 HD
BRANCH  15  18
ATOM     18  C   UNL d   1       0.416  -7.293  -0.443  0.00  0.00     0.033 A 
ATOM     19  C   UNL d   1       0.624  -7.815   0.840  0.00  0.00     0.041 A 
ATOM     20  C   UNL d   1       0.693  -9.202   1.023  0.00  0.00     0.035 A 
ATOM     21 CL   UNL d   1       0.960  -9.834   2.603  0.00  0.00    -0.084 Cl
ATOM     22  C   UNL d   1       0.564 -10.077  -0.052  0.00  0.00     0.024 A 
ATOM     23  C   UNL d   1       0.360  -9.567  -1.331  0.00  0.00     0.003 A 
ATOM     24  C   UNL d   1       0.286  -8.183  -1.525  0.00  0.00     0.017 A 
ENDBRANCH  15  18
ENDBRANCH  13  14
ENDBRANCH   1  13
TORSDOF 6
