REMARK  4 active torsions:
REMARK  status: ('A' for Active; 'I' for Inactive)
REMARK    1  A    between atoms: C_3  and  C_1 
REMARK    2  A    between atoms: C_8  and  C_2 
REMARK    3  A    between atoms: C_19  and  C_9 
REMARK    4  A    between atoms: C_12  and  C_18 
ROOT
ATOM      1  C   UNL d   1       0.314  -2.703  -0.042  0.00  0.00     0.054 A 
ATOM      2  N   UNL d   1       1.069  -3.237   0.983  0.00  0.00    -0.349 N 
ATOM      3  HN  UNL d   1       1.374  -2.721   1.809  1.00  0.00     0.166 HD
ATOM      4  C   UNL d   1       1.342  -4.506   0.748  0.00  0.00     0.084 A 
ATOM      5  S   UNL d   1       0.642  -5.129  -0.703  0.00  0.00    -0.081 SA
ATOM      6  C   UNL d   1      -0.021  -3.593  -1.041  0.00  0.00     0.082 A 
ENDROOT
BRANCH   1   7
ATOM      7  C   UNL d   1      -0.039  -1.285  -0.010  0.00  0.00     0.052 A 
ATOM      8  C   UNL d   1       0.740  -0.194   0.497  0.00  0.00     0.081 A 
ATOM      9  N   UNL d   1       0.081   0.959   0.280  0.00  0.00    -0.259 N 
ATOM     10  O   UNL d   1      -1.115   0.636  -0.314  0.00  0.00    -0.241 OA
ATOM     11  HN  UNL d   1       0.408   1.896   0.513  1.00  0.00     0.195 HD
ATOM     12  C   UNL d   1      -1.184  -0.704  -0.506  0.00  0.00     0.087 A 
ATOM     13  C   UNL d   1      -2.405  -1.198  -1.171  0.00  0.00     0.080 C 
BRANCH   8  14
ATOM     14  C   UNL d   1       2.094  -0.171   1.074  0.00  0.00     0.015 A 
ATOM     15  C   UNL d   1       2.470   0.675   2.138  0.00  0.00     0.048 A 
ATOM     16  C   UNL d   1       3.791   0.684   2.613  0.00  0.00     0.048 A 
ATOM     17 CL   UNL d   1       1.366   1.723   2.965  0.00  0.00    -0.083 Cl
ATOM     18  C   UNL d   1       4.740  -0.164   2.054  0.00  0.00     0.035 A 
ATOM     19  C   UNL d   1       4.393  -1.012   1.012  0.00  0.00     0.025 A 
ATOM     20 CL   UNL d   1       6.352  -0.165   2.655  0.00  0.00    -0.084 Cl
ATOM     21  C   UNL d   1       3.087  -0.998   0.514  0.00  0.00     0.017 A 
ENDBRANCH   8  14
ENDBRANCH   1   7
BRANCH   4  22
ATOM     22  C   UNL d   1       2.127  -5.376   1.643  0.00  0.00    -0.002 A 
ATOM     23  C   UNL d   1       2.168  -5.091   3.015  0.00  0.00     0.015 A 
ATOM     24  C   UNL d   1       2.852  -5.928   3.905  0.00  0.00     0.017 A 
ATOM     25  C   UNL d   1       3.525  -7.066   3.440  0.00  0.00     0.048 A 
ATOM     26  C   UNL d   1       3.528  -7.328   2.062  0.00  0.00     0.017 A 
ATOM     27  C   UNL d   1       2.842  -6.492   1.176  0.00  0.00     0.015 A 
BRANCH  25  28
ATOM     28  C   UNL d   1       4.226  -8.011   4.383  0.00  0.00     0.417 C 
ATOM     29  F   UNL d   1       4.130  -7.650   5.694  0.00  0.00    -0.166 F 
ATOM     30  F   UNL d   1       3.728  -9.276   4.309  0.00  0.00    -0.166 F 
ATOM     31  F   UNL d   1       5.557  -8.119   4.121  0.00  0.00    -0.166 F 
ENDBRANCH  25  28
ENDBRANCH   4  22
TORSDOF 4
