REMARK  2 active torsions:
REMARK  status: ('A' for Active; 'I' for Inactive)
REMARK    1  A    between atoms: C_3  and  C_1 
REMARK       I    between atoms: N_5  and  C_3 
REMARK    2  A    between atoms: C_8  and  N_6 
ROOT
ATOM      1  C   UNL d   1       3.523  -1.469  -0.096  0.00  0.00     0.260 C 
ATOM      2  N   UNL d   1       3.752  -2.857   0.001  0.00  0.00    -0.344 N 
ATOM      3  N   UNL d   1       4.690  -5.537  -0.093  0.00  0.00    -0.364 N 
ATOM      4  C   UNL d   1       3.177  -3.846  -0.927  0.00  0.00     0.146 C 
ATOM      5  C   UNL d   1       4.979  -3.259   0.723  0.00  0.00     0.146 C 
ATOM      6  O   UNL d   1       4.100  -0.700   0.674  0.00  0.00    -0.267 OA
ATOM      7  C   UNL d   1       3.292  -5.304  -0.465  0.00  0.00     0.144 C 
ATOM      8  C   UNL d   1       5.071  -4.758   1.089  0.00  0.00     0.144 C 
ENDROOT
BRANCH   1   9
ATOM      9  C   UNL d   1       2.601  -0.971  -1.118  0.00  0.00     0.074 A 
ATOM     10  S   UNL d   1       1.545   0.317  -0.712  0.00  0.00    -0.084 SA
ATOM     11  C   UNL d   1       0.809   0.328  -2.268  0.00  0.00     0.016 A 
ATOM     12  C   UNL d   1      -0.236   1.160  -2.712  0.00  0.00     0.019 A 
ATOM     13  C   UNL d   1       1.382  -0.628  -3.106  0.00  0.00    -0.018 A 
ATOM     14  C   UNL d   1      -0.727   0.995  -4.010  0.00  0.00     0.001 A 
ATOM     15  C   UNL d   1      -0.190   0.030  -4.851  0.00  0.00     0.001 A 
ATOM     16  C   UNL d   1       0.866  -0.774  -4.417  0.00  0.00     0.013 A 
ATOM     17  C   UNL d   1       2.459  -1.309  -2.451  0.00  0.00     0.037 A 
ENDBRANCH   1   9
BRANCH   3  18
ATOM     18  C   UNL d   1       5.178  -6.828  -0.216  0.00  0.00     0.102 A 
ATOM     19  N   UNL d   1       5.733  -7.446   0.844  0.00  0.00    -0.352 N 
ATOM     20  C   UNL d   1       6.274  -8.673   0.655  0.00  0.00     0.089 A 
ATOM     21  HN  UNL d   1       5.745  -7.003   1.763  1.00  0.00     0.166 HD
ATOM     22  C   UNL d   1       6.311  -9.327  -0.563  0.00  0.00     0.017 A 
ATOM     23  C   UNL d   1       5.750  -8.688  -1.656  0.00  0.00     0.005 A 
ATOM     24  C   UNL d   1       5.178  -7.432  -1.478  0.00  0.00     0.048 A 
ENDBRANCH   3  18
TORSDOF 2
