REMARK  4 active torsions:
REMARK  status: ('A' for Active; 'I' for Inactive)
REMARK    1  A    between atoms: C_2  and  C_1 
REMARK    2  A    between atoms: S_7  and  C_5 
REMARK    3  A    between atoms: C_14  and  S_7 
REMARK    4  A    between atoms: C_15  and  C_14 
ROOT
ATOM      1  C   UNL d   1       0.258  -1.672   0.583  0.00  0.00     0.063 A 
ATOM      2  N   UNL d   1      -0.157  -3.645   1.919  0.00  0.00    -0.360 N 
ATOM      3  HN  UNL d   1      -0.278  -4.656   1.978  1.00  0.00     0.166 HD
ATOM      4  C   UNL d   1      -0.226  -2.869   3.023  0.00  0.00     0.069 A 
ATOM      5  C   UNL d   1       0.077  -3.038   0.733  0.00  0.00     0.105 A 
ATOM      6  C   UNL d   1       0.176  -0.887   1.736  0.00  0.00     0.020 A 
ATOM      7  C   UNL d   1      -0.075  -1.488   2.970  0.00  0.00     0.038 A 
ENDROOT
BRANCH   4   8
ATOM      8  S   UNL d   1      -0.545  -3.661   4.588  0.00  0.00    -0.108 SA
BRANCH   8   9
ATOM      9  C   UNL d   1       0.078  -5.327   4.209  0.00  0.00     0.119 C 
BRANCH   9  10
ATOM     10  C   UNL d   1      -0.112  -6.290   5.358  0.00  0.00    -0.048 A 
ATOM     11  C   UNL d   1      -1.274  -7.073   5.437  0.00  0.00     0.009 A 
ATOM     12  C   UNL d   1      -1.436  -8.002   6.468  0.00  0.00     0.024 A 
ATOM     13  C   UNL d   1      -0.442  -8.145   7.432  0.00  0.00     0.034 A 
ATOM     14  C   UNL d   1       0.708  -7.360   7.381  0.00  0.00     0.024 A 
ATOM     15 CL   UNL d   1      -0.631  -9.306   8.688  0.00  0.00    -0.084 Cl
ATOM     16  C   UNL d   1       0.872  -6.432   6.349  0.00  0.00     0.009 A 
ENDBRANCH   9  10
ENDBRANCH   8   9
ENDBRANCH   4   8
BRANCH   1  17
ATOM     17  C   UNL d   1       0.538  -1.079  -0.763  0.00  0.00     0.418 C 
ATOM     18  F   UNL d   1       0.548  -1.995  -1.771  0.00  0.00    -0.166 F 
ATOM     19  F   UNL d   1       1.747  -0.457  -0.813  0.00  0.00    -0.166 F 
ATOM     20  F   UNL d   1      -0.381  -0.141  -1.122  0.00  0.00    -0.166 F 
ENDBRANCH   1  17
TORSDOF 4
