REMARK  9 active torsions:
REMARK  status: ('A' for Active; 'I' for Inactive)
REMARK    1  A    between atoms: C_8  and  C_1 
REMARK    2  A    between atoms: C_14  and  C_4 
REMARK    3  A    between atoms: S_12  and  C_6 
REMARK    4  A    between atoms: O_24  and  C_8 
REMARK    5  A    between atoms: C_11  and  N_15 
REMARK    6  A    between atoms: C_23  and  S_12 
REMARK    7  A    between atoms: C_13  and  C_23 
REMARK       I    between atoms: N_15  and  C_13 
REMARK    8  A    between atoms: O_27  and  C_14 
REMARK    9  A    between atoms: O_28  and  C_14 
ROOT
ATOM      1  C   UNL d   1      -1.511   1.427   0.092  0.00  0.00     0.068 A 
ATOM      2  N   UNL d   1      -1.317  -0.967   0.386  0.00  0.00    -0.348 N 
ATOM      3  HN  UNL d   1      -1.759  -1.882   0.464  1.00  0.00     0.166 HD
ATOM      4  C   UNL d   1      -2.091   0.159   0.181  0.00  0.00     0.082 A 
ATOM      5  C   UNL d   1       0.669   0.364   0.307  0.00  0.00     0.079 A 
ATOM      6  C   UNL d   1       0.029  -0.857   0.482  0.00  0.00     0.091 A 
ATOM      7  C   UNL d   1      -0.110   1.510   0.115  0.00  0.00     0.045 A 
ATOM      8  C   UNL d   1       2.088   0.497   0.361  0.00  0.00     0.102 C 
ATOM      9  N   UNL d   1       3.242   0.643   0.398  0.00  0.00    -0.191 NA
ENDROOT
BRANCH   6  10
ATOM     10  S   UNL d   1       0.919  -2.317   1.034  0.00  0.00    -0.101 SA
BRANCH  10  11
ATOM     11  C   UNL d   1      -0.094  -3.628   0.291  0.00  0.00     0.184 C 
BRANCH  11  12
ATOM     12  C   UNL d   1       0.325  -5.047   0.674  0.00  0.00     0.231 C 
ATOM     13  N   UNL d   1       1.113  -5.188   1.806  0.00  0.00    -0.326 N 
ATOM     14  H   UNL d   1       1.338  -4.328   2.298  0.00  0.00     0.169 HD
ATOM     15  O   UNL d   1      -0.118  -5.988   0.014  0.00  0.00    -0.272 OA
BRANCH  13  16
ATOM     16  C   UNL d   1       1.538  -6.403   2.399  0.00  0.00     0.037 A 
ATOM     17  C   UNL d   1       1.404  -7.652   1.783  0.00  0.00     0.053 A 
ATOM     18  C   UNL d   1       1.779  -8.820   2.452  0.00  0.00     0.037 A 
ATOM     19 CL   UNL d   1       1.586 -10.347   1.678  0.00  0.00    -0.084 Cl
ATOM     20  C   UNL d   1       2.298  -8.767   3.740  0.00  0.00     0.048 A 
ATOM     21  C   UNL d   1       2.466  -7.526   4.344  0.00  0.00     0.037 A 
ATOM     22  C   UNL d   1       2.103  -6.348   3.679  0.00  0.00     0.053 A 
ATOM     23 CL   UNL d   1       3.106  -7.444   5.940  0.00  0.00    -0.084 Cl
ENDBRANCH  13  16
ENDBRANCH  11  12
ENDBRANCH  10  11
ENDBRANCH   6  10
BRANCH   1  24
ATOM     24  C   UNL d   1      -2.309   2.682   0.138  0.00  0.00     0.295 C 
ATOM     25  O   UNL d   1      -3.414   2.765   0.645  0.00  0.00    -0.259 OA
BRANCH  24  26
ATOM     26  O   UNL d   1      -1.584   3.725  -0.338  0.00  0.00    -0.322 OA
ATOM     27  C   UNL d   1      -2.161   5.012  -0.089  0.00  0.00     0.213 C 
ENDBRANCH  24  26
ENDBRANCH   1  24
BRANCH   4  28
ATOM     28  C   UNL d   1      -3.596  -0.072  -0.021  0.00  0.00     0.310 C 
BRANCH  28  29
ATOM     29  O   UNL d   1      -3.791  -0.258  -1.433  0.00  0.00    -0.360 OA
ATOM     30  C   UNL d   1      -5.168  -0.374  -1.771  0.00  0.00     0.205 C 
ENDBRANCH  28  29
BRANCH  28  31
ATOM     31  O   UNL d   1      -4.075  -1.218   0.699  0.00  0.00    -0.360 OA
ATOM     32  C   UNL d   1      -4.029  -1.032   2.107  0.00  0.00     0.205 C 
ENDBRANCH  28  31
ENDBRANCH   4  28
TORSDOF 9
