REMARK  3 active torsions:
REMARK  status: ('A' for Active; 'I' for Inactive)
REMARK    1  A    between atoms: C_3  and  C_1 
REMARK    2  A    between atoms: N_2  and  C_7 
REMARK       I    between atoms: N_14  and  C_3 
REMARK    3  A    between atoms: C_11  and  C_4 
ROOT
ATOM      1  C   UNL d   1       1.198   1.677   0.716  0.00  0.00     0.112 C 
ATOM      2  C   UNL d   1       0.312   0.952   0.002  0.00  0.00     0.039 C 
ATOM      3  C   UNL d   1       0.801   2.644   1.674  0.00  0.00     0.105 C 
ATOM      4  N   UNL d   1       0.531   3.444   2.473  0.00  0.00    -0.191 NA
ENDROOT
BRANCH   1   5
ATOM      5  C   UNL d   1       2.653   1.449   0.451  0.00  0.00     0.260 C 
ATOM      6  O   UNL d   1       3.059   0.640  -0.377  0.00  0.00    -0.267 OA
ATOM      7  N   UNL d   1       3.543   2.196   1.164  0.00  0.00    -0.365 N 
ATOM      8  H   UNL d   1       3.303   2.896   1.856  0.00  0.00     0.159 HD
ATOM      9  H   UNL d   1       4.528   2.057   0.969  0.00  0.00     0.159 HD
ENDBRANCH   1   5
BRANCH   2  10
ATOM     10  C   UNL d   1      -1.148   1.086   0.077  0.00  0.00    -0.035 A 
ATOM     11  C   UNL d   1      -1.812   1.963  -0.792  0.00  0.00     0.014 A 
ATOM     12  C   UNL d   1      -3.207   2.083  -0.753  0.00  0.00     0.037 A 
ATOM     13  C   UNL d   1      -3.941   1.309   0.154  0.00  0.00     0.102 A 
ATOM     14  C   UNL d   1      -3.285   0.441   1.037  0.00  0.00     0.037 A 
ATOM     15  C   UNL d   1      -1.890   0.339   1.001  0.00  0.00     0.014 A 
BRANCH  13  16
ATOM     16  N   UNL d   1      -5.408   1.399   0.175  0.00  0.00    -0.116 N 
ATOM     17  O   UNL d   1      -5.950   2.175  -0.625  0.00  0.00    -0.532 OA
ATOM     18  O   UNL d   1      -6.018   0.687   0.986  0.00  0.00    -0.532 OA
ENDBRANCH  13  16
ENDBRANCH   2  10
TORSDOF 3
