REMARK  7 active torsions:
REMARK  status: ('A' for Active; 'I' for Inactive)
REMARK    1  A    between atoms: C_2  and  S_1 
REMARK    2  A    between atoms: C_3  and  S_1 
REMARK    3  A    between atoms: C_4  and  C_3 
REMARK    4  A    between atoms: N_17  and  C_4 
REMARK    5  A    between atoms: C_5  and  O_13 
REMARK       I    between atoms: N_11  and  C_5 
REMARK    6  A    between atoms: O_13  and  N_6 
REMARK    7  A    between atoms: C_18  and  N_11 
ROOT
ATOM      1  C   UNL d   1       0.901  -1.228  -2.293  0.00  0.00     0.110 C 
ATOM      2  N   UNL d   1       1.581  -0.264  -2.831  0.00  0.00    -0.243 N 
ATOM      3  HN  UNL d   1       2.061  -0.335  -3.729  1.00  0.00     0.196 HD
ENDROOT
BRANCH   2   4
ATOM      4  O   UNL d   1       1.579   0.894  -2.029  0.00  0.00    -0.179 OA
BRANCH   4   5
ATOM      5  C   UNL d   1       2.736   1.590  -2.237  0.00  0.00     0.387 C 
ATOM      6  N   UNL d   1       2.615   2.940  -2.458  0.00  0.00    -0.301 N 
ATOM      7  H   UNL d   1       3.526   3.355  -2.608  0.00  0.00     0.171 HD
ATOM      8  O   UNL d   1       3.854   1.076  -2.230  0.00  0.00    -0.236 OA
BRANCH   6   9
ATOM      9  C   UNL d   1       1.498   3.785  -2.593  0.00  0.00     0.037 A 
ATOM     10  C   UNL d   1       0.171   3.391  -2.419  0.00  0.00     0.031 A 
ATOM     11  C   UNL d   1      -0.872   4.318  -2.541  0.00  0.00     0.026 A 
ATOM     12  C   UNL d   1      -0.592   5.648  -2.840  0.00  0.00     0.034 A 
ATOM     13  C   UNL d   1       0.720   6.054  -3.044  0.00  0.00     0.026 A 
ATOM     14 CL   UNL d   1      -1.874   6.791  -2.946  0.00  0.00    -0.084 Cl
ATOM     15  C   UNL d   1       1.760   5.126  -2.921  0.00  0.00     0.031 A 
ENDBRANCH   6   9
ENDBRANCH   4   5
ENDBRANCH   2   4
BRANCH   1  16
ATOM     16  C   UNL d   1       0.707  -2.461  -3.134  0.00  0.00     0.223 C 
BRANCH  16  17
ATOM     17  S   UNL d   1      -0.862  -2.431  -3.954  0.00  0.00     0.188 S 
ATOM     18  O   UNL d   1      -0.932  -3.587  -4.828  0.00  0.00    -0.222 OA
ATOM     19  O   UNL d   1      -1.906  -2.174  -2.977  0.00  0.00    -0.222 OA
BRANCH  17  20
ATOM     20  C   UNL d   1      -0.803  -1.043  -5.067  0.00  0.00     0.100 A 
ATOM     21  S   UNL d   1      -1.319   0.472  -4.459  0.00  0.00    -0.090 SA
ATOM     22  C   UNL d   1      -0.866   1.278  -5.897  0.00  0.00     0.051 A 
ATOM     23  C   UNL d   1      -0.431   0.401  -6.863  0.00  0.00     0.009 A 
ATOM     24  C   UNL d   1      -0.416  -0.944  -6.391  0.00  0.00     0.031 A 
ENDBRANCH  17  20
ENDBRANCH  16  17
ENDBRANCH   1  16
BRANCH   1  25
ATOM     25  N   UNL d   1       0.376  -1.204  -1.024  0.00  0.00    -0.387 N 
ATOM     26  H   UNL d   1      -0.455  -1.760  -0.833  0.00  0.00     0.157 HD
ATOM     27  H   UNL d   1       0.373  -0.294  -0.572  0.00  0.00     0.157 HD
ENDBRANCH   1  25
TORSDOF 7
