REMARK  4 active torsions:
REMARK  status: ('A' for Active; 'I' for Inactive)
REMARK    1  A    between atoms: C_2  and  C_1 
REMARK       I    between atoms: C_3  and  N_6 
REMARK    2  A    between atoms: C_15  and  C_3 
REMARK    3  A    between atoms: N_6  and  C_7 
REMARK    4  A    between atoms: C_11  and  C_15 
ROOT
ATOM      1  C   UNL d   1       5.251  -1.257  -0.180  0.00  0.00     0.226 C 
ATOM      2  N   UNL d   1       4.897  -1.330  -1.518  0.00  0.00    -0.327 N 
ATOM      3  O   UNL d   1       4.480  -1.116   0.767  0.00  0.00    -0.273 OA
ATOM      4  H   UNL d   1       5.635  -1.580  -2.166  0.00  0.00     0.169 HD
ENDROOT
BRANCH   1   5
ATOM      5  C   UNL d   1       6.748  -1.387   0.057  0.00  0.00     0.141 C 
BRANCH   5   6
ATOM      6  C   UNL d   1       7.221  -2.819   0.112  0.00  0.00    -0.049 A 
ATOM      7  C   UNL d   1       8.302  -3.240  -0.675  0.00  0.00     0.020 A 
ATOM      8  C   UNL d   1       8.761  -4.569  -0.633  0.00  0.00    -0.025 A 
ATOM      9  C   UNL d   1       9.837  -4.999  -1.426  0.00  0.00     0.012 A 
ATOM     10  C   UNL d   1       8.124  -5.495   0.225  0.00  0.00    -0.026 A 
ATOM     11  C   UNL d   1      10.270  -6.326  -1.384  0.00  0.00     0.001 A 
ATOM     12  C   UNL d   1       9.636  -7.238  -0.548  0.00  0.00     0.001 A 
ATOM     13  C   UNL d   1       8.572  -6.825   0.256  0.00  0.00     0.012 A 
ATOM     14  C   UNL d   1       7.061  -5.062   1.030  0.00  0.00     0.013 A 
ATOM     15  C   UNL d   1       6.618  -3.739   0.979  0.00  0.00     0.008 A 
ENDBRANCH   5   6
ENDBRANCH   1   5
BRANCH   2  16
ATOM     16  C   UNL d   1       3.600  -1.212  -2.061  0.00  0.00     0.035 A 
ATOM     17  C   UNL d   1       2.475  -0.854  -1.315  0.00  0.00     0.047 A 
ATOM     18  C   UNL d   1       1.182  -0.774  -1.887  0.00  0.00     0.067 A 
ATOM     19  C   UNL d   1       1.046  -1.056  -3.249  0.00  0.00     0.026 A 
ATOM     20  C   UNL d   1       2.174  -1.393  -4.010  0.00  0.00     0.022 A 
ATOM     21 BR   UNL d   1      -0.606  -1.021  -4.181  0.00  0.00    -0.050 Br
ATOM     22  C   UNL d   1       3.440  -1.466  -3.422  0.00  0.00     0.031 A 
BRANCH  18  23
ATOM     23  C   UNL d   1       0.065  -0.387  -0.949  0.00  0.00     0.418 C 
ATOM     24  F   UNL d   1      -1.181  -0.313  -1.486  0.00  0.00    -0.166 F 
ATOM     25  F   UNL d   1      -0.046  -1.260   0.095  0.00  0.00    -0.166 F 
ATOM     26  F   UNL d   1       0.283   0.834  -0.380  0.00  0.00    -0.166 F 
ENDBRANCH  18  23
ENDBRANCH   2  16
TORSDOF 4
