REMARK  2 active torsions:
REMARK  status: ('A' for Active; 'I' for Inactive)
REMARK    1  A    between atoms: C_10  and  N_2 
REMARK    2  A    between atoms: C_15  and  C_10 
ROOT
ATOM      1  S   UNL d   1      -2.512   0.606  -0.693  0.00  0.00     0.240 S 
ATOM      2  N   UNL d   1      -1.274   1.378   0.163  0.00  0.00    -0.270 N 
ATOM      3  C   UNL d   1       0.005   0.706   0.119  0.00  0.00     0.060 A 
ATOM      4  C   UNL d   1      -2.514  -0.898   0.217  0.00  0.00     0.247 C 
ATOM      5  C   UNL d   1       0.061  -0.704   0.071  0.00  0.00     0.038 A 
ATOM      6  C   UNL d   1      -1.173  -1.545   0.092  0.00  0.00     0.177 C 
ATOM      7  O   UNL d   1      -2.061   0.358  -2.043  0.00  0.00    -0.205 OA
ATOM      8  O   UNL d   1      -3.766   1.281  -0.430  0.00  0.00    -0.205 OA
ATOM      9  C   UNL d   1       1.208   1.421   0.151  0.00  0.00     0.055 A 
ATOM     10  C   UNL d   1       1.298  -1.367   0.004  0.00  0.00     0.019 A 
ATOM     11  O   UNL d   1      -1.069  -2.772   0.095  0.00  0.00    -0.291 OA
ATOM     12  C   UNL d   1       2.433   0.750   0.085  0.00  0.00     0.036 A 
ATOM     13  C   UNL d   1       2.485  -0.637   0.004  0.00  0.00     0.025 A 
ATOM     14 CL   UNL d   1       3.897   1.656   0.091  0.00  0.00    -0.084 Cl
ENDROOT
BRANCH   2  15
ATOM     15  C   UNL d   1      -1.446   2.817   0.467  0.00  0.00     0.180 C 
BRANCH  15  16
ATOM     16  C   UNL d   1      -1.404   3.085   1.958  0.00  0.00    -0.039 A 
ATOM     17  C   UNL d   1      -0.400   3.887   2.517  0.00  0.00     0.009 A 
ATOM     18  C   UNL d   1      -0.304   4.039   3.902  0.00  0.00     0.001 A 
ATOM     19  C   UNL d   1      -1.220   3.409   4.741  0.00  0.00     0.000 A 
ATOM     20  C   UNL d   1      -2.262   2.663   4.195  0.00  0.00     0.001 A 
ATOM     21  C   UNL d   1      -2.359   2.508   2.811  0.00  0.00     0.009 A 
ENDBRANCH  15  16
ENDBRANCH   2  15
TORSDOF 2
