REMARK  3 active torsions:
REMARK  status: ('A' for Active; 'I' for Inactive)
REMARK    1  A    between atoms: C_14  and  C_5 
REMARK    2  A    between atoms: C_13  and  C_6 
REMARK    3  A    between atoms: C_11  and  C_13 
ROOT
ATOM      1  N   UNL d   1      -5.087  -2.412   0.835  0.00  0.00    -0.277 N 
ATOM      2  HN  UNL d   1      -5.910  -2.485   1.434  1.00  0.00     0.189 HD
ATOM      3  C   UNL d   1      -5.035  -1.875  -0.368  0.00  0.00     0.174 A 
ATOM      4  O   UNL d   1      -3.776  -1.942  -0.915  0.00  0.00    -0.277 OA
ATOM      5  N   UNL d   1      -3.813  -2.856   1.129  0.00  0.00    -0.281 N 
ATOM      6  HN  UNL d   1      -3.509  -3.319   1.985  1.00  0.00     0.189 HD
ATOM      7  C   UNL d   1      -3.070  -2.563   0.083  0.00  0.00     0.144 A 
ENDROOT
BRANCH   7   8
ATOM      8  C   UNL d   1      -1.602  -2.697  -0.097  0.00  0.00     0.126 C 
BRANCH   8   9
ATOM      9  C   UNL d   1      -1.162  -4.080  -0.495  0.00  0.00    -0.024 A 
ATOM     10  C   UNL d   1      -0.953  -4.553  -1.778  0.00  0.00     0.059 A 
ATOM     11  S   UNL d   1      -0.388  -6.156  -1.837  0.00  0.00    -0.075 SA
ATOM     12 BR   UNL d   1      -1.227  -3.558  -3.349  0.00  0.00    -0.042 Br
ATOM     13  C   UNL d   1      -0.408  -6.266  -0.150  0.00  0.00     0.053 A 
ATOM     14 BR   UNL d   1       0.128  -7.797   0.786  0.00  0.00    -0.043 Br
ATOM     15  C   UNL d   1      -0.846  -5.117   0.460  0.00  0.00     0.036 A 
ENDBRANCH   8   9
ENDBRANCH   7   8
BRANCH   3  16
ATOM     16  C   UNL d   1      -6.076  -1.210  -1.146  0.00  0.00     0.017 A 
ATOM     17  C   UNL d   1      -5.832  -0.704  -2.432  0.00  0.00     0.016 A 
ATOM     18  C   UNL d   1      -6.846  -0.062  -3.152  0.00  0.00     0.001 A 
ATOM     19  C   UNL d   1      -8.115   0.081  -2.597  0.00  0.00     0.000 A 
ATOM     20  C   UNL d   1      -8.374  -0.415  -1.321  0.00  0.00     0.001 A 
ATOM     21  C   UNL d   1      -7.359  -1.056  -0.601  0.00  0.00     0.016 A 
ENDBRANCH   3  16
TORSDOF 3
