REMARK  5 active torsions:
REMARK  status: ('A' for Active; 'I' for Inactive)
REMARK    1  A    between atoms: C_2  and  S_1 
REMARK    2  A    between atoms: N_9  and  S_1 
REMARK    3  A    between atoms: N_13  and  C_5 
REMARK    4  A    between atoms: C_16  and  N_9 
REMARK    5  A    between atoms: C_14  and  C_16 
ROOT
ATOM      1  N   UNL d   1       6.186   0.737  -2.923  0.00  0.00    -0.197 NA
ATOM      2  C   UNL d   1       5.052   0.939  -2.791  0.00  0.00     0.060 C 
ATOM      3  C   UNL d   1       3.616   1.190  -2.615  0.00  0.00     0.144 C 
ENDROOT
BRANCH   3   4
ATOM      4  C   UNL d   1       3.090   0.440  -1.394  0.00  0.00     0.146 C 
BRANCH   4   5
ATOM      5  N   UNL d   1       1.650   0.706  -1.210  0.00  0.00    -0.315 N 
ATOM      6  H   UNL d   1       1.317   1.665  -1.320  0.00  0.00     0.172 HD
BRANCH   5   7
ATOM      7  S   UNL d   1       0.895   0.004   0.131  0.00  0.00     0.258 S 
ATOM      8  O   UNL d   1       1.888  -0.141   1.170  0.00  0.00    -0.201 OA
ATOM      9  O   UNL d   1      -0.322   0.758   0.333  0.00  0.00    -0.201 OA
BRANCH   7  10
ATOM     10  C   UNL d   1       0.437  -1.600  -0.469  0.00  0.00     0.081 A 
ATOM     11  C   UNL d   1       1.042  -2.740   0.072  0.00  0.00     0.050 A 
ATOM     12  C   UNL d   1       0.684  -4.013  -0.385  0.00  0.00     0.029 A 
ATOM     13  C   UNL d   1      -0.363  -4.117  -1.322  0.00  0.00     0.055 A 
ATOM     14  C   UNL d   1      -0.977  -2.977  -1.850  0.00  0.00     0.027 A 
ATOM     15 CL   UNL d   1      -0.902  -5.667  -1.869  0.00  0.00    -0.082 Cl
ATOM     16  C   UNL d   1      -0.575  -1.710  -1.426  0.00  0.00     0.027 A 
BRANCH  12  17
ATOM     17  N   UNL d   1       1.213  -5.142   0.265  0.00  0.00    -0.301 NA
ATOM     18  H   UNL d   1       2.151  -5.025   0.636  0.00  0.00     0.124 HD
ATOM     19  H   UNL d   1       1.104  -5.999  -0.274  0.00  0.00     0.124 HD
ENDBRANCH  12  17
ENDBRANCH   7  10
ENDBRANCH   5   7
ENDBRANCH   4   5
ENDBRANCH   3   4
TORSDOF 5
