REMARK  4 active torsions:
REMARK  status: ('A' for Active; 'I' for Inactive)
REMARK    1  A    between atoms: N_3  and  C_1 
REMARK       I    between atoms: C_2  and  N_4 
REMARK    2  A    between atoms: C_6  and  C_2 
REMARK    3  A    between atoms: N_4  and  N_3 
REMARK    4  A    between atoms: C_19  and  C_18 
ROOT
ATOM      1  C   UNL d   1       3.628  -3.710   0.180  0.00  0.00     0.266 C 
ATOM      2  N   UNL d   1       4.060  -3.304   1.433  0.00  0.00    -0.283 N 
ATOM      3  O   UNL d   1       3.796  -3.050  -0.840  0.00  0.00    -0.266 OA
ATOM      4  H   UNL d   1       3.610  -3.671   2.269  0.00  0.00     0.184 HD
ENDROOT
BRANCH   2   5
ATOM      5  N   UNL d   1       4.558  -1.995   1.546  0.00  0.00    -0.201 NA
ATOM      6  H   UNL d   1       4.847  -1.661   0.617  0.00  0.00     0.153 HD
BRANCH   5   7
ATOM      7  C   UNL d   1       5.578  -1.830   2.526  0.00  0.00     0.051 A 
ATOM      8  C   UNL d   1       6.592  -0.891   2.242  0.00  0.00     0.050 A 
ATOM      9  C   UNL d   1       7.574  -0.575   3.185  0.00  0.00     0.035 A 
ATOM     10 CL   UNL d   1       8.794   0.575   2.798  0.00  0.00    -0.084 Cl
ATOM     11  C   UNL d   1       7.565  -1.169   4.441  0.00  0.00     0.026 A 
ATOM     12  C   UNL d   1       6.562  -2.084   4.757  0.00  0.00     0.027 A 
ATOM     13  C   UNL d   1       5.569  -2.405   3.818  0.00  0.00     0.057 A 
ATOM     14 CL   UNL d   1       4.333  -3.490   4.369  0.00  0.00    -0.082 Cl
ENDBRANCH   5   7
ENDBRANCH   2   5
BRANCH   1  15
ATOM     15  C   UNL d   1       2.916  -5.017   0.147  0.00  0.00     0.033 A 
ATOM     16  C   UNL d   1       1.904  -5.223  -0.796  0.00  0.00     0.017 A 
ATOM     17  C   UNL d   1       1.240  -6.453  -0.852  0.00  0.00     0.008 A 
ATOM     18  C   UNL d   1       1.592  -7.493   0.019  0.00  0.00    -0.059 A 
ATOM     19  C   UNL d   1       2.612  -7.279   0.957  0.00  0.00     0.008 A 
ATOM     20  C   UNL d   1       3.272  -6.051   1.021  0.00  0.00     0.017 A 
BRANCH  18  21
ATOM     21  C   UNL d   1       0.893  -8.828  -0.044  0.00  0.00     0.034 C 
ATOM     22  C   UNL d   1      -0.290  -8.901   0.908  0.00  0.00     0.010 C 
ENDBRANCH  18  21
ENDBRANCH   1  15
TORSDOF 4
