REMARK  2 active torsions:
REMARK  status: ('A' for Active; 'I' for Inactive)
REMARK    1  A    between atoms: N_7  and  C_2 
REMARK    2  A    between atoms: C_13  and  C_3 
ROOT
ATOM      1  C   UNL d   1       0.214   1.012  -0.026  0.00  0.00     0.048 A 
ATOM      2  C   UNL d   1       1.584   1.416   0.068  0.00  0.00     0.097 A 
ATOM      3  C   UNL d   1      -1.071   1.709  -0.086  0.00  0.00    -0.003 A 
ATOM      4  C   UNL d   1       0.011  -0.359  -0.102  0.00  0.00     0.089 A 
ATOM      5  C   UNL d   1      -2.129   0.816  -0.120  0.00  0.00     0.065 A 
ATOM      6  S   UNL d   1      -1.629  -0.811  -0.117  0.00  0.00    -0.082 SA
ATOM      7  N   UNL d   1       2.539   0.457  -0.027  0.00  0.00    -0.342 N 
ATOM      8  HN  UNL d   1       3.527   0.713  -0.017  1.00  0.00     0.167 HD
ATOM      9  N   UNL d   1       0.945  -1.322  -0.150  0.00  0.00    -0.346 N 
ATOM     10  HN  UNL d   1       0.733  -2.319  -0.194  1.00  0.00     0.167 HD
ATOM     11  C   UNL d   1       2.175  -0.828  -0.134  0.00  0.00     0.182 A 
ENDROOT
BRANCH   2  12
ATOM     12  N   UNL d   1       1.994   2.746   0.242  0.00  0.00    -0.265 NA
ATOM     13  C   UNL d   1       3.349   3.041  -0.272  0.00  0.00     0.123 C 
ATOM     14  C   UNL d   1       3.614   4.550  -0.129  0.00  0.00     0.182 C 
ATOM     15  O   UNL d   1       3.525   4.961   1.247  0.00  0.00    -0.389 OA
ATOM     16  C   UNL d   1       2.217   4.669   1.771  0.00  0.00     0.182 C 
ATOM     17  C   UNL d   1       1.868   3.173   1.654  0.00  0.00     0.123 C 
ENDBRANCH   2  12
BRANCH   3  18
ATOM     18  C   UNL d   1      -1.338   3.152  -0.103  0.00  0.00    -0.024 A 
ATOM     19  C   UNL d   1      -0.499   4.025  -0.802  0.00  0.00     0.012 A 
ATOM     20  C   UNL d   1      -0.650   5.410  -0.686  0.00  0.00     0.001 A 
ATOM     21  C   UNL d   1      -1.684   5.934   0.080  0.00  0.00     0.000 A 
ATOM     22  C   UNL d   1      -2.593   5.081   0.697  0.00  0.00     0.001 A 
ATOM     23  C   UNL d   1      -2.420   3.696   0.608  0.00  0.00     0.012 A 
ENDBRANCH   3  18
TORSDOF 2
