REMARK  3 active torsions:
REMARK  status: ('A' for Active; 'I' for Inactive)
REMARK    1  A    between atoms: S_7  and  C_2 
REMARK    2  A    between atoms: C_8  and  C_4 
REMARK    3  A    between atoms: O_15  and  C_8 
ROOT
ATOM      1  C   UNL d   1       0.075  -0.801   0.044  0.00  0.00     0.044 A 
ATOM      2  C   UNL d   1       1.200  -1.605   0.093  0.00  0.00     0.086 A 
ATOM      3  C   UNL d   1       0.427   0.611   0.086  0.00  0.00    -0.018 A 
ATOM      4  C   UNL d   1       1.803   0.815   0.125  0.00  0.00     0.088 A 
ATOM      5  S   UNL d   1       2.628  -0.680   0.239  0.00  0.00    -0.073 SA
ATOM      6  C   UNL d   1      -1.318  -1.225  -0.112  0.00  0.00     0.162 C 
ATOM      7  C   UNL d   1      -0.625   1.698  -0.003  0.00  0.00     0.050 C 
ATOM      8  C   UNL d   1      -2.047   1.183   0.340  0.00  0.00    -0.037 C 
ATOM      9  C   UNL d   1      -2.324  -0.131  -0.419  0.00  0.00     0.093 C 
ATOM     10  O   UNL d   1      -1.676  -2.397  -0.071  0.00  0.00    -0.292 OA
ATOM     11  C   UNL d   1      -3.094   2.221  -0.104  0.00  0.00     0.015 C 
ATOM     12  C   UNL d   1      -2.193   0.982   1.862  0.00  0.00     0.015 C 
ENDROOT
BRANCH   4  13
ATOM     13  C   UNL d   1       2.524   2.083   0.048  0.00  0.00     0.300 C 
ATOM     14  O   UNL d   1       1.998   3.182  -0.062  0.00  0.00    -0.259 OA
BRANCH  13  15
ATOM     15  O   UNL d   1       3.879   1.894   0.092  0.00  0.00    -0.322 OA
ATOM     16  C   UNL d   1       4.659   3.082  -0.038  0.00  0.00     0.213 C 
ENDBRANCH  13  15
ENDBRANCH   4  13
BRANCH   2  17
ATOM     17  S   UNL d   1       1.274  -3.344  -0.159  0.00  0.00     0.053 S 
ATOM     18  O   UNL d   1       2.720  -3.739  -0.091  0.00  0.00    -0.253 OA
ATOM     19  C   UNL d   1       0.479  -3.978   1.330  0.00  0.00     0.133 C 
ENDBRANCH   2  17
TORSDOF 3
