REMARK  3 active torsions:
REMARK  status: ('A' for Active; 'I' for Inactive)
REMARK    1  A    between atoms: S_4  and  C_1 
REMARK    2  A    between atoms: N_3  and  C_9 
REMARK    3  A    between atoms: C_11  and  S_4 
ROOT
ATOM      1  C   UNL d   1       4.894   3.054  -0.193  0.00  0.00     0.118 A 
ATOM      2  C   UNL d   1       2.155   2.908  -0.106  0.00  0.00     0.077 A 
ATOM      3  N   UNL d   1       2.805   3.477   0.940  0.00  0.00    -0.358 N 
ATOM      4  HN  UNL d   1       2.294   3.851   1.740  1.00  0.00     0.166 HD
ATOM      5  C   UNL d   1       4.160   3.529   0.883  0.00  0.00     0.124 A 
ATOM      6  C   UNL d   1       4.216   2.503  -1.280  0.00  0.00     0.040 A 
ATOM      7  C   UNL d   1       2.822   2.432  -1.236  0.00  0.00     0.040 A 
ENDROOT
BRANCH   2   8
ATOM      8  S   UNL d   1       0.378   2.857  -0.001  0.00  0.00    -0.035 SA
BRANCH   8   9
ATOM      9  C   UNL d   1       0.201   1.264   0.648  0.00  0.00     0.168 A 
ATOM     10  N   UNL d   1      -0.843   0.867   1.436  0.00  0.00    -0.326 N 
ATOM     11  C   UNL d   1      -0.615  -0.451   1.712  0.00  0.00     0.201 A 
ATOM     12  C   UNL d   1      -1.972   1.613   1.922  0.00  0.00     0.159 C 
ATOM     13  N   UNL d   1       0.485  -0.843   1.115  0.00  0.00    -0.294 N 
ATOM     14  N   UNL d   1       0.999   0.239   0.437  0.00  0.00    -0.279 N 
ATOM     15  HN  UNL d   1       0.887  -1.780   1.147  1.00  0.00     0.187 HD
ATOM     16  HN  UNL d   1       1.848   0.245  -0.128  1.00  0.00     0.189 HD
ENDBRANCH   8   9
ENDBRANCH   2   8
BRANCH   1  17
ATOM     17  N   UNL d   1       6.348   3.138  -0.172  0.00  0.00    -0.114 N 
ATOM     18  O   UNL d   1       6.882   3.644   0.824  0.00  0.00    -0.532 OA
ATOM     19  O   UNL d   1       6.963   2.703  -1.156  0.00  0.00    -0.532 OA
ENDBRANCH   1  17
TORSDOF 3
