REMARK  4 active torsions:
REMARK  status: ('A' for Active; 'I' for Inactive)
REMARK    1  A    between atoms: C_9  and  C_1 
REMARK    2  A    between atoms: N_11  and  C_10 
REMARK    3  A    between atoms: C_14  and  N_11 
REMARK    4  A    between atoms: O_19  and  N_15 
ROOT
ATOM      1  N   UNL d   1      -2.466  -2.752  -0.880  0.00  0.00    -0.190 N 
ATOM      2  HN  UNL d   1      -2.619  -2.095  -1.646  1.00  0.00     0.184 HD
ATOM      3  C   UNL d   1      -1.578  -2.486   0.105  0.00  0.00     0.069 A 
ATOM      4  C   UNL d   1      -3.139  -3.912  -0.815  0.00  0.00     0.683 A 
ATOM      5  N   UNL d   1      -2.978  -4.801   0.177  0.00  0.00    -0.202 N 
ATOM      6  HN  UNL d   1      -3.508  -5.672   0.197  1.00  0.00     0.183 HD
ATOM      7  C   UNL d   1      -1.360  -3.351   1.156  0.00  0.00     0.049 A 
ATOM      8  C   UNL d   1      -2.095  -4.505   1.142  0.00  0.00     0.108 A 
ENDROOT
BRANCH   3   9
ATOM      9  C   UNL d   1      -0.892  -1.189  -0.000  0.00  0.00     0.056 A 
ATOM     10  C   UNL d   1      -1.314   0.016  -0.550  0.00  0.00     0.025 A 
ATOM     11  N   UNL d   1      -0.421   1.074  -0.417  0.00  0.00    -0.357 N 
ATOM     12  C   UNL d   1      -2.619   0.298  -1.208  0.00  0.00     0.070 C 
ATOM     13  C   UNL d   1       0.666   0.678   0.203  0.00  0.00     0.048 A 
ATOM     14  HN  UNL d   1      -0.588   2.022  -0.753  1.00  0.00     0.166 HD
ATOM     15  S   UNL d   1       0.704  -0.979   0.624  0.00  0.00    -0.073 SA
ATOM     16  C   UNL d   1       1.802   1.576   0.550  0.00  0.00     0.076 C 
ENDBRANCH   3   9
BRANCH   4  17
ATOM     17  N   UNL d   1      -4.042  -4.173  -1.830  0.00  0.00    -0.186 N 
ATOM     18  H   UNL d   1      -4.098  -3.461  -2.537  0.00  0.00     0.185 HD
BRANCH  17  19
ATOM     19  C   UNL d   1      -4.829  -5.271  -1.923  0.00  0.00     0.221 C 
ATOM     20  N   UNL d   1      -5.676  -5.492  -2.878  0.00  0.00    -0.264 N 
ATOM     21  HN  UNL d   1      -5.853  -4.876  -3.671  1.00  0.00     0.194 HD
BRANCH  20  22
ATOM     22  O   UNL d   1      -6.308  -6.721  -2.639  0.00  0.00    -0.289 OA
ATOM     23  H   UNL d   1      -6.913  -6.796  -3.400  0.00  0.00     0.244 HD
ENDBRANCH  20  22
ENDBRANCH  17  19
ENDBRANCH   4  17
TORSDOF 4
