REMARK  5 active torsions:
REMARK  status: ('A' for Active; 'I' for Inactive)
REMARK    1  A    between atoms: C_8  and  C_3 
REMARK    2  A    between atoms: C_17  and  N_4 
REMARK    3  A    between atoms: C_7  and  C_13 
REMARK       I    between atoms: N_15  and  C_8 
REMARK    4  A    between atoms: C_11  and  C_14 
REMARK       I    between atoms: C_13  and  N_16 
REMARK    5  A    between atoms: N_16  and  N_15 
ROOT
ATOM      1  C   UNL d   1       0.921  -5.820   0.216  0.00  0.00     0.272 C 
ATOM      2  N   UNL d   1      -0.073  -4.869   0.112  0.00  0.00    -0.263 N 
ATOM      3  O   UNL d   1       2.112  -5.524   0.282  0.00  0.00    -0.266 OA
ATOM      4  H   UNL d   1      -1.057  -5.080  -0.042  0.00  0.00     0.190 HD
ENDROOT
BRANCH   2   5
ATOM      5  N   UNL d   1       0.266  -3.503   0.076  0.00  0.00    -0.262 N 
ATOM      6  C   UNL d   1      -0.758  -2.576   0.025  0.00  0.00     0.288 C 
ATOM      7  O   UNL d   1      -1.940  -2.931  -0.021  0.00  0.00    -0.264 OA
ATOM      8  H   UNL d   1       1.244  -3.223   0.149  0.00  0.00     0.190 HD
BRANCH   6   9
ATOM      9  C   UNL d   1      -0.356  -1.160   0.031  0.00  0.00     0.119 A 
ATOM     10  N   UNL d   1       0.917  -0.728   0.061  0.00  0.00    -0.292 N 
ATOM     11  N   UNL d   1       0.835   0.637   0.042  0.00  0.00    -0.287 N 
ATOM     12  HN  UNL d   1       1.763  -1.297   0.092  1.00  0.00     0.187 HD
ATOM     13  C   UNL d   1      -0.477   1.075   0.017  0.00  0.00     0.028 A 
ATOM     14  C   UNL d   1      -0.974   2.476   0.001  0.00  0.00     0.070 C 
ATOM     15  C   UNL d   1      -1.249  -0.066   0.004  0.00  0.00     0.063 A 
BRANCH  11  16
ATOM     16  C   UNL d   1       2.086   1.434   0.050  0.00  0.00     0.043 C 
ATOM     17  C   UNL d   1       3.346   0.530   0.045  0.00  0.00     0.039 C 
ATOM     18  C   UNL d   1       2.182   2.317  -1.212  0.00  0.00     0.039 C 
ATOM     19  C   UNL d   1       2.173   2.297   1.326  0.00  0.00     0.039 C 
ENDBRANCH  11  16
ENDBRANCH   6   9
ENDBRANCH   2   5
BRANCH   1  20
ATOM     20  C   UNL d   1       0.476  -7.247   0.242  0.00  0.00     0.055 A 
ATOM     21  C   UNL d   1       1.266  -8.279  -0.276  0.00  0.00     0.021 A 
ATOM     22  N   UNL d   1       0.881  -9.588  -0.233  0.00  0.00    -0.355 N 
ATOM     23  C   UNL d   1       2.592  -8.041  -0.939  0.00  0.00     0.069 C 
ATOM     24  C   UNL d   1      -0.308  -9.918   0.343  0.00  0.00     0.117 A 
ATOM     25  HN  UNL d   1       1.479 -10.314  -0.629  1.00  0.00     0.166 HD
ATOM     26  C   UNL d   1      -1.142  -8.941   0.881  0.00  0.00     0.035 A 
ATOM     27  C   UNL d   1      -0.746  -7.601   0.833  0.00  0.00     0.021 A 
BRANCH  24  28
ATOM     28  C   UNL d   1      -0.733 -11.383   0.414  0.00  0.00     0.432 C 
ATOM     29  F   UNL d   1       0.149 -12.257  -0.146  0.00  0.00    -0.165 F 
ATOM     30  F   UNL d   1      -0.913 -11.809   1.700  0.00  0.00    -0.165 F 
ATOM     31  F   UNL d   1      -1.927 -11.608  -0.211  0.00  0.00    -0.165 F 
ENDBRANCH  24  28
ENDBRANCH   1  20
TORSDOF 5
