REMARK  3 active torsions:
REMARK  status: ('A' for Active; 'I' for Inactive)
REMARK    1  A    between atoms: C_2  and  S_1 
REMARK    2  A    between atoms: C_3  and  S_1 
REMARK    3  A    between atoms: C_14  and  C_6 
ROOT
ATOM      1  S   UNL d   1       0.999  -0.025  -0.053  0.00  0.00     0.197 S 
ATOM      2  O   UNL d   1       0.347  -0.374   1.194  0.00  0.00    -0.218 OA
ATOM      3  O   UNL d   1       2.443  -0.103  -0.182  0.00  0.00    -0.218 OA
ENDROOT
BRANCH   1   4
ATOM      4  C   UNL d   1       0.535   1.665  -0.376  0.00  0.00     0.065 A 
ATOM      5  C   UNL d   1      -0.820   2.006  -0.454  0.00  0.00     0.050 A 
ATOM      6  C   UNL d   1      -1.172   3.341  -0.657  0.00  0.00     0.074 A 
ATOM      7 CL   UNL d   1      -2.837   3.768  -0.757  0.00  0.00    -0.081 Cl
ATOM      8  C   UNL d   1      -0.181   4.318  -0.769  0.00  0.00     0.138 A 
ATOM      9  C   UNL d   1       1.167   3.976  -0.684  0.00  0.00     0.045 A 
ATOM     10  F   UNL d   1      -0.506   5.605  -0.954  0.00  0.00    -0.204 F 
ATOM     11  C   UNL d   1       1.531   2.644  -0.486  0.00  0.00     0.027 A 
ENDBRANCH   1   4
BRANCH   1  12
ATOM     12  C   UNL d   1       0.272  -0.937  -1.331  0.00  0.00     0.115 C 
ATOM     13  C   UNL d   1       0.614  -0.736  -2.613  0.00  0.00     0.023 C 
BRANCH  13  14
ATOM     14  C   UNL d   1       0.060  -1.532  -3.721  0.00  0.00    -0.036 A 
ATOM     15  C   UNL d   1      -1.224  -2.096  -3.671  0.00  0.00     0.011 A 
ATOM     16  C   UNL d   1      -1.712  -2.861  -4.734  0.00  0.00     0.001 A 
ATOM     17  C   UNL d   1      -0.932  -3.054  -5.870  0.00  0.00     0.000 A 
ATOM     18  C   UNL d   1       0.333  -2.477  -5.947  0.00  0.00     0.001 A 
ATOM     19  C   UNL d   1       0.825  -1.716  -4.881  0.00  0.00     0.011 A 
ENDBRANCH  13  14
ENDBRANCH   1  12
TORSDOF 3
