REMARK  4 active torsions:
REMARK  status: ('A' for Active; 'I' for Inactive)
REMARK    1  A    between atoms: C_9  and  C_5 
REMARK    2  A    between atoms: C_10  and  C_6 
REMARK    3  A    between atoms: C_12  and  C_9 
REMARK    4  A    between atoms: C_11  and  C_10 
ROOT
ATOM      1  N   UNL d   1       1.189  -0.702   0.046  0.00  0.00    -0.286 N 
ATOM      2  HN  UNL d   1       2.062  -1.229   0.061  1.00  0.00     0.188 HD
ATOM      3  N   UNL d   1       1.191   0.710  -0.051  0.00  0.00    -0.286 N 
ATOM      4  HN  UNL d   1       2.065   1.236  -0.063  1.00  0.00     0.188 HD
ATOM      5  C   UNL d   1       0.034  -1.308   0.116  0.00  0.00     0.114 C 
ATOM      6  C   UNL d   1       0.037   1.320  -0.125  0.00  0.00     0.114 C 
ATOM      7  N   UNL d   1      -1.197  -0.666   0.122  0.00  0.00    -0.286 N 
ATOM      8  N   UNL d   1      -1.195   0.680  -0.134  0.00  0.00    -0.286 N 
ATOM      9  H   UNL d   1      -1.969  -1.208  -0.262  0.00  0.00     0.188 HD
ATOM     10  H   UNL d   1      -1.967   1.225   0.249  0.00  0.00     0.188 HD
ENDROOT
BRANCH   5  11
ATOM     11  C   UNL d   1       0.041  -2.830   0.176  0.00  0.00     0.117 C 
BRANCH  11  12
ATOM     12  C   UNL d   1      -0.046  -3.465  -1.192  0.00  0.00    -0.051 A 
ATOM     13  C   UNL d   1       0.964  -3.240  -2.139  0.00  0.00     0.007 A 
ATOM     14  C   UNL d   1       0.901  -3.832  -3.400  0.00  0.00     0.001 A 
ATOM     15  C   UNL d   1      -0.168  -4.663  -3.727  0.00  0.00     0.000 A 
ATOM     16  C   UNL d   1      -1.172  -4.904  -2.791  0.00  0.00     0.001 A 
ATOM     17  C   UNL d   1      -1.112  -4.310  -1.528  0.00  0.00     0.007 A 
ENDBRANCH  11  12
ENDBRANCH   5  11
BRANCH   6  18
ATOM     18  C   UNL d   1       0.049   2.841  -0.186  0.00  0.00     0.117 C 
BRANCH  18  19
ATOM     19  C   UNL d   1      -0.043   3.479   1.180  0.00  0.00    -0.051 A 
ATOM     20  C   UNL d   1       0.962   3.252   2.132  0.00  0.00     0.007 A 
ATOM     21  C   UNL d   1       0.895   3.846   3.393  0.00  0.00     0.001 A 
ATOM     22  C   UNL d   1      -0.174   4.679   3.714  0.00  0.00     0.000 A 
ATOM     23  C   UNL d   1      -1.174   4.920   2.773  0.00  0.00     0.001 A 
ATOM     24  C   UNL d   1      -1.109   4.326   1.511  0.00  0.00     0.007 A 
ENDBRANCH  18  19
ENDBRANCH   6  18
TORSDOF 4
