REMARK  3 active torsions:
REMARK  status: ('A' for Active; 'I' for Inactive)
REMARK    1  A    between atoms: C_2  and  C_1 
REMARK       I    between atoms: N_5  and  C_2 
REMARK    2  A    between atoms: C_10  and  N_5 
REMARK    3  A    between atoms: C_6  and  C_10 
ROOT
ATOM      1  C   UNL d   1      -2.414  -2.238   0.005  0.00  0.00     0.253 C 
ATOM      2  N   UNL d   1      -2.500  -3.607   0.056  0.00  0.00    -0.352 N 
ATOM      3  O   UNL d   1      -1.332  -1.656  -0.012  0.00  0.00    -0.268 OA
ATOM      4  H   UNL d   1      -3.407  -4.053   0.043  0.00  0.00     0.163 HD
ENDROOT
BRANCH   2   5
ATOM      5  C   UNL d   1      -1.347  -4.484  -0.002  0.00  0.00     0.164 C 
BRANCH   5   6
ATOM      6  C   UNL d   1      -1.314  -5.425   1.173  0.00  0.00    -0.002 A 
ATOM      7  C   UNL d   1      -1.341  -6.812   0.987  0.00  0.00     0.127 A 
ATOM      8  C   UNL d   1      -1.285  -7.692   2.063  0.00  0.00     0.085 A 
ATOM      9  F   UNL d   1      -1.424  -7.320  -0.251  0.00  0.00    -0.205 F 
ATOM     10  C   UNL d   1      -1.194  -7.176   3.348  0.00  0.00     0.119 A 
ATOM     11  C   UNL d   1      -1.161  -5.804   3.569  0.00  0.00     0.043 A 
ATOM     12  F   UNL d   1      -1.134  -8.014   4.392  0.00  0.00    -0.206 F 
ATOM     13  C   UNL d   1      -1.218  -4.927   2.483  0.00  0.00     0.015 A 
ENDBRANCH   5   6
ENDBRANCH   2   5
BRANCH   1  14
ATOM     14  C   UNL d   1      -3.687  -1.436  -0.027  0.00  0.00     0.053 A 
ATOM     15  C   UNL d   1      -4.998  -1.946  -0.069  0.00  0.00     0.051 A 
ATOM     16  C   UNL d   1      -6.100  -1.076  -0.101  0.00  0.00     0.048 A 
ATOM     17 CL   UNL d   1      -5.398  -3.630  -0.096  0.00  0.00    -0.083 Cl
ATOM     18  C   UNL d   1      -5.911   0.302  -0.093  0.00  0.00     0.035 A 
ATOM     19  C   UNL d   1      -4.628   0.829  -0.054  0.00  0.00     0.025 A 
ATOM     20 CL   UNL d   1      -7.272   1.352  -0.133  0.00  0.00    -0.084 Cl
ATOM     21  C   UNL d   1      -3.527  -0.033  -0.022  0.00  0.00     0.020 A 
ENDBRANCH   1  14
TORSDOF 3
