REMARK  5 active torsions:
REMARK  status: ('A' for Active; 'I' for Inactive)
REMARK    1  A    between atoms: C_3  and  S_1 
REMARK    2  A    between atoms: C_4  and  S_1 
REMARK    3  A    between atoms: S_2  and  O_7 
REMARK    4  A    between atoms: C_11  and  S_2 
REMARK    5  A    between atoms: O_7  and  N_5 
ROOT
ATOM      1  C   UNL d   1       0.306   0.402  -1.642  0.00  0.00     0.235 C 
ATOM      2  N   UNL d   1      -0.363  -0.421  -2.398  0.00  0.00    -0.228 N 
ATOM      3  HN  UNL d   1      -0.625  -0.208  -3.361  1.00  0.00     0.197 HD
ATOM      4  C   UNL d   1       0.673   0.020  -0.310  0.00  0.00     0.132 C 
ATOM      5  N   UNL d   1       0.947  -0.330   0.763  0.00  0.00    -0.189 NA
ENDROOT
BRANCH   1   6
ATOM      6  S   UNL d   1       0.794   1.982  -2.194  0.00  0.00     0.240 S 
ATOM      7  O   UNL d   1       2.010   1.814  -2.966  0.00  0.00    -0.214 OA
ATOM      8  O   UNL d   1       0.707   2.902  -1.078  0.00  0.00    -0.214 OA
BRANCH   6   9
ATOM      9  C   UNL d   1      -0.439   2.509  -3.357  0.00  0.00     0.106 A 
ATOM     10  S   UNL d   1      -2.042   2.612  -2.760  0.00  0.00    -0.090 SA
ATOM     11  C   UNL d   1      -2.645   3.101  -4.283  0.00  0.00     0.051 A 
ATOM     12  C   UNL d   1      -1.646   3.205  -5.226  0.00  0.00     0.009 A 
ATOM     13  C   UNL d   1      -0.370   2.866  -4.690  0.00  0.00     0.032 A 
ENDBRANCH   6   9
ENDBRANCH   1   6
BRANCH   2  14
ATOM     14  O   UNL d   1      -0.694  -1.644  -1.752  0.00  0.00    -0.146 OA
BRANCH  14  15
ATOM     15  S   UNL d   1      -1.578  -2.670  -2.700  0.00  0.00     0.318 S 
ATOM     16  O   UNL d   1      -2.835  -2.029  -3.039  0.00  0.00    -0.191 OA
ATOM     17  O   UNL d   1      -0.701  -3.200  -3.728  0.00  0.00    -0.191 OA
BRANCH  15  18
ATOM     18  C   UNL d   1      -1.986  -4.015  -1.604  0.00  0.00     0.088 A 
ATOM     19  C   UNL d   1      -2.770  -3.760  -0.473  0.00  0.00     0.027 A 
ATOM     20  C   UNL d   1      -3.126  -4.819   0.367  0.00  0.00     0.025 A 
ATOM     21  C   UNL d   1      -2.703  -6.116   0.071  0.00  0.00     0.034 A 
ATOM     22  C   UNL d   1      -1.927  -6.368  -1.061  0.00  0.00     0.025 A 
ATOM     23 CL   UNL d   1      -3.150  -7.418   1.104  0.00  0.00    -0.084 Cl
ATOM     24  C   UNL d   1      -1.566  -5.315  -1.906  0.00  0.00     0.027 A 
ENDBRANCH  15  18
ENDBRANCH  14  15
ENDBRANCH   2  14
TORSDOF 5
