REMARK  7 active torsions:
REMARK  status: ('A' for Active; 'I' for Inactive)
REMARK    1  A    between atoms: C_2  and  S_1 
REMARK    2  A    between atoms: C_7  and  S_1 
REMARK    3  A    between atoms: C_5  and  C_3 
REMARK    4  A    between atoms: O_17  and  C_5 
REMARK    5  A    between atoms: C_18  and  C_7 
REMARK    6  A    between atoms: C_11  and  S_15 
REMARK    7  A    between atoms: S_15  and  C_18 
ROOT
ATOM      1  C   UNL d   1       0.373   0.558   1.666  0.00  0.00     0.156 C 
ENDROOT
BRANCH   1   2
ATOM      2  S   UNL d   1       0.715   2.310   1.694  0.00  0.00     0.177 S 
ATOM      3  O   UNL d   1       0.079   2.947   2.827  0.00  0.00    -0.223 OA
ATOM      4  O   UNL d   1       2.150   2.446   1.498  0.00  0.00    -0.223 OA
BRANCH   2   5
ATOM      5  C   UNL d   1      -0.068   2.984   0.245  0.00  0.00     0.081 A 
ATOM      6  C   UNL d   1      -1.457   2.969   0.074  0.00  0.00     0.057 A 
ATOM      7  C   UNL d   1      -2.019   3.563  -1.063  0.00  0.00     0.049 A 
ATOM      8 CL   UNL d   1      -2.568   2.270   1.193  0.00  0.00    -0.083 Cl
ATOM      9  C   UNL d   1      -1.203   4.186  -2.005  0.00  0.00     0.035 A 
ATOM     10  C   UNL d   1       0.177   4.222  -1.828  0.00  0.00     0.025 A 
ATOM     11 CL   UNL d   1      -1.906   4.927  -3.388  0.00  0.00    -0.084 Cl
ATOM     12  C   UNL d   1       0.747   3.622  -0.704  0.00  0.00     0.027 A 
ENDBRANCH   2   5
ENDBRANCH   1   2
BRANCH   1  13
ATOM     13  C   UNL d   1       1.042  -0.180   2.820  0.00  0.00     0.095 C 
BRANCH  13  14
ATOM     14  S   UNL d   1       0.206   0.174   4.407  0.00  0.00    -0.128 SA
BRANCH  14  15
ATOM     15  C   UNL d   1       1.167  -0.840   5.519  0.00  0.00     0.017 A 
ATOM     16  C   UNL d   1       0.753  -2.104   5.971  0.00  0.00     0.054 A 
ATOM     17  C   UNL d   1       1.550  -2.811   6.887  0.00  0.00     0.020 A 
ATOM     18  C   UNL d   1       2.735  -2.259   7.375  0.00  0.00     0.001 A 
ATOM     19  C   UNL d   1       3.141  -1.001   6.938  0.00  0.00     0.001 A 
ATOM     20  C   UNL d   1       2.365  -0.298   6.015  0.00  0.00     0.019 A 
BRANCH  16  21
ATOM     21  C   UNL d   1      -0.492  -2.792   5.533  0.00  0.00     0.177 C 
ATOM     22  O   UNL d   1      -0.559  -4.004   5.429  0.00  0.00    -0.646 OA
BRANCH  21  23
ATOM     23  O   UNL d   1      -1.558  -1.987   5.341  0.00  0.00    -0.773 OA
ATOM     24  H   UNL d   1      -1.352  -1.031   5.406  0.00  0.00     0.167 HD
ENDBRANCH  21  23
ENDBRANCH  16  21
ENDBRANCH  14  15
ENDBRANCH  13  14
ENDBRANCH   1  13
TORSDOF 7
