REMARK  8 active torsions:
REMARK  status: ('A' for Active; 'I' for Inactive)
REMARK    1  A    between atoms: C_4  and  S_1 
REMARK    2  A    between atoms: N_6  and  S_1 
REMARK    3  A    between atoms: S_2  and  C_3 
REMARK    4  A    between atoms: N_7  and  S_2 
REMARK    5  A    between atoms: C_3  and  C_5 
REMARK    6  A    between atoms: C_5  and  C_4 
REMARK    7  A    between atoms: C_13  and  N_6 
REMARK    8  A    between atoms: C_14  and  N_7 
ROOT
ATOM      1  C   UNL d   1       0.977   1.999   1.376  0.00  0.00     0.157 C 
ATOM      2  O   UNL d   1       0.520   3.087   1.741  0.00  0.00    -0.296 OA
ENDROOT
BRANCH   1   3
ATOM      3  C   UNL d   1       1.836   1.194   2.308  0.00  0.00     0.237 C 
BRANCH   3   4
ATOM      4  S   UNL d   1       3.516   1.725   2.164  0.00  0.00     0.220 S 
ATOM      5  O   UNL d   1       4.037   1.296   0.884  0.00  0.00    -0.211 OA
ATOM      6  O   UNL d   1       3.615   3.104   2.589  0.00  0.00    -0.211 OA
BRANCH   4   7
ATOM      7  N   UNL d   1       4.239   0.846   3.416  0.00  0.00    -0.185 NA
ATOM      8  H   UNL d   1       4.771   1.482   4.016  0.00  0.00     0.146 HD
BRANCH   7   9
ATOM      9  C   UNL d   1       4.888  -0.385   3.115  0.00  0.00     0.022 A 
ATOM     10  C   UNL d   1       6.256  -0.400   2.839  0.00  0.00     0.026 A 
ATOM     11  C   UNL d   1       6.906  -1.616   2.614  0.00  0.00     0.021 A 
ATOM     12  C   UNL d   1       6.179  -2.806   2.653  0.00  0.00     0.011 A 
ATOM     13  C   UNL d   1       4.806  -2.789   2.891  0.00  0.00     0.021 A 
ATOM     14 BR   UNL d   1       7.067  -4.456   2.403  0.00  0.00    -0.051 Br
ATOM     15  C   UNL d   1       4.156  -1.572   3.115  0.00  0.00     0.026 A 
ENDBRANCH   7   9
ENDBRANCH   4   7
ENDBRANCH   3   4
ENDBRANCH   1   3
BRANCH   1  16
ATOM     16  C   UNL d   1       0.720   1.523  -0.026  0.00  0.00     0.237 C 
BRANCH  16  17
ATOM     17  S   UNL d   1      -0.090  -0.054   0.004  0.00  0.00     0.220 S 
ATOM     18  O   UNL d   1      -1.241   0.048   0.871  0.00  0.00    -0.211 OA
ATOM     19  O   UNL d   1       0.901  -1.085   0.220  0.00  0.00    -0.211 OA
BRANCH  17  20
ATOM     20  N   UNL d   1      -0.713  -0.165  -1.560  0.00  0.00    -0.185 NA
ATOM     21  H   UNL d   1      -1.704  -0.415  -1.511  0.00  0.00     0.146 HD
BRANCH  20  22
ATOM     22  C   UNL d   1       0.033  -0.906  -2.522  0.00  0.00     0.022 A 
ATOM     23  C   UNL d   1      -0.015  -2.301  -2.537  0.00  0.00     0.026 A 
ATOM     24  C   UNL d   1       0.703  -3.011  -3.502  0.00  0.00     0.021 A 
ATOM     25  C   UNL d   1       1.461  -2.319  -4.446  0.00  0.00     0.011 A 
ATOM     26  C   UNL d   1       1.520  -0.926  -4.425  0.00  0.00     0.021 A 
ATOM     27 BR   UNL d   1       2.409  -3.278  -5.771  0.00  0.00    -0.051 Br
ATOM     28  C   UNL d   1       0.807  -0.216  -3.454  0.00  0.00     0.026 A 
ENDBRANCH  20  22
ENDBRANCH  17  20
ENDBRANCH  16  17
ENDBRANCH   1  16
TORSDOF 8
