REMARK  1 active torsions:
REMARK  status: ('A' for Active; 'I' for Inactive)
REMARK    1  A    between atoms: C_10  and  C_7 
ROOT
ATOM      1  N   UNL d   1      -1.792   0.799   0.002  0.00  0.00    -0.321 N 
ATOM      2  C   UNL d   1      -2.457  -0.433   0.048  0.00  0.00     0.232 A 
ATOM      3  C   UNL d   1      -0.113  -0.735  -0.027  0.00  0.00    -0.018 A 
ATOM      4  C   UNL d   1      -0.404   0.624  -0.028  0.00  0.00     0.043 A 
ATOM      5  C   UNL d   1      -1.385  -1.534   0.026  0.00  0.00     0.109 A 
ATOM      6  C   UNL d   1       1.195  -1.190  -0.054  0.00  0.00     0.025 A 
ATOM      7  C   UNL d   1       2.243  -0.256  -0.051  0.00  0.00     0.010 A 
ATOM      8  C   UNL d   1       0.603   1.571  -0.038  0.00  0.00     0.031 A 
ATOM      9  O   UNL d   1      -3.666  -0.613   0.102  0.00  0.00    -0.272 OA
ATOM     10  C   UNL d   1       1.937   1.122  -0.044  0.00  0.00     0.017 A 
ATOM     11  C   UNL d   1      -2.457   2.074   0.011  0.00  0.00     0.159 C 
ATOM     12  C   UNL d   1      -1.459  -2.401   1.273  0.00  0.00     0.025 C 
ENDROOT
BRANCH   7  13
ATOM     13  C   UNL d   1       3.634  -0.814  -0.042  0.00  0.00     0.155 C 
ATOM     14  O   UNL d   1       3.787  -2.037  -0.078  0.00  0.00    -0.293 OA
ATOM     15  C   UNL d   1       4.843   0.080   0.021  0.00  0.00     0.096 C 
ENDBRANCH   7  13
TORSDOF 1
