REMARK  4 active torsions:
REMARK  status: ('A' for Active; 'I' for Inactive)
REMARK    1  A    between atoms: C_2  and  N_1 
REMARK    2  A    between atoms: C_3  and  C_4 
REMARK    3  A    between atoms: O_9  and  C_3 
REMARK    4  A    between atoms: C_13  and  O_9 
ROOT
ATOM      1  C   UNL d   1       0.303  -1.177   0.570  0.00  0.00     0.103 A 
ATOM      2  C   UNL d   1       0.005  -2.526   2.556  0.00  0.00     0.041 A 
ATOM      3  C   UNL d   1       0.755  -1.593   1.829  0.00  0.00     0.053 A 
ATOM      4  C   UNL d   1      -0.880  -1.693   0.026  0.00  0.00     0.036 A 
ATOM      5  C   UNL d   1      -1.174  -3.052   2.004  0.00  0.00     0.018 A 
ATOM      6  C   UNL d   1      -1.614  -2.637   0.746  0.00  0.00     0.003 A 
ENDROOT
BRANCH   2   7
ATOM      7  C   UNL d   1       0.364  -2.925   3.943  0.00  0.00     0.293 C 
ATOM      8  O   UNL d   1      -0.295  -3.703   4.614  0.00  0.00    -0.259 OA
BRANCH   7   9
ATOM      9  O   UNL d   1       1.442  -2.218   4.359  0.00  0.00    -0.318 OA
BRANCH   9  10
ATOM     10  C   UNL d   1       1.670  -2.200   5.775  0.00  0.00     0.174 C 
ATOM     11  C   UNL d   1       0.916  -1.019   6.360  0.00  0.00     0.034 C 
ENDBRANCH   9  10
ENDBRANCH   7   9
ENDBRANCH   2   7
BRANCH   1  12
ATOM     12  N   UNL d   1       1.067  -0.170  -0.177  0.00  0.00    -0.116 N 
ATOM     13  O   UNL d   1       2.100   0.273   0.345  0.00  0.00    -0.532 OA
ATOM     14  O   UNL d   1       0.632   0.180  -1.282  0.00  0.00    -0.532 OA
ENDBRANCH   1  12
TORSDOF 4
