REMARK  4 active torsions:
REMARK  status: ('A' for Active; 'I' for Inactive)
REMARK    1  A    between atoms: N_10  and  N_2 
REMARK    2  A    between atoms: O_4  and  C_13 
REMARK    3  A    between atoms: C_7  and  O_4 
REMARK    4  A    between atoms: C_12  and  N_10 
ROOT
ATOM      1  C   UNL d   1       1.957   1.785   1.562  0.00  0.00     0.209 C 
ATOM      2  N   UNL d   1       1.224   1.294   2.513  0.00  0.00    -0.281 N 
ATOM      3  HN  UNL d   1       1.000   1.856   3.333  1.00  0.00     0.188 HD
ATOM      4  N   UNL d   1       2.764   4.225   1.947  0.00  0.00    -0.189 NA
ATOM      5  N   UNL d   1       2.577   0.438  -0.571  0.00  0.00    -0.189 NA
ATOM      6  C   UNL d   1       2.397   3.132   1.786  0.00  0.00     0.130 C 
ATOM      7  C   UNL d   1       2.303   1.027   0.393  0.00  0.00     0.130 C 
ENDROOT
BRANCH   2   8
ATOM      8  N   UNL d   1       0.753   0.012   2.404  0.00  0.00    -0.296 N 
ATOM      9  H   UNL d   1       0.167  -0.241   1.600  0.00  0.00     0.187 HD
BRANCH   8  10
ATOM     10  C   UNL d   1       0.231  -0.565   3.595  0.00  0.00     0.082 A 
ATOM     11  C   UNL d   1      -0.717  -1.605   3.535  0.00  0.00     0.104 A 
ATOM     12  C   UNL d   1      -1.122  -2.265   4.707  0.00  0.00     0.040 A 
ATOM     13  C   UNL d   1      -0.651  -1.844   5.948  0.00  0.00     0.003 A 
ATOM     14  C   UNL d   1       0.261  -0.797   6.024  0.00  0.00     0.002 A 
ATOM     15  C   UNL d   1       0.716  -0.181   4.856  0.00  0.00     0.034 A 
BRANCH  11  16
ATOM     16  O   UNL d   1      -1.215  -1.944   2.288  0.00  0.00    -0.307 OA
BRANCH  16  17
ATOM     17  C   UNL d   1      -2.542  -2.320   2.209  0.00  0.00     0.098 A 
ATOM     18  C   UNL d   1      -2.885  -3.445   1.447  0.00  0.00     0.069 A 
ATOM     19  C   UNL d   1      -4.214  -3.872   1.381  0.00  0.00     0.050 A 
ATOM     20 CL   UNL d   1      -1.689  -4.346   0.590  0.00  0.00    -0.081 Cl
ATOM     21  C   UNL d   1      -5.199  -3.165   2.068  0.00  0.00     0.035 A 
ATOM     22  C   UNL d   1      -4.876  -2.020   2.793  0.00  0.00     0.026 A 
ATOM     23 CL   UNL d   1      -6.830  -3.710   2.023  0.00  0.00    -0.084 Cl
ATOM     24  C   UNL d   1      -3.551  -1.584   2.847  0.00  0.00     0.041 A 
ENDBRANCH  16  17
ENDBRANCH  11  16
ENDBRANCH   8  10
ENDBRANCH   2   8
TORSDOF 4
