REMARK  7 active torsions:
REMARK  status: ('A' for Active; 'I' for Inactive)
REMARK    1  A    between atoms: C_8  and  C_4 
REMARK    2  A    between atoms: C_11  and  C_7 
REMARK    3  A    between atoms: O_16  and  C_8 
REMARK    4  A    between atoms: O_13  and  C_9 
REMARK    5  A    between atoms: C_17  and  O_13 
REMARK    6  A    between atoms: C_22  and  O_16 
REMARK    7  A    between atoms: C_18  and  C_17 
ROOT
ATOM      1  C   UNL d   1       0.412  -0.912  -0.048  0.00  0.00     0.100 A 
ATOM      2  C   UNL d   1       0.029   0.448  -0.008  0.00  0.00     0.082 A 
ATOM      3  O   UNL d   1      -0.518  -1.919  -0.065  0.00  0.00    -0.303 OA
ATOM      4  C   UNL d   1      -1.861  -1.624  -0.080  0.00  0.00     0.154 A 
ATOM      5  C   UNL d   1      -1.426   0.757   0.004  0.00  0.00     0.190 A 
ATOM      6  C   UNL d   1      -2.357  -0.384  -0.052  0.00  0.00     0.099 A 
ATOM      7  C   UNL d   1       1.770  -1.319  -0.067  0.00  0.00    -0.015 A 
ATOM      8  C   UNL d   1       1.020   1.441   0.018  0.00  0.00     0.086 A 
ATOM      9  C   UNL d   1       2.721  -0.297  -0.130  0.00  0.00     0.013 A 
ATOM     10  O   UNL d   1      -1.889   1.889   0.053  0.00  0.00    -0.287 OA
ATOM     11  C   UNL d   1       2.355   1.046  -0.101  0.00  0.00     0.038 A 
ENDROOT
BRANCH   8  12
ATOM     12  O   UNL d   1       0.666   2.765   0.174  0.00  0.00    -0.346 OA
BRANCH  12  13
ATOM     13  C   UNL d   1       1.734   3.626   0.576  0.00  0.00     0.214 C 
BRANCH  13  14
ATOM     14  C   UNL d   1       1.327   4.989   1.079  0.00  0.00    -0.034 A 
ATOM     15  C   UNL d   1       0.022   5.477   0.998  0.00  0.00     0.009 A 
ATOM     16  C   UNL d   1      -0.274   6.759   1.470  0.00  0.00     0.001 A 
ATOM     17  C   UNL d   1       0.728   7.559   2.022  0.00  0.00     0.000 A 
ATOM     18  C   UNL d   1       2.032   7.082   2.105  0.00  0.00     0.001 A 
ATOM     19  C   UNL d   1       2.329   5.806   1.633  0.00  0.00     0.009 A 
ENDBRANCH  13  14
ENDBRANCH  12  13
ENDBRANCH   8  12
BRANCH   7  20
ATOM     20  C   UNL d   1       2.213  -2.800  -0.034  0.00  0.00    -0.021 C 
ATOM     21  C   UNL d   1       1.719  -3.535  -1.297  0.00  0.00     0.019 C 
ATOM     22  C   UNL d   1       3.755  -2.977  -0.001  0.00  0.00     0.019 C 
ATOM     23  C   UNL d   1       1.683  -3.506   1.235  0.00  0.00     0.019 C 
ENDBRANCH   7  20
BRANCH   4  24
ATOM     24  C   UNL d   1      -2.804  -2.779  -0.049  0.00  0.00     0.317 C 
ATOM     25  O   UNL d   1      -4.018  -2.695   0.040  0.00  0.00    -0.257 OA
BRANCH  24  26
ATOM     26  O   UNL d   1      -2.072  -3.925  -0.032  0.00  0.00    -0.316 OA
BRANCH  26  27
ATOM     27  C   UNL d   1      -2.743  -5.104   0.425  0.00  0.00     0.175 C 
ATOM     28  C   UNL d   1      -2.611  -5.167   1.936  0.00  0.00     0.034 C 
ENDBRANCH  26  27
ENDBRANCH  24  26
ENDBRANCH   4  24
TORSDOF 7
