REMARK  3 active torsions:
REMARK  status: ('A' for Active; 'I' for Inactive)
REMARK    1  A    between atoms: C_3  and  C_1 
REMARK    2  A    between atoms: C_9  and  C_2 
REMARK       I    between atoms: N_6  and  C_3 
REMARK    3  A    between atoms: S_8  and  N_6 
ROOT
ATOM      1  C   UNL d   1      -0.074  -1.199   0.086  0.00  0.00     0.093 A 
ATOM      2  C   UNL d   1      -1.344  -0.564   0.258  0.00  0.00     0.085 A 
ATOM      3  N   UNL d   1      -1.229   0.749  -0.016  0.00  0.00    -0.259 N 
ATOM      4  HN  UNL d   1      -1.988   1.429  -0.055  1.00  0.00     0.195 HD
ATOM      5  O   UNL d   1       0.102   1.000  -0.232  0.00  0.00    -0.241 OA
ATOM      6  C   UNL d   1       0.798  -0.154  -0.155  0.00  0.00     0.090 A 
ATOM      7  C   UNL d   1       2.263  -0.048  -0.301  0.00  0.00     0.080 C 
ENDROOT
BRANCH   1   8
ATOM      8  C   UNL d   1       0.307  -2.599   0.167  0.00  0.00     0.267 C 
ATOM      9  N   UNL d   1       1.325  -3.024  -0.708  0.00  0.00    -0.283 N 
ATOM     10  HN  UNL d   1       2.019  -2.349  -1.029  1.00  0.00     0.178 HD
ATOM     11  O   UNL d   1      -0.194  -3.333   1.007  0.00  0.00    -0.267 OA
BRANCH   9  12
ATOM     12  S   UNL d   1       1.417  -4.479  -1.190  0.00  0.00     0.020 S 
ATOM     13  O   UNL d   1       0.286  -5.370  -1.353  0.00  0.00    -0.250 OA
ATOM     14  C   UNL d   1       2.619  -5.301  -0.168  0.00  0.00     0.136 C 
ATOM     15  C   UNL d   1       2.246  -4.436  -2.766  0.00  0.00     0.136 C 
ENDBRANCH   9  12
ENDBRANCH   1   8
BRANCH   2  16
ATOM     16  C   UNL d   1      -2.662  -1.129   0.596  0.00  0.00     0.015 A 
ATOM     17  C   UNL d   1      -3.590  -0.460   1.425  0.00  0.00     0.046 A 
ATOM     18 CL   UNL d   1      -3.267   1.051   2.212  0.00  0.00    -0.083 Cl
ATOM     19  C   UNL d   1      -4.845  -1.025   1.696  0.00  0.00     0.025 A 
ATOM     20  C   UNL d   1      -5.190  -2.267   1.171  0.00  0.00     0.002 A 
ATOM     21  C   UNL d   1      -4.285  -2.945   0.362  0.00  0.00     0.001 A 
ATOM     22  C   UNL d   1      -3.040  -2.377   0.067  0.00  0.00     0.015 A 
ENDBRANCH   2  16
TORSDOF 3
