REMARK  2 active torsions:
REMARK  status: ('A' for Active; 'I' for Inactive)
REMARK    1  A    between atoms: C_8  and  C_5 
REMARK    2  A    between atoms: O_19  and  C_14 
ROOT
ATOM      1  C   UNL d   1      -0.000  -0.745  -0.021  0.00  0.00     0.045 A 
ATOM      2  C   UNL d   1      -1.264  -1.503   0.050  0.00  0.00     0.165 C 
ATOM      3  O   UNL d   1      -1.218   1.359   0.118  0.00  0.00    -0.340 OA
ATOM      4  C   UNL d   1      -0.053   0.648   0.044  0.00  0.00     0.083 A 
ATOM      5  C   UNL d   1      -2.376   0.633  -0.335  0.00  0.00     0.169 C 
ATOM      6  C   UNL d   1      -2.494  -0.705   0.381  0.00  0.00     0.121 C 
ATOM      7  C   UNL d   1       1.227  -1.409  -0.097  0.00  0.00     0.042 A 
ATOM      8  O   UNL d   1      -1.278  -2.720  -0.092  0.00  0.00    -0.292 OA
ATOM      9  C   UNL d   1       1.129   1.387   0.071  0.00  0.00     0.039 A 
ATOM     10  C   UNL d   1       2.403  -0.662  -0.081  0.00  0.00     0.035 A 
ATOM     11  C   UNL d   1       2.360   0.731   0.008  0.00  0.00     0.026 A 
ATOM     12 CL   UNL d   1       3.924  -1.462  -0.151  0.00  0.00    -0.084 Cl
ENDROOT
BRANCH   5  13
ATOM     13  C   UNL d   1      -3.609   1.492  -0.111  0.00  0.00    -0.028 A 
ATOM     14  C   UNL d   1      -4.725   1.345  -0.947  0.00  0.00     0.012 A 
ATOM     15  C   UNL d   1      -5.842   2.170  -0.790  0.00  0.00     0.037 A 
ATOM     16  C   UNL d   1      -5.871   3.152   0.202  0.00  0.00     0.068 A 
ATOM     17  C   UNL d   1      -4.787   3.273   1.068  0.00  0.00     0.037 A 
ATOM     18  C   UNL d   1      -3.667   2.447   0.915  0.00  0.00     0.012 A 
BRANCH  16  19
ATOM     19  O   UNL d   1      -7.001   3.922   0.217  0.00  0.00    -0.356 OA
ATOM     20  C   UNL d   1      -7.024   5.010   1.133  0.00  0.00     0.210 C 
ENDBRANCH  16  19
ENDBRANCH   5  13
TORSDOF 2
