REMARK  2 active torsions:
REMARK  status: ('A' for Active; 'I' for Inactive)
REMARK    1  A    between atoms: N_5  and  C_2 
REMARK    2  A    between atoms: N_13  and  C_4 
ROOT
ATOM      1  C   UNL d   1       0.156  -0.756  -0.022  0.00  0.00     0.120 A 
ATOM      2  C   UNL d   1      -1.058  -1.462  -0.010  0.00  0.00     0.134 A 
ATOM      3  C   UNL d   1       0.175   0.716  -0.052  0.00  0.00     0.114 A 
ATOM      4  C   UNL d   1      -1.011   1.522  -0.073  0.00  0.00     0.061 A 
ATOM      5  C   UNL d   1      -2.232  -0.688  -0.018  0.00  0.00     0.041 A 
ATOM      6  N   UNL d   1       1.429  -1.175  -0.011  0.00  0.00    -0.237 N 
ATOM      7  HN  UNL d   1       1.751  -2.143   0.010  1.00  0.00     0.197 HD
ATOM      8  N   UNL d   1       1.462   1.100  -0.061  0.00  0.00    -0.237 N 
ATOM      9  HN  UNL d   1       1.811   2.058  -0.086  1.00  0.00     0.197 HD
ATOM     10  C   UNL d   1      -2.193   0.730  -0.048  0.00  0.00     0.034 A 
ATOM     11  O   UNL d   1       2.218  -0.048  -0.032  0.00  0.00    -0.156 OA
ENDROOT
BRANCH   4  12
ATOM     12  N   UNL d   1      -1.069   2.901  -0.073  0.00  0.00    -0.379 N 
ATOM     13  C   UNL d   1       0.120   3.747  -0.043  0.00  0.00     0.123 C 
ATOM     14  C   UNL d   1      -0.465   5.135   0.187  0.00  0.00     0.021 C 
ATOM     15  C   UNL d   1      -1.750   5.108  -0.625  0.00  0.00     0.021 C 
ATOM     16  C   UNL d   1      -2.231   3.657  -0.542  0.00  0.00     0.123 C 
ENDBRANCH   4  12
BRANCH   2  17
ATOM     17  N   UNL d   1      -1.103  -2.909   0.012  0.00  0.00    -0.113 N 
ATOM     18  O   UNL d   1      -0.047  -3.548  -0.006  0.00  0.00    -0.532 OA
ATOM     19  O   UNL d   1      -2.229  -3.433   0.045  0.00  0.00    -0.532 OA
ENDBRANCH   2  17
TORSDOF 2
