REMARK  5 active torsions:
REMARK  status: ('A' for Active; 'I' for Inactive)
REMARK    1  A    between atoms: C_2  and  N_1 
REMARK    2  A    between atoms: N_12  and  C_7 
REMARK    3  A    between atoms: C_16  and  N_12 
REMARK    4  A    between atoms: C_13  and  C_15 
REMARK    5  A    between atoms: C_15  and  C_16 
ROOT
ATOM      1  N   UNL d   1      -1.992  -3.886   2.964  0.00  0.00    -0.279 NA
ATOM      2  H   UNL d   1      -1.320  -4.130   2.243  0.00  0.00     0.129 HD
ENDROOT
BRANCH   1   3
ATOM      3  C   UNL d   1      -2.642  -2.688   2.675  0.00  0.00     0.079 A 
ATOM      4  C   UNL d   1      -3.334  -2.602   1.466  0.00  0.00     0.044 A 
ATOM      5  C   UNL d   1      -4.059  -1.452   1.155  0.00  0.00     0.041 A 
ATOM      6  C   UNL d   1      -4.048  -0.396   2.062  0.00  0.00     0.118 A 
ATOM      7  C   UNL d   1      -3.323  -0.535   3.233  0.00  0.00     0.125 A 
ATOM      8  N   UNL d   1      -2.641  -1.666   3.557  0.00  0.00    -0.354 N 
ATOM      9  HN  UNL d   1      -2.142  -1.741   4.443  1.00  0.00     0.166 HD
BRANCH   6  10
ATOM     10  N   UNL d   1      -4.795   0.826   1.807  0.00  0.00    -0.114 N 
ATOM     11  O   UNL d   1      -4.701   1.744   2.633  0.00  0.00    -0.532 OA
ATOM     12  O   UNL d   1      -5.485   0.871   0.778  0.00  0.00    -0.532 OA
ENDBRANCH   6  10
ENDBRANCH   1   3
BRANCH   1  13
ATOM     13  C   UNL d   1      -1.498  -4.103   4.324  0.00  0.00     0.099 C 
BRANCH  13  14
ATOM     14  C   UNL d   1      -2.506  -4.971   5.074  0.00  0.00     0.071 C 
BRANCH  14  15
ATOM     15  C   UNL d   1      -2.080  -5.250   6.489  0.00  0.00     0.010 A 
ATOM     16  N   UNL d   1      -1.278  -6.325   6.692  0.00  0.00    -0.369 N 
ATOM     17  C   UNL d   1      -0.926  -6.601   7.968  0.00  0.00     0.088 A 
ATOM     18  HN  UNL d   1      -0.953  -6.901   5.915  1.00  0.00     0.165 HD
ATOM     19  C   UNL d   1      -1.325  -5.851   9.058  0.00  0.00     0.017 A 
ATOM     20  C   UNL d   1      -2.134  -4.743   8.831  0.00  0.00     0.003 A 
ATOM     21  C   UNL d   1      -2.515  -4.435   7.529  0.00  0.00     0.025 A 
ENDBRANCH  14  15
ENDBRANCH  13  14
ENDBRANCH   1  13
TORSDOF 5
