REMARK  5 active torsions:
REMARK  status: ('A' for Active; 'I' for Inactive)
REMARK    1  A    between atoms: C_3  and  S_1 
REMARK    2  A    between atoms: N_5  and  S_1 
REMARK    3  A    between atoms: C_4  and  C_2 
REMARK    4  A    between atoms: C_15  and  N_5 
REMARK    5  A    between atoms: C_8  and  C_12 
ROOT
ATOM      1  C   UNL d   1       2.562  -2.627   3.327  0.00  0.00    -0.007 A 
ATOM      2  C   UNL d   1       0.849  -1.053   2.594  0.00  0.00     0.043 A 
ATOM      3  C   UNL d   1       2.167  -1.502   2.587  0.00  0.00     0.043 A 
ATOM      4  C   UNL d   1       1.573  -3.264   4.101  0.00  0.00     0.014 A 
ATOM      5  C   UNL d   1       0.250  -2.805   4.119  0.00  0.00     0.003 A 
ATOM      6  C   UNL d   1      -0.114  -1.695   3.364  0.00  0.00     0.030 A 
ENDROOT
BRANCH   2   7
ATOM      7  N   UNL d   1       0.499   0.028   1.749  0.00  0.00    -0.281 N 
ATOM      8  H   UNL d   1      -0.072   0.791   2.125  0.00  0.00     0.179 HD
BRANCH   7   9
ATOM      9  S   UNL d   1       0.183  -0.270   0.123  0.00  0.00     0.264 S 
ATOM     10  O   UNL d   1      -0.279   0.968  -0.472  0.00  0.00    -0.200 OA
ATOM     11  O   UNL d   1       1.317  -0.982  -0.437  0.00  0.00    -0.200 OA
BRANCH   9  12
ATOM     12  C   UNL d   1      -1.225  -1.372   0.108  0.00  0.00     0.094 A 
ATOM     13  C   UNL d   1      -2.473  -1.005   0.649  0.00  0.00     0.071 A 
ATOM     14  C   UNL d   1      -3.555  -1.898   0.479  0.00  0.00     0.018 A 
ATOM     15  C   UNL d   1      -3.407  -3.105  -0.206  0.00  0.00     0.001 A 
ATOM     16  C   UNL d   1      -2.166  -3.454  -0.726  0.00  0.00     0.002 A 
ATOM     17  C   UNL d   1      -1.079  -2.594  -0.571  0.00  0.00     0.026 A 
BRANCH  13  18
ATOM     18  C   UNL d   1      -2.775   0.263   1.414  0.00  0.00     0.419 C 
ATOM     19  F   UNL d   1      -1.718   1.051   1.733  0.00  0.00    -0.166 F 
ATOM     20  F   UNL d   1      -3.667   1.063   0.773  0.00  0.00    -0.166 F 
ATOM     21  F   UNL d   1      -3.347  -0.030   2.621  0.00  0.00    -0.166 F 
ENDBRANCH  13  18
ENDBRANCH   9  12
ENDBRANCH   7   9
ENDBRANCH   2   7
BRANCH   1  22
ATOM     22  C   UNL d   1       3.950  -3.139   3.273  0.00  0.00     0.045 A 
ATOM     23  N   UNL d   1       4.373  -3.838   4.353  0.00  0.00    -0.345 N 
ATOM     24  C   UNL d   1       5.632  -4.318   4.323  0.00  0.00     0.077 A 
ATOM     25  HN  UNL d   1       3.764  -3.995   5.156  1.00  0.00     0.167 HD
ATOM     26  C   UNL d   1       6.116  -5.104   5.499  0.00  0.00     0.089 C 
ATOM     27  N   UNL d   1       6.490  -4.162   3.298  0.00  0.00    -0.356 N 
ATOM     28  C   UNL d   1       6.033  -3.473   2.243  0.00  0.00     0.091 A 
ATOM     29  HN  UNL d   1       7.435  -4.546   3.323  1.00  0.00     0.166 HD
ATOM     30  C   UNL d   1       4.768  -2.942   2.176  0.00  0.00     0.047 A 
ENDBRANCH   1  22
TORSDOF 5
