REMARK  4 active torsions:
REMARK  status: ('A' for Active; 'I' for Inactive)
REMARK    1  A    between atoms: S_11  and  C_1 
REMARK    2  A    between atoms: N_3  and  C_10 
REMARK    3  A    between atoms: N_20  and  C_6 
REMARK    4  A    between atoms: C_12  and  S_11 
ROOT
ATOM      1  C   UNL d   1       4.260   1.610   0.964  0.00  0.00     0.064 A 
ATOM      2  C   UNL d   1       6.017   2.879  -0.133  0.00  0.00     0.104 A 
ATOM      3  C   UNL d   1       4.274   0.676  -0.090  0.00  0.00     0.028 A 
ATOM      4  N   UNL d   1       2.697   1.343   3.020  0.00  0.00    -0.191 NA
ATOM      5  C   UNL d   1       3.386   1.460   2.093  0.00  0.00     0.101 C 
ATOM      6  C   UNL d   1       5.131   2.713   0.940  0.00  0.00     0.060 A 
ATOM      7  C   UNL d   1       6.029   1.963  -1.190  0.00  0.00     0.037 A 
ATOM      8  C   UNL d   1       5.162   0.867  -1.163  0.00  0.00     0.023 A 
ENDROOT
BRANCH   3   9
ATOM      9  S   UNL d   1       3.289  -0.820  -0.087  0.00  0.00    -0.062 SA
BRANCH   9  10
ATOM     10  C   UNL d   1       1.805  -0.222  -0.801  0.00  0.00     0.135 A 
ATOM     11  S   UNL d   1       0.440  -1.234  -1.029  0.00  0.00    -0.026 SA
ATOM     12  C   UNL d   1      -0.371   0.127  -1.689  0.00  0.00     0.159 A 
ATOM     13  N   UNL d   1       0.370   1.213  -1.735  0.00  0.00    -0.279 N 
ATOM     14  N   UNL d   1       1.637   1.014  -1.218  0.00  0.00    -0.286 N 
ATOM     15  HN  UNL d   1       0.045   2.104  -2.111  1.00  0.00     0.189 HD
ATOM     16  HN  UNL d   1       2.355   1.737  -1.166  1.00  0.00     0.188 HD
BRANCH  12  17
ATOM     17  N   UNL d   1      -1.641   0.044  -2.120  0.00  0.00    -0.379 N 
ATOM     18  H   UNL d   1      -2.042  -0.865  -2.316  0.00  0.00     0.158 HD
ATOM     19  H   UNL d   1      -1.989   0.800  -2.698  0.00  0.00     0.158 HD
ENDBRANCH  12  17
ENDBRANCH   9  10
ENDBRANCH   3   9
BRANCH   2  20
ATOM     20  N   UNL d   1       6.958   4.007  -0.136  0.00  0.00    -0.116 N 
ATOM     21  O   UNL d   1       6.930   4.780   0.831  0.00  0.00    -0.532 OA
ATOM     22  O   UNL d   1       7.731   4.109  -1.099  0.00  0.00    -0.532 OA
ENDBRANCH   2  20
TORSDOF 4
