REMARK  3 active torsions:
REMARK  status: ('A' for Active; 'I' for Inactive)
REMARK    1  A    between atoms: C_2  and  S_1 
REMARK    2  A    between atoms: N_3  and  S_1 
REMARK    3  A    between atoms: N_13  and  C_8 
ROOT
ATOM      1  C   UNL d   1       0.397   1.631   0.137  0.00  0.00     0.102 A 
ATOM      2  C   UNL d   1       1.107   2.713  -0.380  0.00  0.00     0.059 A 
ATOM      3  C   UNL d   1      -0.745   1.865   0.928  0.00  0.00     0.035 A 
ATOM      4  C   UNL d   1       0.675   4.016  -0.091  0.00  0.00     0.050 A 
ATOM      5  C   UNL d   1      -0.459   4.246   0.695  0.00  0.00     0.041 A 
ATOM      6  C   UNL d   1      -1.189   3.170   1.213  0.00  0.00    -0.039 A 
ATOM      7 CL   UNL d   1       2.485   2.586  -1.408  0.00  0.00    -0.083 Cl
ATOM      8 CL   UNL d   1      -0.906   5.890   0.980  0.00  0.00    -0.084 Cl
ATOM      9  C   UNL d   1      -2.417   3.325   2.069  0.00  0.00     0.050 C 
ENDROOT
BRANCH   1  10
ATOM     10  S   UNL d   1       0.887  -0.067  -0.121  0.00  0.00     0.265 S 
ATOM     11  O   UNL d   1       0.247  -0.838   0.931  0.00  0.00    -0.200 OA
ATOM     12  O   UNL d   1       2.326  -0.128  -0.247  0.00  0.00    -0.200 OA
BRANCH  10  13
ATOM     13  N   UNL d   1       0.182  -0.448  -1.532  0.00  0.00    -0.277 N 
ATOM     14  C   UNL d   1       0.353  -1.655  -1.952  0.00  0.00     0.188 C 
ATOM     15  HN  UNL d   1      -0.368   0.231  -2.059  1.00  0.00     0.179 HD
BRANCH  14  16
ATOM     16  N   UNL d   1      -0.189  -2.200  -3.095  0.00  0.00    -0.385 N 
ATOM     17  C   UNL d   1       0.049  -3.579  -3.492  0.00  0.00     0.149 C 
ATOM     18  C   UNL d   1      -1.002  -1.415  -4.010  0.00  0.00     0.149 C 
ENDBRANCH  14  16
ENDBRANCH  10  13
ENDBRANCH   1  10
TORSDOF 3
