REMARK  5 active torsions:
REMARK  status: ('A' for Active; 'I' for Inactive)
REMARK    1  A    between atoms: C_7  and  S_1 
REMARK    2  A    between atoms: C_9  and  S_1 
REMARK    3  A    between atoms: N_4  and  C_11 
REMARK    4  A    between atoms: C_5  and  C_7 
REMARK    5  A    between atoms: C_15  and  C_6 
ROOT
ATOM      1  N   UNL d   1       1.811   2.655   1.018  0.00  0.00    -0.352 N 
ATOM      2  HN  UNL d   1       2.294   1.846   1.410  1.00  0.00     0.166 HD
ATOM      3  C   UNL d   1       1.005   2.616  -0.024  0.00  0.00     0.065 A 
ATOM      4  C   UNL d   1       1.911   3.949   1.506  0.00  0.00     0.049 A 
ATOM      5  S   UNL d   1       0.333   4.135  -0.479  0.00  0.00    -0.085 SA
ATOM      6  C   UNL d   1       1.204   4.891   0.786  0.00  0.00     0.081 A 
ENDROOT
BRANCH   3   7
ATOM      7  C   UNL d   1       0.611   1.372  -0.737  0.00  0.00     0.212 C 
BRANCH   7   8
ATOM      8  S   UNL d   1       1.698   1.109  -2.111  0.00  0.00     0.196 S 
ATOM      9  O   UNL d   1       1.702   2.306  -2.941  0.00  0.00    -0.221 OA
ATOM     10  O   UNL d   1       1.352  -0.165  -2.723  0.00  0.00    -0.221 OA
BRANCH   8  11
ATOM     11  C   UNL d   1       3.320   0.938  -1.397  0.00  0.00     0.128 A 
ATOM     12  N   UNL d   1       3.433  -0.094  -0.520  0.00  0.00    -0.357 N 
ATOM     13  C   UNL d   1       4.664  -0.284   0.001  0.00  0.00     0.089 A 
ATOM     14  HN  UNL d   1       2.641  -0.686  -0.272  1.00  0.00     0.166 HD
ATOM     15  C   UNL d   1       5.762   0.510  -0.302  0.00  0.00     0.017 A 
ATOM     16  C   UNL d   1       5.597   1.567  -1.195  0.00  0.00     0.004 A 
ATOM     17  C   UNL d   1       4.349   1.792  -1.763  0.00  0.00     0.042 A 
ENDBRANCH   8  11
ENDBRANCH   7   8
ENDBRANCH   3   7
BRANCH   4  18
ATOM     18  C   UNL d   1       2.708   4.253   2.689  0.00  0.00    -0.009 A 
ATOM     19  C   UNL d   1       3.829   3.466   2.997  0.00  0.00     0.016 A 
ATOM     20  C   UNL d   1       4.598   3.729   4.137  0.00  0.00     0.037 A 
ATOM     21  C   UNL d   1       4.237   4.785   4.983  0.00  0.00     0.102 A 
ATOM     22  C   UNL d   1       3.119   5.575   4.696  0.00  0.00     0.037 A 
ATOM     23  C   UNL d   1       2.360   5.305   3.552  0.00  0.00     0.016 A 
BRANCH  21  24
ATOM     24  N   UNL d   1       5.031   5.064   6.188  0.00  0.00    -0.116 N 
ATOM     25  O   UNL d   1       6.020   4.348   6.404  0.00  0.00    -0.532 OA
ATOM     26  O   UNL d   1       4.666   5.999   6.915  0.00  0.00    -0.532 OA
ENDBRANCH  21  24
ENDBRANCH   4  18
TORSDOF 5
