REMARK  4 active torsions:
REMARK  status: ('A' for Active; 'I' for Inactive)
REMARK       I    between atoms: N_2  and  C_1 
REMARK       I    between atoms: N_3  and  C_1 
REMARK    1  A    between atoms: C_13  and  N_3 
REMARK    2  A    between atoms: C_4  and  C_8 
REMARK    3  A    between atoms: C_11  and  C_4 
REMARK    4  A    between atoms: C_12  and  C_4 
ROOT
ATOM      1  C   UNL d   1       0.941  -0.092  -0.119  0.00  0.00     0.322 C 
ATOM      2  N   UNL d   1       0.224   0.927  -0.744  0.00  0.00    -0.334 N 
ATOM      3  N   UNL d   1       0.528  -0.434   1.149  0.00  0.00    -0.309 N 
ATOM      4  O   UNL d   1       1.876  -0.644  -0.700  0.00  0.00    -0.247 OA
ATOM      5  C   UNL d   1      -0.964   1.629  -0.252  0.00  0.00     0.128 C 
ATOM      6  C   UNL d   1       0.611   1.303  -2.106  0.00  0.00     0.128 C 
ATOM      7  C   UNL d   1      -1.844   1.800  -2.657  0.00  0.00     0.001 C 
ATOM      8  C   UNL d   1      -2.145   1.399  -1.192  0.00  0.00     0.025 C 
ATOM      9  C   UNL d   1      -0.543   1.074  -3.084  0.00  0.00     0.025 C 
ATOM     10  H   UNL d   1      -0.170   0.143   1.577  0.00  0.00     0.170 HD
ENDROOT
BRANCH   7  11
ATOM     11  C   UNL d   1      -1.770   3.352  -2.902  0.00  0.00     0.056 C 
BRANCH  11  12
ATOM     12  C   UNL d   1      -1.549   3.680  -4.383  0.00  0.00    -0.049 A 
ATOM     13  C   UNL d   1      -2.470   3.288  -5.369  0.00  0.00     0.008 A 
ATOM     14  C   UNL d   1      -2.236   3.563  -6.718  0.00  0.00     0.001 A 
ATOM     15  C   UNL d   1      -1.081   4.237  -7.103  0.00  0.00     0.000 A 
ATOM     16  C   UNL d   1      -0.163   4.645  -6.138  0.00  0.00     0.001 A 
ATOM     17  C   UNL d   1      -0.395   4.372  -4.787  0.00  0.00     0.008 A 
ENDBRANCH  11  12
BRANCH  11  18
ATOM     18  C   UNL d   1      -2.937   4.167  -2.338  0.00  0.00    -0.049 A 
ATOM     19  C   UNL d   1      -2.689   5.450  -1.817  0.00  0.00     0.008 A 
ATOM     20  C   UNL d   1      -3.721   6.214  -1.269  0.00  0.00     0.001 A 
ATOM     21  C   UNL d   1      -5.019   5.713  -1.237  0.00  0.00     0.000 A 
ATOM     22  C   UNL d   1      -5.290   4.457  -1.775  0.00  0.00     0.001 A 
ATOM     23  C   UNL d   1      -4.260   3.697  -2.335  0.00  0.00     0.008 A 
ENDBRANCH  11  18
ENDBRANCH   7  11
BRANCH   3  24
ATOM     24  C   UNL d   1       0.992  -1.500   1.954  0.00  0.00     0.036 A 
ATOM     25  C   UNL d   1       2.013  -2.380   1.587  0.00  0.00     0.031 A 
ATOM     26  C   UNL d   1       2.378  -3.442   2.425  0.00  0.00     0.026 A 
ATOM     27  C   UNL d   1       1.720  -3.631   3.635  0.00  0.00     0.034 A 
ATOM     28  C   UNL d   1       0.713  -2.754   4.026  0.00  0.00     0.026 A 
ATOM     29 CL   UNL d   1       2.145  -4.955   4.646  0.00  0.00    -0.084 Cl
ATOM     30  C   UNL d   1       0.355  -1.689   3.191  0.00  0.00     0.031 A 
ENDBRANCH   3  24
TORSDOF 4
