REMARK  3 active torsions:
REMARK  status: ('A' for Active; 'I' for Inactive)
REMARK    1  A    between atoms: C_13  and  C_4 
REMARK    2  A    between atoms: C_7  and  N_9 
REMARK    3  A    between atoms: N_18  and  C_8 
ROOT
ATOM      1  C   UNL d   1       5.661   1.730   0.002  0.00  0.00     0.145 C 
ATOM      2  C   UNL d   1       6.194   2.819   0.608  0.00  0.00     0.125 C 
ATOM      3  C   UNL d   1       6.490   0.840  -0.762  0.00  0.00     0.120 C 
ATOM      4  C   UNL d   1       7.604   3.080   0.590  0.00  0.00     0.114 C 
ATOM      5  N   UNL d   1       7.127   0.093  -1.383  0.00  0.00    -0.190 NA
ATOM      6  N   UNL d   1       8.742   3.300   0.612  0.00  0.00    -0.190 NA
ENDROOT
BRANCH   1   7
ATOM      7  N   UNL d   1       4.286   1.581   0.044  0.00  0.00    -0.354 N 
ATOM      8  C   UNL d   1       3.756   0.400   0.030  0.00  0.00     0.108 C 
ATOM      9  HN  UNL d   1       3.687   2.405   0.087  1.00  0.00     0.166 HD
BRANCH   8  10
ATOM     10  C   UNL d   1       2.310   0.276   0.024  0.00  0.00     0.028 A 
ATOM     11  S   UNL d   1       1.640  -1.313   0.027  0.00  0.00    -0.080 SA
ATOM     12  C   UNL d   1       0.098  -0.679   0.010  0.00  0.00     0.057 A 
ATOM     13  C   UNL d   1       0.046   0.667   0.009  0.00  0.00     0.002 A 
ATOM     14  S   UNL d   1      -1.392  -1.429  -0.007  0.00  0.00    -0.093 SA
ATOM     15  C   UNL d   1       1.328   1.284  -0.002  0.00  0.00    -0.031 A 
ATOM     16  C   UNL d   1      -1.278   1.186   0.018  0.00  0.00    -0.043 A 
ATOM     17  C   UNL d   1       1.679   2.735  -0.046  0.00  0.00     0.050 C 
ATOM     18  C   UNL d   1      -1.788   2.586   0.051  0.00  0.00     0.049 C 
ATOM     19  C   UNL d   1      -2.167   0.109  -0.003  0.00  0.00     0.058 A 
ENDBRANCH   8  10
ENDBRANCH   1   7
BRANCH   2  20
ATOM     20  N   UNL d   1       5.445   3.779   1.293  0.00  0.00    -0.291 NA
ATOM     21  H   UNL d   1       4.513   3.434   1.525  0.00  0.00     0.125 HD
ATOM     22  H   UNL d   1       5.929   4.217   2.074  0.00  0.00     0.125 HD
ENDBRANCH   2  20
TORSDOF 3
