REMARK  3 active torsions:
REMARK  status: ('A' for Active; 'I' for Inactive)
REMARK    1  A    between atoms: C_7  and  C_1 
REMARK    2  A    between atoms: C_12  and  C_7 
REMARK    3  A    between atoms: C_13  and  C_12 
ROOT
ATOM      1  C   UNL d   1      -1.740  -1.305  -0.127  0.00  0.00     0.086 C 
ATOM      2  C   UNL d   1      -2.052   0.143  -0.004  0.00  0.00     0.302 C 
ATOM      3  C   UNL d   1      -0.468  -1.730  -0.165  0.00  0.00     0.035 C 
ATOM      4  O   UNL d   1      -0.973   1.025  -0.080  0.00  0.00    -0.274 OA
ATOM      5  C   UNL d   1       0.636  -0.789  -0.077  0.00  0.00    -0.001 A 
ATOM      6  C   UNL d   1       0.356   0.571  -0.070  0.00  0.00     0.089 A 
ATOM      7  O   UNL d   1      -3.184   0.571   0.185  0.00  0.00    -0.259 OA
ATOM      8  C   UNL d   1       1.966  -1.208  -0.017  0.00  0.00     0.014 A 
ATOM      9  C   UNL d   1       1.368   1.526  -0.025  0.00  0.00     0.038 A 
ATOM     10  C   UNL d   1       2.695   1.103   0.030  0.00  0.00     0.003 A 
ATOM     11  C   UNL d   1       2.994  -0.261   0.041  0.00  0.00     0.001 A 
ENDROOT
BRANCH   1  12
ATOM     12  C   UNL d   1      -2.848  -2.304  -0.252  0.00  0.00     0.165 C 
ATOM     13  O   UNL d   1      -3.892  -2.001  -0.830  0.00  0.00    -0.292 OA
BRANCH  12  14
ATOM     14  C   UNL d   1      -2.657  -3.733   0.244  0.00  0.00     0.084 C 
BRANCH  14  15
ATOM     15  C   UNL d   1      -2.254  -3.862   1.711  0.00  0.00     0.003 C 
ATOM     16  C   UNL d   1      -3.329  -3.363   2.663  0.00  0.00     0.005 C 
ENDBRANCH  14  15
ENDBRANCH  12  14
ENDBRANCH   1  12
TORSDOF 3
