REMARK  10 active torsions:
REMARK  status: ('A' for Active; 'I' for Inactive)
REMARK    1  A    between atoms: C_3  and  C_1 
REMARK    2  A    between atoms: C_6  and  C_1 
REMARK    3  A    between atoms: C_2  and  C_9 
REMARK    4  A    between atoms: O_11  and  C_2 
REMARK    5  A    between atoms: C_9  and  C_6 
REMARK    6  A    between atoms: O_14  and  C_10 
REMARK    7  A    between atoms: C_15  and  O_14 
REMARK    8  A    between atoms: C_16  and  C_15 
REMARK    9  A    between atoms: C_18  and  C_16 
REMARK   10  A    between atoms: C_17  and  C_18 
ROOT
ATOM      1  C   UNL d   1       0.184   0.200  -1.326  0.00  0.00     0.010 A 
ATOM      2  C   UNL d   1       0.523  -0.578  -2.441  0.00  0.00     0.018 A 
ATOM      3  C   UNL d   1      -0.883   1.098  -1.427  0.00  0.00     0.018 A 
ATOM      4  C   UNL d   1      -1.254   0.448  -3.738  0.00  0.00     0.068 A 
ATOM      5  C   UNL d   1      -0.197  -0.458  -3.642  0.00  0.00     0.037 A 
ATOM      6  C   UNL d   1      -1.590   1.219  -2.627  0.00  0.00     0.037 A 
ENDROOT
BRANCH   1   7
ATOM      7  C   UNL d   1       1.000   0.103  -0.081  0.00  0.00     0.160 C 
ATOM      8  O   UNL d   1       2.192  -0.200  -0.145  0.00  0.00    -0.292 OA
BRANCH   7   9
ATOM      9  C   UNL d   1       0.328   0.337   1.264  0.00  0.00     0.094 C 
BRANCH   9  10
ATOM     10  C   UNL d   1       1.313   0.837   2.311  0.00  0.00     0.117 C 
BRANCH  10  11
ATOM     11  C   UNL d   1       1.883   2.178   1.924  0.00  0.00     0.139 C 
ATOM     12  O   UNL d   1       1.322   3.237   2.150  0.00  0.00    -0.650 OA
BRANCH  11  13
ATOM     13  O   UNL d   1       3.055   2.096   1.260  0.00  0.00    -0.776 OA
ATOM     14  H   UNL d   1       3.297   1.176   1.007  0.00  0.00     0.167 HD
ENDBRANCH  11  13
ENDBRANCH  10  11
ENDBRANCH   9  10
ENDBRANCH   7   9
ENDBRANCH   1   7
BRANCH   4  15
ATOM     15  O   UNL d   1      -1.986   0.715  -4.863  0.00  0.00    -0.351 OA
BRANCH  15  16
ATOM     16  C   UNL d   1      -2.098  -0.343  -5.812  0.00  0.00     0.175 C 
BRANCH  16  17
ATOM     17  C   UNL d   1      -2.952   0.143  -6.984  0.00  0.00     0.027 C 
BRANCH  17  18
ATOM     18  C   UNL d   1      -3.142  -0.973  -8.010  0.00  0.00     0.002 C 
BRANCH  18  19
ATOM     19  C   UNL d   1      -3.969  -0.520  -9.210  0.00  0.00    -0.004 C 
ATOM     20  C   UNL d   1      -4.144  -1.653 -10.209  0.00  0.00     0.005 C 
ENDBRANCH  18  19
ENDBRANCH  17  18
ENDBRANCH  16  17
ENDBRANCH  15  16
ENDBRANCH   4  15
TORSDOF 10
