REMARK  4 active torsions:
REMARK  status: ('A' for Active; 'I' for Inactive)
REMARK    1  A    between atoms: C_2  and  C_1 
REMARK    2  A    between atoms: O_10  and  C_2 
REMARK    3  A    between atoms: C_3  and  C_4 
REMARK    4  A    between atoms: C_9  and  C_5 
ROOT
ATOM      1  C   UNL d   1       2.904   1.143   0.626  0.00  0.00     0.008 C 
ATOM      2  C   UNL d   1       2.353   2.167   1.301  0.00  0.00     0.013 C 
ENDROOT
BRANCH   1   3
ATOM      3  C   UNL d   1       2.188   0.015   0.030  0.00  0.00    -0.056 C 
ATOM      4  C   UNL d   1       0.973   0.161  -0.538  0.00  0.00     0.087 C 
ATOM      5  C   UNL d   1       2.964  -1.280  -0.000  0.00  0.00     0.048 C 
BRANCH   4   6
ATOM      6  C   UNL d   1       0.229  -0.938  -1.199  0.00  0.00     0.165 C 
ATOM      7  O   UNL d   1       0.453  -2.128  -1.066  0.00  0.00    -0.647 OA
BRANCH   6   8
ATOM      8  O   UNL d   1      -0.753  -0.464  -1.993  0.00  0.00    -0.773 OA
ATOM      9  H   UNL d   1      -0.799   0.504  -2.077  0.00  0.00     0.167 HD
ENDBRANCH   6   8
ENDBRANCH   4   6
ENDBRANCH   1   3
BRANCH   2  10
ATOM     10  C   UNL d   1       3.120   3.286   1.872  0.00  0.00    -0.021 A 
ATOM     11  C   UNL d   1       2.651   3.953   3.002  0.00  0.00     0.099 A 
ATOM     12  N   UNL d   1       3.253   5.026   3.571  0.00  0.00    -0.374 N 
ATOM     13  C   UNL d   1       4.384   5.467   2.983  0.00  0.00     0.087 A 
ATOM     14  HN  UNL d   1       2.871   5.477   4.402  1.00  0.00     0.164 HD
ATOM     15  C   UNL d   1       4.936   4.888   1.854  0.00  0.00     0.018 A 
ATOM     16  C   UNL d   1       4.290   3.788   1.290  0.00  0.00     0.014 A 
ENDBRANCH   2  10
TORSDOF 4
