REMARK  4 active torsions:
REMARK  status: ('A' for Active; 'I' for Inactive)
REMARK    1  A    between atoms: C_11  and  N_1 
REMARK    2  A    between atoms: C_8  and  C_7 
REMARK       I    between atoms: N_12  and  C_8 
REMARK    3  A    between atoms: C_10  and  C_11 
REMARK    4  A    between atoms: C_14  and  N_12 
ROOT
ATOM      1  C   UNL d   1       2.545  -4.728  -0.504  0.00  0.00     0.143 A 
ATOM      2  O   UNL d   1       1.314  -4.241  -0.877  0.00  0.00    -0.308 OA
ATOM      3  C   UNL d   1       0.939  -3.346   0.099  0.00  0.00     0.073 A 
ATOM      4  C   UNL d   1       2.928  -4.154   0.694  0.00  0.00     0.045 A 
ATOM      5  C   UNL d   1       1.901  -3.278   1.084  0.00  0.00     0.037 A 
ENDROOT
BRANCH   1   6
ATOM      6  C   UNL d   1       3.283  -5.697  -1.294  0.00  0.00     0.279 C 
ATOM      7  N   UNL d   1       2.707  -6.102  -2.494  0.00  0.00    -0.321 N 
ATOM      8  H   UNL d   1       1.878  -5.596  -2.778  0.00  0.00     0.169 HD
ATOM      9  O   UNL d   1       4.384  -6.088  -0.901  0.00  0.00    -0.265 OA
BRANCH   7  10
ATOM     10  C   UNL d   1       3.297  -7.013  -3.411  0.00  0.00     0.038 A 
ATOM     11  C   UNL d   1       4.359  -7.862  -3.068  0.00  0.00     0.053 A 
ATOM     12  C   UNL d   1       4.981  -8.661  -4.031  0.00  0.00     0.037 A 
ATOM     13 CL   UNL d   1       6.312  -9.656  -3.581  0.00  0.00    -0.084 Cl
ATOM     14  C   UNL d   1       4.543  -8.649  -5.347  0.00  0.00     0.048 A 
ATOM     15  C   UNL d   1       3.452  -7.853  -5.683  0.00  0.00     0.037 A 
ATOM     16  C   UNL d   1       2.819  -7.048  -4.725  0.00  0.00     0.053 A 
ATOM     17 CL   UNL d   1       2.893  -7.842  -7.312  0.00  0.00    -0.084 Cl
ENDBRANCH   7  10
ENDBRANCH   1   6
BRANCH   3  18
ATOM     18  C   UNL d   1      -0.364  -2.645  -0.037  0.00  0.00     0.213 C 
BRANCH  18  19
ATOM     19  N   UNL d   1      -0.206  -1.379  -0.746  0.00  0.00    -0.289 N 
ATOM     20  N   UNL d   1       0.025  -0.252  -0.026  0.00  0.00    -0.301 N 
ATOM     21  C   UNL d   1       0.073   0.726  -0.941  0.00  0.00     0.041 A 
ATOM     22  HN  UNL d   1       0.136  -0.168   0.984  1.00  0.00     0.187 HD
ATOM     23  C   UNL d   1       0.318   2.131  -0.532  0.00  0.00     0.071 C 
ATOM     24  C   UNL d   1      -0.145   0.213  -2.233  0.00  0.00     0.058 A 
ATOM     25  C   UNL d   1      -0.329  -1.143  -2.096  0.00  0.00     0.044 A 
ATOM     26 BR   UNL d   1      -0.185   1.217  -3.814  0.00  0.00    -0.047 Br
ATOM     27  C   UNL d   1      -0.601  -2.182  -3.118  0.00  0.00     0.071 C 
ENDBRANCH  18  19
ENDBRANCH   3  18
TORSDOF 4
