REMARK  5 active torsions:
REMARK  status: ('A' for Active; 'I' for Inactive)
REMARK    1  A    between atoms: S_2  and  N_1 
REMARK    2  A    between atoms: C_9  and  S_2 
REMARK    3  A    between atoms: C_10  and  C_3 
REMARK    4  A    between atoms: S_8  and  C_4 
REMARK    5  A    between atoms: C_17  and  S_8 
ROOT
ATOM      1  N   UNL d   1       1.019  -0.596  -0.095  0.00  0.00    -0.175 N 
ATOM      2  C   UNL d   1       1.058   0.809  -0.072  0.00  0.00     0.097 C 
ATOM      3  C   UNL d   1      -0.290   1.166  -0.114  0.00  0.00     0.052 C 
ATOM      4  N   UNL d   1      -0.238  -1.085  -0.343  0.00  0.00    -0.294 N 
ATOM      5  HN  UNL d   1      -0.508  -2.049  -0.540  1.00  0.00     0.187 HD
ATOM      6  C   UNL d   1      -1.022  -0.017  -0.267  0.00  0.00     0.129 C 
ENDROOT
BRANCH   1   7
ATOM      7  S   UNL d   1       2.389  -1.670   0.044  0.00  0.00     0.282 S 
ATOM      8  O   UNL d   1       3.390  -0.964   0.825  0.00  0.00    -0.198 OA
ATOM      9  O   UNL d   1       1.856  -2.945   0.479  0.00  0.00    -0.198 OA
BRANCH   7  10
ATOM     10  C   UNL d   1       3.002  -1.899  -1.607  0.00  0.00     0.081 A 
ATOM     11  C   UNL d   1       4.366  -2.166  -1.773  0.00  0.00     0.026 A 
ATOM     12  C   UNL d   1       4.873  -2.424  -3.049  0.00  0.00     0.008 A 
ATOM     13  C   UNL d   1       4.023  -2.428  -4.162  0.00  0.00    -0.062 A 
ATOM     14  C   UNL d   1       2.670  -2.108  -3.990  0.00  0.00     0.008 A 
ATOM     15  C   UNL d   1       4.563  -2.767  -5.522  0.00  0.00     0.048 C 
ATOM     16  C   UNL d   1       2.153  -1.855  -2.716  0.00  0.00     0.026 A 
ENDBRANCH   7  10
ENDBRANCH   1   7
BRANCH   2  17
ATOM     17  C   UNL d   1       2.239   1.688   0.042  0.00  0.00    -0.005 A 
ATOM     18  C   UNL d   1       3.364   1.538  -0.779  0.00  0.00     0.015 A 
ATOM     19  C   UNL d   1       4.449   2.420  -0.693  0.00  0.00     0.024 A 
ATOM     20  C   UNL d   1       4.388   3.514   0.163  0.00  0.00     0.034 A 
ATOM     21  C   UNL d   1       3.269   3.709   0.962  0.00  0.00     0.024 A 
ATOM     22 CL   UNL d   1       5.687   4.639   0.213  0.00  0.00    -0.084 Cl
ATOM     23  C   UNL d   1       2.219   2.785   0.921  0.00  0.00     0.015 A 
ENDBRANCH   2  17
BRANCH   3  24
ATOM     24  S   UNL d   1      -1.038   2.744   0.010  0.00  0.00    -0.087 SA
BRANCH  24  25
ATOM     25  C   UNL d   1      -1.104   3.256  -1.690  0.00  0.00     0.005 A 
ATOM     26  C   UNL d   1      -2.314   3.176  -2.388  0.00  0.00     0.020 A 
ATOM     27  C   UNL d   1      -2.392   3.605  -3.715  0.00  0.00     0.025 A 
ATOM     28  C   UNL d   1      -1.261   4.122  -4.343  0.00  0.00     0.034 A 
ATOM     29  C   UNL d   1      -0.054   4.218  -3.653  0.00  0.00     0.025 A 
ATOM     30 CL   UNL d   1      -1.357   4.649  -5.976  0.00  0.00    -0.084 Cl
ATOM     31  C   UNL d   1       0.023   3.789  -2.325  0.00  0.00     0.020 A 
ENDBRANCH  24  25
ENDBRANCH   3  24
TORSDOF 5
