REMARK  5 active torsions:
REMARK  status: ('A' for Active; 'I' for Inactive)
REMARK    1  A    between atoms: C_8  and  C_1 
REMARK    2  A    between atoms: S_2  and  N_9 
REMARK    3  A    between atoms: C_12  and  S_2 
REMARK    4  A    between atoms: C_11  and  C_4 
REMARK       I    between atoms: N_10  and  C_8 
REMARK    5  A    between atoms: N_9  and  N_10 
ROOT
ATOM      1  C   UNL d   1      -0.320  -2.627   0.054  0.00  0.00     0.279 C 
ATOM      2  N   UNL d   1       0.821  -3.414   0.072  0.00  0.00    -0.256 N 
ATOM      3  O   UNL d   1      -1.433  -3.158   0.065  0.00  0.00    -0.265 OA
ATOM      4  H   UNL d   1       1.759  -3.018   0.052  0.00  0.00     0.191 HD
ENDROOT
BRANCH   2   5
ATOM      5  N   UNL d   1       0.678  -4.859   0.106  0.00  0.00    -0.220 N 
ATOM      6  H   UNL d   1      -0.266  -5.258   0.121  0.00  0.00     0.200 HD
BRANCH   5   7
ATOM      7  S   UNL d   1       2.046  -5.833   0.119  0.00  0.00     0.276 S 
ATOM      8  O   UNL d   1       2.745  -5.623  -1.131  0.00  0.00    -0.199 OA
ATOM      9  O   UNL d   1       2.713  -5.636   1.387  0.00  0.00    -0.199 OA
BRANCH   7  10
ATOM     10  C   UNL d   1       1.361  -7.472   0.101  0.00  0.00     0.083 A 
ATOM     11  C   UNL d   1       1.158  -8.121  -1.122  0.00  0.00     0.052 A 
ATOM     12  C   UNL d   1       0.695  -9.438  -1.127  0.00  0.00     0.074 A 
ATOM     13 CL   UNL d   1       0.450 -10.241  -2.630  0.00  0.00    -0.081 Cl
ATOM     14  C   UNL d   1       0.444 -10.096   0.077  0.00  0.00     0.138 A 
ATOM     15  C   UNL d   1       0.654  -9.451   1.295  0.00  0.00     0.045 A 
ATOM     16  F   UNL d   1       0.005 -11.363   0.088  0.00  0.00    -0.204 F 
ATOM     17  C   UNL d   1       1.119  -8.135   1.312  0.00  0.00     0.028 A 
ENDBRANCH   7  10
ENDBRANCH   5   7
ENDBRANCH   2   5
BRANCH   1  18
ATOM     18  C   UNL d   1      -0.119  -1.188   0.023  0.00  0.00     0.098 A 
ATOM     19  S   UNL d   1       1.436  -0.464   0.058  0.00  0.00    -0.064 SA
ATOM     20  C   UNL d   1       0.730   1.104  -0.003  0.00  0.00     0.092 A 
ATOM     21  N   UNL d   1      -0.587   1.104  -0.045  0.00  0.00    -0.352 N 
ATOM     22  C   UNL d   1      -1.083  -0.192  -0.035  0.00  0.00     0.029 A 
ATOM     23  HN  UNL d   1      -1.165   1.945  -0.081  1.00  0.00     0.166 HD
ATOM     24  C   UNL d   1      -2.560  -0.373  -0.089  0.00  0.00     0.070 C 
BRANCH  20  25
ATOM     25  C   UNL d   1       1.479   2.343  -0.008  0.00  0.00     0.038 A 
ATOM     26  S   UNL d   1       3.195   2.424  -0.017  0.00  0.00    -0.099 SA
ATOM     27  C   UNL d   1       3.195   4.133  -0.033  0.00  0.00     0.050 A 
ATOM     28  C   UNL d   1       1.921   4.648  -0.027  0.00  0.00     0.008 A 
ATOM     29  C   UNL d   1       0.934   3.618  -0.012  0.00  0.00     0.022 A 
ENDBRANCH  20  25
ENDBRANCH   1  18
TORSDOF 5
