REMARK  5 active torsions:
REMARK  status: ('A' for Active; 'I' for Inactive)
REMARK    1  A    between atoms: C_2  and  C_1 
REMARK    2  A    between atoms: C_13  and  C_8 
REMARK    3  A    between atoms: C_22  and  C_10 
REMARK    4  A    between atoms: O_16  and  C_22 
REMARK    5  A    between atoms: C_18  and  O_16 
ROOT
ATOM      1  C   UNL d   1      -1.521   2.230   0.039  0.00  0.00     0.075 A 
ATOM      2  N   UNL d   1      -0.888   3.431  -0.206  0.00  0.00    -0.349 N 
ATOM      3  HN  UNL d   1       0.107   3.537  -0.406  1.00  0.00     0.166 HD
ATOM      4  C   UNL d   1      -1.756   4.423  -0.146  0.00  0.00     0.075 A 
ATOM      5  C   UNL d   1      -2.876   2.326   0.289  0.00  0.00     0.084 A 
ATOM      6  S   UNL d   1      -3.369   3.967   0.232  0.00  0.00    -0.084 SA
ENDROOT
BRANCH   1   7
ATOM      7  C   UNL d   1      -0.774   0.943  -0.003  0.00  0.00     0.128 A 
ATOM      8  C   UNL d   1      -1.293  -0.320   0.144  0.00  0.00     0.074 A 
ATOM      9  C   UNL d   1      -0.197  -1.204  -0.018  0.00  0.00     0.068 A 
ATOM     10  N   UNL d   1       0.929  -0.507  -0.238  0.00  0.00    -0.260 N 
ATOM     11  O   UNL d   1       0.566   0.829  -0.226  0.00  0.00    -0.235 OA
ATOM     12  HN  UNL d   1       1.865  -0.886  -0.385  1.00  0.00     0.195 HD
BRANCH   9  13
ATOM     13  C   UNL d   1      -0.225  -2.665   0.007  0.00  0.00    -0.007 A 
ATOM     14  C   UNL d   1       0.734  -3.410  -0.692  0.00  0.00     0.021 A 
ATOM     15  C   UNL d   1       0.691  -4.815  -0.719  0.00  0.00    -0.055 A 
ATOM     16  C   UNL d   1       1.736  -5.565  -1.499  0.00  0.00     0.049 C 
ATOM     17  C   UNL d   1      -0.330  -5.488  -0.019  0.00  0.00    -0.056 A 
ATOM     18  C   UNL d   1      -1.282  -4.742   0.688  0.00  0.00     0.008 A 
ATOM     19  C   UNL d   1      -0.417  -6.990  -0.011  0.00  0.00     0.049 C 
ATOM     20  C   UNL d   1      -1.232  -3.347   0.700  0.00  0.00     0.014 A 
ENDBRANCH   9  13
ENDBRANCH   1   7
BRANCH   4  21
ATOM     21  C   UNL d   1      -1.421   5.845  -0.477  0.00  0.00     0.240 C 
BRANCH  21  22
ATOM     22  O   UNL d   1      -1.153   6.537   0.745  0.00  0.00    -0.343 OA
BRANCH  22  23
ATOM     23  C   UNL d   1      -0.760   7.846   0.599  0.00  0.00     0.090 A 
ATOM     24  C   UNL d   1      -1.081   8.747   1.627  0.00  0.00     0.067 A 
ATOM     25 CL   UNL d   1      -1.977   8.248   3.019  0.00  0.00    -0.081 Cl
ATOM     26  C   UNL d   1      -0.692  10.090   1.543  0.00  0.00     0.026 A 
ATOM     27  C   UNL d   1       0.032  10.542   0.439  0.00  0.00     0.002 A 
ATOM     28  C   UNL d   1       0.375   9.649  -0.572  0.00  0.00     0.003 A 
ATOM     29  C   UNL d   1      -0.012   8.309  -0.489  0.00  0.00     0.038 A 
ENDBRANCH  22  23
ENDBRANCH  21  22
ENDBRANCH   4  21
TORSDOF 5
