REMARK  5 active torsions:
REMARK  status: ('A' for Active; 'I' for Inactive)
REMARK    1  A    between atoms: N_6  and  C_2 
REMARK    2  A    between atoms: C_11  and  C_3 
REMARK       I    between atoms: C_9  and  N_6 
REMARK    3  A    between atoms: C_10  and  C_9 
REMARK    4  A    between atoms: C_13  and  C_12 
REMARK    5  A    between atoms: O_20  and  C_13 
ROOT
ATOM      1  N   UNL d   1       0.178   2.263   0.188  0.00  0.00    -0.306 N 
ATOM      2  C   UNL d   1       1.349   2.990   0.187  0.00  0.00     0.228 C 
ATOM      3  O   UNL d   1       1.430   4.214   0.318  0.00  0.00    -0.273 OA
ATOM      4  H   UNL d   1       0.213   1.254   0.229  0.00  0.00     0.171 HD
ENDROOT
BRANCH   1   5
ATOM      5  C   UNL d   1      -1.101   2.766   0.228  0.00  0.00     0.167 A 
ATOM      6  S   UNL d   1      -1.469   4.417   0.015  0.00  0.00    -0.037 SA
ATOM      7  C   UNL d   1      -3.111   4.012   0.269  0.00  0.00     0.074 A 
ATOM      8  N   UNL d   1      -3.333   2.725   0.435  0.00  0.00    -0.296 N 
ATOM      9  N   UNL d   1      -2.157   1.996   0.385  0.00  0.00    -0.279 N 
ATOM     10  HN  UNL d   1      -4.255   2.316   0.582  1.00  0.00     0.187 HD
ATOM     11  HN  UNL d   1      -2.114   0.979   0.461  1.00  0.00     0.189 HD
BRANCH   7  12
ATOM     12  C   UNL d   1      -4.208   5.074   0.339  0.00  0.00     0.044 A 
ATOM     13  C   UNL d   1      -5.279   4.899   1.399  0.00  0.00     0.012 A 
ATOM     14  C   UNL d   1      -5.632   4.720  -0.037  0.00  0.00     0.012 A 
ENDBRANCH   7  12
ENDBRANCH   1   5
BRANCH   2  15
ATOM     15  C   UNL d   1       2.621   2.111   0.027  0.00  0.00     0.092 C 
ATOM     16  C   UNL d   1       3.919   2.622   0.744  0.00  0.00     0.096 C 
ATOM     17  C   UNL d   1       4.706   2.175  -0.513  0.00  0.00     0.017 C 
ATOM     18  C   UNL d   1       3.394   2.256  -1.308  0.00  0.00     0.016 C 
BRANCH  16  19
ATOM     19  C   UNL d   1       4.275   1.929   2.085  0.00  0.00     0.144 C 
ATOM     20  O   UNL d   1       4.329   0.717   2.261  0.00  0.00    -0.650 OA
BRANCH  19  21
ATOM     21  O   UNL d   1       4.526   2.785   3.110  0.00  0.00    -0.776 OA
ATOM     22  H   UNL d   1       4.441   3.727   2.870  0.00  0.00     0.167 HD
ENDBRANCH  19  21
ENDBRANCH  16  19
ENDBRANCH   2  15
TORSDOF 5
