REMARK  6 active torsions:
REMARK  status: ('A' for Active; 'I' for Inactive)
REMARK    1  A    between atoms: O_9  and  C_2 
REMARK    2  A    between atoms: S_10  and  C_4 
REMARK    3  A    between atoms: C_8  and  C_11 
REMARK    4  A    between atoms: C_14  and  O_9 
REMARK    5  A    between atoms: C_19  and  S_10 
REMARK    6  A    between atoms: C_20  and  C_19 
ROOT
ATOM      1  N   UNL d   1      -0.741   1.248   0.045  0.00  0.00    -0.297 N 
ATOM      2  C   UNL d   1      -0.735  -1.192   0.079  0.00  0.00     0.166 C 
ATOM      3  C   UNL d   1      -1.463   0.094   0.302  0.00  0.00     0.285 C 
ATOM      4  C   UNL d   1       0.637   1.184  -0.006  0.00  0.00     0.149 C 
ATOM      5  N   UNL d   1       1.306   0.076  -0.003  0.00  0.00    -0.338 N 
ATOM      6  HN  UNL d   1       2.326   0.080  -0.006  1.00  0.00     0.168 HD
ATOM      7  C   UNL d   1       0.605  -1.105   0.005  0.00  0.00     0.047 C 
ATOM      8  O   UNL d   1      -2.626   0.104   0.706  0.00  0.00    -0.265 OA
ATOM      9  C   UNL d   1      -1.489   2.499   0.027  0.00  0.00     0.162 C 
ATOM     10  C   UNL d   1       1.450  -2.348  -0.075  0.00  0.00     0.071 C 
ENDROOT
BRANCH   2  11
ATOM     11  O   UNL d   1      -1.379  -2.428   0.061  0.00  0.00    -0.303 OA
BRANCH  11  12
ATOM     12  C   UNL d   1      -2.630  -2.564  -0.496  0.00  0.00     0.077 A 
ATOM     13  C   UNL d   1      -3.110  -1.790  -1.555  0.00  0.00     0.053 A 
ATOM     14  C   UNL d   1      -4.428  -1.948  -2.014  0.00  0.00     0.050 A 
ATOM     15  C   UNL d   1      -5.229  -2.954  -1.452  0.00  0.00     0.016 A 
ATOM     16  C   UNL d   1      -4.725  -3.777  -0.446  0.00  0.00     0.004 A 
ATOM     17  C   UNL d   1      -3.429  -3.579   0.034  0.00  0.00     0.037 A 
BRANCH  14  18
ATOM     18  C   UNL d   1      -4.995  -1.029  -3.067  0.00  0.00     0.417 C 
ATOM     19  F   UNL d   1      -4.113  -0.081  -3.494  0.00  0.00    -0.166 F 
ATOM     20  F   UNL d   1      -5.391  -1.697  -4.185  0.00  0.00    -0.166 F 
ATOM     21  F   UNL d   1      -6.090  -0.346  -2.631  0.00  0.00    -0.166 F 
ENDBRANCH  14  18
ENDBRANCH  11  12
ENDBRANCH   2  11
BRANCH   4  22
ATOM     22  S   UNL d   1       1.519   2.703  -0.022  0.00  0.00    -0.089 SA
BRANCH  22  23
ATOM     23  C   UNL d   1       3.122   2.191  -0.702  0.00  0.00     0.121 C 
BRANCH  23  24
ATOM     24  C   UNL d   1       4.129   3.320  -0.654  0.00  0.00    -0.049 A 
ATOM     25  C   UNL d   1       5.052   3.402   0.398  0.00  0.00     0.008 A 
ATOM     26  C   UNL d   1       5.967   4.457   0.467  0.00  0.00     0.007 A 
ATOM     27  C   UNL d   1       5.973   5.458  -0.511  0.00  0.00    -0.062 A 
ATOM     28  C   UNL d   1       5.059   5.377  -1.567  0.00  0.00     0.007 A 
ATOM     29  C   UNL d   1       6.928   6.610  -0.398  0.00  0.00     0.048 C 
ATOM     30  C   UNL d   1       4.146   4.319  -1.639  0.00  0.00     0.008 A 
ENDBRANCH  23  24
ENDBRANCH  22  23
ENDBRANCH   4  22
TORSDOF 6
