REMARK  4 active torsions:
REMARK  status: ('A' for Active; 'I' for Inactive)
REMARK    1  A    between atoms: O_11  and  C_1 
REMARK    2  A    between atoms: N_2  and  C_5 
REMARK    3  A    between atoms: C_6  and  O_11 
REMARK    4  A    between atoms: N_9  and  C_13 
ROOT
ATOM      1  C   UNL d   1       3.213  -3.899  -1.069  0.00  0.00     0.136 A 
ATOM      2  C   UNL d   1       3.825  -3.265   0.015  0.00  0.00     0.113 A 
ATOM      3  C   UNL d   1       4.498  -4.054   0.967  0.00  0.00     0.069 A 
ATOM      4  C   UNL d   1       4.528  -5.454   0.916  0.00  0.00     0.033 A 
ATOM      5  C   UNL d   1       3.222  -5.301  -1.145  0.00  0.00     0.041 A 
ATOM      6  C   UNL d   1       3.865  -6.057  -0.157  0.00  0.00     0.032 A 
ENDROOT
BRANCH   2   7
ATOM      7  O   UNL d   1       3.856  -1.892   0.133  0.00  0.00    -0.285 OA
BRANCH   7   8
ATOM      8  C   UNL d   1       3.745  -1.308   1.333  0.00  0.00     0.193 A 
ATOM      9  N   UNL d   1       3.121  -1.861   2.349  0.00  0.00    -0.329 N 
ATOM     10  C   UNL d   1       3.230  -1.057   3.467  0.00  0.00     0.053 A 
ATOM     11  HN  UNL d   1       2.628  -2.754   2.317  1.00  0.00     0.168 HD
ATOM     12  C   UNL d   1       2.698  -1.343   4.740  0.00  0.00     0.054 A 
ATOM     13  C   UNL d   1       3.937   0.134   3.278  0.00  0.00     0.035 A 
ATOM     14  C   UNL d   1       2.877  -0.427   5.777  0.00  0.00     0.036 A 
ATOM     15 CL   UNL d   1       2.205  -0.762   7.326  0.00  0.00    -0.084 Cl
ATOM     16  C   UNL d   1       3.585   0.753   5.575  0.00  0.00     0.025 A 
ATOM     17  C   UNL d   1       4.135   1.051   4.323  0.00  0.00     0.023 A 
ATOM     18  S   UNL d   1       4.454   0.219   1.635  0.00  0.00    -0.044 SA
ENDBRANCH   7   8
ENDBRANCH   2   7
BRANCH   1  19
ATOM     19  N   UNL d   1       2.569  -3.155  -2.159  0.00  0.00    -0.113 N 
ATOM     20  O   UNL d   1       2.638  -1.917  -2.159  0.00  0.00    -0.532 OA
ATOM     21  O   UNL d   1       1.999  -3.814  -3.041  0.00  0.00    -0.532 OA
ENDBRANCH   1  19
BRANCH   4  22
ATOM     22  N   UNL d   1       5.208  -6.180   1.869  0.00  0.00    -0.381 N 
ATOM     23  C   UNL d   1       5.885  -7.433   1.544  0.00  0.00     0.123 C 
ATOM     24  C   UNL d   1       7.337  -7.343   2.014  0.00  0.00     0.024 C 
ATOM     25  C   UNL d   1       7.430  -6.979   3.503  0.00  0.00    -0.015 C 
ATOM     26  C   UNL d   1       6.634  -5.698   3.798  0.00  0.00     0.024 C 
ATOM     27  C   UNL d   1       8.889  -6.820   3.924  0.00  0.00     0.010 C 
ATOM     28  C   UNL d   1       5.198  -5.803   3.285  0.00  0.00     0.123 C 
ENDBRANCH   4  22
TORSDOF 4
