REMARK  6 active torsions:
REMARK  status: ('A' for Active; 'I' for Inactive)
REMARK    1  A    between atoms: C_2  and  S_1 
REMARK    2  A    between atoms: N_3  and  S_1 
REMARK    3  A    between atoms: N_14  and  C_7 
REMARK    4  A    between atoms: S_18  and  C_7 
REMARK       I    between atoms: C_11  and  N_15 
REMARK       I    between atoms: N_16  and  C_11 
REMARK    5  A    between atoms: N_15  and  N_14 
REMARK    6  A    between atoms: C_19  and  N_16 
ROOT
ATOM      1  N   UNL d   1       0.412  -1.266  -0.665  0.00  0.00    -0.259 N 
ATOM      2  HN  UNL d   1      -0.174  -1.991  -0.251  1.00  0.00     0.181 HD
ATOM      3  C   UNL d   1       0.867  -1.455  -1.853  0.00  0.00     0.168 C 
ENDROOT
BRANCH   3   4
ATOM      4  N   UNL d   1       1.692  -0.671  -2.635  0.00  0.00    -0.275 N 
ATOM      5  H   UNL d   1       2.158   0.153  -2.242  0.00  0.00     0.189 HD
BRANCH   4   6
ATOM      6  N   UNL d   1       1.734  -0.794  -4.037  0.00  0.00    -0.249 N 
ATOM      7  C   UNL d   1       2.969  -0.788  -4.680  0.00  0.00     0.339 C 
ATOM      8  N   UNL d   1       2.842  -1.007  -6.046  0.00  0.00    -0.308 N 
ATOM      9  O   UNL d   1       4.015  -0.587  -4.072  0.00  0.00    -0.245 OA
ATOM     10  H   UNL d   1       1.909  -0.963  -6.425  0.00  0.00     0.170 HD
ATOM     11  H   UNL d   1       0.860  -1.003  -4.504  0.00  0.00     0.192 HD
BRANCH   8  12
ATOM     12  C   UNL d   1       3.887  -1.190  -6.984  0.00  0.00     0.036 A 
ATOM     13  C   UNL d   1       5.221  -1.395  -6.625  0.00  0.00     0.031 A 
ATOM     14  C   UNL d   1       6.203  -1.620  -7.600  0.00  0.00     0.026 A 
ATOM     15  C   UNL d   1       5.855  -1.635  -8.946  0.00  0.00     0.034 A 
ATOM     16  C   UNL d   1       4.535  -1.424  -9.328  0.00  0.00     0.026 A 
ATOM     17 CL   UNL d   1       7.061  -1.929 -10.140  0.00  0.00    -0.084 Cl
ATOM     18  C   UNL d   1       3.554  -1.209  -8.350  0.00  0.00     0.031 A 
ENDBRANCH   8  12
ENDBRANCH   4   6
ENDBRANCH   3   4
BRANCH   3  19
ATOM     19  S   UNL d   1       0.356  -3.011  -2.571  0.00  0.00    -0.096 SA
ATOM     20  C   UNL d   1       0.103  -3.993  -1.062  0.00  0.00     0.099 C 
ENDBRANCH   3  19
BRANCH   1  21
ATOM     21  S   UNL d   1       0.714   0.043   0.196  0.00  0.00     0.269 S 
ATOM     22  O   UNL d   1       1.933   0.695  -0.234  0.00  0.00    -0.200 OA
ATOM     23  O   UNL d   1      -0.510   0.785   0.431  0.00  0.00    -0.200 OA
BRANCH  21  24
ATOM     24  C   UNL d   1       1.109  -0.694   1.688  0.00  0.00     0.135 A 
ATOM     25  C   UNL d   1       0.487  -0.616   2.911  0.00  0.00     0.098 A 
ATOM     26  O   UNL d   1       1.158  -1.419   3.792  0.00  0.00    -0.241 OA
ATOM     27  C   UNL d   1      -0.668   0.085   3.510  0.00  0.00     0.081 C 
ATOM     28  N   UNL d   1       2.226  -2.017   3.159  0.00  0.00    -0.264 N 
ATOM     29  C   UNL d   1       2.202  -1.568   1.897  0.00  0.00     0.054 A 
ATOM     30  HN  UNL d   1       2.897  -2.667   3.568  1.00  0.00     0.194 HD
ATOM     31  C   UNL d   1       3.253  -2.011   0.949  0.00  0.00     0.072 C 
ENDBRANCH  21  24
ENDBRANCH   1  21
TORSDOF 6
