REMARK  4 active torsions:
REMARK  status: ('A' for Active; 'I' for Inactive)
REMARK    1  A    between atoms: C_2  and  S_1 
REMARK    2  A    between atoms: N_3  and  S_1 
REMARK    3  A    between atoms: O_5  and  C_4 
REMARK    4  A    between atoms: C_6  and  O_5 
ROOT
ATOM      1  C   UNL d   1       0.137  -1.684  -0.292  0.00  0.00     0.108 A 
ATOM      2  C   UNL d   1       1.150  -2.648  -0.247  0.00  0.00     0.099 A 
ATOM      3  C   UNL d   1      -1.198  -2.068  -0.059  0.00  0.00     0.028 A 
ATOM      4  C   UNL d   1       0.805  -3.974   0.079  0.00  0.00     0.039 A 
ATOM      5  C   UNL d   1      -1.533  -3.404   0.150  0.00  0.00     0.002 A 
ATOM      6  C   UNL d   1      -0.527  -4.357   0.230  0.00  0.00     0.003 A 
ENDROOT
BRANCH   1   7
ATOM      7  S   UNL d   1       0.447   0.060  -0.469  0.00  0.00     0.246 S 
ATOM      8  O   UNL d   1       1.854   0.325  -0.259  0.00  0.00    -0.206 OA
ATOM      9  O   UNL d   1      -0.543   0.749   0.333  0.00  0.00    -0.206 OA
BRANCH   7  10
ATOM     10  N   UNL d   1       0.086   0.438  -2.132  0.00  0.00    -0.206 NA
ATOM     11  C   UNL d   1      -1.324   0.147  -2.531  0.00  0.00     0.107 C 
ATOM     12  C   UNL d   1      -1.577   0.511  -3.991  0.00  0.00     0.015 C 
ATOM     13  C   UNL d   1      -1.262   1.975  -4.252  0.00  0.00     0.002 C 
ATOM     14  C   UNL d   1       0.182   2.253  -3.862  0.00  0.00     0.015 C 
ATOM     15  C   UNL d   1       0.448   1.876  -2.409  0.00  0.00     0.107 C 
ENDBRANCH   7  10
ENDBRANCH   1   7
BRANCH   2  16
ATOM     16  O   UNL d   1       2.468  -2.311  -0.490  0.00  0.00    -0.308 OA
BRANCH  16  17
ATOM     17  C   UNL d   1       3.258  -3.228  -1.165  0.00  0.00     0.098 A 
ATOM     18  C   UNL d   1       4.580  -3.439  -0.748  0.00  0.00     0.069 A 
ATOM     19  C   UNL d   1       5.381  -4.384  -1.399  0.00  0.00     0.050 A 
ATOM     20 CL   UNL d   1       5.253  -2.590   0.595  0.00  0.00    -0.081 Cl
ATOM     21  C   UNL d   1       4.861  -5.119  -2.463  0.00  0.00     0.035 A 
ATOM     22  C   UNL d   1       3.555  -4.906  -2.898  0.00  0.00     0.026 A 
ATOM     23 CL   UNL d   1       5.832  -6.300  -3.250  0.00  0.00    -0.084 Cl
ATOM     24  C   UNL d   1       2.767  -3.940  -2.270  0.00  0.00     0.041 A 
ENDBRANCH  16  17
ENDBRANCH   2  16
TORSDOF 4
