REMARK  7 active torsions:
REMARK  status: ('A' for Active; 'I' for Inactive)
REMARK    1  A    between atoms: C_12  and  C_1 
REMARK    2  A    between atoms: S_2  and  N_7 
REMARK    3  A    between atoms: C_8  and  S_2 
REMARK    4  A    between atoms: N_7  and  C_3 
REMARK    5  A    between atoms: C_11  and  C_5 
REMARK    6  A    between atoms: C_9  and  C_13 
REMARK    7  A    between atoms: C_10  and  C_14 
REMARK       I    between atoms: N_31  and  C_12 
ROOT
ATOM      1  S   UNL d   1       2.856   3.039  -0.264  0.00  0.00     0.263 S 
ATOM      2  O   UNL d   1       2.045   3.631   0.780  0.00  0.00    -0.200 OA
ATOM      3  O   UNL d   1       4.295   3.180  -0.257  0.00  0.00    -0.200 OA
ENDROOT
BRANCH   1   4
ATOM      4  N   UNL d   1       2.544   1.392  -0.352  0.00  0.00    -0.279 N 
ATOM      5  H   UNL d   1       3.400   0.848  -0.242  0.00  0.00     0.179 HD
BRANCH   4   6
ATOM      6  C   UNL d   1       1.332   0.801   0.038  0.00  0.00     0.066 A 
ATOM      7  C   UNL d   1       0.448   0.183  -0.828  0.00  0.00     0.100 A 
ATOM      8  S   UNL d   1      -0.845  -0.548   0.024  0.00  0.00    -0.082 SA
ATOM      9  C   UNL d   1      -0.231  -0.080   1.545  0.00  0.00     0.018 A 
ATOM     10  C   UNL d   1       0.919   0.673   1.407  0.00  0.00     0.051 A 
BRANCH   7  11
ATOM     11  C   UNL d   1       0.530   0.094  -2.277  0.00  0.00     0.258 C 
ATOM     12  O   UNL d   1       1.434   0.573  -2.958  0.00  0.00    -0.267 OA
ATOM     13  N   UNL d   1      -0.482  -0.569  -2.917  0.00  0.00    -0.365 N 
ATOM     14  H   UNL d   1      -1.252  -0.988  -2.416  0.00  0.00     0.159 HD
ATOM     15  H   UNL d   1      -0.440  -0.645  -3.924  0.00  0.00     0.159 HD
ENDBRANCH   7  11
BRANCH   9  16
ATOM     16  C   UNL d   1      -0.884  -0.481   2.843  0.00  0.00    -0.012 A 
ATOM     17  C   UNL d   1      -0.473  -0.042   4.085  0.00  0.00     0.062 A 
ATOM     18  S   UNL d   1      -1.411  -0.704   5.360  0.00  0.00    -0.113 SA
ATOM     19  C   UNL d   1      -2.375  -1.592   4.265  0.00  0.00     0.050 A 
ATOM     20  C   UNL d   1      -1.996  -1.379   2.958  0.00  0.00     0.020 A 
ENDBRANCH   9  16
ENDBRANCH   4   6
ENDBRANCH   1   4
BRANCH   1  21
ATOM     21  C   UNL d   1       2.269   3.637  -1.837  0.00  0.00     0.081 A 
ATOM     22  C   UNL d   1       1.013   4.251  -1.909  0.00  0.00     0.041 A 
ATOM     23  C   UNL d   1       0.563   4.797  -3.120  0.00  0.00     0.050 A 
ATOM     24  C   UNL d   1       1.393   4.712  -4.254  0.00  0.00     0.032 A 
ATOM     25  C   UNL d   1       2.660   4.105  -4.190  0.00  0.00     0.050 A 
ATOM     26  C   UNL d   1       3.097   3.571  -2.966  0.00  0.00     0.041 A 
BRANCH  23  27
ATOM     27  C   UNL d   1      -0.776   5.489  -3.217  0.00  0.00     0.417 C 
ATOM     28  F   UNL d   1      -1.470   5.499  -2.046  0.00  0.00    -0.166 F 
ATOM     29  F   UNL d   1      -0.657   6.791  -3.595  0.00  0.00    -0.166 F 
ATOM     30  F   UNL d   1      -1.597   4.905  -4.133  0.00  0.00    -0.166 F 
ENDBRANCH  23  27
BRANCH  25  31
ATOM     31  C   UNL d   1       3.526   4.053  -5.431  0.00  0.00     0.417 C 
ATOM     32  F   UNL d   1       4.749   3.494  -5.224  0.00  0.00    -0.166 F 
ATOM     33  F   UNL d   1       2.949   3.342  -6.438  0.00  0.00    -0.166 F 
ATOM     34  F   UNL d   1       3.763   5.294  -5.940  0.00  0.00    -0.166 F 
ENDBRANCH  25  31
ENDBRANCH   1  21
TORSDOF 7
