REMARK  6 active torsions:
REMARK  status: ('A' for Active; 'I' for Inactive)
REMARK       I    between atoms: C_3  and  N_1 
REMARK    1  A    between atoms: S_4  and  N_1 
REMARK    2  A    between atoms: C_6  and  C_3 
REMARK    3  A    between atoms: C_8  and  S_4 
REMARK    4  A    between atoms: C_5  and  O_7 
REMARK    5  A    between atoms: C_9  and  C_5 
REMARK    6  A    between atoms: O_7  and  C_17 
ROOT
ATOM      1  C   UNL d   1       3.424   1.411  -0.889  0.00  0.00     0.009 A 
ATOM      2  C   UNL d   1       3.009   2.732  -0.693  0.00  0.00     0.022 A 
ATOM      3  C   UNL d   1       4.386   1.139  -1.874  0.00  0.00     0.022 A 
ATOM      4  C   UNL d   1       4.361   3.446  -2.554  0.00  0.00     0.079 A 
ATOM      5  C   UNL d   1       3.461   3.748  -1.536  0.00  0.00     0.039 A 
ATOM      6  C   UNL d   1       4.859   2.156  -2.715  0.00  0.00     0.039 A 
ENDROOT
BRANCH   1   7
ATOM      7  S   UNL d   1       2.688  -0.009  -0.024  0.00  0.00    -0.094 SA
ATOM      8  C   UNL d   1       3.188   0.406   1.667  0.00  0.00     0.107 C 
BRANCH   7   9
ATOM      9  N   UNL d   1       1.285   0.551   0.080  0.00  0.00    -0.302 N 
ATOM     10  C   UNL d   1       0.477   0.392  -0.983  0.00  0.00     0.261 C 
ATOM     11  O   UNL d   1       0.649  -0.251  -2.022  0.00  0.00    -0.267 OA
ATOM     12  HN  UNL d   1       0.966   1.030   0.922  1.00  0.00     0.176 HD
BRANCH  10  13
ATOM     13  C   UNL d   1      -0.846   1.103  -0.845  0.00  0.00     0.034 A 
ATOM     14  C   UNL d   1      -1.099   2.043   0.166  0.00  0.00     0.041 A 
ATOM     15  C   UNL d   1      -2.356   2.637   0.268  0.00  0.00     0.035 A 
ATOM     16 CL   UNL d   1      -2.669   3.780   1.520  0.00  0.00    -0.084 Cl
ATOM     17  C   UNL d   1      -3.373   2.314  -0.630  0.00  0.00     0.024 A 
ATOM     18  C   UNL d   1      -3.126   1.399  -1.652  0.00  0.00     0.003 A 
ATOM     19  C   UNL d   1      -1.867   0.802  -1.760  0.00  0.00     0.017 A 
ENDBRANCH  10  13
ENDBRANCH   7   9
ENDBRANCH   1   7
BRANCH   4  20
ATOM     20  O   UNL d   1       4.539   4.473  -3.508  0.00  0.00    -0.275 OA
BRANCH  20  21
ATOM     21  C   UNL d   1       5.706   4.684  -4.212  0.00  0.00     0.298 C 
ATOM     22  O   UNL d   1       6.811   4.218  -3.976  0.00  0.00    -0.259 OA
BRANCH  21  23
ATOM     23  C   UNL d   1       5.412   5.579  -5.371  0.00  0.00     0.040 A 
ATOM     24  C   UNL d   1       6.466   5.925  -6.229  0.00  0.00     0.019 A 
ATOM     25  C   UNL d   1       6.220   6.659  -7.395  0.00  0.00     0.025 A 
ATOM     26  C   UNL d   1       4.920   7.055  -7.704  0.00  0.00     0.034 A 
ATOM     27  C   UNL d   1       3.869   6.759  -6.838  0.00  0.00     0.025 A 
ATOM     28 CL   UNL d   1       4.606   7.890  -9.175  0.00  0.00    -0.084 Cl
ATOM     29  C   UNL d   1       4.114   6.026  -5.671  0.00  0.00     0.019 A 
ENDBRANCH  21  23
ENDBRANCH  20  21
ENDBRANCH   4  20
TORSDOF 6
