REMARK  7 active torsions:
REMARK  status: ('A' for Active; 'I' for Inactive)
REMARK    1  A    between atoms: C_7  and  C_1 
REMARK    2  A    between atoms: C_12  and  N_2 
REMARK    3  A    between atoms: C_13  and  C_6 
REMARK       I    between atoms: N_10  and  C_7 
REMARK    4  A    between atoms: C_8  and  C_14 
REMARK       I    between atoms: C_9  and  N_11 
REMARK    5  A    between atoms: C_15  and  C_9 
REMARK    6  A    between atoms: N_11  and  N_10 
REMARK    7  A    between atoms: C_25  and  C_12 
ROOT
ATOM      1  C   UNL d   1      -0.909  -2.589   0.784  0.00  0.00     0.288 C 
ATOM      2  N   UNL d   1       0.069  -3.510   1.102  0.00  0.00    -0.262 N 
ATOM      3  O   UNL d   1      -2.101  -2.885   0.882  0.00  0.00    -0.264 OA
ATOM      4  H   UNL d   1       1.041  -3.274   1.143  0.00  0.00     0.190 HD
ENDROOT
BRANCH   1   5
ATOM      5  C   UNL d   1      -0.487  -1.245   0.409  0.00  0.00     0.122 A 
ATOM      6  N   UNL d   1       0.753  -0.670   0.213  0.00  0.00    -0.282 N 
ATOM      7  N   UNL d   1       0.690   0.651  -0.085  0.00  0.00    -0.301 N 
ATOM      8  C   UNL d   1      -0.599   0.974   0.025  0.00  0.00     0.036 A 
ATOM      9  HN  UNL d   1       1.463   1.267  -0.339  1.00  0.00     0.187 HD
ATOM     10  C   UNL d   1      -1.372  -0.183   0.247  0.00  0.00     0.064 A 
BRANCH   6  11
ATOM     11  C   UNL d   1       2.103  -1.208   0.391  0.00  0.00     0.188 C 
BRANCH  11  12
ATOM     12  C   UNL d   1       2.499  -1.242   1.854  0.00  0.00    -0.038 A 
ATOM     13  C   UNL d   1       3.025  -2.404   2.436  0.00  0.00     0.009 A 
ATOM     14  C   UNL d   1       3.316  -2.443   3.803  0.00  0.00     0.001 A 
ATOM     15  C   UNL d   1       3.122  -1.313   4.594  0.00  0.00     0.000 A 
ATOM     16  C   UNL d   1       2.659  -0.133   4.019  0.00  0.00     0.001 A 
ATOM     17  C   UNL d   1       2.358  -0.098   2.659  0.00  0.00     0.009 A 
ENDBRANCH  11  12
ENDBRANCH   6  11
BRANCH   8  18
ATOM     18  C   UNL d   1      -1.023   2.431  -0.035  0.00  0.00    -0.007 C 
ATOM     19  C   UNL d   1      -2.555   2.590   0.021  0.00  0.00     0.021 C 
ATOM     20  C   UNL d   1      -0.428   3.188   1.175  0.00  0.00     0.021 C 
ATOM     21  C   UNL d   1      -0.518   3.094  -1.331  0.00  0.00     0.021 C 
ENDBRANCH   8  18
ENDBRANCH   1   5
BRANCH   2  22
ATOM     22  N   UNL d   1      -0.270  -4.694   1.772  0.00  0.00    -0.263 N 
ATOM     23  C   UNL d   1      -0.083  -5.911   1.148  0.00  0.00     0.270 C 
ATOM     24  O   UNL d   1       0.155  -6.074  -0.042  0.00  0.00    -0.266 OA
ATOM     25  H   UNL d   1      -0.596  -4.611   2.729  0.00  0.00     0.190 HD
BRANCH  23  26
ATOM     26  C   UNL d   1      -0.098  -7.071   2.073  0.00  0.00     0.033 A 
ATOM     27  C   UNL d   1       0.741  -7.053   3.192  0.00  0.00     0.018 A 
ATOM     28  C   UNL d   1       0.804  -8.170   4.033  0.00  0.00     0.017 A 
ATOM     29  C   UNL d   1       0.035  -9.311   3.760  0.00  0.00     0.048 A 
ATOM     30  C   UNL d   1      -0.804  -9.313   2.633  0.00  0.00     0.017 A 
ATOM     31  C   UNL d   1      -0.858  -8.201   1.782  0.00  0.00     0.018 A 
BRANCH  29  32
ATOM     32  C   UNL d   1       0.111 -10.524   4.659  0.00  0.00     0.417 C 
ATOM     33  F   UNL d   1       1.020 -10.395   5.668  0.00  0.00    -0.166 F 
ATOM     34  F   UNL d   1      -1.077 -10.800   5.260  0.00  0.00    -0.166 F 
ATOM     35  F   UNL d   1       0.462 -11.652   3.982  0.00  0.00    -0.166 F 
ENDBRANCH  29  32
ENDBRANCH  23  26
ENDBRANCH   2  22
TORSDOF 7
