REMARK  8 active torsions:
REMARK  status: ('A' for Active; 'I' for Inactive)
REMARK    1  A    between atoms: C_9  and  C_1 
REMARK    2  A    between atoms: S_15  and  C_6 
REMARK    3  A    between atoms: C_22  and  C_7 
REMARK    4  A    between atoms: C_11  and  C_23 
REMARK       I    between atoms: N_14  and  C_11 
REMARK    5  A    between atoms: C_17  and  N_14 
REMARK    6  A    between atoms: C_23  and  S_15 
REMARK    7  A    between atoms: O_16  and  C_22 
REMARK    8  A    between atoms: C_18  and  O_16 
ROOT
ATOM      1  N   UNL d   1       2.589   2.915   0.496  0.00  0.00    -0.335 N 
ATOM      2  HN  UNL d   1       1.843   3.184   1.138  1.00  0.00     0.168 HD
ATOM      3  C   UNL d   1       3.656   3.695   0.287  0.00  0.00     0.145 A 
ATOM      4  C   UNL d   1       2.553   1.752  -0.192  0.00  0.00     0.062 A 
ATOM      5  N   UNL d   1       4.695   3.397  -0.510  0.00  0.00    -0.347 N 
ATOM      6  HN  UNL d   1       5.501   4.016  -0.598  1.00  0.00     0.167 HD
ATOM      7  C   UNL d   1       3.557   1.374  -1.066  0.00  0.00     0.049 A 
ATOM      8  C   UNL d   1       4.614   2.241  -1.183  0.00  0.00     0.092 A 
ENDROOT
BRANCH   4   9
ATOM      9  C   UNL d   1       1.393   0.881   0.034  0.00  0.00     0.066 A 
ATOM     10  N   UNL d   1       0.136   1.378   0.367  0.00  0.00    -0.350 N 
ATOM     11  C   UNL d   1      -0.728   0.391   0.508  0.00  0.00     0.075 A 
ATOM     12  HN  UNL d   1      -0.086   2.367   0.484  1.00  0.00     0.166 HD
ATOM     13  S   UNL d   1      -0.079  -1.188   0.268  0.00  0.00    -0.084 SA
ATOM     14  C   UNL d   1       1.455  -0.498  -0.046  0.00  0.00     0.083 A 
BRANCH  11  15
ATOM     15  C   UNL d   1      -2.155   0.547   0.959  0.00  0.00     0.240 C 
BRANCH  15  16
ATOM     16  O   UNL d   1      -3.006  -0.049  -0.026  0.00  0.00    -0.343 OA
BRANCH  16  17
ATOM     17  C   UNL d   1      -4.345  -0.091   0.284  0.00  0.00     0.090 A 
ATOM     18  C   UNL d   1      -5.267   0.036  -0.767  0.00  0.00     0.067 A 
ATOM     19 CL   UNL d   1      -4.747   0.308  -2.393  0.00  0.00    -0.081 Cl
ATOM     20  C   UNL d   1      -6.643  -0.045  -0.523  0.00  0.00     0.026 A 
ATOM     21  C   UNL d   1      -7.111  -0.269   0.770  0.00  0.00     0.002 A 
ATOM     22  C   UNL d   1      -6.204  -0.419   1.816  0.00  0.00     0.003 A 
ATOM     23  C   UNL d   1      -4.829  -0.336   1.574  0.00  0.00     0.038 A 
ENDBRANCH  16  17
ENDBRANCH  15  16
ENDBRANCH  11  15
ENDBRANCH   4   9
BRANCH   3  24
ATOM     24  S   UNL d   1       3.773   5.264   1.103  0.00  0.00    -0.085 SA
BRANCH  24  25
ATOM     25  C   UNL d   1       3.385   4.761   2.794  0.00  0.00     0.185 C 
BRANCH  25  26
ATOM     26  C   UNL d   1       4.435   3.912   3.502  0.00  0.00     0.231 C 
ATOM     27  N   UNL d   1       5.628   3.698   2.837  0.00  0.00    -0.326 N 
ATOM     28  H   UNL d   1       5.744   4.185   1.952  0.00  0.00     0.169 HD
ATOM     29  O   UNL d   1       4.187   3.509   4.641  0.00  0.00    -0.272 OA
BRANCH  27  30
ATOM     30  C   UNL d   1       6.737   2.952   3.292  0.00  0.00     0.036 A 
ATOM     31  C   UNL d   1       6.722   2.161   4.445  0.00  0.00     0.053 A 
ATOM     32  C   UNL d   1       7.875   1.488   4.855  0.00  0.00     0.036 A 
ATOM     33 CL   UNL d   1       7.842   0.526   6.283  0.00  0.00    -0.084 Cl
ATOM     34  C   UNL d   1       9.053   1.587   4.121  0.00  0.00     0.024 A 
ATOM     35  C   UNL d   1       9.073   2.349   2.956  0.00  0.00     0.004 A 
ATOM     36  C   UNL d   1       7.918   3.019   2.539  0.00  0.00     0.029 A 
ENDBRANCH  27  30
ENDBRANCH  25  26
ENDBRANCH  24  25
ENDBRANCH   3  24
TORSDOF 8
