REMARK  2 active torsions:
REMARK  status: ('A' for Active; 'I' for Inactive)
REMARK       I    between atoms: C_3  and  N_1 
REMARK    1  A    between atoms: C_2  and  C_3 
REMARK    2  A    between atoms: N_5  and  C_4 
ROOT
ATOM      1  N   UNL d   1       2.098   0.735   0.295  0.00  0.00    -0.339 N 
ATOM      2  C   UNL d   1       2.972   1.087   1.328  0.00  0.00     0.255 C 
ATOM      3  C   UNL d   1      -0.310   0.619  -0.079  0.00  0.00    -0.022 A 
ATOM      4  C   UNL d   1       0.911   1.506  -0.139  0.00  0.00     0.117 C 
ATOM      5  C   UNL d   1      -0.239  -0.757   0.033  0.00  0.00    -0.008 A 
ATOM      6  C   UNL d   1       2.215  -0.625  -0.273  0.00  0.00     0.132 C 
ATOM      7  S   UNL d   1      -1.766  -1.499   0.090  0.00  0.00    -0.106 SA
ATOM      8  C   UNL d   1       1.040  -1.526   0.147  0.00  0.00     0.067 C 
ATOM      9  C   UNL d   1      -1.671   1.062  -0.099  0.00  0.00     0.017 A 
ATOM     10  C   UNL d   1      -2.562   0.013  -0.013  0.00  0.00     0.051 A 
ATOM     11  O   UNL d   1       3.812   0.291   1.745  0.00  0.00    -0.267 OA
ATOM     12  C   UNL d   1       1.128   2.085  -1.538  0.00  0.00     0.037 C 
ENDROOT
BRANCH   2  13
ATOM     13  C   UNL d   1       2.877   2.413   1.962  0.00  0.00     0.041 A 
ATOM     14  C   UNL d   1       2.562   3.693   1.385  0.00  0.00     0.061 A 
ATOM     15  C   UNL d   1       2.499   4.699   2.327  0.00  0.00     0.144 A 
ATOM     16  S   UNL d   1       2.953   4.175   3.871  0.00  0.00    -0.077 SA
ATOM     17  C   UNL d   1       3.189   2.577   3.306  0.00  0.00     0.069 A 
BRANCH  15  18
ATOM     18  N   UNL d   1       2.093   6.061   2.091  0.00  0.00    -0.108 N 
ATOM     19  O   UNL d   1       1.684   6.317   0.951  0.00  0.00    -0.531 OA
ATOM     20  O   UNL d   1       2.164   6.868   3.027  0.00  0.00    -0.531 OA
ENDBRANCH  15  18
ENDBRANCH   2  13
TORSDOF 2
