REMARK  4 active torsions:
REMARK  status: ('A' for Active; 'I' for Inactive)
REMARK    1  A    between atoms: N_2  and  C_1 
REMARK    2  A    between atoms: N_6  and  C_3 
REMARK    3  A    between atoms: N_7  and  S_4 
REMARK       I    between atoms: C_5  and  N_7 
REMARK       I    between atoms: N_11  and  C_5 
REMARK    4  A    between atoms: C_22  and  N_11 
ROOT
ATOM      1  C   UNL d   1       1.410  -1.000  -0.836  0.00  0.00     0.130 A 
ATOM      2  C   UNL d   1       2.313  -0.148  -0.168  0.00  0.00     0.063 A 
ATOM      3  N   UNL d   1      -2.908   1.224  -1.095  0.00  0.00    -0.191 NA
ATOM      4  C   UNL d   1       0.063  -0.655  -1.100  0.00  0.00     0.061 A 
ATOM      5  C   UNL d   1      -1.800   0.935  -0.915  0.00  0.00     0.099 C 
ATOM      6  C   UNL d   1       1.753   1.083   0.236  0.00  0.00     0.033 A 
ATOM      7  C   UNL d   1      -0.431   0.576  -0.684  0.00  0.00     0.047 A 
ATOM      8  C   UNL d   1       0.421   1.449  -0.013  0.00  0.00     0.025 A 
ENDROOT
BRANCH   1   9
ATOM      9  N   UNL d   1       1.769  -2.358  -1.198  0.00  0.00    -0.113 N 
ATOM     10  O   UNL d   1       1.991  -3.163  -0.283  0.00  0.00    -0.532 OA
ATOM     11  O   UNL d   1       1.705  -2.644  -2.404  0.00  0.00    -0.532 OA
ENDBRANCH   1   9
BRANCH   2  12
ATOM     12  N   UNL d   1       3.626  -0.454   0.144  0.00  0.00    -0.377 N 
ATOM     13  C   UNL d   1       4.606  -0.993  -0.826  0.00  0.00     0.134 C 
ATOM     14  C   UNL d   1       5.566   0.072  -1.376  0.00  0.00     0.105 C 
ATOM     15  S   UNL d   1       6.475   1.136  -0.196  0.00  0.00    -0.120 SA
ATOM     16  C   UNL d   1       5.106   1.373   0.985  0.00  0.00     0.105 C 
ATOM     17  C   UNL d   1       4.298   0.120   1.330  0.00  0.00     0.134 C 
BRANCH  15  18
ATOM     18  N   UNL d   1       7.253   0.085   0.564  0.00  0.00    -0.292 N 
ATOM     19  C   UNL d   1       8.218   0.400   1.459  0.00  0.00     0.330 C 
ATOM     20  N   UNL d   1       8.614   1.733   1.510  0.00  0.00    -0.308 N 
ATOM     21  O   UNL d   1       8.731  -0.456   2.179  0.00  0.00    -0.246 OA
ATOM     22  H   UNL d   1       8.082   2.327   0.893  0.00  0.00     0.170 HD
ATOM     23  HN  UNL d   1       7.043  -0.899   0.396  1.00  0.00     0.178 HD
BRANCH  20  24
ATOM     24  C   UNL d   1       9.728   2.314   2.144  0.00  0.00     0.036 A 
ATOM     25  C   UNL d   1      10.658   1.601   2.902  0.00  0.00     0.031 A 
ATOM     26  C   UNL d   1      11.819   2.225   3.375  0.00  0.00     0.026 A 
ATOM     27  C   UNL d   1      12.044   3.572   3.104  0.00  0.00     0.034 A 
ATOM     28  C   UNL d   1      11.099   4.311   2.399  0.00  0.00     0.026 A 
ATOM     29 CL   UNL d   1      13.507   4.320   3.618  0.00  0.00    -0.084 Cl
ATOM     30  C   UNL d   1       9.943   3.683   1.927  0.00  0.00     0.031 A 
ENDBRANCH  20  24
ENDBRANCH  15  18
ENDBRANCH   2  12
TORSDOF 4
