REMARK  3 active torsions:
REMARK  status: ('A' for Active; 'I' for Inactive)
REMARK    1  A    between atoms: C_2  and  C_1 
REMARK    2  A    between atoms: N_12  and  C_3 
REMARK    3  A    between atoms: C_11  and  C_6 
ROOT
ATOM      1  C   UNL d   1       3.188   0.469   3.528  0.00  0.00     0.155 A 
ATOM      2  N   UNL d   1       2.478   0.322   2.408  0.00  0.00    -0.333 N 
ATOM      3  HN  UNL d   1       1.466   0.197   2.431  1.00  0.00     0.168 HD
ATOM      4  N   UNL d   1       4.505   0.684   3.575  0.00  0.00    -0.343 N 
ATOM      5  HN  UNL d   1       4.996   0.823   4.459  1.00  0.00     0.167 HD
ATOM      6  C   UNL d   1       3.158   0.348   1.243  0.00  0.00     0.035 A 
ATOM      7  C   UNL d   1       5.149   0.707   2.397  0.00  0.00     0.093 A 
ATOM      8  C   UNL d   1       4.521   0.539   1.187  0.00  0.00     0.046 A 
ENDROOT
BRANCH   6   9
ATOM      9  C   UNL d   1       2.392   0.161  -0.000  0.00  0.00     0.030 C 
ATOM     10  C   UNL d   1       1.061  -0.016  -0.036  0.00  0.00     0.017 C 
BRANCH  10  11
ATOM     11  C   UNL d   1       0.327  -0.208  -1.299  0.00  0.00     0.007 A 
ATOM     12  C   UNL d   1       0.130  -1.493  -1.837  0.00  0.00     0.045 A 
ATOM     13 CL   UNL d   1       0.736  -2.917  -1.056  0.00  0.00    -0.083 Cl
ATOM     14  C   UNL d   1      -0.577  -1.674  -3.032  0.00  0.00     0.025 A 
ATOM     15  C   UNL d   1      -1.098  -0.576  -3.713  0.00  0.00     0.003 A 
ATOM     16  C   UNL d   1      -0.910   0.705  -3.199  0.00  0.00     0.025 A 
ATOM     17  C   UNL d   1      -0.204   0.889  -2.004  0.00  0.00     0.045 A 
ATOM     18 CL   UNL d   1      -0.023   2.517  -1.437  0.00  0.00    -0.083 Cl
ENDBRANCH  10  11
ENDBRANCH   6   9
BRANCH   1  19
ATOM     19  N   UNL d   1       2.508   0.440   4.728  0.00  0.00    -0.274 NA
ATOM     20  H   UNL d   1       1.545   0.703   4.580  0.00  0.00     0.127 HD
ATOM     21  H   UNL d   1       3.031   0.950   5.425  0.00  0.00     0.127 HD
ENDBRANCH   1  19
TORSDOF 3
