REMARK  4 active torsions:
REMARK  status: ('A' for Active; 'I' for Inactive)
REMARK    1  A    between atoms: N_3  and  S_1 
REMARK    2  A    between atoms: C_4  and  S_1 
REMARK    3  A    between atoms: N_2  and  C_5 
REMARK    4  A    between atoms: C_7  and  N_6 
ROOT
ATOM      1  N   UNL d   1       0.204   0.912   0.038  0.00  0.00    -0.304 N 
ATOM      2  N   UNL d   1      -0.491   1.441   2.777  0.00  0.00    -0.364 N 
ATOM      3  C   UNL d   1       0.383   2.291   0.607  0.00  0.00     0.155 C 
ATOM      4  C   UNL d   1      -0.855   0.148   0.760  0.00  0.00     0.155 C 
ATOM      5  C   UNL d   1       0.530   2.297   2.154  0.00  0.00     0.145 C 
ATOM      6  C   UNL d   1      -0.529   0.064   2.256  0.00  0.00     0.145 C 
ENDROOT
BRANCH   1   7
ATOM      7  S   UNL d   1       1.605   0.046  -0.354  0.00  0.00     0.261 S 
ATOM      8  O   UNL d   1       1.309  -1.369  -0.358  0.00  0.00    -0.200 OA
ATOM      9  O   UNL d   1       2.712   0.590   0.402  0.00  0.00    -0.200 OA
BRANCH   7  10
ATOM     10  C   UNL d   1       1.806   0.532  -2.056  0.00  0.00     0.081 A 
ATOM     11  C   UNL d   1       2.635   1.609  -2.377  0.00  0.00     0.050 A 
ATOM     12  C   UNL d   1       2.764   2.000  -3.712  0.00  0.00     0.057 A 
ATOM     13 CL   UNL d   1       3.775   3.360  -4.051  0.00  0.00    -0.083 Cl
ATOM     14  C   UNL d   1       2.078   1.305  -4.719  0.00  0.00     0.055 A 
ATOM     15  C   UNL d   1       1.272   0.210  -4.387  0.00  0.00     0.027 A 
ATOM     16 CL   UNL d   1       2.178   1.752  -6.384  0.00  0.00    -0.083 Cl
ATOM     17  C   UNL d   1       1.136  -0.180  -3.054  0.00  0.00     0.027 A 
ENDBRANCH   7  10
ENDBRANCH   1   7
BRANCH   2  18
ATOM     18  C   UNL d   1      -1.162   1.709   3.945  0.00  0.00     0.103 A 
ATOM     19  N   UNL d   1      -1.648   0.657   4.647  0.00  0.00    -0.350 N 
ATOM     20  C   UNL d   1      -2.443   0.868   5.723  0.00  0.00     0.125 A 
ATOM     21  HN  UNL d   1      -1.415  -0.295   4.364  1.00  0.00     0.166 HD
ATOM     22  C   UNL d   1      -2.801   2.127   6.149  0.00  0.00     0.118 A 
ATOM     23  C   UNL d   1      -2.288   3.227   5.468  0.00  0.00     0.041 A 
ATOM     24  C   UNL d   1      -1.455   3.008   4.363  0.00  0.00     0.051 A 
BRANCH  22  25
ATOM     25  N   UNL d   1      -3.728   2.284   7.259  0.00  0.00    -0.114 N 
ATOM     26  O   UNL d   1      -4.156   1.254   7.802  0.00  0.00    -0.532 OA
ATOM     27  O   UNL d   1      -4.048   3.435   7.581  0.00  0.00    -0.532 OA
ENDBRANCH  22  25
ENDBRANCH   2  18
TORSDOF 4
