REMARK  4 active torsions:
REMARK  status: ('A' for Active; 'I' for Inactive)
REMARK    1  A    between atoms: C_2  and  C_1 
REMARK       I    between atoms: N_5  and  C_2 
REMARK    2  A    between atoms: C_15  and  N_5 
REMARK    3  A    between atoms: C_8  and  C_17 
REMARK    4  A    between atoms: C_17  and  C_15 
ROOT
ATOM      1  C   UNL d   1       0.910  -2.502   0.030  0.00  0.00     0.254 C 
ATOM      2  O   UNL d   1       0.264  -3.546   0.024  0.00  0.00    -0.268 OA
ATOM      3  N   UNL d   1       2.290  -2.491   0.040  0.00  0.00    -0.356 N 
ATOM      4  H   UNL d   1       2.784  -1.604   0.035  0.00  0.00     0.162 HD
ENDROOT
BRANCH   3   5
ATOM      5  C   UNL d   1       3.039  -3.735   0.039  0.00  0.00     0.127 C 
BRANCH   5   6
ATOM      6  C   UNL d   1       4.551  -3.513   0.055  0.00  0.00     0.058 C 
BRANCH   6   7
ATOM      7  C   UNL d   1       5.327  -4.810   0.027  0.00  0.00    -0.057 A 
ATOM      8  C   UNL d   1       5.679  -5.397  -1.197  0.00  0.00     0.009 A 
ATOM      9  C   UNL d   1       6.401  -6.593  -1.229  0.00  0.00     0.024 A 
ATOM     10  C   UNL d   1       6.769  -7.212  -0.037  0.00  0.00     0.034 A 
ATOM     11  C   UNL d   1       6.415  -6.648   1.187  0.00  0.00     0.024 A 
ATOM     12 CL   UNL d   1       7.668  -8.678  -0.076  0.00  0.00    -0.084 Cl
ATOM     13  C   UNL d   1       5.693  -5.452   1.219  0.00  0.00     0.009 A 
ENDBRANCH   6   7
ENDBRANCH   5   6
ENDBRANCH   3   5
BRANCH   1  14
ATOM     14  C   UNL d   1       0.196  -1.193   0.027  0.00  0.00     0.070 A 
ATOM     15  C   UNL d   1       0.852   0.039   0.032  0.00  0.00     0.132 A 
ATOM     16  F   UNL d   1       2.192   0.111   0.037  0.00  0.00    -0.205 F 
ATOM     17  C   UNL d   1       0.134   1.236   0.032  0.00  0.00     0.043 A 
ATOM     18  C   UNL d   1      -1.260   1.214   0.027  0.00  0.00     0.003 A 
ATOM     19  C   UNL d   1      -1.932  -0.007   0.021  0.00  0.00     0.001 A 
ATOM     20  C   UNL d   1      -1.209  -1.204   0.021  0.00  0.00     0.020 A 
ENDBRANCH   1  14
TORSDOF 4
