REMARK  5 active torsions:
REMARK  status: ('A' for Active; 'I' for Inactive)
REMARK    1  A    between atoms: C_9  and  N_1 
REMARK    2  A    between atoms: C_7  and  C_2 
REMARK    3  A    between atoms: C_11  and  C_8 
REMARK    4  A    between atoms: N_13  and  C_10 
REMARK    5  A    between atoms: C_12  and  N_13 
ROOT
ATOM      1  N   UNL d   1       0.731   0.452  -0.211  0.00  0.00    -0.225 N 
ATOM      2  C   UNL d   1       1.118  -0.745   0.402  0.00  0.00     0.139 A 
ATOM      3  N   UNL d   1      -0.935  -0.326   0.905  0.00  0.00    -0.007 NA
ATOM      4  N   UNL d   1      -0.541   0.716   0.196  0.00  0.00     0.001 NA
ATOM      5  N   UNL d   1       0.065  -1.243   1.027  0.00  0.00    -0.270 N 
ATOM      6  HN  UNL d   1       0.013  -2.141   1.509  1.00  0.00     0.185 HD
ENDROOT
BRANCH   2   7
ATOM      7  C   UNL d   1       2.443  -1.226   0.394  0.00  0.00     0.068 C 
ATOM      8  C   UNL d   1       2.707  -2.532   0.273  0.00  0.00     0.092 C 
BRANCH   8   9
ATOM      9  N   UNL d   1       3.973  -3.064   0.229  0.00  0.00    -0.365 N 
ATOM     10  H   UNL d   1       4.151  -3.657  -0.591  0.00  0.00     0.165 HD
BRANCH   9  11
ATOM     11  C   UNL d   1       4.669  -3.591   1.356  0.00  0.00     0.045 A 
ATOM     12  C   UNL d   1       5.864  -4.337   1.190  0.00  0.00     0.036 A 
ATOM     13  C   UNL d   1       6.616  -4.717   2.317  0.00  0.00     0.017 A 
ATOM     14  C   UNL d   1       6.184  -4.392   3.603  0.00  0.00     0.001 A 
ATOM     15  C   UNL d   1       5.004  -3.679   3.776  0.00  0.00     0.002 A 
ATOM     16  C   UNL d   1       4.265  -3.269   2.665  0.00  0.00     0.030 A 
BRANCH  12  17
ATOM     17  C   UNL d   1       6.314  -4.761  -0.178  0.00  0.00     0.158 C 
ATOM     18  O   UNL d   1       5.823  -4.254  -1.187  0.00  0.00    -0.293 OA
ATOM     19  C   UNL d   1       7.345  -5.854  -0.305  0.00  0.00     0.097 C 
ENDBRANCH  12  17
ENDBRANCH   9  11
ENDBRANCH   8   9
ENDBRANCH   2   7
BRANCH   1  20
ATOM     20  C   UNL d   1       1.387   1.335  -1.120  0.00  0.00     0.056 A 
ATOM     21  C   UNL d   1       2.575   0.995  -1.782  0.00  0.00     0.032 A 
ATOM     22  C   UNL d   1       3.201   1.912  -2.636  0.00  0.00     0.020 A 
ATOM     23  C   UNL d   1       2.634   3.166  -2.853  0.00  0.00     0.006 A 
ATOM     24  C   UNL d   1       1.431   3.503  -2.242  0.00  0.00     0.020 A 
ATOM     25  I   UNL d   1       3.584   4.532  -4.097  0.00  0.00    -0.045 I 
ATOM     26  C   UNL d   1       0.806   2.591  -1.383  0.00  0.00     0.032 A 
ENDBRANCH   1  20
TORSDOF 5
