REMARK  8 active torsions:
REMARK  status: ('A' for Active; 'I' for Inactive)
REMARK    1  A    between atoms: N_4  and  C_1 
REMARK    2  A    between atoms: N_5  and  C_2 
REMARK    3  A    between atoms: N_11  and  C_3 
REMARK    4  A    between atoms: C_6  and  C_13 
REMARK    5  A    between atoms: C_7  and  C_8 
REMARK    6  A    between atoms: C_13  and  N_11 
REMARK    7  A    between atoms: O_16  and  C_12 
REMARK    8  A    between atoms: C_23  and  O_16 
ROOT
ATOM      1  N   UNL d   1       0.971  -2.602  -0.593  0.00  0.00    -0.382 N 
ATOM      2  H   UNL d   1       0.297  -3.191  -0.090  0.00  0.00     0.160 HD
ENDROOT
BRANCH   1   3
ATOM      3  C   UNL d   1       0.482  -1.311  -0.849  0.00  0.00     0.095 A 
ATOM      4  C   UNL d   1      -0.816  -1.157  -1.403  0.00  0.00     0.132 A 
ATOM      5  C   UNL d   1      -1.404   0.089  -1.728  0.00  0.00     0.054 A 
ATOM      6  C   UNL d   1      -0.704   1.277  -1.512  0.00  0.00     0.052 A 
ATOM      7  C   UNL d   1       0.594   1.180  -1.009  0.00  0.00     0.054 A 
ATOM      8  C   UNL d   1       1.165  -0.082  -0.709  0.00  0.00     0.132 A 
BRANCH   4   9
ATOM      9  N   UNL d   1      -1.621  -2.333  -1.714  0.00  0.00    -0.113 N 
ATOM     10  O   UNL d   1      -1.859  -3.116  -0.780  0.00  0.00    -0.532 OA
ATOM     11  O   UNL d   1      -2.049  -2.433  -2.869  0.00  0.00    -0.532 OA
ENDBRANCH   4   9
BRANCH   6  12
ATOM     12  C   UNL d   1      -1.324   2.618  -1.835  0.00  0.00     0.417 C 
ATOM     13  F   UNL d   1      -0.560   3.671  -1.436  0.00  0.00    -0.166 F 
ATOM     14  F   UNL d   1      -1.531   2.783  -3.167  0.00  0.00    -0.166 F 
ATOM     15  F   UNL d   1      -2.533   2.783  -1.236  0.00  0.00    -0.166 F 
ENDBRANCH   6  12
BRANCH   8  16
ATOM     16  N   UNL d   1       2.515   0.012  -0.198  0.00  0.00    -0.113 N 
ATOM     17  O   UNL d   1       3.433  -0.054  -1.023  0.00  0.00    -0.532 OA
ATOM     18  O   UNL d   1       2.639   0.214   1.017  0.00  0.00    -0.532 OA
ENDBRANCH   8  16
ENDBRANCH   1   3
BRANCH   1  19
ATOM     19  C   UNL d   1       2.351  -2.918  -0.241  0.00  0.00     0.163 C 
BRANCH  19  20
ATOM     20  C   UNL d   1       2.618  -4.398  -0.055  0.00  0.00     0.015 A 
ATOM     21  C   UNL d   1       2.186  -5.055   1.117  0.00  0.00     0.085 A 
ATOM     22  C   UNL d   1       2.672  -6.336   1.434  0.00  0.00     0.038 A 
ATOM     23  C   UNL d   1       3.501  -7.020   0.553  0.00  0.00     0.004 A 
ATOM     24  C   UNL d   1       3.860  -6.423  -0.649  0.00  0.00     0.024 A 
ATOM     25  C   UNL d   1       3.431  -5.123  -0.950  0.00  0.00     0.044 A 
ATOM     26 CL   UNL d   1       3.981  -4.465  -2.453  0.00  0.00    -0.084 Cl
BRANCH  21  27
ATOM     27  O   UNL d   1       1.338  -4.364   1.967  0.00  0.00    -0.310 OA
BRANCH  27  28
ATOM     28  C   UNL d   1       0.493  -5.097   2.774  0.00  0.00     0.076 A 
ATOM     29  C   UNL d   1       0.463  -4.770   4.129  0.00  0.00     0.037 A 
ATOM     30  C   UNL d   1      -0.333  -5.512   5.005  0.00  0.00     0.003 A 
ATOM     31  C   UNL d   1      -1.104  -6.571   4.523  0.00  0.00     0.000 A 
ATOM     32  C   UNL d   1      -1.104  -6.871   3.160  0.00  0.00     0.003 A 
ATOM     33  C   UNL d   1      -0.323  -6.121   2.280  0.00  0.00     0.037 A 
ENDBRANCH  27  28
ENDBRANCH  21  27
ENDBRANCH  19  20
ENDBRANCH   1  19
TORSDOF 8
