REMARK  6 active torsions:
REMARK  status: ('A' for Active; 'I' for Inactive)
REMARK    1  A    between atoms: C_2  and  S_1 
REMARK    2  A    between atoms: C_3  and  S_1 
REMARK    3  A    between atoms: C_4  and  C_14 
REMARK    4  A    between atoms: O_13  and  N_5 
REMARK    5  A    between atoms: C_8  and  O_13 
REMARK    6  A    between atoms: C_15  and  C_8 
ROOT
ATOM      1  C   UNL d   1      -0.288   0.047   0.223  0.00  0.00     0.235 C 
ATOM      2  N   UNL d   1      -1.151  -0.587   0.961  0.00  0.00    -0.236 N 
ATOM      3  HN  UNL d   1      -2.046  -0.187   1.243  1.00  0.00     0.196 HD
ATOM      4  C   UNL d   1       1.007  -0.521  -0.030  0.00  0.00     0.132 C 
ATOM      5  N   UNL d   1       2.048  -1.003  -0.216  0.00  0.00    -0.189 NA
ENDROOT
BRANCH   1   6
ATOM      6  S   UNL d   1      -0.677   1.553  -0.555  0.00  0.00     0.240 S 
ATOM      7  O   UNL d   1      -1.381   1.216  -1.780  0.00  0.00    -0.214 OA
ATOM      8  O   UNL d   1       0.506   2.391  -0.556  0.00  0.00    -0.214 OA
BRANCH   6   9
ATOM      9  C   UNL d   1      -1.875   2.380   0.456  0.00  0.00     0.106 A 
ATOM     10  S   UNL d   1      -1.355   2.850   2.017  0.00  0.00    -0.090 SA
ATOM     11  C   UNL d   1      -2.873   3.550   2.381  0.00  0.00     0.051 A 
ATOM     12  C   UNL d   1      -3.764   3.425   1.339  0.00  0.00     0.009 A 
ATOM     13  C   UNL d   1      -3.188   2.747   0.226  0.00  0.00     0.032 A 
ENDBRANCH   6   9
ENDBRANCH   1   6
BRANCH   2  14
ATOM     14  O   UNL d   1      -0.729  -1.881   1.334  0.00  0.00    -0.193 OA
BRANCH  14  15
ATOM     15  C   UNL d   1      -1.517  -2.326   2.358  0.00  0.00     0.315 C 
ATOM     16  O   UNL d   1      -1.963  -1.643   3.269  0.00  0.00    -0.257 OA
BRANCH  15  17
ATOM     17  C   UNL d   1      -1.859  -3.762   2.163  0.00  0.00     0.041 A 
ATOM     18  C   UNL d   1      -2.780  -4.339   3.048  0.00  0.00     0.018 A 
ATOM     19  C   UNL d   1      -3.227  -5.649   2.853  0.00  0.00     0.017 A 
ATOM     20  C   UNL d   1      -2.761  -6.406   1.769  0.00  0.00     0.048 A 
ATOM     21  C   UNL d   1      -1.826  -5.831   0.893  0.00  0.00     0.017 A 
ATOM     22  C   UNL d   1      -1.375  -4.520   1.088  0.00  0.00     0.018 A 
BRANCH  20  23
ATOM     23  C   UNL d   1      -3.260  -7.813   1.526  0.00  0.00     0.417 C 
ATOM     24  F   UNL d   1      -4.160  -8.240   2.454  0.00  0.00    -0.166 F 
ATOM     25  F   UNL d   1      -3.878  -7.941   0.319  0.00  0.00    -0.166 F 
ATOM     26  F   UNL d   1      -2.253  -8.728   1.531  0.00  0.00    -0.166 F 
ENDBRANCH  20  23
ENDBRANCH  15  17
ENDBRANCH  14  15
ENDBRANCH   2  14
TORSDOF 6
