REMARK  4 active torsions:
REMARK  status: ('A' for Active; 'I' for Inactive)
REMARK    1  A    between atoms: S_14  and  C_5 
REMARK    2  A    between atoms: C_9  and  C_6 
REMARK       I    between atoms: N_13  and  C_9 
REMARK    3  A    between atoms: C_16  and  N_13 
REMARK    4  A    between atoms: C_25  and  S_14 
ROOT
ATOM      1  C   UNL d   1      -0.093  -0.574  -0.710  0.00  0.00     0.051 C 
ATOM      2  C   UNL d   1      -0.006   0.728  -0.221  0.00  0.00     0.135 C 
ATOM      3  N   UNL d   1       2.112   0.079  -0.698  0.00  0.00    -0.301 N 
ATOM      4  HN  UNL d   1       3.126   0.091  -0.810  1.00  0.00     0.187 HD
ATOM      5  C   UNL d   1      -1.370  -1.162  -0.712  0.00  0.00     0.034 C 
ATOM      6  C   UNL d   1      -2.228  -0.635   0.250  0.00  0.00     0.065 C 
ATOM      7  N   UNL d   1       1.297   1.108  -0.386  0.00  0.00    -0.280 N 
ATOM      8  C   UNL d   1       1.278  -0.966  -0.825  0.00  0.00     0.037 C 
ATOM      9  N   UNL d   1      -0.992   1.443   0.364  0.00  0.00    -0.349 N 
ATOM     10  HN  UNL d   1      -0.940   2.445   0.545  1.00  0.00     0.167 HD
ATOM     11  C   UNL d   1      -2.057   0.669   0.679  0.00  0.00     0.108 C 
ATOM     12  C   UNL d   1       1.865   2.395  -0.072  0.00  0.00     0.179 C 
ATOM     13  C   UNL d   1       1.849  -2.339  -0.744  0.00  0.00     0.070 C 
ENDROOT
BRANCH   6  14
ATOM     14  C   UNL d   1      -3.154  -1.520   0.989  0.00  0.00     0.258 C 
ATOM     15  N   UNL d   1      -2.573  -2.728   1.362  0.00  0.00    -0.323 N 
ATOM     16  H   UNL d   1      -1.585  -2.840   1.192  0.00  0.00     0.169 HD
ATOM     17  O   UNL d   1      -4.267  -1.107   1.267  0.00  0.00    -0.267 OA
BRANCH  15  18
ATOM     18  C   UNL d   1      -3.201  -3.825   1.979  0.00  0.00     0.035 A 
ATOM     19  C   UNL d   1      -4.582  -3.933   2.126  0.00  0.00     0.031 A 
ATOM     20  C   UNL d   1      -5.140  -5.059   2.742  0.00  0.00     0.026 A 
ATOM     21  C   UNL d   1      -4.316  -6.076   3.215  0.00  0.00     0.034 A 
ATOM     22  C   UNL d   1      -2.935  -5.984   3.071  0.00  0.00     0.026 A 
ATOM     23 CL   UNL d   1      -5.007  -7.456   3.974  0.00  0.00    -0.084 Cl
ATOM     24  C   UNL d   1      -2.380  -4.863   2.443  0.00  0.00     0.031 A 
ENDBRANCH  15  18
ENDBRANCH   6  14
BRANCH   5  25
ATOM     25  S   UNL d   1      -1.831  -2.478  -1.813  0.00  0.00    -0.124 SA
BRANCH  25  26
ATOM     26  C   UNL d   1      -3.282  -1.722  -2.770  0.00  0.00     0.044 C 
ATOM     27  C   UNL d   1      -3.765  -2.735  -3.815  0.00  0.00     0.021 C 
ATOM     28  C   UNL d   1      -4.504  -1.300  -1.946  0.00  0.00     0.021 C 
ENDBRANCH  25  26
ENDBRANCH   5  25
TORSDOF 4
