REMARK  3 active torsions:
REMARK  status: ('A' for Active; 'I' for Inactive)
REMARK    1  A    between atoms: C_4  and  C_1 
REMARK    2  A    between atoms: C_7  and  C_4 
REMARK    3  A    between atoms: O_10  and  C_7 
ROOT
ATOM      1  C   UNL d   1      -1.168  -1.131  -0.016  0.00  0.00     0.097 A 
ATOM      2  C   UNL d   1      -1.156   1.113  -0.031  0.00  0.00     0.299 A 
ATOM      3  O   UNL d   1      -1.980   0.011  -0.060  0.00  0.00    -0.274 OA
ATOM      4  C   UNL d   1       0.222  -0.740   0.007  0.00  0.00     0.014 A 
ATOM      5  C   UNL d   1       0.221   0.638   0.003  0.00  0.00     0.052 A 
ATOM      6  O   UNL d   1      -1.515   2.272  -0.047  0.00  0.00    -0.259 OA
ATOM      7  C   UNL d   1       1.421  -1.433   0.015  0.00  0.00     0.015 A 
ATOM      8  C   UNL d   1       1.381   1.396   0.009  0.00  0.00     0.018 A 
ATOM      9  C   UNL d   1       2.614  -0.696   0.017  0.00  0.00     0.001 A 
ATOM     10  C   UNL d   1       2.594   0.710   0.015  0.00  0.00     0.001 A 
ENDROOT
BRANCH   1  11
ATOM     11  C   UNL d   1      -1.660  -2.375   0.015  0.00  0.00     0.119 C 
BRANCH  11  12
ATOM     12  C   UNL d   1      -3.089  -2.741   0.001  0.00  0.00     0.168 C 
ATOM     13  O   UNL d   1      -3.455  -3.865   0.305  0.00  0.00    -0.647 OA
BRANCH  12  14
ATOM     14  O   UNL d   1      -3.937  -1.783  -0.412  0.00  0.00    -0.773 OA
ATOM     15  H   UNL d   1      -3.518  -0.920  -0.602  0.00  0.00     0.167 HD
ENDBRANCH  12  14
ENDBRANCH  11  12
ENDBRANCH   1  11
TORSDOF 3
