REMARK  8 active torsions:
REMARK  status: ('A' for Active; 'I' for Inactive)
REMARK    1  A    between atoms: C_2  and  C_1 
REMARK    2  A    between atoms: N_3  and  C_1 
REMARK    3  A    between atoms: C_4  and  C_1 
REMARK    4  A    between atoms: N_5  and  C_1 
REMARK       I    between atoms: C_6  and  N_3 
REMARK    5  A    between atoms: O_14  and  C_4 
REMARK    6  A    between atoms: C_7  and  N_5 
REMARK    7  A    between atoms: C_17  and  C_6 
REMARK    8  A    between atoms: C_20  and  O_14 
ROOT
ATOM      1  C   UNL d   1       0.916   0.095  -0.038  0.00  0.00     0.296 C 
ENDROOT
BRANCH   1   2
ATOM      2  C   UNL d   1       0.231  -0.500   1.247  0.00  0.00     0.442 C 
ATOM      3  F   UNL d   1      -0.413   0.454   1.972  0.00  0.00    -0.166 F 
ATOM      4  F   UNL d   1      -0.676  -1.473   0.990  0.00  0.00    -0.166 F 
ATOM      5  F   UNL d   1       1.140  -1.050   2.097  0.00  0.00    -0.166 F 
ENDBRANCH   1   2
BRANCH   1   6
ATOM      6  N   UNL d   1       0.530   1.444  -0.419  0.00  0.00    -0.319 N 
ATOM      7  C   UNL d   1      -0.780   1.793  -0.598  0.00  0.00     0.219 C 
ATOM      8  O   UNL d   1      -1.700   1.000  -0.387  0.00  0.00    -0.274 OA
ATOM      9  H   UNL d   1       1.282   2.104  -0.565  0.00  0.00     0.165 HD
BRANCH   7  10
ATOM     10  C   UNL d   1      -1.009   3.200  -1.086  0.00  0.00     0.098 C 
ATOM     11  C   UNL d   1      -0.700   4.218  -0.006  0.00  0.00     0.014 C 
ENDBRANCH   7  10
ENDBRANCH   1   6
BRANCH   1  12
ATOM     12  C   UNL d   1       0.549  -0.875  -1.202  0.00  0.00     0.318 C 
ATOM     13  O   UNL d   1       0.033  -0.548  -2.268  0.00  0.00    -0.260 OA
BRANCH  12  14
ATOM     14  O   UNL d   1       1.019  -2.137  -0.955  0.00  0.00    -0.318 OA
BRANCH  14  15
ATOM     15  C   UNL d   1       0.686  -3.115  -1.953  0.00  0.00     0.174 C 
ATOM     16  C   UNL d   1       1.649  -3.033  -3.122  0.00  0.00     0.034 C 
ENDBRANCH  14  15
ENDBRANCH  12  14
ENDBRANCH   1  12
BRANCH   1  17
ATOM     17  N   UNL d   1       2.408   0.203  -0.033  0.00  0.00    -0.348 N 
ATOM     18  H   UNL d   1       2.866  -0.536  -0.559  0.00  0.00     0.163 HD
BRANCH  17  19
ATOM     19  C   UNL d   1       3.220   0.839   0.890  0.00  0.00     0.030 A 
ATOM     20  C   UNL d   1       2.747   1.624   1.944  0.00  0.00     0.036 A 
ATOM     21  C   UNL d   1       3.618   2.372   2.756  0.00  0.00    -0.060 A 
ATOM     22  C   UNL d   1       3.077   3.236   3.857  0.00  0.00     0.048 C 
ATOM     23  C   UNL d   1       4.992   2.324   2.517  0.00  0.00     0.007 A 
ATOM     24  C   UNL d   1       5.489   1.544   1.478  0.00  0.00     0.003 A 
ATOM     25  C   UNL d   1       4.604   0.819   0.671  0.00  0.00     0.029 A 
ENDBRANCH  17  19
ENDBRANCH   1  17
TORSDOF 8
