REMARK  1 active torsions:
REMARK  status: ('A' for Active; 'I' for Inactive)
REMARK    1  A    between atoms: C_7  and  C_4 
ROOT
ATOM      1  N   UNL d   1      -0.246   1.358  -0.075  0.00  0.00    -0.269 N 
ATOM      2  C   UNL d   1       1.015   1.194   0.429  0.00  0.00     0.372 A 
ATOM      3  C   UNL d   1      -0.482  -0.974  -0.549  0.00  0.00     0.112 A 
ATOM      4  C   UNL d   1       0.761  -1.144  -0.084  0.00  0.00     0.096 A 
ATOM      5  C   UNL d   1      -1.048   0.375  -0.558  0.00  0.00     0.252 A 
ATOM      6  O   UNL d   1       1.529  -0.077   0.424  0.00  0.00    -0.260 OA
ATOM      7  O   UNL d   1       1.651   2.147   0.868  0.00  0.00    -0.238 OA
ATOM      8  O   UNL d   1      -2.178   0.582  -0.982  0.00  0.00    -0.268 OA
ATOM      9  H   UNL d   1      -0.616   2.295  -0.068  0.00  0.00     0.174 HD
ENDROOT
BRANCH   4  10
ATOM     10  C   UNL d   1       1.425  -2.463  -0.039  0.00  0.00    -0.002 A 
ATOM     11  C   UNL d   1       1.179  -3.440  -1.019  0.00  0.00     0.016 A 
ATOM     12  C   UNL d   1       1.801  -4.691  -0.961  0.00  0.00     0.024 A 
ATOM     13  C   UNL d   1       2.688  -4.976   0.072  0.00  0.00     0.034 A 
ATOM     14  C   UNL d   1       2.965  -4.016   1.042  0.00  0.00     0.024 A 
ATOM     15 CL   UNL d   1       3.443  -6.519   0.149  0.00  0.00    -0.084 Cl
ATOM     16  C   UNL d   1       2.339  -2.765   0.984  0.00  0.00     0.016 A 
ENDBRANCH   4  10
TORSDOF 1
