REMARK  5 active torsions:
REMARK  status: ('A' for Active; 'I' for Inactive)
REMARK    1  A    between atoms: C_3  and  C_1 
REMARK    2  A    between atoms: C_8  and  C_2 
REMARK       I    between atoms: N_11  and  C_3 
REMARK    3  A    between atoms: N_5  and  C_12 
REMARK    4  A    between atoms: O_20  and  C_8 
REMARK    5  A    between atoms: C_19  and  N_11 
ROOT
ATOM      1  C   UNL d   1       0.556   2.125  -1.093  0.00  0.00     0.230 C 
ATOM      2  N   UNL d   1      -0.564   2.365  -1.885  0.00  0.00    -0.327 N 
ATOM      3  O   UNL d   1       1.706   2.449  -1.372  0.00  0.00    -0.273 OA
ATOM      4  H   UNL d   1      -1.474   2.087  -1.525  0.00  0.00     0.169 HD
ENDROOT
BRANCH   1   5
ATOM      5  C   UNL d   1       0.263   1.327   0.167  0.00  0.00     0.128 C 
ATOM      6  C   UNL d   1      -0.768   1.988   1.116  0.00  0.00     0.132 C 
ATOM      7  C   UNL d   1      -0.001   2.107   2.434  0.00  0.00     0.160 C 
ATOM      8  O   UNL d   1       0.723   0.837   2.360  0.00  0.00    -0.371 OA
ATOM      9  C   UNL d   1       1.158   3.045   2.344  0.00  0.00     0.004 C 
ATOM     10  C   UNL d   1       1.461   1.146   1.123  0.00  0.00     0.159 C 
ATOM     11  C   UNL d   1       2.066   2.444   1.566  0.00  0.00     0.004 C 
BRANCH   6  12
ATOM     12  C   UNL d   1      -1.938   1.046   1.234  0.00  0.00     0.147 C 
ATOM     13  O   UNL d   1      -2.899   1.130   0.478  0.00  0.00    -0.650 OA
BRANCH  12  14
ATOM     14  O   UNL d   1      -1.801   0.029   2.111  0.00  0.00    -0.776 OA
ATOM     15  H   UNL d   1      -0.911  -0.032   2.535  0.00  0.00     0.167 HD
ENDBRANCH  12  14
ENDBRANCH   6  12
ENDBRANCH   1   5
BRANCH   2  16
ATOM     16  C   UNL d   1      -0.572   2.967  -3.171  0.00  0.00     0.034 A 
ATOM     17  C   UNL d   1       0.592   3.249  -3.897  0.00  0.00     0.032 A 
ATOM     18  C   UNL d   1       0.531   3.802  -5.183  0.00  0.00     0.038 A 
ATOM     19  C   UNL d   1      -0.710   4.090  -5.755  0.00  0.00     0.103 A 
ATOM     20  C   UNL d   1      -1.887   3.837  -5.041  0.00  0.00     0.038 A 
ATOM     21  C   UNL d   1      -1.812   3.270  -3.757  0.00  0.00     0.032 A 
BRANCH  19  22
ATOM     22  N   UNL d   1      -0.768   4.642  -7.114  0.00  0.00    -0.116 N 
ATOM     23  O   UNL d   1       0.300   4.830  -7.709  0.00  0.00    -0.532 OA
ATOM     24  O   UNL d   1      -1.890   4.881  -7.590  0.00  0.00    -0.532 OA
ENDBRANCH  19  22
ENDBRANCH   2  16
TORSDOF 5
