REMARK  11 active torsions:
REMARK  status: ('A' for Active; 'I' for Inactive)
REMARK    1  A    between atoms: N_2  and  S_1 
REMARK    2  A    between atoms: C_3  and  S_1 
REMARK    3  A    between atoms: C_6  and  N_2 
REMARK    4  A    between atoms: C_4  and  C_9 
REMARK    5  A    between atoms: C_5  and  C_8 
REMARK    6  A    between atoms: C_7  and  C_6 
REMARK    7  A    between atoms: C_26  and  C_6 
REMARK       I    between atoms: N_17  and  C_7 
REMARK    8  A    between atoms: N_15  and  N_17 
REMARK    9  A    between atoms: C_27  and  C_25 
REMARK   10  A    between atoms: C_35  and  C_26 
REMARK   11  A    between atoms: S_30  and  C_35 
ROOT
ATOM      1  N   UNL d   1       0.672  -0.722   1.379  0.00  0.00    -0.301 N 
ATOM      2  H   UNL d   1      -0.201  -0.351   1.739  0.00  0.00     0.173 HD
ENDROOT
BRANCH   1   3
ATOM      3  S   UNL d   1       1.231   0.047   0.005  0.00  0.00     0.259 S 
ATOM      4  O   UNL d   1       2.663  -0.118  -0.076  0.00  0.00    -0.201 OA
ATOM      5  O   UNL d   1       0.607   1.351  -0.018  0.00  0.00    -0.201 OA
BRANCH   3   6
ATOM      6  C   UNL d   1       0.478  -0.910  -1.296  0.00  0.00     0.081 A 
ATOM      7  C   UNL d   1      -0.912  -0.849  -1.460  0.00  0.00     0.041 A 
ATOM      8  C   UNL d   1      -1.534  -1.599  -2.466  0.00  0.00     0.050 A 
ATOM      9  C   UNL d   1      -0.736  -2.387  -3.315  0.00  0.00     0.032 A 
ATOM     10  C   UNL d   1       0.664  -2.436  -3.169  0.00  0.00     0.050 A 
ATOM     11  C   UNL d   1       1.267  -1.694  -2.142  0.00  0.00     0.041 A 
BRANCH   8  12
ATOM     12  C   UNL d   1      -3.034  -1.567  -2.654  0.00  0.00     0.417 C 
ATOM     13  F   UNL d   1      -3.677  -0.767  -1.760  0.00  0.00    -0.166 F 
ATOM     14  F   UNL d   1      -3.387  -1.110  -3.887  0.00  0.00    -0.166 F 
ATOM     15  F   UNL d   1      -3.602  -2.798  -2.536  0.00  0.00    -0.166 F 
ENDBRANCH   8  12
BRANCH  10  16
ATOM     16  C   UNL d   1       1.489  -3.270  -4.123  0.00  0.00     0.417 C 
ATOM     17  F   UNL d   1       2.829  -3.196  -3.898  0.00  0.00    -0.166 F 
ATOM     18  F   UNL d   1       1.168  -4.591  -4.065  0.00  0.00    -0.166 F 
ATOM     19  F   UNL d   1       1.305  -2.897  -5.420  0.00  0.00    -0.166 F 
ENDBRANCH  10  16
ENDBRANCH   3   6
ENDBRANCH   1   3
BRANCH   1  20
ATOM     20  C   UNL d   1       1.057  -2.117   1.648  0.00  0.00     0.187 C 
BRANCH  20  21
ATOM     21  C   UNL d   1       2.552  -2.320   1.920  0.00  0.00     0.259 C 
ATOM     22  N   UNL d   1       3.178  -1.644   2.935  0.00  0.00    -0.269 N 
ATOM     23  H   UNL d   1       4.178  -1.801   3.015  0.00  0.00     0.190 HD
ATOM     24  O   UNL d   1       3.204  -3.132   1.248  0.00  0.00    -0.269 OA
BRANCH  22  25
ATOM     25  N   UNL d   1       2.535  -0.858   3.836  0.00  0.00    -0.308 N 
ATOM     26  C   UNL d   1       3.302  -0.257   4.692  0.00  0.00     0.118 C 
ATOM     27  HN  UNL d   1       1.521  -0.748   3.840  1.00  0.00     0.186 HD
BRANCH  26  28
ATOM     28  C   UNL d   1       2.733   0.584   5.767  0.00  0.00    -0.019 A 
ATOM     29  C   UNL d   1       1.350   0.780   5.839  0.00  0.00     0.014 A 
ATOM     30  C   UNL d   1       0.802   1.521   6.887  0.00  0.00     0.024 A 
ATOM     31  C   UNL d   1       1.640   2.068   7.857  0.00  0.00     0.034 A 
ATOM     32  C   UNL d   1       3.023   1.894   7.778  0.00  0.00     0.024 A 
ATOM     33 CL   UNL d   1       0.961   2.953   9.166  0.00  0.00    -0.084 Cl
ATOM     34  C   UNL d   1       3.576   1.151   6.729  0.00  0.00     0.014 A 
ENDBRANCH  26  28
ENDBRANCH  22  25
ENDBRANCH  20  21
BRANCH  20  35
ATOM     35  C   UNL d   1       0.186  -2.713   2.764  0.00  0.00     0.045 C 
BRANCH  35  36
ATOM     36  C   UNL d   1      -1.300  -2.865   2.415  0.00  0.00     0.076 C 
BRANCH  36  37
ATOM     37  S   UNL d   1      -1.692  -3.794   0.893  0.00  0.00    -0.173 SA
ATOM     38  C   UNL d   1      -0.967  -5.399   1.312  0.00  0.00     0.089 C 
ENDBRANCH  36  37
ENDBRANCH  35  36
ENDBRANCH  20  35
ENDBRANCH   1  20
TORSDOF 11
