REMARK  5 active torsions:
REMARK  status: ('A' for Active; 'I' for Inactive)
REMARK    1  A    between atoms: C_9  and  C_3 
REMARK    2  A    between atoms: S_20  and  C_12 
REMARK       I    between atoms: N_13  and  C_16 
REMARK    3  A    between atoms: C_14  and  N_13 
REMARK    4  A    between atoms: C_16  and  C_26 
REMARK    5  A    between atoms: C_26  and  S_20 
ROOT
ATOM      1  C   UNL d   1      -3.760   0.532  -0.128  0.00  0.00     0.053 A 
ATOM      2  N   UNL d   1      -4.546  -0.281   0.601  0.00  0.00    -0.336 N 
ATOM      3  HN  UNL d   1      -4.150  -0.972   1.239  1.00  0.00     0.168 HD
ATOM      4  C   UNL d   1      -5.868  -0.144   0.452  0.00  0.00     0.145 A 
ATOM      5  N   UNL d   1      -6.469   0.749  -0.345  0.00  0.00    -0.347 N 
ATOM      6  HN  UNL d   1      -7.484   0.811  -0.418  1.00  0.00     0.167 HD
ATOM      7  C   UNL d   1      -4.284   1.491  -0.974  0.00  0.00     0.048 A 
ATOM      8  C   UNL d   1      -5.655   1.556  -1.043  0.00  0.00     0.092 A 
ENDROOT
BRANCH   4   9
ATOM      9  S   UNL d   1      -6.863  -1.383   1.232  0.00  0.00    -0.085 SA
BRANCH   9  10
ATOM     10  C   UNL d   1      -7.731  -1.966  -0.251  0.00  0.00     0.185 C 
BRANCH  10  11
ATOM     11  C   UNL d   1      -6.827  -2.366  -1.413  0.00  0.00     0.231 C 
ATOM     12  N   UNL d   1      -5.574  -2.834  -1.090  0.00  0.00    -0.325 N 
ATOM     13  H   UNL d   1      -5.407  -3.112  -0.125  0.00  0.00     0.169 HD
ATOM     14  O   UNL d   1      -7.269  -2.319  -2.566  0.00  0.00    -0.272 OA
BRANCH  12  15
ATOM     15  C   UNL d   1      -4.532  -3.102  -2.005  0.00  0.00     0.056 A 
ATOM     16  C   UNL d   1      -3.530  -4.030  -1.667  0.00  0.00     0.062 A 
ATOM     17  C   UNL d   1      -2.485  -4.310  -2.549  0.00  0.00     0.050 A 
ATOM     18 CL   UNL d   1      -3.601  -4.905  -0.176  0.00  0.00    -0.082 Cl
ATOM     19  C   UNL d   1      -2.408  -3.626  -3.759  0.00  0.00     0.035 A 
ATOM     20  C   UNL d   1      -3.374  -2.682  -4.100  0.00  0.00     0.026 A 
ATOM     21 CL   UNL d   1      -1.109  -3.944  -4.840  0.00  0.00    -0.084 Cl
ATOM     22  C   UNL d   1      -4.439  -2.430  -3.231  0.00  0.00     0.033 A 
ENDBRANCH  12  15
ENDBRANCH  10  11
ENDBRANCH   9  10
ENDBRANCH   4   9
BRANCH   1  23
ATOM     23  C   UNL d   1      -2.313   0.259   0.013  0.00  0.00     0.039 A 
ATOM     24  S   UNL d   1      -1.303   0.469  -1.379  0.00  0.00    -0.079 SA
ATOM     25  C   UNL d   1       0.023  -0.056  -0.530  0.00  0.00     0.059 A 
ATOM     26  C   UNL d   1      -0.223  -0.393   0.749  0.00  0.00     0.003 A 
ATOM     27  S   UNL d   1       1.605  -0.240  -1.020  0.00  0.00    -0.074 SA
ATOM     28  C   UNL d   1      -1.587  -0.223   1.126  0.00  0.00    -0.030 A 
ATOM     29  C   UNL d   1       0.946  -0.858   1.438  0.00  0.00    -0.025 A 
ATOM     30  C   UNL d   1      -2.243  -0.480   2.447  0.00  0.00     0.050 C 
ATOM     31  C   UNL d   1       1.117  -1.336   2.841  0.00  0.00     0.051 C 
ATOM     32  C   UNL d   1       2.010  -0.813   0.534  0.00  0.00     0.059 A 
ATOM     33 BR   UNL d   1       3.778  -1.335   0.927  0.00  0.00    -0.042 Br
ENDBRANCH   1  23
TORSDOF 5
