REMARK  6 active torsions:
REMARK  status: ('A' for Active; 'I' for Inactive)
REMARK    1  A    between atoms: C_6  and  C_1 
REMARK    2  A    between atoms: N_9  and  C_2 
REMARK    3  A    between atoms: C_5  and  C_13 
REMARK       I    between atoms: C_12  and  N_9 
REMARK    4  A    between atoms: N_17  and  C_10 
REMARK    5  A    between atoms: N_18  and  C_11 
REMARK       I    between atoms: N_14  and  C_12 
REMARK    6  A    between atoms: C_13  and  N_14 
ROOT
ATOM      1  N   UNL d   1       1.560  -3.572   1.758  0.00  0.00    -0.305 N 
ATOM      2  C   UNL d   1       1.503  -2.445   0.991  0.00  0.00     0.321 C 
ATOM      3  N   UNL d   1       2.663  -1.925   0.506  0.00  0.00    -0.338 N 
ATOM      4  O   UNL d   1       0.396  -1.948   0.796  0.00  0.00    -0.247 OA
ATOM      5  H   UNL d   1       0.697  -3.600   2.293  0.00  0.00     0.171 HD
ATOM      6  H   UNL d   1       3.482  -2.511   0.447  0.00  0.00     0.164 HD
ENDROOT
BRANCH   1   7
ATOM      7  C   UNL d   1       2.673  -4.013   2.449  0.00  0.00     0.097 A 
ATOM      8  C   UNL d   1       3.122  -3.707   3.770  0.00  0.00     0.097 A 
ATOM      9  N   UNL d   1       4.140  -4.521   4.102  0.00  0.00    -0.258 N 
ATOM     10  O   UNL d   1       4.329  -5.375   3.043  0.00  0.00    -0.240 OA
ATOM     11  HN  UNL d   1       4.671  -4.506   4.973  1.00  0.00     0.195 HD
ATOM     12  C   UNL d   1       3.416  -5.110   2.075  0.00  0.00     0.101 A 
ATOM     13  C   UNL d   1       3.360  -6.067   0.956  0.00  0.00     0.081 C 
BRANCH   8  14
ATOM     14  C   UNL d   1       2.616  -2.739   4.749  0.00  0.00     0.038 A 
ATOM     15  C   UNL d   1       1.269  -2.746   5.166  0.00  0.00     0.048 A 
ATOM     16 CL   UNL d   1       0.080  -3.838   4.536  0.00  0.00    -0.083 Cl
ATOM     17  C   UNL d   1       0.821  -1.879   6.176  0.00  0.00     0.025 A 
ATOM     18  C   UNL d   1       1.708  -1.016   6.809  0.00  0.00     0.003 A 
ATOM     19  C   UNL d   1       3.039  -0.988   6.409  0.00  0.00     0.025 A 
ATOM     20  C   UNL d   1       3.489  -1.826   5.379  0.00  0.00     0.048 A 
ATOM     21 CL   UNL d   1       5.153  -1.643   4.925  0.00  0.00    -0.083 Cl
ENDBRANCH   8  14
ENDBRANCH   1   7
BRANCH   3  22
ATOM     22  C   UNL d   1       2.578  -0.866  -0.481  0.00  0.00     0.167 C 
BRANCH  22  23
ATOM     23  C   UNL d   1       3.769   0.077  -0.532  0.00  0.00     0.007 A 
ATOM     24  C   UNL d   1       4.961  -0.278  -1.229  0.00  0.00     0.020 A 
ATOM     25  C   UNL d   1       5.935   0.721  -1.425  0.00  0.00     0.024 A 
ATOM     26  C   UNL d   1       5.785   2.002  -0.906  0.00  0.00     0.004 A 
ATOM     27  C   UNL d   1       4.658   2.317  -0.158  0.00  0.00     0.030 A 
ATOM     28  C   UNL d   1       3.633   1.382   0.054  0.00  0.00     0.039 A 
BRANCH  24  29
ATOM     29  N   UNL d   1       5.185  -1.605  -1.680  0.00  0.00    -0.291 NA
ATOM     30  C   UNL d   1       6.590  -2.043  -1.627  0.00  0.00     0.116 C 
ATOM     31  C   UNL d   1       4.560  -1.909  -2.973  0.00  0.00     0.116 C 
ENDBRANCH  24  29
BRANCH  28  32
ATOM     32  N   UNL d   1       2.496   1.731   0.805  0.00  0.00    -0.389 N 
ATOM     33  C   UNL d   1       2.098   3.132   0.895  0.00  0.00     0.149 C 
ATOM     34  C   UNL d   1       2.307   0.963   2.043  0.00  0.00     0.149 C 
ENDBRANCH  28  32
ENDBRANCH  22  23
ENDBRANCH   3  22
TORSDOF 6
