REMARK  8 active torsions:
REMARK  status: ('A' for Active; 'I' for Inactive)
REMARK    1  A    between atoms: N_2  and  C_1 
REMARK    2  A    between atoms: O_17  and  C_3 
REMARK    3  A    between atoms: O_18  and  N_5 
REMARK    4  A    between atoms: C_7  and  C_9 
REMARK    5  A    between atoms: C_8  and  C_10 
REMARK    6  A    between atoms: N_26  and  C_8 
REMARK    7  A    between atoms: C_9  and  O_18 
REMARK    8  A    between atoms: C_16  and  O_17 
ROOT
ATOM      1  C   UNL d   1      -4.176   4.467   0.858  0.00  0.00     0.137 A 
ATOM      2  C   UNL d   1      -5.140   3.505   0.537  0.00  0.00     0.109 A 
ATOM      3  C   UNL d   1      -2.807   4.175   0.815  0.00  0.00     0.053 A 
ATOM      4  C   UNL d   1      -2.381   2.883   0.494  0.00  0.00     0.006 A 
ATOM      5  C   UNL d   1      -4.701   2.200   0.264  0.00  0.00     0.041 A 
ATOM      6  C   UNL d   1      -3.332   1.888   0.239  0.00  0.00     0.018 A 
ENDROOT
BRANCH   4   7
ATOM      7  C   UNL d   1      -0.907   2.605   0.450  0.00  0.00     0.109 C 
ATOM      8  N   UNL d   1      -0.151   3.418   1.122  0.00  0.00    -0.246 N 
ATOM      9  HN  UNL d   1      -0.515   4.191   1.678  1.00  0.00     0.196 HD
BRANCH   8  10
ATOM     10  O   UNL d   1       1.222   3.127   1.008  0.00  0.00    -0.198 OA
BRANCH  10  11
ATOM     11  C   UNL d   1       1.929   4.038   1.761  0.00  0.00     0.285 C 
ATOM     12  O   UNL d   1       1.473   4.943   2.450  0.00  0.00    -0.263 OA
BRANCH  11  13
ATOM     13  C   UNL d   1       3.399   3.815   1.644  0.00  0.00     0.087 A 
ATOM     14  C   UNL d   1       4.295   4.043   2.842  0.00  0.00     0.015 A 
ATOM     15  C   UNL d   1       4.350   4.992   1.681  0.00  0.00     0.015 A 
ENDBRANCH  11  13
ENDBRANCH  10  11
ENDBRANCH   8  10
BRANCH   7  16
ATOM     16  N   UNL d   1      -0.441   1.556  -0.304  0.00  0.00    -0.286 NA
ATOM     17  H   UNL d   1       0.557   1.616  -0.479  0.00  0.00     0.125 HD
ATOM     18  H   UNL d   1      -0.965   1.346  -1.146  0.00  0.00     0.125 HD
ENDBRANCH   7  16
ENDBRANCH   4   7
BRANCH   1  19
ATOM     19  N   UNL d   1      -4.534   5.814   1.251  0.00  0.00    -0.113 N 
ATOM     20  O   UNL d   1      -5.268   5.944   2.241  0.00  0.00    -0.532 OA
ATOM     21  O   UNL d   1      -4.056   6.739   0.580  0.00  0.00    -0.532 OA
ENDBRANCH   1  19
BRANCH   2  22
ATOM     22  O   UNL d   1      -6.506   3.674   0.527  0.00  0.00    -0.308 OA
BRANCH  22  23
ATOM     23  C   UNL d   1      -7.080   4.721  -0.162  0.00  0.00     0.077 A 
ATOM     24  C   UNL d   1      -6.453   5.462  -1.162  0.00  0.00     0.045 A 
ATOM     25  C   UNL d   1      -7.063   6.610  -1.691  0.00  0.00    -0.037 A 
ATOM     26  C   UNL d   1      -6.250   7.501  -2.592  0.00  0.00     0.050 C 
ATOM     27  C   UNL d   1      -8.384   6.928  -1.317  0.00  0.00     0.046 A 
ATOM     28  C   UNL d   1      -9.070   6.129  -0.384  0.00  0.00    -0.037 A 
ATOM     29 CL   UNL d   1      -9.147   8.316  -2.023  0.00  0.00    -0.083 Cl
ATOM     30  C   UNL d   1      -8.392   5.041   0.200  0.00  0.00     0.045 A 
ATOM     31  C   UNL d   1     -10.496   6.368   0.033  0.00  0.00     0.050 C 
ENDBRANCH  22  23
ENDBRANCH   2  22
TORSDOF 8
