REMARK  4 active torsions:
REMARK  status: ('A' for Active; 'I' for Inactive)
REMARK       I    between atoms: N_3  and  C_1 
REMARK    1  A    between atoms: C_6  and  C_1 
REMARK    2  A    between atoms: O_7  and  C_2 
REMARK    3  A    between atoms: C_9  and  N_3 
REMARK    4  A    between atoms: C_5  and  O_7 
ROOT
ATOM      1  C   UNL d   1       0.499  -1.498  -3.012  0.00  0.00     0.175 A 
ATOM      2  C   UNL d   1       1.449  -2.178  -3.787  0.00  0.00     0.087 A 
ATOM      3  N   UNL d   1       0.384  -1.650  -1.667  0.00  0.00    -0.345 N 
ATOM      4  HN  UNL d   1      -0.351  -1.176  -1.142  1.00  0.00     0.167 HD
ATOM      5  C   UNL d   1       2.370  -2.973  -3.098  0.00  0.00     0.035 A 
ATOM      6  C   UNL d   1       1.276  -2.448  -1.051  0.00  0.00     0.090 A 
ATOM      7  C   UNL d   1       2.288  -3.109  -1.714  0.00  0.00     0.019 A 
ENDROOT
BRANCH   1   8
ATOM      8  O   UNL d   1      -0.400  -0.658  -3.681  0.00  0.00    -0.291 OA
BRANCH   8   9
ATOM      9  C   UNL d   1      -1.200   0.156  -2.912  0.00  0.00     0.084 A 
ATOM     10  C   UNL d   1      -2.564   0.192  -3.162  0.00  0.00    -0.017 A 
ATOM     11  C   UNL d   1      -3.424   0.959  -2.357  0.00  0.00    -0.043 A 
ATOM     12  C   UNL d   1      -3.340  -0.582  -4.181  0.00  0.00     0.042 C 
ATOM     13  C   UNL d   1      -4.852   0.756  -2.765  0.00  0.00     0.040 C 
ATOM     14  C   UNL d   1      -2.941   1.716  -1.293  0.00  0.00    -0.055 A 
ATOM     15  C   UNL d   1      -4.697   0.136  -4.158  0.00  0.00     0.009 C 
ATOM     16  C   UNL d   1      -1.553   1.747  -1.099  0.00  0.00     0.010 A 
ATOM     17  C   UNL d   1      -3.859   2.474  -0.385  0.00  0.00     0.049 C 
ATOM     18  C   UNL d   1      -0.692   0.991  -1.911  0.00  0.00     0.038 A 
ENDBRANCH   8   9
ENDBRANCH   1   8
BRANCH   2  19
ATOM     19  N   UNL d   1       1.469  -2.040  -5.198  0.00  0.00    -0.319 N 
ATOM     20  C   UNL d   1       2.084  -2.907  -6.090  0.00  0.00     0.263 C 
ATOM     21  O   UNL d   1       2.630  -3.957  -5.752  0.00  0.00    -0.267 OA
ATOM     22  H   UNL d   1       0.861  -1.329  -5.592  0.00  0.00     0.169 HD
BRANCH  20  23
ATOM     23  C   UNL d   1       2.002  -2.542  -7.499  0.00  0.00     0.072 A 
ATOM     24  S   UNL d   1       1.689  -0.946  -8.029  0.00  0.00    -0.097 SA
ATOM     25  C   UNL d   1       1.876  -1.384  -9.674  0.00  0.00     0.050 A 
ATOM     26  C   UNL d   1       2.135  -2.727  -9.826  0.00  0.00     0.009 A 
ATOM     27  C   UNL d   1       2.214  -3.392  -8.571  0.00  0.00     0.025 A 
ENDBRANCH  20  23
ENDBRANCH   2  19
TORSDOF 4
