REMARK  3 active torsions:
REMARK  status: ('A' for Active; 'I' for Inactive)
REMARK    1  A    between atoms: C_7  and  C_1 
REMARK    2  A    between atoms: C_14  and  C_8 
REMARK    3  A    between atoms: O_15  and  C_14 
ROOT
ATOM      1  C   UNL d   1      -0.710   1.294  -0.009  0.00  0.00     0.030 A 
ATOM      2  C   UNL d   1      -1.430   0.075  -0.006  0.00  0.00    -0.036 A 
ATOM      3  C   UNL d   1       0.707   1.296  -0.003  0.00  0.00    -0.036 A 
ATOM      4  C   UNL d   1      -0.722  -1.156   0.001  0.00  0.00    -0.048 A 
ATOM      5  C   UNL d   1       1.414   0.064  -0.000  0.00  0.00    -0.048 A 
ATOM      6  C   UNL d   1       0.699  -1.161   0.003  0.00  0.00    -0.049 A 
ATOM      7  C   UNL d   1      -2.943   0.062  -0.009  0.00  0.00     0.050 C 
ATOM      8  C   UNL d   1       1.482   2.596   0.001  0.00  0.00     0.050 C 
ATOM      9  C   UNL d   1      -1.453  -2.484   0.005  0.00  0.00     0.049 C 
ATOM     10  C   UNL d   1       2.928   0.034  -0.002  0.00  0.00     0.049 C 
ATOM     11  C   UNL d   1       1.423  -2.494   0.007  0.00  0.00     0.049 C 
ENDROOT
BRANCH   1  12
ATOM     12  C   UNL d   1      -1.424   2.549  -0.017  0.00  0.00    -0.064 C 
ATOM     13  C   UNL d   1      -2.011   3.600  -0.013  0.00  0.00    -0.075 C 
BRANCH  13  14
ATOM     14  C   UNL d   1      -2.720   4.880   0.014  0.00  0.00     0.258 C 
BRANCH  14  15
ATOM     15  O   UNL d   1      -2.765   5.446  -1.289  0.00  0.00    -0.389 OA
ATOM     16  H   UNL d   1      -1.849   5.481  -1.610  0.00  0.00     0.210 HD
ENDBRANCH  14  15
ENDBRANCH  13  14
ENDBRANCH   1  12
TORSDOF 3
