REMARK  4 active torsions:
REMARK  status: ('A' for Active; 'I' for Inactive)
REMARK       I    between atoms: N_3  and  C_1 
REMARK       I    between atoms: N_4  and  C_1 
REMARK    1  A    between atoms: C_2  and  O_5 
REMARK    2  A    between atoms: C_12  and  N_3 
REMARK    3  A    between atoms: C_14  and  N_4 
REMARK    4  A    between atoms: O_5  and  C_13 
ROOT
ATOM      1  C   UNL d   1       1.193  -0.090   0.130  0.00  0.00     0.325 C 
ATOM      2  N   UNL d   1       0.600   0.645  -0.883  0.00  0.00    -0.309 N 
ATOM      3  N   UNL d   1       0.294  -0.365   1.149  0.00  0.00    -0.307 N 
ATOM      4  O   UNL d   1       2.363  -0.442   0.144  0.00  0.00    -0.247 OA
ATOM      5  H   UNL d   1      -0.273   1.097  -0.655  0.00  0.00     0.170 HD
ATOM      6  H   UNL d   1      -0.684  -0.375   0.903  0.00  0.00     0.170 HD
ENDROOT
BRANCH   2   7
ATOM      7  C   UNL d   1       1.231   1.060  -2.078  0.00  0.00     0.036 A 
ATOM      8  C   UNL d   1       2.445   0.538  -2.534  0.00  0.00     0.032 A 
ATOM      9  C   UNL d   1       3.035   1.000  -3.718  0.00  0.00     0.039 A 
ATOM     10  C   UNL d   1       2.397   1.967  -4.487  0.00  0.00     0.078 A 
ATOM     11  C   UNL d   1       1.187   2.498  -4.031  0.00  0.00     0.039 A 
ATOM     12  C   UNL d   1       0.601   2.043  -2.844  0.00  0.00     0.032 A 
BRANCH  10  13
ATOM     13  O   UNL d   1       2.824   2.469  -5.680  0.00  0.00    -0.255 OA
BRANCH  13  14
ATOM     14  C   UNL d   1       3.894   1.810  -6.340  0.00  0.00     0.530 C 
ATOM     15  F   UNL d   1       3.757   0.467  -6.324  0.00  0.00    -0.144 F 
ATOM     16  F   UNL d   1       3.904   2.205  -7.633  0.00  0.00    -0.144 F 
ATOM     17  F   UNL d   1       5.075   2.151  -5.785  0.00  0.00    -0.144 F 
ENDBRANCH  13  14
ENDBRANCH  10  13
ENDBRANCH   2   7
BRANCH   3  18
ATOM     18  C   UNL d   1       0.653  -0.914   2.404  0.00  0.00     0.051 A 
ATOM     19  C   UNL d   1       1.955  -0.951   2.902  0.00  0.00     0.117 A 
ATOM     20  N   UNL d   1       2.302  -1.468   4.106  0.00  0.00    -0.373 N 
ATOM     21  C   UNL d   1       1.306  -1.979   4.856  0.00  0.00     0.088 A 
ATOM     22  HN  UNL d   1       3.270  -1.471   4.429  1.00  0.00     0.164 HD
ATOM     23  C   UNL d   1      -0.022  -1.978   4.463  0.00  0.00     0.019 A 
ATOM     24  C   UNL d   1      -0.352  -1.430   3.223  0.00  0.00     0.032 A 
ENDBRANCH   3  18
TORSDOF 4
