REMARK  2 active torsions:
REMARK  status: ('A' for Active; 'I' for Inactive)
REMARK    1  A    between atoms: N_3  and  C_1 
REMARK       I    between atoms: C_2  and  N_3 
REMARK       I    between atoms: N_5  and  C_2 
REMARK    2  A    between atoms: C_8  and  C_13 
REMARK       I    between atoms: N_17  and  C_8 
ROOT
ATOM      1  C   UNL d   1       4.585  -0.363  -0.311  0.00  0.00     0.323 C 
ATOM      2  N   UNL d   1       4.357  -1.256   0.715  0.00  0.00    -0.303 N 
ATOM      3  N   UNL d   1       4.422   0.997   0.028  0.00  0.00    -0.334 N 
ATOM      4  O   UNL d   1       4.928  -0.676  -1.451  0.00  0.00    -0.247 OA
ATOM      5  C   UNL d   1       4.512   1.908  -1.115  0.00  0.00     0.128 C 
ATOM      6  C   UNL d   1       3.574   1.458   1.133  0.00  0.00     0.128 C 
ATOM      7  C   UNL d   1       3.870   3.869   0.339  0.00  0.00     0.081 C 
ATOM      8  C   UNL d   1       4.840   3.341  -0.716  0.00  0.00     0.034 C 
ATOM      9  C   UNL d   1       3.859   2.909   1.535  0.00  0.00     0.034 C 
ATOM     10  H   UNL d   1       4.444  -0.910   1.655  0.00  0.00     0.171 HD
ENDROOT
BRANCH   2  11
ATOM     11  C   UNL d   1       4.270  -2.637   0.582  0.00  0.00     0.079 A 
ATOM     12  S   UNL d   1       4.105  -3.382  -0.932  0.00  0.00    -0.072 SA
ATOM     13  C   UNL d   1       3.949  -4.949  -0.256  0.00  0.00     0.017 A 
ATOM     14  C   UNL d   1       3.729  -6.152  -0.955  0.00  0.00     0.020 A 
ATOM     15  C   UNL d   1       4.051  -4.912   1.135  0.00  0.00    -0.016 A 
ATOM     16  C   UNL d   1       3.592  -7.336  -0.232  0.00  0.00     0.001 A 
ATOM     17  C   UNL d   1       3.699  -7.331   1.152  0.00  0.00     0.001 A 
ATOM     18  C   UNL d   1       3.937  -6.135   1.841  0.00  0.00     0.013 A 
ATOM     19  C   UNL d   1       4.241  -3.562   1.603  0.00  0.00     0.050 A 
ENDBRANCH   2  11
BRANCH   7  20
ATOM     20  C   UNL d   1       2.468   4.101  -0.214  0.00  0.00     0.219 C 
ATOM     21  O   UNL d   1       1.452   3.611   0.263  0.00  0.00    -0.273 OA
ATOM     22  N   UNL d   1       2.384   4.945  -1.282  0.00  0.00    -0.370 N 
ATOM     23  H   UNL d   1       3.155   5.518  -1.596  0.00  0.00     0.159 HD
ATOM     24  H   UNL d   1       1.457   5.162  -1.626  0.00  0.00     0.159 HD
ENDBRANCH   7  20
TORSDOF 2
