REMARK  4 active torsions:
REMARK  status: ('A' for Active; 'I' for Inactive)
REMARK    1  A    between atoms: C_8  and  C_1 
REMARK    2  A    between atoms: N_11  and  C_9 
REMARK       I    between atoms: C_12  and  N_11 
REMARK       I    between atoms: N_17  and  C_12 
REMARK    3  A    between atoms: C_13  and  C_16 
REMARK    4  A    between atoms: C_20  and  N_17 
ROOT
ATOM      1  C   UNL d   1       1.292   0.736   0.029  0.00  0.00     0.134 A 
ATOM      2  C   UNL d   1      -0.066  -1.025   0.348  0.00  0.00     0.069 A 
ATOM      3  N   UNL d   1       0.058   1.245   0.168  0.00  0.00    -0.294 N 
ATOM      4  HN  UNL d   1      -0.219   2.226   0.124  1.00  0.00     0.187 HD
ATOM      5  C   UNL d   1       1.259  -0.675   0.152  0.00  0.00     0.068 A 
ATOM      6  N   UNL d   1      -0.737   0.175   0.381  0.00  0.00    -0.295 N 
ATOM      7  C   UNL d   1      -0.629  -2.346   0.474  0.00  0.00     0.035 C 
ATOM      8  C   UNL d   1      -0.837  -4.814   0.657  0.00  0.00     0.078 C 
ATOM      9  S   UNL d   1       0.370  -3.661   0.935  0.00  0.00    -0.070 SA
ATOM     10  C   UNL d   1      -1.916  -2.794   0.245  0.00  0.00     0.024 C 
ATOM     11  C   UNL d   1      -2.045  -4.213   0.388  0.00  0.00     0.039 C 
ATOM     12  C   UNL d   1      -2.140   0.416   0.622  0.00  0.00     0.178 C 
ENDROOT
BRANCH   8  13
ATOM     13  N   UNL d   1      -0.605  -6.173   0.737  0.00  0.00    -0.303 N 
ATOM     14  C   UNL d   1       0.554  -6.909   0.763  0.00  0.00     0.325 C 
ATOM     15  N   UNL d   1       1.730  -6.229   0.653  0.00  0.00    -0.309 N 
ATOM     16  O   UNL d   1       0.442  -8.131   0.850  0.00  0.00    -0.247 OA
ATOM     17  H   UNL d   1       1.630  -5.226   0.617  0.00  0.00     0.170 HD
ATOM     18  H   UNL d   1      -1.418  -6.777   0.699  0.00  0.00     0.171 HD
BRANCH  15  19
ATOM     19  C   UNL d   1       3.048  -6.711   0.667  0.00  0.00     0.037 A 
ATOM     20  C   UNL d   1       3.383  -8.064   0.680  0.00  0.00     0.045 A 
ATOM     21  C   UNL d   1       4.729  -8.467   0.741  0.00  0.00     0.050 A 
ATOM     22  C   UNL d   1       5.736  -7.490   0.782  0.00  0.00     0.016 A 
ATOM     23  C   UNL d   1       5.409  -6.137   0.746  0.00  0.00     0.003 A 
ATOM     24  C   UNL d   1       4.070  -5.752   0.683  0.00  0.00     0.029 A 
BRANCH  21  25
ATOM     25  C   UNL d   1       5.097  -9.928   0.787  0.00  0.00     0.417 C 
ATOM     26  F   UNL d   1       4.040 -10.772   0.637  0.00  0.00    -0.166 F 
ATOM     27  F   UNL d   1       5.987 -10.270  -0.186  0.00  0.00    -0.166 F 
ATOM     28  F   UNL d   1       5.687 -10.273   1.966  0.00  0.00    -0.166 F 
ENDBRANCH  21  25
ENDBRANCH  15  19
ENDBRANCH   8  13
BRANCH   1  29
ATOM     29  C   UNL d   1       2.518   1.568  -0.238  0.00  0.00     0.434 C 
ATOM     30  F   UNL d   1       2.272   2.901  -0.330  0.00  0.00    -0.165 F 
ATOM     31  F   UNL d   1       3.452   1.409   0.740  0.00  0.00    -0.165 F 
ATOM     32  F   UNL d   1       3.123   1.202  -1.402  0.00  0.00    -0.165 F 
ENDBRANCH   1  29
TORSDOF 4
