REMARK  6 active torsions:
REMARK  status: ('A' for Active; 'I' for Inactive)
REMARK    1  A    between atoms: C_3  and  N_6 
REMARK    2  A    between atoms: N_5  and  C_4 
REMARK       I    between atoms: C_8  and  N_5 
REMARK       I    between atoms: N_6  and  C_7 
REMARK    3  A    between atoms: C_7  and  C_19 
REMARK    4  A    between atoms: C_20  and  C_8 
REMARK    5  A    between atoms: C_19  and  C_21 
REMARK    6  A    between atoms: C_21  and  C_20 
ROOT
ATOM      1  C   UNL d   1       1.093   5.710   0.080  0.00  0.00     0.019 C 
ENDROOT
BRANCH   1   2
ATOM      2  C   UNL d   1       1.236   7.203  -0.214  0.00  0.00     0.103 C 
BRANCH   2   3
ATOM      3  C   UNL d   1       2.702   7.519  -0.485  0.00  0.00     0.222 C 
ATOM      4  N   UNL d   1       3.038   8.845  -0.306  0.00  0.00    -0.326 N 
ATOM      5  H   UNL d   1       2.427   9.415   0.271  0.00  0.00     0.169 HD
ATOM      6  O   UNL d   1       3.482   6.641  -0.850  0.00  0.00    -0.273 OA
BRANCH   4   7
ATOM      7  C   UNL d   1       4.321   9.397  -0.575  0.00  0.00     0.058 A 
ATOM      8  C   UNL d   1       4.737  10.563   0.096  0.00  0.00     0.082 A 
ATOM      9  C   UNL d   1       6.017  11.089  -0.141  0.00  0.00     0.058 A 
ATOM     10 CL   UNL d   1       3.663  11.303   1.246  0.00  0.00    -0.080 Cl
ATOM     11 CL   UNL d   1       6.617  12.484   0.686  0.00  0.00    -0.082 Cl
ATOM     12  C   UNL d   1       6.870  10.480  -1.067  0.00  0.00     0.026 A 
ATOM     13  C   UNL d   1       6.450   9.349  -1.758  0.00  0.00     0.004 A 
ATOM     14  C   UNL d   1       5.187   8.812  -1.513  0.00  0.00     0.031 A 
ENDBRANCH   4   7
ENDBRANCH   2   3
ENDBRANCH   1   2
BRANCH   1  15
ATOM     15  C   UNL d   1      -0.341   5.187   0.095  0.00  0.00     0.103 C 
BRANCH  15  16
ATOM     16  C   UNL d   1      -0.315   3.732   0.551  0.00  0.00     0.222 C 
ATOM     17  N   UNL d   1       0.200   2.885  -0.424  0.00  0.00    -0.326 N 
ATOM     18  H   UNL d   1       0.659   3.360  -1.191  0.00  0.00     0.169 HD
ATOM     19  O   UNL d   1      -0.598   3.437   1.705  0.00  0.00    -0.273 OA
BRANCH  17  20
ATOM     20  C   UNL d   1       0.623   1.546  -0.213  0.00  0.00     0.058 A 
ATOM     21  C   UNL d   1      -0.042   0.564   0.549  0.00  0.00     0.082 A 
ATOM     22  C   UNL d   1       0.561  -0.699   0.715  0.00  0.00     0.058 A 
ATOM     23 CL   UNL d   1      -1.673   0.796   1.101  0.00  0.00    -0.080 Cl
ATOM     24 CL   UNL d   1      -0.160  -1.966   1.654  0.00  0.00    -0.082 Cl
ATOM     25  C   UNL d   1       1.780  -0.998   0.098  0.00  0.00     0.026 A 
ATOM     26  C   UNL d   1       2.402  -0.053  -0.709  0.00  0.00     0.004 A 
ATOM     27  C   UNL d   1       1.824   1.205  -0.866  0.00  0.00     0.031 A 
ENDBRANCH  17  20
ENDBRANCH  15  16
ENDBRANCH   1  15
TORSDOF 6
