REMARK  1 active torsions:
REMARK  status: ('A' for Active; 'I' for Inactive)
REMARK    1  A    between atoms: C_16  and  C_5 
ROOT
ATOM      1  C   UNL d   1       0.685  -0.483   0.023  0.00  0.00     0.055 A 
ATOM      2  C   UNL d   1      -0.794  -0.467   0.068  0.00  0.00     0.142 A 
ATOM      3  N   UNL d   1      -1.421   0.748   0.050  0.00  0.00    -0.287 N 
ATOM      4  C   UNL d   1       1.233   0.794   0.007  0.00  0.00     0.089 A 
ATOM      5  C   UNL d   1       1.642  -1.544  -0.009  0.00  0.00    -0.003 A 
ATOM      6  N   UNL d   1       0.578   2.001   0.005  0.00  0.00    -0.345 N 
ATOM      7  HN  UNL d   1       1.083   2.887  -0.010  1.00  0.00     0.167 HD
ATOM      8  C   UNL d   1      -0.729   1.951   0.023  0.00  0.00     0.191 A 
ATOM      9  S   UNL d   1       2.935   0.716  -0.016  0.00  0.00    -0.082 SA
ATOM     10  N   UNL d   1      -1.691  -1.422   0.113  0.00  0.00    -0.283 N 
ATOM     11  HN  UNL d   1      -1.505  -2.424   0.154  1.00  0.00     0.188 HD
ATOM     12  C   UNL d   1       2.917  -0.998  -0.036  0.00  0.00     0.065 A 
ATOM     13  N   UNL d   1      -2.938  -0.819   0.095  0.00  0.00    -0.294 N 
ATOM     14  HN  UNL d   1      -3.838  -1.299   0.110  1.00  0.00     0.187 HD
ATOM     15  C   UNL d   1      -2.753   0.484   0.057  0.00  0.00     0.207 A 
ENDROOT
BRANCH   5  16
ATOM     16  C   UNL d   1       1.443  -2.998  -0.043  0.00  0.00    -0.024 A 
ATOM     17  C   UNL d   1       0.367  -3.561  -0.740  0.00  0.00     0.012 A 
ATOM     18  C   UNL d   1       0.159  -4.944  -0.751  0.00  0.00     0.001 A 
ATOM     19  C   UNL d   1       1.048  -5.789  -0.095  0.00  0.00     0.000 A 
ATOM     20  C   UNL d   1       2.143  -5.252   0.576  0.00  0.00     0.001 A 
ATOM     21  C   UNL d   1       2.334  -3.866   0.611  0.00  0.00     0.012 A 
ENDBRANCH   5  16
TORSDOF 1
