REMARK  1 active torsions:
REMARK  status: ('A' for Active; 'I' for Inactive)
REMARK    1  A    between atoms: C_8  and  N_4 
ROOT
ATOM      1  C   UNL d   1       1.184   0.945  -0.528  0.00  0.00     0.170 C 
ATOM      2  N   UNL d   1       1.591  -0.340  -0.439  0.00  0.00    -0.351 N 
ATOM      3  N   UNL d   1      -0.133   1.172  -0.308  0.00  0.00    -0.351 N 
ATOM      4  N   UNL d   1      -0.501  -1.065   0.379  0.00  0.00    -0.369 N 
ATOM      5  C   UNL d   1      -1.097   0.128  -0.177  0.00  0.00     0.245 C 
ATOM      6  C   UNL d   1       0.690  -1.437  -0.343  0.00  0.00     0.245 C 
ATOM      7  S   UNL d   1       2.246   2.184  -0.837  0.00  0.00    -0.041 SA
ATOM      8  H   UNL d   1       2.584  -0.509  -0.504  0.00  0.00     0.163 HD
ATOM      9  H   UNL d   1      -0.440   2.131  -0.394  0.00  0.00     0.163 HD
ENDROOT
BRANCH   4  10
ATOM     10  C   UNL d   1      -0.521  -1.182   1.854  0.00  0.00     0.174 C 
ATOM     11  C   UNL d   1       0.291  -0.120   2.626  0.00  0.00     0.240 C 
ATOM     12  N   UNL d   1      -0.146   0.202   3.886  0.00  0.00    -0.359 N 
ATOM     13  O   UNL d   1       1.350   0.390   2.270  0.00  0.00    -0.271 OA
ATOM     14  C   UNL d   1      -0.913  -0.677   4.737  0.00  0.00     0.122 C 
ATOM     15  H   UNL d   1       0.492   0.850   4.335  0.00  0.00     0.162 HD
ATOM     16  C   UNL d   1      -0.261  -2.051   4.863  0.00  0.00     0.020 C 
ATOM     17  C   UNL d   1      -0.611  -2.987   3.704  0.00  0.00     0.004 C 
ATOM     18  C   UNL d   1      -0.070  -2.577   2.331  0.00  0.00     0.035 C 
ENDBRANCH   4  10
TORSDOF 1
