REMARK  6 active torsions:
REMARK  status: ('A' for Active; 'I' for Inactive)
REMARK    1  A    between atoms: N_2  and  C_1 
REMARK    2  A    between atoms: N_3  and  C_1 
REMARK    3  A    between atoms: C_5  and  N_2 
REMARK    4  A    between atoms: C_7  and  N_3 
REMARK    5  A    between atoms: O_15  and  C_8 
REMARK    6  A    between atoms: O_14  and  C_9 
ROOT
ATOM      1  C   UNL d   1       1.060   0.041   0.105  0.00  0.00     0.176 C 
ATOM      2  S   UNL d   1       2.564   0.108   0.847  0.00  0.00    -0.041 SA
ENDROOT
BRANCH   1   3
ATOM      3  N   UNL d   1       0.539   0.985  -0.738  0.00  0.00    -0.333 N 
ATOM      4  H   UNL d   1      -0.409   1.263  -0.515  0.00  0.00     0.168 HD
BRANCH   3   5
ATOM      5  C   UNL d   1       1.223   1.762  -1.695  0.00  0.00     0.036 A 
ATOM      6  C   UNL d   1       2.362   1.279  -2.350  0.00  0.00     0.066 A 
ATOM      7  C   UNL d   1       2.994   2.042  -3.332  0.00  0.00     0.070 A 
ATOM      8  C   UNL d   1       2.479   3.297  -3.657  0.00  0.00     0.037 A 
ATOM      9  C   UNL d   1       1.328   3.775  -3.029  0.00  0.00     0.005 A 
ATOM     10  C   UNL d   1       0.688   2.999  -2.061  0.00  0.00     0.029 A 
BRANCH   7  11
ATOM     11  O   UNL d   1       4.102   1.667  -4.044  0.00  0.00    -0.356 OA
ATOM     12  C   UNL d   1       4.620   0.367  -3.779  0.00  0.00     0.210 C 
ENDBRANCH   7  11
ENDBRANCH   3   5
ENDBRANCH   1   3
BRANCH   1  13
ATOM     13  N   UNL d   1       0.239  -0.990   0.473  0.00  0.00    -0.333 N 
ATOM     14  H   UNL d   1       0.609  -1.510   1.263  0.00  0.00     0.168 HD
BRANCH  13  15
ATOM     15  C   UNL d   1      -0.884  -1.558  -0.159  0.00  0.00     0.034 A 
ATOM     16  C   UNL d   1      -1.332  -1.216  -1.437  0.00  0.00     0.032 A 
ATOM     17  C   UNL d   1      -2.431  -1.872  -2.002  0.00  0.00     0.039 A 
ATOM     18  C   UNL d   1      -3.074  -2.879  -1.296  0.00  0.00     0.065 A 
ATOM     19  C   UNL d   1      -2.632  -3.251  -0.034  0.00  0.00     0.039 A 
ATOM     20  C   UNL d   1      -1.537  -2.591   0.530  0.00  0.00     0.032 A 
BRANCH  18  21
ATOM     21  O   UNL d   1      -4.135  -3.493  -1.890  0.00  0.00    -0.361 OA
ATOM     22  H   UNL d   1      -4.486  -4.167  -1.284  0.00  0.00     0.217 HD
ENDBRANCH  18  21
ENDBRANCH  13  15
ENDBRANCH   1  13
TORSDOF 6
