REMARK  2 active torsions:
REMARK  status: ('A' for Active; 'I' for Inactive)
REMARK    1  A    between atoms: C_2  and  C_1 
REMARK       I    between atoms: N_4  and  C_2 
REMARK    2  A    between atoms: C_10  and  C_3 
ROOT
ATOM      1  C   UNL d   1       0.983  -0.104   0.170  0.00  0.00     0.113 C 
ATOM      2  C   UNL d   1       0.316  -0.544  -0.918  0.00  0.00     0.040 C 
ATOM      3  C   UNL d   1       0.312   0.321   1.347  0.00  0.00     0.105 C 
ATOM      4  N   UNL d   1      -0.236   0.697   2.300  0.00  0.00    -0.191 NA
ENDROOT
BRANCH   1   5
ATOM      5  C   UNL d   1       2.477  -0.177   0.092  0.00  0.00     0.264 C 
ATOM      6  N   UNL d   1       3.278   0.769   0.709  0.00  0.00    -0.343 N 
ATOM      7  C   UNL d   1       2.881   1.994   1.423  0.00  0.00     0.152 C 
ATOM      8  C   UNL d   1       4.738   0.593   0.658  0.00  0.00     0.152 C 
ATOM      9  C   UNL d   1       3.659   3.215   0.915  0.00  0.00     0.187 C 
ATOM     10  O   UNL d   1       5.075   2.991   0.928  0.00  0.00    -0.388 OA
ATOM     11  C   UNL d   1       5.413   1.855   0.118  0.00  0.00     0.187 C 
ATOM     12  O   UNL d   1       2.978  -1.095  -0.567  0.00  0.00    -0.267 OA
ENDBRANCH   1   5
BRANCH   2  13
ATOM     13  C   UNL d   1      -1.142  -0.548  -1.059  0.00  0.00    -0.032 A 
ATOM     14  C   UNL d   1      -1.756   0.482  -1.783  0.00  0.00     0.051 A 
ATOM     15  C   UNL d   1      -3.128   0.470  -1.883  0.00  0.00     0.105 A 
ATOM     16  O   UNL d   1      -3.884   1.392  -2.539  0.00  0.00    -0.323 OA
ATOM     17  C   UNL d   1      -3.891  -0.514  -1.299  0.00  0.00     0.105 A 
ATOM     18  C   UNL d   1      -5.209   0.872  -2.307  0.00  0.00     0.352 A 
ATOM     19  O   UNL d   1      -5.221  -0.335  -1.516  0.00  0.00    -0.323 OA
ATOM     20  C   UNL d   1      -3.319  -1.546  -0.586  0.00  0.00     0.040 A 
ATOM     21  C   UNL d   1      -1.926  -1.561  -0.466  0.00  0.00     0.014 A 
ENDBRANCH   2  13
TORSDOF 2
