REMARK  5 active torsions:
REMARK  status: ('A' for Active; 'I' for Inactive)
REMARK    1  A    between atoms: S_12  and  C_2 
REMARK    2  A    between atoms: C_6  and  C_3 
REMARK       I    between atoms: N_8  and  C_6 
REMARK       I    between atoms: C_7  and  N_9 
REMARK    3  A    between atoms: C_11  and  C_7 
REMARK    4  A    between atoms: N_9  and  N_8 
REMARK    5  A    between atoms: O_22  and  C_10 
ROOT
ATOM      1  C   UNL d   1       2.523   2.083   0.184  0.00  0.00     0.277 C 
ATOM      2  N   UNL d   1       3.900   1.980   0.024  0.00  0.00    -0.263 N 
ATOM      3  O   UNL d   1       1.998   3.183   0.354  0.00  0.00    -0.265 OA
ATOM      4  H   UNL d   1       4.367   1.089  -0.138  0.00  0.00     0.190 HD
ENDROOT
BRANCH   1   5
ATOM      5  C   UNL d   1       1.779   0.821   0.127  0.00  0.00     0.082 A 
ATOM      6  C   UNL d   1       0.404   0.610   0.096  0.00  0.00    -0.025 A 
ATOM      7  C   UNL d   1       0.059  -0.803  -0.017  0.00  0.00     0.002 A 
ATOM      8  C   UNL d   1      -0.658   1.683   0.117  0.00  0.00     0.041 C 
ATOM      9  C   UNL d   1       1.189  -1.604   0.034  0.00  0.00     0.051 A 
ATOM     10  C   UNL d   1      -1.379  -1.254  -0.136  0.00  0.00     0.153 C 
ATOM     11  S   UNL d   1       2.618  -0.670   0.110  0.00  0.00    -0.076 SA
ATOM     12  C   UNL d   1      -2.356  -0.101  -0.399  0.00  0.00     0.037 C 
ATOM     13  C   UNL d   1      -2.042   1.118   0.462  0.00  0.00     0.007 C 
BRANCH   9  14
ATOM     14  S   UNL d   1       1.366  -3.356  -0.051  0.00  0.00    -0.126 SA
ATOM     15  C   UNL d   1       0.023  -3.994   0.966  0.00  0.00     0.096 C 
ENDBRANCH   9  14
BRANCH  10  16
ATOM     16  O   UNL d   1      -1.565  -2.203  -1.183  0.00  0.00    -0.391 OA
ATOM     17  H   UNL d   1      -0.983  -1.935  -1.916  0.00  0.00     0.210 HD
ENDBRANCH  10  16
ENDBRANCH   1   5
BRANCH   2  18
ATOM     18  N   UNL d   1       4.712   3.117   0.113  0.00  0.00    -0.263 N 
ATOM     19  C   UNL d   1       6.085   2.938   0.101  0.00  0.00     0.270 C 
ATOM     20  O   UNL d   1       6.612   1.837  -0.022  0.00  0.00    -0.266 OA
ATOM     21  H   UNL d   1       4.258   3.971   0.428  0.00  0.00     0.190 HD
BRANCH  19  22
ATOM     22  C   UNL d   1       6.916   4.165   0.267  0.00  0.00     0.033 A 
ATOM     23  C   UNL d   1       8.206   4.047   0.805  0.00  0.00     0.019 A 
ATOM     24  C   UNL d   1       9.014   5.177   0.963  0.00  0.00     0.025 A 
ATOM     25  C   UNL d   1       8.537   6.426   0.571  0.00  0.00     0.034 A 
ATOM     26  C   UNL d   1       7.265   6.553   0.016  0.00  0.00     0.025 A 
ATOM     27 CL   UNL d   1       9.527   7.822   0.760  0.00  0.00    -0.084 Cl
ATOM     28  C   UNL d   1       6.454   5.423  -0.141  0.00  0.00     0.019 A 
ENDBRANCH  19  22
ENDBRANCH   2  18
TORSDOF 5
