REMARK  4 active torsions:
REMARK  status: ('A' for Active; 'I' for Inactive)
REMARK    1  A    between atoms: S_7  and  C_1 
REMARK    2  A    between atoms: C_15  and  C_2 
REMARK    3  A    between atoms: N_3  and  C_8 
REMARK    4  A    between atoms: C_11  and  S_7 
ROOT
ATOM      1  C   UNL d   1       1.280  -1.616   0.029  0.00  0.00     0.067 A 
ATOM      2  C   UNL d   1      -0.068  -1.563   0.105  0.00  0.00     0.027 A 
ATOM      3  S   UNL d   1       2.187  -0.128   0.001  0.00  0.00    -0.043 SA
ATOM      4  C   UNL d   1      -0.658  -0.183   0.138  0.00  0.00     0.091 A 
ATOM      5  S   UNL d   1       0.557   1.077  -0.037  0.00  0.00    -0.039 SA
ATOM      6  S   UNL d   1      -2.282   0.230   0.270  0.00  0.00    -0.071 SA
ENDROOT
BRANCH   1   7
ATOM      7  S   UNL d   1       2.179  -3.099  -0.151  0.00  0.00    -0.064 SA
BRANCH   7   8
ATOM      8  C   UNL d   1       2.697  -3.424   1.528  0.00  0.00     0.075 A 
ATOM      9  N   UNL d   1       2.127  -2.743   2.551  0.00  0.00    -0.358 N 
ATOM     10  C   UNL d   1       2.476  -3.103   3.816  0.00  0.00     0.124 A 
ATOM     11  HN  UNL d   1       1.462  -1.989   2.380  1.00  0.00     0.166 HD
ATOM     12  C   UNL d   1       3.365  -4.130   4.097  0.00  0.00     0.118 A 
ATOM     13  C   UNL d   1       3.974  -4.803   3.039  0.00  0.00     0.040 A 
ATOM     14  C   UNL d   1       3.634  -4.438   1.735  0.00  0.00     0.040 A 
BRANCH  12  15
ATOM     15  N   UNL d   1       3.617  -4.517   5.478  0.00  0.00    -0.114 N 
ATOM     16  O   UNL d   1       3.002  -3.915   6.366  0.00  0.00    -0.532 OA
ATOM     17  O   UNL d   1       4.418  -5.442   5.676  0.00  0.00    -0.532 OA
ENDBRANCH  12  15
ENDBRANCH   7   8
ENDBRANCH   1   7
BRANCH   2  18
ATOM     18  C   UNL d   1      -0.946  -2.749   0.141  0.00  0.00    -0.022 A 
ATOM     19  C   UNL d   1      -1.320  -3.304   1.372  0.00  0.00     0.012 A 
ATOM     20  C   UNL d   1      -2.223  -4.368   1.421  0.00  0.00     0.001 A 
ATOM     21  C   UNL d   1      -2.750  -4.891   0.241  0.00  0.00     0.000 A 
ATOM     22  C   UNL d   1      -2.368  -4.357  -0.989  0.00  0.00     0.001 A 
ATOM     23  C   UNL d   1      -1.467  -3.291  -1.042  0.00  0.00     0.012 A 
ENDBRANCH   2  18
TORSDOF 4
