REMARK  9 active torsions:
REMARK  status: ('A' for Active; 'I' for Inactive)
REMARK    1  A    between atoms: C_11  and  C_1 
REMARK    2  A    between atoms: N_5  and  C_2 
REMARK    3  A    between atoms: C_18  and  C_6 
REMARK    4  A    between atoms: N_7  and  C_12 
REMARK    5  A    between atoms: O_22  and  C_11 
REMARK    6  A    between atoms: C_13  and  O_23 
REMARK    7  A    between atoms: C_27  and  O_22 
REMARK    8  A    between atoms: O_23  and  C_28 
REMARK    9  A    between atoms: C_28  and  C_27 
ROOT
ATOM      1  O   UNL d   1       1.689  -2.889  -0.232  0.00  0.00    -0.315 OA
ENDROOT
BRANCH   1   2
ATOM      2  C   UNL d   1       0.339  -2.720  -0.174  0.00  0.00     0.298 C 
ATOM      3  O   UNL d   1      -0.457  -3.649  -0.125  0.00  0.00    -0.259 OA
BRANCH   2   4
ATOM      4  C   UNL d   1      -0.043  -1.333  -0.146  0.00  0.00     0.100 A 
ATOM      5  C   UNL d   1      -1.173  -0.727   0.482  0.00  0.00     0.084 A 
ATOM      6  N   UNL d   1      -1.202   0.588   0.205  0.00  0.00    -0.259 N 
ATOM      7  O   UNL d   1      -0.084   0.858  -0.551  0.00  0.00    -0.241 OA
ATOM      8  HN  UNL d   1      -1.915   1.257   0.498  1.00  0.00     0.195 HD
ATOM      9  C   UNL d   1       0.620  -0.284  -0.748  0.00  0.00     0.091 A 
ATOM     10  C   UNL d   1       1.857  -0.160  -1.548  0.00  0.00     0.080 C 
BRANCH   5  11
ATOM     11  C   UNL d   1      -2.192  -1.330   1.350  0.00  0.00    -0.006 A 
ATOM     12  C   UNL d   1      -3.503  -0.838   1.350  0.00  0.00     0.014 A 
ATOM     13  C   UNL d   1      -4.479  -1.403   2.177  0.00  0.00     0.001 A 
ATOM     14  C   UNL d   1      -4.155  -2.470   3.013  0.00  0.00     0.000 A 
ATOM     15  C   UNL d   1      -2.854  -2.963   3.034  0.00  0.00     0.001 A 
ATOM     16  C   UNL d   1      -1.876  -2.387   2.219  0.00  0.00     0.014 A 
ENDBRANCH   5  11
ENDBRANCH   2   4
ENDBRANCH   1   2
BRANCH   1  17
ATOM     17  C   UNL d   1       2.126  -4.253  -0.196  0.00  0.00     0.205 C 
BRANCH  17  18
ATOM     18  C   UNL d   1       1.913  -4.947  -1.539  0.00  0.00     0.202 C 
BRANCH  18  19
ATOM     19  O   UNL d   1       2.679  -4.277  -2.554  0.00  0.00    -0.346 OA
BRANCH  19  20
ATOM     20  C   UNL d   1       2.618  -4.831  -3.806  0.00  0.00     0.102 A 
ATOM     21  C   UNL d   1       2.776  -4.010  -4.934  0.00  0.00     0.138 A 
ATOM     22  C   UNL d   1       2.694  -4.515  -6.242  0.00  0.00     0.075 A 
ATOM     23  C   UNL d   1       2.474  -5.885  -6.415  0.00  0.00     0.105 A 
ATOM     24  C   UNL d   1       2.346  -6.729  -5.307  0.00  0.00     0.039 A 
ATOM     25  C   UNL d   1       2.422  -6.201  -4.016  0.00  0.00     0.042 A 
BRANCH  21  26
ATOM     26  N   UNL d   1       3.009  -2.586  -4.778  0.00  0.00    -0.113 N 
ATOM     27  O   UNL d   1       2.200  -1.827  -5.330  0.00  0.00    -0.532 OA
ATOM     28  O   UNL d   1       4.020  -2.232  -4.160  0.00  0.00    -0.532 OA
ENDBRANCH  21  26
BRANCH  23  29
ATOM     29  N   UNL d   1       2.379  -6.459  -7.763  0.00  0.00    -0.116 N 
ATOM     30  O   UNL d   1       2.521  -5.687  -8.723  0.00  0.00    -0.532 OA
ATOM     31  O   UNL d   1       2.167  -7.671  -7.860  0.00  0.00    -0.532 OA
ENDBRANCH  23  29
ENDBRANCH  19  20
ENDBRANCH  18  19
ENDBRANCH  17  18
ENDBRANCH   1  17
TORSDOF 9
