REMARK  3 active torsions:
REMARK  status: ('A' for Active; 'I' for Inactive)
REMARK    1  A    between atoms: S_12  and  C_1 
REMARK    2  A    between atoms: O_14  and  N_7 
REMARK    3  A    between atoms: C_9  and  C_10 
ROOT
ATOM      1  C   UNL d   1      -0.259  -1.082   0.035  0.00  0.00     0.090 A 
ATOM      2  C   UNL d   1       0.525   0.076   0.038  0.00  0.00     0.078 A 
ATOM      3  N   UNL d   1      -1.616  -1.039   0.002  0.00  0.00    -0.348 N 
ATOM      4  HN  UNL d   1      -2.172  -1.895  -0.001  1.00  0.00     0.166 HD
ATOM      5  C   UNL d   1       1.957   0.048   0.056  0.00  0.00     0.102 C 
ATOM      6  N   UNL d   1       3.116   0.086   0.064  0.00  0.00    -0.191 NA
ATOM      7  C   UNL d   1      -2.206   0.180  -0.029  0.00  0.00     0.050 A 
ATOM      8  C   UNL d   1      -0.119   1.319   0.015  0.00  0.00     0.028 A 
ATOM      9  C   UNL d   1      -1.508   1.377  -0.018  0.00  0.00     0.032 A 
ENDROOT
BRANCH   1  10
ATOM     10  S   UNL d   1       0.486  -2.713   0.069  0.00  0.00    -0.115 SA
ATOM     11  C   UNL d   1      -0.983  -3.775   0.085  0.00  0.00     0.097 C 
ENDBRANCH   1  10
BRANCH   7  12
ATOM     12  C   UNL d   1      -3.680   0.167  -0.091  0.00  0.00     0.143 C 
ATOM     13  N   UNL d   1      -4.378   1.259  -0.138  0.00  0.00    -0.278 N 
ATOM     14  HN  UNL d   1      -3.997   2.206  -0.132  1.00  0.00     0.193 HD
BRANCH  13  15
ATOM     15  O   UNL d   1      -5.736   0.930  -0.199  0.00  0.00    -0.290 OA
ATOM     16  H   UNL d   1      -6.164   1.806  -0.238  0.00  0.00     0.244 HD
ENDBRANCH  13  15
ENDBRANCH   7  12
TORSDOF 3
