REMARK  4 active torsions:
REMARK  status: ('A' for Active; 'I' for Inactive)
REMARK    1  A    between atoms: S_2  and  C_1 
REMARK    2  A    between atoms: C_15  and  S_2 
REMARK    3  A    between atoms: N_5  and  C_4 
REMARK       I    between atoms: C_8  and  N_5 
REMARK       I    between atoms: N_10  and  C_8 
REMARK    4  A    between atoms: C_9  and  N_10 
ROOT
ATOM      1  N   UNL d   1       0.428   2.082  -0.171  0.00  0.00    -0.301 N 
ATOM      2  C   UNL d   1       1.391   2.929  -0.699  0.00  0.00     0.325 C 
ATOM      3  N   UNL d   1       1.182   4.260  -0.355  0.00  0.00    -0.307 N 
ATOM      4  O   UNL d   1       2.328   2.569  -1.400  0.00  0.00    -0.247 OA
ATOM      5  H   UNL d   1      -0.477   2.487   0.031  0.00  0.00     0.171 HD
ATOM      6  H   UNL d   1       0.751   4.428   0.546  0.00  0.00     0.170 HD
ENDROOT
BRANCH   1   7
ATOM      7  C   UNL d   1       0.468   0.694  -0.336  0.00  0.00     0.101 C 
ATOM      8  C   UNL d   1      -0.577  -0.214  -0.254  0.00  0.00     0.089 C 
ATOM      9  C   UNL d   1      -0.160  -1.543  -0.607  0.00  0.00     0.090 C 
ATOM     10 CL   UNL d   1      -2.170   0.253   0.182  0.00  0.00    -0.080 Cl
ATOM     11  C   UNL d   1       1.205  -1.603  -0.811  0.00  0.00     0.077 C 
ATOM     12  S   UNL d   1       1.958  -0.102  -0.581  0.00  0.00    -0.081 SA
BRANCH   9  13
ATOM     13  S   UNL d   1      -1.130  -2.980  -0.700  0.00  0.00     0.181 S 
ATOM     14  O   UNL d   1      -0.152  -4.045  -0.780  0.00  0.00    -0.222 OA
ATOM     15  O   UNL d   1      -2.041  -2.888   0.422  0.00  0.00    -0.222 OA
BRANCH  13  16
ATOM     16  C   UNL d   1      -2.032  -2.944  -2.253  0.00  0.00     0.105 C 
ATOM     17  C   UNL d   1      -2.657  -4.320  -2.505  0.00  0.00     0.026 C 
ATOM     18  C   UNL d   1      -3.121  -1.882  -2.292  0.00  0.00     0.026 C 
ENDBRANCH  13  16
ENDBRANCH   9  13
ENDBRANCH   1   7
BRANCH   3  19
ATOM     19  C   UNL d   1       2.029   5.303  -0.840  0.00  0.00     0.059 A 
ATOM     20  C   UNL d   1       2.648   5.214  -2.096  0.00  0.00     0.055 A 
ATOM     21  C   UNL d   1       3.572   6.173  -2.507  0.00  0.00     0.036 A 
ATOM     22 CL   UNL d   1       4.358   6.003  -4.028  0.00  0.00    -0.084 Cl
ATOM     23  C   UNL d   1       3.871   7.258  -1.690  0.00  0.00     0.026 A 
ATOM     24  C   UNL d   1       3.213   7.399  -0.466  0.00  0.00     0.028 A 
ATOM     25  C   UNL d   1       2.286   6.434  -0.049  0.00  0.00     0.060 A 
ATOM     26 CL   UNL d   1       1.514   6.647   1.483  0.00  0.00    -0.082 Cl
ENDBRANCH   3  19
TORSDOF 4
