REMARK  8 active torsions:
REMARK  status: ('A' for Active; 'I' for Inactive)
REMARK    1  A    between atoms: N_2  and  C_1 
REMARK    2  A    between atoms: C_4  and  C_1 
REMARK       I    between atoms: C_3  and  N_2 
REMARK    3  A    between atoms: C_15  and  C_3 
REMARK    4  A    between atoms: O_22  and  C_4 
REMARK    5  A    between atoms: N_13  and  C_5 
REMARK    6  A    between atoms: C_6  and  O_10 
REMARK    7  A    between atoms: O_10  and  C_11 
REMARK    8  A    between atoms: C_19  and  N_13 
ROOT
ATOM      1  N   UNL d   1       3.109   1.061  -0.682  0.00  0.00    -0.362 N 
ATOM      2  H   UNL d   1       2.606   1.767  -1.222  0.00  0.00     0.165 HD
ENDROOT
BRANCH   1   3
ATOM      3  C   UNL d   1       2.324   0.171   0.024  0.00  0.00     0.124 C 
ATOM      4  C   UNL d   1       0.988   0.033   0.104  0.00  0.00     0.126 C 
BRANCH   4   5
ATOM      5  N   UNL d   1       0.335  -0.918   0.898  0.00  0.00    -0.317 N 
ATOM      6  C   UNL d   1       0.949  -1.847   1.731  0.00  0.00     0.256 C 
ATOM      7  O   UNL d   1       2.167  -1.977   1.859  0.00  0.00    -0.267 OA
ATOM      8  H   UNL d   1      -0.677  -0.864   0.883  0.00  0.00     0.169 HD
BRANCH   6   9
ATOM      9  C   UNL d   1       0.116  -2.772   2.546  0.00  0.00     0.032 A 
ATOM     10  C   UNL d   1      -1.176  -3.170   2.195  0.00  0.00     0.017 A 
ATOM     11  C   UNL d   1      -1.839  -4.131   2.972  0.00  0.00     0.001 A 
ATOM     12  C   UNL d   1      -1.221  -4.695   4.091  0.00  0.00     0.000 A 
ATOM     13  C   UNL d   1       0.061  -4.298   4.450  0.00  0.00     0.001 A 
ATOM     14  C   UNL d   1       0.725  -3.342   3.682  0.00  0.00     0.017 A 
ENDBRANCH   6   9
ENDBRANCH   4   5
BRANCH   4  15
ATOM     15  C   UNL d   1       0.181   0.988  -0.735  0.00  0.00     0.311 C 
ATOM     16  O   UNL d   1       0.661   1.852  -1.462  0.00  0.00    -0.258 OA
BRANCH  15  17
ATOM     17  O   UNL d   1      -1.154   0.764  -0.579  0.00  0.00    -0.321 OA
ATOM     18  C   UNL d   1      -1.944   1.657  -1.374  0.00  0.00     0.213 C 
ENDBRANCH  15  17
ENDBRANCH   4  15
ENDBRANCH   1   3
BRANCH   1  19
ATOM     19  C   UNL d   1       4.491   0.963  -0.882  0.00  0.00     0.047 A 
ATOM     20  C   UNL d   1       5.213  -0.218  -0.703  0.00  0.00     0.119 A 
ATOM     21  N   UNL d   1       6.557  -0.325  -0.782  0.00  0.00    -0.344 N 
ATOM     22  C   UNL d   1       7.245   0.817  -0.992  0.00  0.00     0.148 A 
ATOM     23  HN  UNL d   1       7.029  -1.224  -0.688  1.00  0.00     0.167 HD
ATOM     24  C   UNL d   1       6.638   2.043  -1.212  0.00  0.00     0.059 A 
ATOM     25  C   UNL d   1       5.242   2.110  -1.152  0.00  0.00     0.035 A 
BRANCH  22  26
ATOM     26  O   UNL d   1       8.632   0.783  -0.926  0.00  0.00    -0.291 OA
BRANCH  26  27
ATOM     27  C   UNL d   1       9.177  -0.181  -0.102  0.00  0.00     0.116 A 
ATOM     28  C   UNL d   1      10.305  -0.872  -0.550  0.00  0.00     0.153 A 
ATOM     29  C   UNL d   1      10.878  -1.877   0.224  0.00  0.00     0.087 A 
ATOM     30  F   UNL d   1      10.850  -0.580  -1.739  0.00  0.00    -0.203 F 
ATOM     31  C   UNL d   1      10.315  -2.188   1.455  0.00  0.00     0.119 A 
ATOM     32  C   UNL d   1       9.213  -1.490   1.938  0.00  0.00     0.045 A 
ATOM     33  F   UNL d   1      10.840  -3.173   2.194  0.00  0.00    -0.206 F 
ATOM     34  C   UNL d   1       8.660  -0.467   1.170  0.00  0.00     0.043 A 
ENDBRANCH  26  27
ENDBRANCH  22  26
ENDBRANCH   1  19
TORSDOF 8
