REMARK  3 active torsions:
REMARK  status: ('A' for Active; 'I' for Inactive)
REMARK    1  A    between atoms: C_2  and  S_1 
REMARK    2  A    between atoms: N_4  and  S_1 
REMARK    3  A    between atoms: C_10  and  C_5 
ROOT
ATOM      1  C   UNL d   1       0.585  -0.469   1.920  0.00  0.00     0.116 C 
ATOM      2  S   UNL d   1       0.512   0.672   3.179  0.00  0.00    -0.075 SA
ATOM      3  C   UNL d   1      -0.271  -0.415   4.254  0.00  0.00     0.033 C 
ATOM      4  C   UNL d   1       0.186  -1.716   2.362  0.00  0.00     0.034 C 
ATOM      5  C   UNL d   1      -0.304  -1.687   3.706  0.00  0.00     0.023 C 
ENDROOT
BRANCH   1   6
ATOM      6  S   UNL d   1       1.163   0.102   0.333  0.00  0.00     0.250 S 
ATOM      7  O   UNL d   1       0.004   0.026  -0.529  0.00  0.00    -0.205 OA
ATOM      8  O   UNL d   1       2.329  -0.724   0.085  0.00  0.00    -0.205 OA
BRANCH   6   9
ATOM      9  N   UNL d   1       1.666   1.722   0.408  0.00  0.00    -0.202 NA
ATOM     10  C   UNL d   1       0.597   2.768   0.500  0.00  0.00     0.134 C 
ATOM     11  C   UNL d   1       0.092   3.200  -0.881  0.00  0.00     0.183 C 
ATOM     12  O   UNL d   1       1.170   3.620  -1.727  0.00  0.00    -0.389 OA
ATOM     13  C   UNL d   1       2.106   2.548  -1.908  0.00  0.00     0.183 C 
ATOM     14  C   UNL d   1       2.719   2.132  -0.569  0.00  0.00     0.134 C 
ENDBRANCH   6   9
ENDBRANCH   1   6
BRANCH   3  15
ATOM     15  C   UNL d   1      -0.763   0.084   5.546  0.00  0.00     0.049 A 
ATOM     16  N   UNL d   1      -1.093   1.400   5.567  0.00  0.00    -0.365 N 
ATOM     17  C   UNL d   1      -1.551   1.918   6.725  0.00  0.00     0.088 A 
ATOM     18  HN  UNL d   1      -0.997   1.980   4.733  1.00  0.00     0.165 HD
ATOM     19  C   UNL d   1      -1.706   1.181   7.883  0.00  0.00     0.017 A 
ATOM     20  C   UNL d   1      -1.378  -0.171   7.848  0.00  0.00     0.004 A 
ATOM     21  C   UNL d   1      -0.904  -0.733   6.663  0.00  0.00     0.031 A 
ENDBRANCH   3  15
TORSDOF 3
