REMARK  7 active torsions:
REMARK  status: ('A' for Active; 'I' for Inactive)
REMARK    1  A    between atoms: S_22  and  C_4 
REMARK    2  A    between atoms: C_15  and  C_5 
REMARK    3  A    between atoms: S_23  and  C_6 
REMARK    4  A    between atoms: C_11  and  C_13 
REMARK    5  A    between atoms: C_12  and  C_14 
REMARK    6  A    between atoms: C_16  and  C_30 
REMARK    7  A    between atoms: C_30  and  S_22 
ROOT
ATOM      1  N   UNL d   1       3.464   5.224  -0.337  0.00  0.00    -0.352 N 
ATOM      2  HN  UNL d   1       4.286   4.644  -0.508  1.00  0.00     0.166 HD
ATOM      3  C   UNL d   1       3.473   6.609  -0.280  0.00  0.00     0.049 A 
ATOM      4  C   UNL d   1       2.245   4.760  -0.141  0.00  0.00     0.060 A 
ATOM      5  S   UNL d   1       1.060   5.963   0.206  0.00  0.00    -0.086 SA
ATOM      6  C   UNL d   1       2.247   7.179   0.003  0.00  0.00     0.081 A 
ENDROOT
BRANCH   3   7
ATOM      7  C   UNL d   1       4.706   7.370  -0.455  0.00  0.00    -0.007 A 
ATOM      8  C   UNL d   1       4.694   8.682  -0.953  0.00  0.00     0.030 A 
ATOM      9  C   UNL d   1       5.881   9.426  -1.069  0.00  0.00     0.049 A 
ATOM     10  C   UNL d   1       7.095   8.830  -0.698  0.00  0.00     0.032 A 
ATOM     11  C   UNL d   1       7.136   7.517  -0.206  0.00  0.00     0.049 A 
ATOM     12  C   UNL d   1       5.934   6.795  -0.097  0.00  0.00     0.030 A 
BRANCH   9  13
ATOM     13  C   UNL d   1       5.825  10.854  -1.557  0.00  0.00     0.417 C 
ATOM     14  F   UNL d   1       7.039  11.470  -1.575  0.00  0.00    -0.166 F 
ATOM     15  F   UNL d   1       5.330  10.957  -2.820  0.00  0.00    -0.166 F 
ATOM     16  F   UNL d   1       5.024  11.631  -0.775  0.00  0.00    -0.166 F 
ENDBRANCH   9  13
BRANCH  11  17
ATOM     17  C   UNL d   1       8.438   6.893   0.238  0.00  0.00     0.417 C 
ATOM     18  F   UNL d   1       9.514   7.711   0.063  0.00  0.00    -0.166 F 
ATOM     19  F   UNL d   1       8.431   6.569   1.560  0.00  0.00    -0.166 F 
ATOM     20  F   UNL d   1       8.730   5.745  -0.432  0.00  0.00    -0.166 F 
ENDBRANCH  11  17
ENDBRANCH   3   7
BRANCH   4  21
ATOM     21  C   UNL d   1       1.889   3.300  -0.129  0.00  0.00     0.146 C 
BRANCH  21  22
ATOM     22  S   UNL d   1       0.551   2.842  -1.272  0.00  0.00    -0.097 SA
BRANCH  22  23
ATOM     23  C   UNL d   1       1.313   3.128  -2.815  0.00  0.00     0.129 A 
ATOM     24  S   UNL d   1       0.422   3.514  -4.227  0.00  0.00    -0.038 SA
ATOM     25  C   UNL d   1       1.918   3.560  -5.061  0.00  0.00     0.128 A 
ATOM     26  N   UNL d   1       2.966   3.295  -4.309  0.00  0.00    -0.287 N 
ATOM     27  N   UNL d   1       2.611   3.037  -2.998  0.00  0.00    -0.287 N 
ATOM     28  HN  UNL d   1       3.926   3.280  -4.654  1.00  0.00     0.188 HD
ATOM     29  HN  UNL d   1       3.277   2.804  -2.262  1.00  0.00     0.188 HD
BRANCH  25  30
ATOM     30  S   UNL d   1       2.040   3.924  -6.766  0.00  0.00    -0.108 SA
ATOM     31  C   UNL d   1       3.829   3.826  -7.000  0.00  0.00     0.097 C 
ENDBRANCH  25  30
ENDBRANCH  22  23
ENDBRANCH  21  22
ENDBRANCH   4  21
TORSDOF 7
