REMARK  5 active torsions:
REMARK  status: ('A' for Active; 'I' for Inactive)
REMARK    1  A    between atoms: C_7  and  C_1 
REMARK    2  A    between atoms: C_8  and  C_2 
REMARK    3  A    between atoms: O_17  and  C_7 
REMARK    4  A    between atoms: O_19  and  C_12 
REMARK    5  A    between atoms: C_20  and  O_17 
ROOT
ATOM      1  C   UNL d   1       1.437   1.033   0.021  0.00  0.00     0.066 C 
ATOM      2  C   UNL d   1       0.191   1.875  -0.121  0.00  0.00     0.161 C 
ATOM      3  C   UNL d   1       1.367  -0.317  -0.011  0.00  0.00     0.024 C 
ATOM      4  C   UNL d   1      -1.069  -0.266  -0.082  0.00  0.00     0.321 C 
ATOM      5  N   UNL d   1       0.127  -0.910  -0.117  0.00  0.00    -0.312 N 
ATOM      6  N   UNL d   1      -1.015   1.079   0.024  0.00  0.00    -0.330 N 
ATOM      7  O   UNL d   1      -2.134  -0.870  -0.112  0.00  0.00    -0.247 OA
ATOM      8  C   UNL d   1       2.496  -1.313   0.031  0.00  0.00     0.069 C 
ATOM      9  H   UNL d   1       0.051  -1.921  -0.152  0.00  0.00     0.170 HD
ATOM     10  H   UNL d   1      -1.914   1.541   0.043  0.00  0.00     0.165 HD
ENDROOT
BRANCH   2  11
ATOM     11  C   UNL d   1       0.057   3.055   0.828  0.00  0.00    -0.029 A 
ATOM     12  C   UNL d   1      -0.107   4.352   0.317  0.00  0.00     0.031 A 
ATOM     13  C   UNL d   1      -0.299   5.464   1.158  0.00  0.00     0.044 A 
ATOM     14 BR   UNL d   1      -0.474   7.110   0.221  0.00  0.00    -0.048 Br
ATOM     15  C   UNL d   1      -0.340   5.284   2.545  0.00  0.00     0.085 A 
ATOM     16  C   UNL d   1      -0.164   3.981   3.049  0.00  0.00     0.039 A 
ATOM     17  C   UNL d   1       0.031   2.881   2.212  0.00  0.00     0.012 A 
BRANCH  15  18
ATOM     18  O   UNL d   1      -0.523   6.169   3.567  0.00  0.00    -0.355 OA
ATOM     19  C   UNL d   1      -0.825   7.528   3.317  0.00  0.00     0.210 C 
ENDBRANCH  15  18
ENDBRANCH   2  11
BRANCH   1  20
ATOM     20  C   UNL d   1       2.744   1.729   0.157  0.00  0.00     0.293 C 
ATOM     21  O   UNL d   1       3.724   1.247   0.708  0.00  0.00    -0.259 OA
BRANCH  20  22
ATOM     22  O   UNL d   1       2.707   2.965  -0.398  0.00  0.00    -0.318 OA
BRANCH  22  23
ATOM     23  C   UNL d   1       3.920   3.734  -0.274  0.00  0.00     0.174 C 
ATOM     24  C   UNL d   1       4.135   4.241   1.145  0.00  0.00     0.034 C 
ENDBRANCH  22  23
ENDBRANCH  20  22
ENDBRANCH   1  20
TORSDOF 5
