REMARK  2 active torsions:
REMARK  status: ('A' for Active; 'I' for Inactive)
REMARK    1  A    between atoms: N_8  and  C_1 
REMARK    2  A    between atoms: C_2  and  C_7 
REMARK       I    between atoms: C_7  and  N_11 
ROOT
ATOM      1  C   UNL d   1      -8.415   1.559   0.430  0.00  0.00     0.260 C 
ATOM      2  N   UNL d   1      -4.591   0.269   0.122  0.00  0.00    -0.360 N 
ATOM      3  N   UNL d   1      -7.055   1.829   0.682  0.00  0.00    -0.346 N 
ATOM      4  C   UNL d   1      -5.380   0.883  -0.958  0.00  0.00     0.145 C 
ATOM      5  O   UNL d   1      -8.845   1.632  -0.721  0.00  0.00    -0.267 OA
ATOM      6  C   UNL d   1      -6.173   2.110  -0.469  0.00  0.00     0.146 C 
ATOM      7  C   UNL d   1      -5.619   0.556   2.340  0.00  0.00     0.040 C 
ATOM      8  C   UNL d   1      -5.345  -0.393   1.177  0.00  0.00     0.126 C 
ATOM      9  C   UNL d   1      -6.389   1.837   1.985  0.00  0.00     0.127 C 
ENDROOT
BRANCH   2  10
ATOM     10  C   UNL d   1      -3.224   0.292   0.076  0.00  0.00     0.147 A 
ATOM     11  N   UNL d   1      -2.535   0.866  -0.887  0.00  0.00    -0.336 N 
ATOM     12  C   UNL d   1      -1.171   0.717  -0.699  0.00  0.00     0.051 A 
ATOM     13  HN  UNL d   1      -2.954   1.360  -1.675  1.00  0.00     0.168 HD
ATOM     14  C   UNL d   1      -0.156   1.197  -1.554  0.00  0.00     0.032 A 
ATOM     15  C   UNL d   1      -0.801   0.026   0.451  0.00  0.00     0.036 A 
ATOM     16  C   UNL d   1       1.189   0.976  -1.232  0.00  0.00     0.026 A 
ATOM     17  C   UNL d   1       1.524   0.285  -0.072  0.00  0.00     0.035 A 
ATOM     18  C   UNL d   1       0.542  -0.205   0.791  0.00  0.00     0.045 A 
ATOM     19 CL   UNL d   1       3.183   0.029   0.314  0.00  0.00    -0.084 Cl
ATOM     20  S   UNL d   1      -2.220  -0.436   1.292  0.00  0.00    -0.052 SA
ENDBRANCH   2  10
BRANCH   1  21
ATOM     21  C   UNL d   1      -9.290   1.191   1.542  0.00  0.00     0.074 C 
ATOM     22  S   UNL d   1     -10.901   1.782   1.578  0.00  0.00    -0.084 SA
ATOM     23  C   UNL d   1     -11.250   1.015   3.083  0.00  0.00     0.016 A 
ATOM     24  C   UNL d   1     -12.452   1.058   3.818  0.00  0.00     0.019 A 
ATOM     25  C   UNL d   1     -10.152   0.290   3.542  0.00  0.00    -0.018 A 
ATOM     26  C   UNL d   1     -12.519   0.390   5.046  0.00  0.00     0.001 A 
ATOM     27  C   UNL d   1     -11.423  -0.305   5.536  0.00  0.00     0.001 A 
ATOM     28  C   UNL d   1     -10.244  -0.368   4.790  0.00  0.00     0.013 A 
ATOM     29  C   UNL d   1      -9.076   0.337   2.602  0.00  0.00     0.037 C 
ENDBRANCH   1  21
TORSDOF 2
