REMARK  9 active torsions:
REMARK  status: ('A' for Active; 'I' for Inactive)
REMARK    1  A    between atoms: C_2  and  C_1 
REMARK    2  A    between atoms: O_14  and  N_5 
REMARK    3  A    between atoms: C_7  and  O_14 
REMARK       I    between atoms: N_13  and  C_7 
REMARK    4  A    between atoms: C_8  and  C_15 
REMARK    5  A    between atoms: N_24  and  C_8 
REMARK    6  A    between atoms: C_17  and  C_9 
REMARK    7  A    between atoms: C_25  and  N_13 
REMARK    8  A    between atoms: O_23  and  C_17 
REMARK    9  A    between atoms: C_27  and  O_23 
ROOT
ATOM      1  C   UNL d   1      -1.702  10.631  -6.228  0.00  0.00     0.004 A 
ATOM      2  C   UNL d   1      -1.783  11.815  -6.974  0.00  0.00     0.017 A 
ATOM      3  C   UNL d   1      -2.845   9.838  -6.089  0.00  0.00     0.017 A 
ATOM      4  C   UNL d   1      -4.157  11.478  -7.318  0.00  0.00     0.069 A 
ATOM      5  C   UNL d   1      -3.003  12.239  -7.500  0.00  0.00     0.037 A 
ATOM      6  C   UNL d   1      -4.074  10.263  -6.636  0.00  0.00     0.037 A 
ENDROOT
BRANCH   1   7
ATOM      7  C   UNL d   1      -0.407  10.301  -5.540  0.00  0.00     0.109 C 
ATOM      8  N   UNL d   1      -0.129   9.079  -5.159  0.00  0.00    -0.244 N 
ATOM      9  HN  UNL d   1      -0.731   8.263  -5.258  1.00  0.00     0.196 HD
BRANCH   8  10
ATOM     10  O   UNL d   1       1.174   9.104  -4.582  0.00  0.00    -0.179 OA
BRANCH  10  11
ATOM     11  C   UNL d   1       1.656   7.895  -4.132  0.00  0.00     0.387 C 
ATOM     12  N   UNL d   1       0.752   6.864  -4.183  0.00  0.00    -0.301 N 
ATOM     13  H   UNL d   1      -0.141   7.156  -4.563  0.00  0.00     0.171 HD
ATOM     14  O   UNL d   1       2.806   7.837  -3.706  0.00  0.00    -0.236 OA
BRANCH  12  15
ATOM     15  C   UNL d   1       0.946   5.533  -3.767  0.00  0.00     0.037 A 
ATOM     16  C   UNL d   1       2.158   5.047  -3.260  0.00  0.00     0.031 A 
ATOM     17  C   UNL d   1       2.290   3.708  -2.872  0.00  0.00     0.026 A 
ATOM     18  C   UNL d   1       1.206   2.846  -2.983  0.00  0.00     0.034 A 
ATOM     19  C   UNL d   1      -0.009   3.313  -3.478  0.00  0.00     0.026 A 
ATOM     20 CL   UNL d   1       1.369   1.200  -2.513  0.00  0.00    -0.084 Cl
ATOM     21  C   UNL d   1      -0.137   4.652  -3.869  0.00  0.00     0.031 A 
ENDBRANCH  12  15
ENDBRANCH  10  11
ENDBRANCH   8  10
BRANCH   7  22
ATOM     22  N   UNL d   1       0.462  11.351  -5.307  0.00  0.00    -0.286 NA
ATOM     23  H   UNL d   1       1.206  11.100  -4.661  0.00  0.00     0.125 HD
ATOM     24  H   UNL d   1       0.029  12.232  -5.051  0.00  0.00     0.125 HD
ENDBRANCH   7  22
ENDBRANCH   1   7
BRANCH   4  25
ATOM     25  O   UNL d   1      -5.293  12.084  -7.768  0.00  0.00    -0.345 OA
BRANCH  25  26
ATOM     26  C   UNL d   1      -6.387  11.261  -8.169  0.00  0.00     0.234 C 
BRANCH  26  27
ATOM     27  C   UNL d   1      -7.533  12.158  -8.601  0.00  0.00     0.055 A 
ATOM     28  N   UNL d   1      -8.693  12.034  -7.889  0.00  0.00    -0.365 N 
ATOM     29  C   UNL d   1      -9.729  12.846  -8.209  0.00  0.00     0.104 A 
ATOM     30  HN  UNL d   1      -8.776  11.348  -7.139  1.00  0.00     0.165 HD
ATOM     31  C   UNL d   1      -9.687  13.796  -9.216  0.00  0.00     0.064 A 
ATOM     32  C   UNL d   1      -8.503  13.903  -9.950  0.00  0.00     0.043 A 
ATOM     33  C   UNL d   1      -7.415  13.075  -9.649  0.00  0.00     0.059 A 
ATOM     34 CL   UNL d   1      -5.990  13.235 -10.607  0.00  0.00    -0.082 Cl
BRANCH  31  35
ATOM     35  C   UNL d   1     -10.885  14.655  -9.480  0.00  0.00     0.418 C 
ATOM     36  F   UNL d   1     -10.691  15.567 -10.472  0.00  0.00    -0.166 F 
ATOM     37  F   UNL d   1     -11.266  15.369  -8.386  0.00  0.00    -0.166 F 
ATOM     38  F   UNL d   1     -11.974  13.928  -9.850  0.00  0.00    -0.166 F 
ENDBRANCH  31  35
ENDBRANCH  26  27
ENDBRANCH  25  26
ENDBRANCH   4  25
TORSDOF 9
