REMARK  3 active torsions:
REMARK  status: ('A' for Active; 'I' for Inactive)
REMARK    1  A    between atoms: C_2  and  N_1 
REMARK    2  A    between atoms: O_12  and  C_3 
REMARK    3  A    between atoms: N_5  and  C_6 
ROOT
ATOM      1  C   UNL d   1       0.272  -1.028  -0.761  0.00  0.00     0.136 A 
ATOM      2  C   UNL d   1       0.321  -2.390  -0.456  0.00  0.00     0.100 A 
ATOM      3  C   UNL d   1      -0.286  -3.312  -1.315  0.00  0.00     0.068 A 
ATOM      4  C   UNL d   1      -0.929  -2.917  -2.501  0.00  0.00     0.033 A 
ATOM      5  C   UNL d   1      -0.376  -0.601  -1.925  0.00  0.00     0.041 A 
ATOM      6  C   UNL d   1      -0.959  -1.543  -2.782  0.00  0.00     0.032 A 
ENDROOT
BRANCH   4   7
ATOM      7  N   UNL d   1      -1.489  -3.845  -3.349  0.00  0.00    -0.377 N 
ATOM      8  C   UNL d   1      -1.540  -3.684  -4.809  0.00  0.00     0.149 C 
ATOM      9  C   UNL d   1      -2.998  -3.701  -5.290  0.00  0.00     0.187 C 
ATOM     10  O   UNL d   1      -3.685  -4.884  -4.846  0.00  0.00    -0.388 OA
ATOM     11  C   UNL d   1      -3.679  -4.956  -3.410  0.00  0.00     0.187 C 
ATOM     12  C   UNL d   1      -2.247  -5.001  -2.845  0.00  0.00     0.149 C 
ENDBRANCH   4   7
BRANCH   2  13
ATOM     13  O   UNL d   1       0.940  -2.932   0.639  0.00  0.00    -0.358 OA
ATOM     14  H   UNL d   1       1.386  -2.227   1.154  0.00  0.00     0.217 HD
ENDBRANCH   2  13
BRANCH   1  15
ATOM     15  N   UNL d   1       0.893  -0.029   0.112  0.00  0.00    -0.113 N 
ATOM     16  O   UNL d   1       1.498  -0.444   1.114  0.00  0.00    -0.532 OA
ATOM     17  O   UNL d   1       0.782   1.165  -0.195  0.00  0.00    -0.532 OA
ENDBRANCH   1  15
TORSDOF 3
