REMARK  4 active torsions:
REMARK  status: ('A' for Active; 'I' for Inactive)
REMARK    1  A    between atoms: C_2  and  S_1 
REMARK    2  A    between atoms: C_15  and  S_1 
REMARK    3  A    between atoms: N_18  and  C_5 
REMARK    4  A    between atoms: C_9  and  C_6 
ROOT
ATOM      1  C   UNL d   1       0.506   1.020   1.485  0.00  0.00     0.113 A 
ATOM      2  N   UNL d   1      -0.061   1.094   3.783  0.00  0.00    -0.330 N 
ATOM      3  HN  UNL d   1      -0.269   0.620   4.662  1.00  0.00     0.168 HD
ATOM      4  C   UNL d   1       0.201   0.393   2.668  0.00  0.00     0.102 A 
ATOM      5  C   UNL d   1      -0.043   2.444   3.711  0.00  0.00     0.135 A 
ATOM      6  N   UNL d   1       0.180   3.127   2.567  0.00  0.00    -0.349 N 
ATOM      7  HN  UNL d   1       0.156   4.146   2.538  1.00  0.00     0.167 HD
ATOM      8  C   UNL d   1       0.435   2.392   1.468  0.00  0.00     0.116 A 
ENDROOT
BRANCH   5   9
ATOM      9  C   UNL d   1      -0.182   3.224   4.958  0.00  0.00     0.092 A 
ATOM     10  N   UNL d   1      -0.427   2.555   6.125  0.00  0.00    -0.360 N 
ATOM     11  C   UNL d   1      -0.495   3.305   7.249  0.00  0.00     0.105 A 
ATOM     12  HN  UNL d   1      -0.552   1.543   6.146  1.00  0.00     0.165 HD
ATOM     13  C   UNL d   1      -0.329   4.677   7.241  0.00  0.00     0.104 A 
ATOM     14  N   UNL d   1      -0.091   5.366   6.105  0.00  0.00    -0.372 N 
ATOM     15  C   UNL d   1      -0.024   4.611   4.976  0.00  0.00     0.121 A 
ATOM     16  HN  UNL d   1       0.029   6.379   6.094  1.00  0.00     0.164 HD
ENDBRANCH   5   9
BRANCH   4  17
ATOM     17  N   UNL d   1       0.250  -0.984   2.848  0.00  0.00    -0.287 NA
ATOM     18  H   UNL d   1      -0.119  -1.200   3.773  0.00  0.00     0.125 HD
ATOM     19  H   UNL d   1      -0.238  -1.496   2.109  0.00  0.00     0.125 HD
ENDBRANCH   4  17
BRANCH   1  20
ATOM     20  S   UNL d   1       0.983   0.165   0.037  0.00  0.00     0.183 S 
ATOM     21  O   UNL d   1       0.775   1.073  -1.075  0.00  0.00    -0.222 OA
ATOM     22  O   UNL d   1       0.303  -1.121   0.048  0.00  0.00    -0.222 OA
BRANCH  20  23
ATOM     23  C   UNL d   1       2.755  -0.096   0.233  0.00  0.00     0.105 C 
ATOM     24  C   UNL d   1       3.307  -0.846  -0.978  0.00  0.00     0.026 C 
ATOM     25  C   UNL d   1       3.510   1.221   0.413  0.00  0.00     0.026 C 
ENDBRANCH  20  23
ENDBRANCH   1  20
TORSDOF 4
