REMARK  2 active torsions:
REMARK  status: ('A' for Active; 'I' for Inactive)
REMARK    1  A    between atoms: N_4  and  C_1 
REMARK    2  A    between atoms: N_12  and  C_3 
ROOT
ATOM      1  C   UNL d   1      -1.372  -1.401   0.356  0.00  0.00     0.158 A 
ATOM      2  C   UNL d   1      -0.138  -0.704   0.280  0.00  0.00     0.102 A 
ATOM      3  C   UNL d   1      -2.583  -0.787  -0.045  0.00  0.00     0.066 A 
ATOM      4  C   UNL d   1      -0.134   0.709  -0.232  0.00  0.00     0.069 A 
ATOM      5  N   UNL d   1       1.095  -1.135   0.601  0.00  0.00    -0.308 N 
ATOM      6  HN  UNL d   1       1.343  -2.063   0.946  1.00  0.00     0.176 HD
ATOM      7  S   UNL d   1       2.138   0.128   0.330  0.00  0.00     0.068 SA
ATOM      8  C   UNL d   1      -2.506   0.558  -0.530  0.00  0.00     0.034 A 
ATOM      9  N   UNL d   1       1.083   1.272  -0.245  0.00  0.00    -0.310 N 
ATOM     10  HN  UNL d   1       1.315   2.218  -0.549  1.00  0.00     0.176 HD
ATOM     11  C   UNL d   1      -1.330   1.332  -0.643  0.00  0.00     0.035 A 
ENDROOT
BRANCH   3  12
ATOM     12  N   UNL d   1      -3.848  -1.349   0.047  0.00  0.00    -0.375 N 
ATOM     13  C   UNL d   1      -4.267  -2.299   1.093  0.00  0.00     0.149 C 
ATOM     14  C   UNL d   1      -5.693  -1.943   1.552  0.00  0.00     0.187 C 
ATOM     15  O   UNL d   1      -6.619  -1.901   0.453  0.00  0.00    -0.388 OA
ATOM     16  C   UNL d   1      -6.197  -0.938  -0.527  0.00  0.00     0.187 C 
ATOM     17  C   UNL d   1      -4.804  -1.279  -1.078  0.00  0.00     0.149 C 
ENDBRANCH   3  12
BRANCH   1  18
ATOM     18  N   UNL d   1      -1.280  -2.766   0.776  0.00  0.00    -0.111 N 
ATOM     19  O   UNL d   1      -1.083  -2.979   1.982  0.00  0.00    -0.532 OA
ATOM     20  O   UNL d   1      -1.443  -3.638  -0.091  0.00  0.00    -0.532 OA
ENDBRANCH   1  18
TORSDOF 2
