REMARK  3 active torsions:
REMARK  status: ('A' for Active; 'I' for Inactive)
REMARK    1  A    between atoms: N_4  and  C_1 
REMARK       I    between atoms: C_6  and  N_4 
REMARK       I    between atoms: N_9  and  C_6 
REMARK    2  A    between atoms: C_14  and  N_9 
REMARK    3  A    between atoms: C_13  and  C_14 
ROOT
ATOM      1  N   UNL d   1      -3.764  -3.051   0.073  0.00  0.00    -0.293 N 
ATOM      2  C   UNL d   1      -2.450  -2.750   0.067  0.00  0.00     0.322 C 
ATOM      3  N   UNL d   1      -1.518  -3.736   0.170  0.00  0.00    -0.339 N 
ATOM      4  O   UNL d   1      -2.144  -1.561  -0.029  0.00  0.00    -0.247 OA
ATOM      5  H   UNL d   1      -4.337  -2.224  -0.009  0.00  0.00     0.172 HD
ATOM      6  H   UNL d   1      -1.818  -4.673  -0.079  0.00  0.00     0.164 HD
ENDROOT
BRANCH   1   7
ATOM      7  C   UNL d   1      -4.431  -4.242   0.207  0.00  0.00     0.132 A 
ATOM      8  N   UNL d   1      -3.890  -5.457   0.339  0.00  0.00    -0.245 N 
ATOM      9  O   UNL d   1      -4.962  -6.334   0.476  0.00  0.00    -0.241 OA
ATOM     10  HN  UNL d   1      -2.898  -5.694   0.339  1.00  0.00     0.196 HD
ATOM     11  C   UNL d   1      -6.129  -5.636   0.413  0.00  0.00     0.076 A 
ATOM     12  C   UNL d   1      -5.844  -4.311   0.225  0.00  0.00     0.084 A 
ATOM     13  C   UNL d   1      -7.386  -6.393   0.557  0.00  0.00     0.079 C 
ENDBRANCH   1   7
BRANCH   3  14
ATOM     14  C   UNL d   1      -0.140  -3.332  -0.014  0.00  0.00     0.164 C 
BRANCH  14  15
ATOM     15  C   UNL d   1       0.924  -4.381   0.107  0.00  0.00    -0.025 A 
ATOM     16  C   UNL d   1       2.148  -4.151  -0.526  0.00  0.00     0.096 A 
ATOM     17  N   UNL d   1       3.232  -4.952  -0.428  0.00  0.00    -0.375 N 
ATOM     18  C   UNL d   1       3.102  -6.040   0.357  0.00  0.00     0.087 A 
ATOM     19  HN  UNL d   1       4.101  -4.745  -0.920  1.00  0.00     0.164 HD
ATOM     20  C   UNL d   1       1.938  -6.359   1.039  0.00  0.00     0.018 A 
ATOM     21  C   UNL d   1       0.835  -5.513   0.916  0.00  0.00     0.011 A 
ENDBRANCH  14  15
ENDBRANCH   3  14
TORSDOF 3
