REMARK  7 active torsions:
REMARK  status: ('A' for Active; 'I' for Inactive)
REMARK    1  A    between atoms: N_2  and  C_1 
REMARK    2  A    between atoms: C_3  and  C_1 
REMARK    3  A    between atoms: C_4  and  C_1 
REMARK    4  A    between atoms: N_6  and  C_1 
REMARK       I    between atoms: C_5  and  N_2 
REMARK    5  A    between atoms: C_9  and  C_5 
REMARK    6  A    between atoms: C_10  and  N_6 
REMARK    7  A    between atoms: O_28  and  C_25 
ROOT
ATOM      1  C   UNL d   1       0.878  -0.126  -0.006  0.00  0.00     0.306 C 
ENDROOT
BRANCH   1   2
ATOM      2  N   UNL d   1       0.451  -1.527   0.210  0.00  0.00    -0.315 N 
ATOM      3  C   UNL d   1       0.390  -2.153   1.422  0.00  0.00     0.254 C 
ATOM      4  O   UNL d   1       0.642  -1.605   2.486  0.00  0.00    -0.268 OA
ATOM      5  H   UNL d   1       0.163  -2.034  -0.618  0.00  0.00     0.165 HD
BRANCH   3   6
ATOM      6  C   UNL d   1      -0.079  -3.560   1.365  0.00  0.00     0.032 A 
ATOM      7  C   UNL d   1       0.376  -4.429   0.365  0.00  0.00     0.020 A 
ATOM      8  C   UNL d   1      -0.149  -5.720   0.267  0.00  0.00     0.038 A 
ATOM      9  C   UNL d   1      -1.129  -6.146   1.166  0.00  0.00     0.068 A 
ATOM     10  C   UNL d   1      -1.542  -5.293   2.194  0.00  0.00     0.038 A 
ATOM     11  C   UNL d   1      -1.021  -4.001   2.298  0.00  0.00     0.020 A 
BRANCH   9  12
ATOM     12  O   UNL d   1      -1.718  -7.381   1.157  0.00  0.00    -0.356 OA
ATOM     13  C   UNL d   1      -1.822  -8.004  -0.119  0.00  0.00     0.210 C 
ENDBRANCH   9  12
ENDBRANCH   3   6
ENDBRANCH   1   2
BRANCH   1  14
ATOM     14  C   UNL d   1       0.301   0.926   1.006  0.00  0.00     0.441 C 
ATOM     15  F   UNL d   1      -0.985   0.664   1.335  0.00  0.00    -0.166 F 
ATOM     16  F   UNL d   1       1.022   0.964   2.156  0.00  0.00    -0.166 F 
ATOM     17  F   UNL d   1       0.340   2.188   0.512  0.00  0.00    -0.166 F 
ENDBRANCH   1  14
BRANCH   1  18
ATOM     18  C   UNL d   1       0.316   0.406  -1.361  0.00  0.00     0.441 C 
ATOM     19  F   UNL d   1       0.208  -0.616  -2.261  0.00  0.00    -0.166 F 
ATOM     20  F   UNL d   1      -0.934   0.913  -1.260  0.00  0.00    -0.166 F 
ATOM     21  F   UNL d   1       1.098   1.346  -1.935  0.00  0.00    -0.166 F 
ENDBRANCH   1  18
BRANCH   1  22
ATOM     22  N   UNL d   1       2.375  -0.160   0.096  0.00  0.00    -0.349 N 
ATOM     23  H   UNL d   1       2.660  -0.057   1.075  0.00  0.00     0.162 HD
BRANCH  22  24
ATOM     24  C   UNL d   1       3.311  -0.818  -0.674  0.00  0.00     0.032 A 
ATOM     25  C   UNL d   1       4.670  -0.614  -0.366  0.00  0.00     0.056 A 
ATOM     26  C   UNL d   1       5.690  -1.178  -1.138  0.00  0.00     0.074 A 
ATOM     27 CL   UNL d   1       7.333  -0.889  -0.716  0.00  0.00    -0.081 Cl
ATOM     28  C   UNL d   1       5.366  -1.949  -2.244  0.00  0.00     0.138 A 
ATOM     29  C   UNL d   1       4.037  -2.153  -2.584  0.00  0.00     0.046 A 
ATOM     30  F   UNL d   1       6.321  -2.502  -3.006  0.00  0.00    -0.204 F 
ATOM     31  C   UNL d   1       3.021  -1.581  -1.808  0.00  0.00     0.032 A 
ENDBRANCH  22  24
ENDBRANCH   1  22
TORSDOF 7
