REMARK  4 active torsions:
REMARK  status: ('A' for Active; 'I' for Inactive)
REMARK    1  A    between atoms: C_2  and  C_1 
REMARK       I    between atoms: N_3  and  C_2 
REMARK       I    between atoms: C_4  and  N_3 
REMARK       I    between atoms: N_10  and  C_4 
REMARK    2  A    between atoms: O_22  and  C_5 
REMARK    3  A    between atoms: O_21  and  C_6 
REMARK    4  A    between atoms: C_7  and  N_10 
ROOT
ATOM      1  C   UNL d   1       1.548  -3.825   0.935  0.00  0.00     0.265 C 
ATOM      2  N   UNL d   1       0.432  -4.574   1.293  0.00  0.00    -0.275 N 
ATOM      3  C   UNL d   1      -0.915  -4.328   1.079  0.00  0.00     0.327 C 
ATOM      4  N   UNL d   1      -1.204  -3.124   0.503  0.00  0.00    -0.308 N 
ATOM      5  O   UNL d   1       1.456  -2.897   0.136  0.00  0.00    -0.267 OA
ATOM      6  O   UNL d   1      -1.728  -5.190   1.414  0.00  0.00    -0.247 OA
ATOM      7  H   UNL d   1       0.588  -5.441   1.793  0.00  0.00     0.173 HD
ATOM      8  H   UNL d   1      -0.461  -2.796  -0.113  0.00  0.00     0.170 HD
ENDROOT
BRANCH   1   9
ATOM      9  C   UNL d   1       2.884  -4.239   1.528  0.00  0.00     0.102 A 
ATOM     10  C   UNL d   1       3.910  -3.267   1.644  0.00  0.00     0.104 A 
ATOM     11  C   UNL d   1       5.113  -3.575   2.293  0.00  0.00     0.047 A 
ATOM     12 BR   UNL d   1       6.450  -2.267   2.642  0.00  0.00    -0.048 Br
ATOM     13  C   UNL d   1       5.356  -4.867   2.738  0.00  0.00     0.048 A 
ATOM     14  C   UNL d   1       4.387  -5.863   2.576  0.00  0.00     0.069 A 
ATOM     15  C   UNL d   1       3.141  -5.567   1.979  0.00  0.00     0.108 A 
ATOM     16 CL   UNL d   1       4.848  -7.397   3.232  0.00  0.00    -0.081 Cl
BRANCH  10  17
ATOM     17  O   UNL d   1       3.728  -1.980   1.200  0.00  0.00    -0.353 OA
ATOM     18  C   UNL d   1       4.306  -1.815  -0.102  0.00  0.00     0.210 C 
ENDBRANCH  10  17
BRANCH  15  19
ATOM     19  O   UNL d   1       2.090  -6.440   1.836  0.00  0.00    -0.353 OA
ATOM     20  C   UNL d   1       2.322  -7.835   1.688  0.00  0.00     0.210 C 
ENDBRANCH  15  19
ENDBRANCH   1   9
BRANCH   4  21
ATOM     21  C   UNL d   1      -2.449  -2.464   0.397  0.00  0.00     0.048 C 
ATOM     22  C   UNL d   1      -3.318  -2.264   1.491  0.00  0.00    -0.034 C 
ATOM     23  C   UNL d   1      -4.345  -1.297   1.375  0.00  0.00     0.015 C 
ATOM     24  C   UNL d   1      -3.196  -2.882   2.856  0.00  0.00     0.050 C 
ATOM     25  C   UNL d   1      -4.529  -0.542   0.215  0.00  0.00    -0.061 C 
ATOM     26  C   UNL d   1      -3.749  -0.841  -0.897  0.00  0.00     0.015 C 
ATOM     27  C   UNL d   1      -5.559   0.547   0.173  0.00  0.00     0.048 C 
ATOM     28  C   UNL d   1      -2.727  -1.807  -0.826  0.00  0.00    -0.034 C 
ATOM     29  C   UNL d   1      -1.997  -2.120  -2.108  0.00  0.00     0.050 C 
ENDBRANCH   4  21
TORSDOF 4
