REMARK  2 active torsions:
REMARK  status: ('A' for Active; 'I' for Inactive)
REMARK    1  A    between atoms: N_13  and  C_5 
REMARK    2  A    between atoms: C_12  and  N_13 
ROOT
ATOM      1  C   UNL d   1      -4.831  -1.987   0.163  0.00  0.00     0.140 C 
ATOM      2  C   UNL d   1      -4.740  -3.405   0.175  0.00  0.00     0.112 C 
ATOM      3  C   UNL d   1      -6.113  -1.376   0.235  0.00  0.00     0.112 C 
ATOM      4  N   UNL d   1      -4.619  -4.558   0.185  0.00  0.00    -0.191 NA
ATOM      5  N   UNL d   1      -7.156  -0.869   0.283  0.00  0.00    -0.191 NA
ATOM      6  C   UNL d   1      -3.728  -1.218   0.084  0.00  0.00     0.123 C 
ENDROOT
BRANCH   6   7
ATOM      7  N   UNL d   1      -2.396  -1.579  -0.021  0.00  0.00    -0.349 N 
ATOM      8  H   UNL d   1      -2.212  -2.579  -0.066  0.00  0.00     0.167 HD
BRANCH   7   9
ATOM      9  C   UNL d   1      -1.336  -0.729  -0.035  0.00  0.00     0.128 A 
ATOM     10  C   UNL d   1      -0.004  -1.189  -0.162  0.00  0.00     0.084 A 
ATOM     11  C   UNL d   1       0.765  -0.055  -0.072  0.00  0.00     0.076 A 
ATOM     12  O   UNL d   1      -0.050   1.023   0.061  0.00  0.00    -0.241 OA
ATOM     13  C   UNL d   1       2.216   0.203  -0.069  0.00  0.00     0.079 C 
ATOM     14  N   UNL d   1      -1.366   0.604   0.080  0.00  0.00    -0.245 N 
ATOM     15  HN  UNL d   1      -2.195   1.192   0.163  1.00  0.00     0.196 HD
ENDBRANCH   7   9
ENDBRANCH   6   7
TORSDOF 2
