REMARK  1 active torsions:
REMARK  status: ('A' for Active; 'I' for Inactive)
REMARK    1  A    between atoms: N_12  and  C_4 
ROOT
ATOM      1  C   UNL d   1       0.758  -1.615   0.052  0.00  0.00     0.029 A 
ATOM      2  C   UNL d   1       1.516  -2.826   0.058  0.00  0.00     0.094 A 
ATOM      3  C   UNL d   1       2.915  -5.202  -0.123  0.00  0.00     0.136 A 
ATOM      4  C   UNL d   1       3.165  -4.408   0.951  0.00  0.00     0.060 A 
ATOM      5  C   UNL d   1      -0.488  -1.470   0.621  0.00  0.00     0.089 A 
ATOM      6  C   UNL d   1       2.419  -3.151   0.991  0.00  0.00     0.069 A 
ATOM      7  C   UNL d   1       1.934  -4.823  -1.192  0.00  0.00     0.312 A 
ATOM      8  S   UNL d   1      -1.131   0.092   0.434  0.00  0.00    -0.065 SA
ATOM      9  O   UNL d   1       1.257  -3.654  -1.036  0.00  0.00    -0.273 OA
ATOM     10  C   UNL d   1       0.246   0.591  -0.416  0.00  0.00     0.077 A 
ATOM     11  C   UNL d   1       1.187  -0.397  -0.565  0.00  0.00     0.048 A 
ATOM     12  O   UNL d   1       1.735  -5.525  -2.179  0.00  0.00    -0.258 OA
ATOM     13 CL   UNL d   1       3.615  -6.776  -0.353  0.00  0.00    -0.075 Cl
ATOM     14 CL   UNL d   1      -1.415  -2.648   1.470  0.00  0.00    -0.075 Cl
ATOM     15 CL   UNL d   1       0.356   2.204  -0.991  0.00  0.00    -0.076 Cl
ENDROOT
BRANCH   4  16
ATOM     16  N   UNL d   1       4.054  -4.639   2.029  0.00  0.00    -0.388 N 
ATOM     17  C   UNL d   1       5.311  -5.395   1.942  0.00  0.00     0.149 C 
ATOM     18  C   UNL d   1       3.838  -4.140   3.397  0.00  0.00     0.149 C 
ENDBRANCH   4  16
TORSDOF 1
