REMARK  4 active torsions:
REMARK  status: ('A' for Active; 'I' for Inactive)
REMARK    1  A    between atoms: C_3  and  C_1 
REMARK    2  A    between atoms: S_14  and  C_6 
REMARK    3  A    between atoms: C_16  and  S_14 
REMARK    4  A    between atoms: C_17  and  C_16 
ROOT
ATOM      1  C   UNL d   1       0.013   1.104   0.025  0.00  0.00     0.151 A 
ATOM      2  N   UNL d   1       0.845   0.009  -0.026  0.00  0.00    -0.314 N 
ATOM      3  N   UNL d   1      -1.236   0.679   0.117  0.00  0.00    -0.281 N 
ATOM      4  HN  UNL d   1      -2.061   1.270   0.212  1.00  0.00     0.188 HD
ATOM      5  C   UNL d   1       0.017  -1.085  -0.032  0.00  0.00     0.163 A 
ATOM      6  N   UNL d   1      -1.233  -0.697   0.062  0.00  0.00    -0.278 N 
ATOM      7  HN  UNL d   1      -2.053  -1.303   0.090  1.00  0.00     0.189 HD
ATOM      8  C   UNL d   1       2.283  -0.021  -0.024  0.00  0.00     0.160 C 
ENDROOT
BRANCH   5   9
ATOM      9  S   UNL d   1       0.587  -2.718  -0.128  0.00  0.00    -0.088 SA
BRANCH   9  10
ATOM     10  C   UNL d   1      -0.903  -3.575  -0.720  0.00  0.00     0.121 C 
BRANCH  10  11
ATOM     11  C   UNL d   1      -0.679  -5.062  -0.881  0.00  0.00    -0.049 A 
ATOM     12  C   UNL d   1      -1.014  -5.953   0.148  0.00  0.00     0.008 A 
ATOM     13  C   UNL d   1      -0.831  -7.332  -0.010  0.00  0.00     0.007 A 
ATOM     14  C   UNL d   1      -0.302  -7.849  -1.198  0.00  0.00    -0.062 A 
ATOM     15  C   UNL d   1       0.049  -6.963  -2.221  0.00  0.00     0.007 A 
ATOM     16  C   UNL d   1      -0.121  -9.330  -1.357  0.00  0.00     0.048 C 
ATOM     17  C   UNL d   1      -0.136  -5.584  -2.065  0.00  0.00     0.008 A 
ENDBRANCH  10  11
ENDBRANCH   9  10
ENDBRANCH   5   9
BRANCH   1  18
ATOM     18  C   UNL d   1       0.391   2.552  -0.033  0.00  0.00     0.085 A 
ATOM     19  N   UNL d   1       1.681   2.977  -0.300  0.00  0.00    -0.351 N 
ATOM     20  C   UNL d   1       1.731   4.290  -0.333  0.00  0.00     0.047 A 
ATOM     21  HN  UNL d   1       2.479   2.359  -0.451  1.00  0.00     0.166 HD
ATOM     22  C   UNL d   1       2.961   5.074  -0.627  0.00  0.00     0.076 C 
ATOM     23  S   UNL d   1       0.247   5.092  -0.007  0.00  0.00    -0.087 SA
ATOM     24  C   UNL d   1      -0.525   3.568   0.150  0.00  0.00     0.084 A 
ENDBRANCH   1  18
TORSDOF 4
