REMARK  6 active torsions:
REMARK  status: ('A' for Active; 'I' for Inactive)
REMARK    1  A    between atoms: C_4  and  N_1 
REMARK    2  A    between atoms: C_2  and  N_10 
REMARK    3  A    between atoms: N_11  and  C_2 
REMARK    4  A    between atoms: C_3  and  C_6 
REMARK       I    between atoms: N_5  and  C_3 
REMARK    5  A    between atoms: N_10  and  N_5 
REMARK    6  A    between atoms: C_15  and  N_11 
ROOT
ATOM      1  N   UNL d   1      -1.807   4.280  -4.369  0.00  0.00    -0.273 N 
ATOM      2  H   UNL d   1      -2.316   3.653  -3.741  0.00  0.00     0.189 HD
ENDROOT
BRANCH   1   3
ATOM      3  C   UNL d   1      -2.491   5.384  -4.824  0.00  0.00     0.191 C 
ATOM      4  S   UNL d   1      -1.896   6.948  -4.863  0.00  0.00    -0.039 SA
BRANCH   3   5
ATOM      5  N   UNL d   1      -3.765   5.145  -5.274  0.00  0.00    -0.332 N 
ATOM      6  H   UNL d   1      -4.355   5.971  -5.324  0.00  0.00     0.168 HD
BRANCH   5   7
ATOM      7  C   UNL d   1      -4.189   4.064  -6.087  0.00  0.00     0.035 A 
ATOM      8  C   UNL d   1      -3.301   3.180  -6.705  0.00  0.00     0.053 A 
ATOM      9  C   UNL d   1      -3.767   2.211  -7.600  0.00  0.00     0.042 A 
ATOM     10 CL   UNL d   1      -2.595   1.204  -8.377  0.00  0.00    -0.084 Cl
ATOM     11  C   UNL d   1      -5.135   2.092  -7.881  0.00  0.00    -0.040 A 
ATOM     12  C   UNL d   1      -6.022   2.975  -7.250  0.00  0.00     0.011 A 
ATOM     13  C   UNL d   1      -5.659   1.080  -8.861  0.00  0.00     0.050 C 
ATOM     14  C   UNL d   1      -5.551   3.961  -6.373  0.00  0.00     0.030 A 
ENDBRANCH   5   7
ENDBRANCH   3   5
ENDBRANCH   1   3
BRANCH   1  15
ATOM     15  N   UNL d   1      -0.428   4.331  -4.163  0.00  0.00    -0.264 N 
ATOM     16  C   UNL d   1       0.123   3.678  -3.080  0.00  0.00     0.270 C 
ATOM     17  O   UNL d   1      -0.541   3.139  -2.204  0.00  0.00    -0.266 OA
ATOM     18  H   UNL d   1       0.126   4.554  -4.989  0.00  0.00     0.190 HD
BRANCH  16  19
ATOM     19  C   UNL d   1       1.614   3.609  -3.072  0.00  0.00     0.036 A 
ATOM     20  C   UNL d   1       2.233   2.529  -2.429  0.00  0.00     0.053 A 
ATOM     21  C   UNL d   1       3.632   2.433  -2.446  0.00  0.00     0.103 A 
ATOM     22  C   UNL d   1       4.412   3.407  -3.083  0.00  0.00     0.036 A 
ATOM     23  C   UNL d   1       3.789   4.489  -3.707  0.00  0.00     0.003 A 
ATOM     24  C   UNL d   1       2.396   4.591  -3.700  0.00  0.00     0.017 A 
BRANCH  21  25
ATOM     25  N   UNL d   1       4.291   1.288  -1.802  0.00  0.00    -0.116 N 
ATOM     26  O   UNL d   1       3.572   0.401  -1.329  0.00  0.00    -0.532 OA
ATOM     27  O   UNL d   1       5.527   1.276  -1.784  0.00  0.00    -0.532 OA
ENDBRANCH  21  25
ENDBRANCH  16  19
ENDBRANCH   1  15
TORSDOF 6
