REMARK  3 active torsions:
REMARK  status: ('A' for Active; 'I' for Inactive)
REMARK    1  A    between atoms: C_2  and  S_1 
REMARK    2  A    between atoms: C_4  and  S_1 
REMARK    3  A    between atoms: C_13  and  C_9 
ROOT
ATOM      1  S   UNL d   1       0.955   0.026   0.103  0.00  0.00     0.200 S 
ATOM      2  O   UNL d   1       0.611  -1.157  -0.664  0.00  0.00    -0.218 OA
ATOM      3  O   UNL d   1       2.345   0.296   0.425  0.00  0.00    -0.218 OA
ENDROOT
BRANCH   1   4
ATOM      4  C   UNL d   1       0.101  -0.122   1.653  0.00  0.00     0.102 A 
ATOM      5  C   UNL d   1       0.133   0.910   2.587  0.00  0.00     0.141 A 
ATOM      6  C   UNL d   1      -0.479   0.756   3.832  0.00  0.00     0.086 A 
ATOM      7  F   UNL d   1       0.756   2.066   2.331  0.00  0.00    -0.204 F 
ATOM      8  C   UNL d   1      -1.107  -0.445   4.136  0.00  0.00     0.119 A 
ATOM      9  C   UNL d   1      -1.138  -1.490   3.220  0.00  0.00     0.044 A 
ATOM     10  F   UNL d   1      -1.682  -0.605   5.336  0.00  0.00    -0.206 F 
ATOM     11  C   UNL d   1      -0.533  -1.331   1.972  0.00  0.00     0.030 A 
ENDBRANCH   1   4
BRANCH   1  12
ATOM     12  C   UNL d   1       0.230   1.376  -0.712  0.00  0.00     0.115 C 
ATOM     13  C   UNL d   1       0.753   2.603  -0.568  0.00  0.00     0.023 C 
BRANCH  13  14
ATOM     14  C   UNL d   1       0.257   3.819  -1.229  0.00  0.00    -0.036 A 
ATOM     15  C   UNL d   1      -1.092   4.002  -1.562  0.00  0.00     0.011 A 
ATOM     16  C   UNL d   1      -1.527   5.200  -2.135  0.00  0.00     0.001 A 
ATOM     17  C   UNL d   1      -0.622   6.232  -2.373  0.00  0.00     0.000 A 
ATOM     18  C   UNL d   1       0.718   6.070  -2.034  0.00  0.00     0.001 A 
ATOM     19  C   UNL d   1       1.154   4.871  -1.463  0.00  0.00     0.011 A 
ENDBRANCH  13  14
ENDBRANCH   1  12
TORSDOF 3
