REMARK  7 active torsions:
REMARK  status: ('A' for Active; 'I' for Inactive)
REMARK    1  A    between atoms: C_3  and  C_1 
REMARK    2  A    between atoms: O_4  and  C_2 
REMARK    3  A    between atoms: O_10  and  C_3 
REMARK    4  A    between atoms: C_9  and  O_4 
REMARK    5  A    between atoms: C_5  and  C_9 
REMARK    6  A    between atoms: O_12  and  C_5 
REMARK    7  A    between atoms: O_13  and  C_6 
ROOT
ATOM      1  C   UNL d   1       1.441  -0.192  -0.067  0.00  0.00     0.073 A 
ATOM      2  C   UNL d   1       0.636  -1.348  -0.150  0.00  0.00     0.119 A 
ATOM      3  C   UNL d   1      -0.764  -1.180  -0.095  0.00  0.00     0.102 A 
ATOM      4  C   UNL d   1       0.858   1.089  -0.015  0.00  0.00     0.021 A 
ATOM      5  C   UNL d   1      -0.521   1.238   0.016  0.00  0.00     0.004 A 
ATOM      6  C   UNL d   1      -1.324   0.106  -0.019  0.00  0.00     0.040 A 
ENDROOT
BRANCH   2   7
ATOM      7  O   UNL d   1       1.099  -2.635  -0.226  0.00  0.00    -0.337 OA
BRANCH   7   8
ATOM      8  C   UNL d   1       2.162  -2.911  -1.129  0.00  0.00     0.285 C 
BRANCH   8   9
ATOM      9  C   UNL d   1       1.975  -4.243  -1.859  0.00  0.00     0.164 C 
ATOM     10  O   UNL d   1       0.995  -4.967  -1.792  0.00  0.00    -0.648 OA
BRANCH   9  11
ATOM     11  O   UNL d   1       3.049  -4.572  -2.625  0.00  0.00    -0.775 OA
ATOM     12  H   UNL d   1       3.785  -3.931  -2.594  0.00  0.00     0.167 HD
ENDBRANCH   9  11
ENDBRANCH   8   9
ENDBRANCH   7   8
ENDBRANCH   2   7
BRANCH   1  13
ATOM     13  C   UNL d   1       2.912  -0.176   0.083  0.00  0.00     0.179 C 
ATOM     14  O   UNL d   1       3.675   0.647  -0.378  0.00  0.00    -0.646 OA
BRANCH  13  15
ATOM     15  O   UNL d   1       3.314  -1.095   0.975  0.00  0.00    -0.773 OA
ATOM     16  H   UNL d   1       4.224  -0.826   1.219  0.00  0.00     0.167 HD
ENDBRANCH  13  15
ENDBRANCH   1  13
BRANCH   3  17
ATOM     17  O   UNL d   1      -1.723  -2.157  -0.178  0.00  0.00    -0.353 OA
ATOM     18  C   UNL d   1      -1.440  -3.406   0.439  0.00  0.00     0.210 C 
ENDBRANCH   3  17
TORSDOF 7
