REMARK  7 active torsions:
REMARK  status: ('A' for Active; 'I' for Inactive)
REMARK    1  A    between atoms: C_8  and  N_1 
REMARK    2  A    between atoms: C_13  and  C_2 
REMARK    3  A    between atoms: S_12  and  C_5 
REMARK       I    between atoms: N_11  and  C_14 
REMARK    4  A    between atoms: C_15  and  N_11 
REMARK    5  A    between atoms: C_30  and  S_12 
REMARK    6  A    between atoms: C_14  and  C_30 
REMARK    7  A    between atoms: C_19  and  C_20 
ROOT
ATOM      1  N   UNL d   1      -0.348  -1.458   0.220  0.00  0.00    -0.275 N 
ATOM      2  C   UNL d   1       0.871  -0.765   0.074  0.00  0.00     0.139 C 
ATOM      3  N   UNL d   1       0.627   0.533   0.081  0.00  0.00    -0.282 N 
ATOM      4  HN  UNL d   1       1.300   1.266  -0.143  1.00  0.00     0.188 HD
ATOM      5  C   UNL d   1      -1.227  -0.448   0.596  0.00  0.00     0.168 C 
ATOM      6  N   UNL d   1      -0.672   0.730   0.435  0.00  0.00    -0.278 N 
ATOM      7  HN  UNL d   1      -1.133   1.632   0.554  1.00  0.00     0.189 HD
ENDROOT
BRANCH   5   8
ATOM      8  S   UNL d   1      -2.817  -0.616   1.277  0.00  0.00    -0.083 SA
BRANCH   8   9
ATOM      9  C   UNL d   1      -2.292  -0.729   3.013  0.00  0.00     0.185 C 
BRANCH   9  10
ATOM     10  C   UNL d   1      -3.358  -1.173   3.993  0.00  0.00     0.231 C 
ATOM     11  N   UNL d   1      -4.670  -0.971   3.622  0.00  0.00    -0.325 N 
ATOM     12  H   UNL d   1      -4.869  -0.907   2.627  0.00  0.00     0.169 HD
ATOM     13  O   UNL d   1      -3.006  -1.648   5.074  0.00  0.00    -0.272 OA
BRANCH  11  14
ATOM     14  C   UNL d   1      -5.790  -1.056   4.486  0.00  0.00     0.056 A 
ATOM     15  C   UNL d   1      -7.072  -1.265   3.952  0.00  0.00     0.060 A 
ATOM     16 CL   UNL d   1      -7.306  -1.490   2.252  0.00  0.00    -0.082 Cl
ATOM     17  C   UNL d   1      -8.192  -1.330   4.789  0.00  0.00     0.026 A 
ATOM     18  C   UNL d   1      -8.044  -1.158   6.166  0.00  0.00     0.002 A 
ATOM     19  C   UNL d   1      -6.783  -0.926   6.703  0.00  0.00     0.002 A 
ATOM     20  C   UNL d   1      -5.663  -0.880   5.869  0.00  0.00     0.031 A 
ENDBRANCH  11  14
ENDBRANCH   9  10
ENDBRANCH   8   9
ENDBRANCH   5   8
BRANCH   1  21
ATOM     21  C   UNL d   1      -0.571  -2.869   0.038  0.00  0.00     0.046 A 
ATOM     22  C   UNL d   1      -1.560  -3.562   0.748  0.00  0.00     0.069 A 
ATOM     23  C   UNL d   1      -1.638  -4.933   0.606  0.00  0.00     0.107 A 
ATOM     24  O   UNL d   1      -2.512  -5.738   1.269  0.00  0.00    -0.323 OA
ATOM     25  C   UNL d   1      -0.791  -5.639  -0.211  0.00  0.00     0.105 A 
ATOM     26  C   UNL d   1      -2.093  -7.035   0.798  0.00  0.00     0.352 A 
ATOM     27  O   UNL d   1      -1.012  -6.974  -0.157  0.00  0.00    -0.323 OA
ATOM     28  C   UNL d   1       0.159  -4.995  -0.967  0.00  0.00     0.042 A 
ATOM     29  C   UNL d   1       0.250  -3.601  -0.857  0.00  0.00     0.033 A 
ENDBRANCH   1  21
BRANCH   2  30
ATOM     30  C   UNL d   1       2.230  -1.326   0.023  0.00  0.00     0.010 A 
ATOM     31  C   UNL d   1       3.199  -0.735  -0.793  0.00  0.00     0.016 A 
ATOM     32  C   UNL d   1       4.479  -1.294  -0.904  0.00  0.00     0.009 A 
ATOM     33  C   UNL d   1       4.833  -2.469  -0.215  0.00  0.00    -0.051 A 
ATOM     34  C   UNL d   1       3.880  -3.000   0.666  0.00  0.00     0.009 A 
ATOM     35  C   UNL d   1       2.610  -2.426   0.799  0.00  0.00     0.016 A 
BRANCH  33  36
ATOM     36  C   UNL d   1       6.211  -3.119  -0.428  0.00  0.00    -0.024 C 
ATOM     37  C   UNL d   1       6.342  -4.516   0.222  0.00  0.00     0.019 C 
ATOM     38  C   UNL d   1       6.484  -3.307  -1.938  0.00  0.00     0.019 C 
ATOM     39  C   UNL d   1       7.304  -2.216   0.176  0.00  0.00     0.019 C 
ENDBRANCH  33  36
ENDBRANCH   2  30
TORSDOF 7
