REMARK  3 active torsions:
REMARK  status: ('A' for Active; 'I' for Inactive)
REMARK    1  A    between atoms: N_10  and  C_2 
REMARK    2  A    between atoms: C_9  and  C_5 
REMARK    3  A    between atoms: N_6  and  C_8 
ROOT
ATOM      1  C   UNL d   1      -0.624   1.293  -0.027  0.00  0.00     0.136 A 
ATOM      2  C   UNL d   1      -1.401   0.181   0.001  0.00  0.00     0.060 A 
ATOM      3  C   UNL d   1      -0.697  -1.087   0.053  0.00  0.00     0.069 A 
ATOM      4  C   UNL d   1       0.868   1.218  -0.009  0.00  0.00     0.312 A 
ATOM      5  C   UNL d   1       0.638  -1.172  -0.032  0.00  0.00     0.092 A 
ATOM      6  O   UNL d   1       1.441  -0.023  -0.074  0.00  0.00    -0.273 OA
ATOM      7  O   UNL d   1       1.577   2.221   0.046  0.00  0.00    -0.258 OA
ATOM      8 CL   UNL d   1      -1.258   2.903  -0.196  0.00  0.00    -0.075 Cl
ENDROOT
BRANCH   5   9
ATOM      9  C   UNL d   1       1.367  -2.457  -0.023  0.00  0.00     0.000 A 
ATOM     10  C   UNL d   1       0.829  -3.596  -0.642  0.00  0.00     0.050 A 
ATOM     11  C   UNL d   1       1.504  -4.824  -0.578  0.00  0.00     0.103 A 
ATOM     12  C   UNL d   1       2.735  -4.928   0.076  0.00  0.00     0.036 A 
ATOM     13  C   UNL d   1       3.295  -3.791   0.656  0.00  0.00     0.003 A 
ATOM     14  C   UNL d   1       2.618  -2.564   0.603  0.00  0.00     0.014 A 
BRANCH  11  15
ATOM     15  N   UNL d   1       0.898  -6.012  -1.192  0.00  0.00    -0.116 N 
ATOM     16  O   UNL d   1      -0.192  -5.874  -1.762  0.00  0.00    -0.532 OA
ATOM     17  O   UNL d   1       1.510  -7.085  -1.097  0.00  0.00    -0.532 OA
ENDBRANCH  11  15
ENDBRANCH   5   9
BRANCH   2  18
ATOM     18  N   UNL d   1      -2.812   0.101  -0.016  0.00  0.00    -0.388 N 
ATOM     19  C   UNL d   1      -3.697   1.056   0.657  0.00  0.00     0.149 C 
ATOM     20  C   UNL d   1      -3.561  -0.996  -0.645  0.00  0.00     0.149 C 
ENDBRANCH   2  18
TORSDOF 3
