REMARK  2 active torsions:
REMARK  status: ('A' for Active; 'I' for Inactive)
REMARK    1  A    between atoms: N_6  and  C_1 
REMARK       I    between atoms: C_3  and  N_7 
REMARK    2  A    between atoms: C_9  and  C_3 
REMARK       I    between atoms: C_8  and  N_6 
REMARK       I    between atoms: N_7  and  C_8 
ROOT
ATOM      1  C   UNL d   1       2.573  -2.340  -0.582  0.00  0.00     0.263 C 
ATOM      2  N   UNL d   1      -0.256  -2.651  -0.766  0.00  0.00    -0.292 N 
ATOM      3  N   UNL d   1       1.797  -3.208   0.164  0.00  0.00    -0.275 N 
ATOM      4  C   UNL d   1       0.463  -3.521   0.002  0.00  0.00     0.328 C 
ATOM      5  O   UNL d   1       2.111  -1.571  -1.420  0.00  0.00    -0.267 OA
ATOM      6  O   UNL d   1       0.056  -4.535   0.560  0.00  0.00    -0.247 OA
ATOM      7  H   UNL d   1       0.247  -1.883  -1.204  0.00  0.00     0.172 HD
ATOM      8  H   UNL d   1       2.256  -3.897   0.744  0.00  0.00     0.173 HD
ENDROOT
BRANCH   1   9
ATOM      9  C   UNL d   1       4.030  -2.351  -0.275  0.00  0.00     0.075 A 
ATOM     10  C   UNL d   1       4.761  -3.551  -0.233  0.00  0.00     0.051 A 
ATOM     11 CL   UNL d   1       4.063  -5.095  -0.583  0.00  0.00    -0.083 Cl
ATOM     12  C   UNL d   1       6.125  -3.544   0.085  0.00  0.00     0.025 A 
ATOM     13  C   UNL d   1       6.781  -2.344   0.342  0.00  0.00     0.003 A 
ATOM     14  C   UNL d   1       6.072  -1.147   0.284  0.00  0.00     0.025 A 
ATOM     15  C   UNL d   1       4.703  -1.144  -0.018  0.00  0.00     0.051 A 
ATOM     16 CL   UNL d   1       3.912   0.394   0.016  0.00  0.00    -0.083 Cl
ENDBRANCH   1   9
BRANCH   2  17
ATOM     17  C   UNL d   1      -1.609  -2.761  -1.029  0.00  0.00     0.149 A 
ATOM     18  C   UNL d   1      -2.361  -1.857  -1.820  0.00  0.00     0.088 A 
ATOM     19  C   UNL d   1      -3.641  -2.343  -1.823  0.00  0.00     0.093 A 
ATOM     20 BR   UNL d   1      -1.711  -0.318  -2.659  0.00  0.00    -0.044 Br
ATOM     21  C   UNL d   1      -4.917  -1.925  -2.429  0.00  0.00     0.080 C 
ATOM     22  O   UNL d   1      -3.671  -3.473  -1.069  0.00  0.00    -0.240 OA
ATOM     23  N   UNL d   1      -2.409  -3.732  -0.573  0.00  0.00    -0.243 N 
ATOM     24  HN  UNL d   1      -2.138  -4.512   0.026  1.00  0.00     0.196 HD
ENDBRANCH   2  17
TORSDOF 2
