REMARK  7 active torsions:
REMARK  status: ('A' for Active; 'I' for Inactive)
REMARK    1  A    between atoms: N_4  and  C_1 
REMARK    2  A    between atoms: N_5  and  C_2 
REMARK    3  A    between atoms: N_14  and  C_3 
REMARK    4  A    between atoms: C_6  and  C_7 
REMARK    5  A    between atoms: C_23  and  N_14 
REMARK    6  A    between atoms: C_19  and  C_26 
REMARK    7  A    between atoms: C_26  and  C_23 
ROOT
ATOM      1  C   UNL d   1       1.173  -0.245   0.890  0.00  0.00     0.132 A 
ATOM      2  C   UNL d   1      -0.487  -0.870  -0.679  0.00  0.00     0.132 A 
ATOM      3  C   UNL d   1       0.606  -1.287   0.124  0.00  0.00     0.095 A 
ATOM      4  C   UNL d   1      -0.403   1.442   0.095  0.00  0.00     0.052 A 
ATOM      5  C   UNL d   1      -0.986   0.454  -0.701  0.00  0.00     0.054 A 
ATOM      6  C   UNL d   1       0.696   1.084   0.881  0.00  0.00     0.054 A 
ENDROOT
BRANCH   3   7
ATOM      7  N   UNL d   1       1.040  -2.617   0.148  0.00  0.00    -0.386 N 
ATOM      8  H   UNL d   1       0.410  -3.283  -0.316  0.00  0.00     0.159 HD
BRANCH   7   9
ATOM      9  C   UNL d   1       2.449  -2.987  -0.048  0.00  0.00     0.124 C 
BRANCH   9  10
ATOM     10  C   UNL d   1       2.673  -4.468   0.305  0.00  0.00     0.058 C 
BRANCH  10  11
ATOM     11  C   UNL d   1       2.113  -5.437  -0.710  0.00  0.00    -0.057 A 
ATOM     12  C   UNL d   1       2.596  -5.450  -2.027  0.00  0.00     0.009 A 
ATOM     13  C   UNL d   1       2.080  -6.349  -2.963  0.00  0.00     0.024 A 
ATOM     14  C   UNL d   1       1.087  -7.249  -2.583  0.00  0.00     0.034 A 
ATOM     15  C   UNL d   1       0.612  -7.262  -1.275  0.00  0.00     0.024 A 
ATOM     16 CL   UNL d   1       0.452  -8.355  -3.738  0.00  0.00    -0.084 Cl
ATOM     17  C   UNL d   1       1.124  -6.359  -0.340  0.00  0.00     0.009 A 
ENDBRANCH  10  11
ENDBRANCH   9  10
ENDBRANCH   7   9
ENDBRANCH   3   7
BRANCH   2  18
ATOM     18  N   UNL d   1      -1.160  -1.815  -1.562  0.00  0.00    -0.113 N 
ATOM     19  O   UNL d   1      -1.564  -2.874  -1.063  0.00  0.00    -0.532 OA
ATOM     20  O   UNL d   1      -1.286  -1.482  -2.747  0.00  0.00    -0.532 OA
ENDBRANCH   2  18
BRANCH   1  21
ATOM     21  N   UNL d   1       2.250  -0.492   1.828  0.00  0.00    -0.113 N 
ATOM     22  O   UNL d   1       1.993  -1.171   2.830  0.00  0.00    -0.532 OA
ATOM     23  O   UNL d   1       3.336   0.042   1.573  0.00  0.00    -0.532 OA
ENDBRANCH   1  21
BRANCH   4  24
ATOM     24  C   UNL d   1      -0.941   2.854   0.149  0.00  0.00     0.417 C 
ATOM     25  F   UNL d   1      -2.041   3.045  -0.625  0.00  0.00    -0.166 F 
ATOM     26  F   UNL d   1      -1.299   3.212   1.411  0.00  0.00    -0.166 F 
ATOM     27  F   UNL d   1      -0.022   3.770  -0.258  0.00  0.00    -0.166 F 
ENDBRANCH   4  24
TORSDOF 7
