REMARK  2 active torsions:
REMARK  status: ('A' for Active; 'I' for Inactive)
REMARK    1  A    between atoms: O_5  and  C_1 
REMARK    2  A    between atoms: C_8  and  O_5 
ROOT
ATOM      1  C   UNL d   1      -1.010  -1.503  -0.299  0.00  0.00     0.152 C 
ATOM      2  C   UNL d   1      -1.524  -0.272  -0.174  0.00  0.00     0.122 C 
ATOM      3  C   UNL d   1       0.456  -1.653  -0.556  0.00  0.00     0.218 C 
ATOM      4  C   UNL d   1      -0.687   0.956  -0.171  0.00  0.00     0.207 C 
ATOM      5  C   UNL d   1       1.325  -0.492  -0.293  0.00  0.00     0.031 A 
ATOM      6  C   UNL d   1       0.775   0.774  -0.136  0.00  0.00     0.030 A 
ATOM      7  O   UNL d   1       0.955  -2.689  -0.981  0.00  0.00    -0.284 OA
ATOM      8  O   UNL d   1      -1.161   2.087  -0.165  0.00  0.00    -0.286 OA
ATOM      9 CL   UNL d   1      -3.231  -0.026   0.012  0.00  0.00    -0.077 Cl
ATOM     10  C   UNL d   1       2.715  -0.665  -0.227  0.00  0.00     0.016 A 
ATOM     11  C   UNL d   1       1.611   1.881   0.062  0.00  0.00     0.016 A 
ATOM     12  C   UNL d   1       2.995   1.709   0.124  0.00  0.00     0.001 A 
ATOM     13  C   UNL d   1       3.546   0.436  -0.011  0.00  0.00     0.001 A 
ENDROOT
BRANCH   1  14
ATOM     14  O   UNL d   1      -1.855  -2.613  -0.313  0.00  0.00    -0.304 OA
BRANCH  14  15
ATOM     15  C   UNL d   1      -1.486  -3.800   0.282  0.00  0.00     0.082 A 
ATOM     16  C   UNL d   1      -2.044  -4.979  -0.242  0.00  0.00    -0.028 A 
ATOM     17  C   UNL d   1      -3.034  -4.973  -1.374  0.00  0.00     0.051 C 
ATOM     18  C   UNL d   1      -1.700  -6.211   0.336  0.00  0.00     0.009 A 
ATOM     19  C   UNL d   1      -0.823  -6.271   1.419  0.00  0.00     0.001 A 
ATOM     20  C   UNL d   1      -0.306  -5.097   1.958  0.00  0.00     0.003 A 
ATOM     21  C   UNL d   1      -0.651  -3.863   1.405  0.00  0.00     0.038 A 
ENDBRANCH  14  15
ENDBRANCH   1  14
TORSDOF 2
