REMARK  4 active torsions:
REMARK  status: ('A' for Active; 'I' for Inactive)
REMARK    1  A    between atoms: C_4  and  S_1 
REMARK    2  A    between atoms: C_13  and  S_1 
REMARK    3  A    between atoms: N_9  and  C_5 
REMARK    4  A    between atoms: N_14  and  C_6 
ROOT
ATOM      1  N   UNL d   1      -0.101  -1.791  -3.457  0.00  0.00    -0.180 N 
ATOM      2  HN  UNL d   1      -0.119  -2.730  -3.855  1.00  0.00     0.185 HD
ATOM      3  C   UNL d   1       0.420  -0.334  -1.664  0.00  0.00     0.114 A 
ATOM      4  C   UNL d   1      -0.535  -0.738  -4.174  0.00  0.00     0.681 A 
ATOM      5  C   UNL d   1       0.357  -1.588  -2.209  0.00  0.00     0.117 A 
ATOM      6  N   UNL d   1      -0.519   0.514  -3.686  0.00  0.00    -0.200 N 
ATOM      7  HN  UNL d   1      -0.852   1.302  -4.243  1.00  0.00     0.183 HD
ATOM      8  C   UNL d   1      -0.050   0.694  -2.436  0.00  0.00     0.133 A 
ENDROOT
BRANCH   3   9
ATOM      9  S   UNL d   1       0.950  -0.038  -0.026  0.00  0.00     0.183 S 
ATOM     10  O   UNL d   1       0.512  -1.174   0.769  0.00  0.00    -0.222 OA
ATOM     11  O   UNL d   1       0.506   1.297   0.337  0.00  0.00    -0.222 OA
BRANCH   9  12
ATOM     12  C   UNL d   1       2.746  -0.034  -0.088  0.00  0.00     0.105 C 
ATOM     13  C   UNL d   1       3.285   1.123  -0.924  0.00  0.00     0.026 C 
ATOM     14  C   UNL d   1       3.312   0.043   1.332  0.00  0.00     0.026 C 
ENDBRANCH   9  12
ENDBRANCH   3   9
BRANCH   5  15
ATOM     15  N   UNL d   1       0.827  -2.735  -1.568  0.00  0.00    -0.287 NA
ATOM     16  H   UNL d   1       0.569  -3.534  -2.144  0.00  0.00     0.125 HD
ATOM     17  H   UNL d   1       0.445  -2.816  -0.622  0.00  0.00     0.125 HD
ENDBRANCH   5  15
BRANCH   4  18
ATOM     18  N   UNL d   1      -1.022  -0.949  -5.442  0.00  0.00    -0.218 N 
ATOM     19  C   UNL d   1      -0.652  -2.161  -6.160  0.00  0.00     0.141 C 
ATOM     20  C   UNL d   1      -0.271  -1.656  -7.550  0.00  0.00     0.022 C 
ATOM     21  C   UNL d   1      -1.157  -0.433  -7.732  0.00  0.00     0.022 C 
ATOM     22  C   UNL d   1      -1.181   0.189  -6.337  0.00  0.00     0.141 C 
ENDBRANCH   4  18
TORSDOF 4
