REMARK  3 active torsions:
REMARK  status: ('A' for Active; 'I' for Inactive)
REMARK    1  A    between atoms: C_6  and  C_1 
REMARK    2  A    between atoms: C_5  and  C_2 
REMARK       I    between atoms: N_9  and  C_5 
REMARK    3  A    between atoms: C_13  and  N_9 
ROOT
ATOM      1  C   UNL d   1      -1.547  -0.381   0.592  0.00  0.00     0.086 A 
ATOM      2  C   UNL d   1      -0.278  -0.980   0.320  0.00  0.00     0.093 A 
ATOM      3  N   UNL d   1      -1.386   0.927   0.860  0.00  0.00    -0.259 N 
ATOM      4  HN  UNL d   1      -2.108   1.578   1.171  1.00  0.00     0.195 HD
ATOM      5  O   UNL d   1      -0.065   1.219   0.636  0.00  0.00    -0.241 OA
ATOM      6  C   UNL d   1       0.597   0.090   0.291  0.00  0.00     0.090 A 
ATOM      7  C   UNL d   1       2.022   0.278  -0.051  0.00  0.00     0.080 C 
ENDROOT
BRANCH   2   8
ATOM      8  C   UNL d   1       0.074  -2.368   0.053  0.00  0.00     0.261 C 
ATOM      9  N   UNL d   1       1.251  -2.731   0.688  0.00  0.00    -0.323 N 
ATOM     10  H   UNL d   1       1.610  -2.071   1.365  0.00  0.00     0.169 HD
ATOM     11  O   UNL d   1      -0.630  -3.083  -0.645  0.00  0.00    -0.267 OA
BRANCH   9  12
ATOM     12  C   UNL d   1       2.043  -3.878   0.491  0.00  0.00     0.035 A 
ATOM     13  C   UNL d   1       1.731  -4.903  -0.403  0.00  0.00     0.032 A 
ATOM     14  C   UNL d   1       2.622  -5.966  -0.589  0.00  0.00     0.044 A 
ATOM     15  C   UNL d   1       3.820  -6.000   0.116  0.00  0.00     0.116 A 
ATOM     16  C   UNL d   1       4.141  -4.996   1.018  0.00  0.00     0.044 A 
ATOM     17  F   UNL d   1       4.679  -7.007  -0.083  0.00  0.00    -0.206 F 
ATOM     18  C   UNL d   1       3.249  -3.939   1.210  0.00  0.00     0.032 A 
ENDBRANCH   9  12
ENDBRANCH   2   8
BRANCH   1  19
ATOM     19  C   UNL d   1      -2.893  -0.958   0.658  0.00  0.00     0.037 A 
ATOM     20  C   UNL d   1      -3.208  -2.018   1.528  0.00  0.00     0.048 A 
ATOM     21 CL   UNL d   1      -2.047  -2.742   2.592  0.00  0.00    -0.083 Cl
ATOM     22  C   UNL d   1      -4.522  -2.505   1.623  0.00  0.00     0.025 A 
ATOM     23  C   UNL d   1      -5.548  -1.929   0.879  0.00  0.00     0.003 A 
ATOM     24  C   UNL d   1      -5.260  -0.876   0.019  0.00  0.00     0.025 A 
ATOM     25  C   UNL d   1      -3.946  -0.403  -0.105  0.00  0.00     0.048 A 
ATOM     26 CL   UNL d   1      -3.711   0.874  -1.258  0.00  0.00    -0.083 Cl
ENDBRANCH   1  19
TORSDOF 3
