REMARK  4 active torsions:
REMARK  status: ('A' for Active; 'I' for Inactive)
REMARK    1  A    between atoms: C_7  and  C_1 
REMARK    2  A    between atoms: C_2  and  C_3 
REMARK    3  A    between atoms: C_3  and  O_5 
REMARK    4  A    between atoms: O_5  and  C_4 
ROOT
ATOM      1  C   UNL d   1       1.206  -1.386  -0.088  0.00  0.00     0.010 A 
ATOM      2  C   UNL d   1       2.354  -0.594  -0.346  0.00  0.00     0.088 A 
ATOM      3  C   UNL d   1      -0.082  -0.741  -0.095  0.00  0.00    -0.015 A 
ATOM      4  C   UNL d   1       2.256   0.777  -0.577  0.00  0.00     0.039 A 
ATOM      5  C   UNL d   1      -0.141   0.669  -0.271  0.00  0.00    -0.025 A 
ATOM      6  C   UNL d   1       1.016   1.400  -0.525  0.00  0.00     0.015 A 
ATOM      7  C   UNL d   1      -1.331  -1.398   0.078  0.00  0.00     0.013 A 
ATOM      8  C   UNL d   1      -1.366   1.355  -0.191  0.00  0.00     0.012 A 
ATOM      9  C   UNL d   1      -2.545  -0.705   0.138  0.00  0.00     0.001 A 
ATOM     10  C   UNL d   1      -2.559   0.675   0.026  0.00  0.00     0.001 A 
ENDROOT
BRANCH   2  11
ATOM     11  O   UNL d   1       3.629  -1.206  -0.194  0.00  0.00    -0.274 OA
BRANCH  11  12
ATOM     12  C   UNL d   1       4.813  -0.533  -0.463  0.00  0.00     0.300 C 
ATOM     13  O   UNL d   1       5.053   0.135  -1.454  0.00  0.00    -0.259 OA
BRANCH  12  14
ATOM     14  C   UNL d   1       5.719  -0.714   0.704  0.00  0.00     0.061 A 
ATOM     15  C   UNL d   1       7.112  -0.765   0.572  0.00  0.00     0.051 A 
ATOM     16  C   UNL d   1       7.919  -0.888   1.712  0.00  0.00     0.048 A 
ATOM     17 CL   UNL d   1       7.925  -0.711  -0.951  0.00  0.00    -0.083 Cl
ATOM     18  C   UNL d   1       7.339  -0.958   2.978  0.00  0.00     0.035 A 
ATOM     19  C   UNL d   1       5.959  -0.888   3.124  0.00  0.00     0.025 A 
ATOM     20 CL   UNL d   1       8.333  -1.126   4.371  0.00  0.00    -0.084 Cl
ATOM     21  C   UNL d   1       5.154  -0.755   1.993  0.00  0.00     0.021 A 
ENDBRANCH  12  14
ENDBRANCH  11  12
ENDBRANCH   2  11
BRANCH   1  22
ATOM     22  C   UNL d   1       1.329  -2.867   0.241  0.00  0.00     0.145 C 
ATOM     23  S   UNL d   1       2.313  -3.248   1.725  0.00  0.00    -0.148 SA
ATOM     24  C   UNL d   1       2.644  -4.960   1.258  0.00  0.00     0.085 C 
ATOM     25  C   UNL d   1       3.013  -4.972  -0.215  0.00  0.00     0.085 C 
ATOM     26  S   UNL d   1       1.887  -3.898  -1.153  0.00  0.00    -0.148 SA
ENDBRANCH   1  22
TORSDOF 4
