REMARK  5 active torsions:
REMARK  status: ('A' for Active; 'I' for Inactive)
REMARK    1  A    between atoms: C_2  and  N_1 
REMARK    2  A    between atoms: C_4  and  C_5 
REMARK    3  A    between atoms: O_13  and  C_6 
REMARK    4  A    between atoms: C_20  and  O_13 
REMARK    5  A    between atoms: C_18  and  C_20 
ROOT
ATOM      1  C   UNL d   1       0.233  -0.881   0.874  0.00  0.00     0.136 A 
ATOM      2  C   UNL d   1       0.684  -1.085   2.188  0.00  0.00     0.048 A 
ATOM      3  C   UNL d   1      -0.037  -1.922   3.057  0.00  0.00    -0.032 A 
ATOM      4  C   UNL d   1      -0.901  -1.527   0.373  0.00  0.00     0.102 A 
ATOM      5  C   UNL d   1      -1.218  -2.510   2.577  0.00  0.00     0.012 A 
ATOM      6  C   UNL d   1      -1.646  -2.309   1.261  0.00  0.00     0.040 A 
ENDROOT
BRANCH   4   7
ATOM      7  O   UNL d   1      -1.209  -1.388  -0.956  0.00  0.00    -0.344 OA
BRANCH   7   8
ATOM      8  C   UNL d   1      -2.034  -2.422  -1.504  0.00  0.00     0.214 C 
BRANCH   8   9
ATOM      9  C   UNL d   1      -1.934  -2.479  -3.010  0.00  0.00    -0.032 A 
ATOM     10  C   UNL d   1      -2.030  -3.726  -3.653  0.00  0.00     0.035 A 
ATOM     11  C   UNL d   1      -1.999  -3.820  -5.048  0.00  0.00     0.056 A 
ATOM     12 CL   UNL d   1      -2.125  -5.395  -5.746  0.00  0.00    -0.083 Cl
ATOM     13  C   UNL d   1      -1.877  -2.660  -5.817  0.00  0.00     0.055 A 
ATOM     14  C   UNL d   1      -1.791  -1.415  -5.188  0.00  0.00     0.026 A 
ATOM     15 CL   UNL d   1      -1.845  -2.696  -7.544  0.00  0.00    -0.083 Cl
ATOM     16  C   UNL d   1      -1.822  -1.325  -3.791  0.00  0.00     0.011 A 
ENDBRANCH   8   9
ENDBRANCH   7   8
ENDBRANCH   4   7
BRANCH   1  17
ATOM     17  N   UNL d   1       0.979   0.043   0.041  0.00  0.00    -0.113 N 
ATOM     18  O   UNL d   1       2.193  -0.172  -0.089  0.00  0.00    -0.532 OA
ATOM     19  O   UNL d   1       0.369   1.016  -0.424  0.00  0.00    -0.532 OA
ENDBRANCH   1  17
BRANCH   3  20
ATOM     20  C   UNL d   1       0.405  -2.193   4.481  0.00  0.00     0.141 C 
ATOM     21  S   UNL d   1       0.484  -0.665   5.466  0.00  0.00    -0.148 SA
ATOM     22  C   UNL d   1       2.073  -1.005   6.262  0.00  0.00     0.085 C 
ATOM     23  C   UNL d   1       2.957  -1.729   5.267  0.00  0.00     0.085 C 
ATOM     24  S   UNL d   1       1.992  -3.081   4.550  0.00  0.00    -0.148 SA
ENDBRANCH   3  20
TORSDOF 5
