REMARK  6 active torsions:
REMARK  status: ('A' for Active; 'I' for Inactive)
REMARK    1  A    between atoms: C_7  and  C_1 
REMARK    2  A    between atoms: C_9  and  C_2 
REMARK    3  A    between atoms: O_17  and  C_7 
REMARK    4  A    between atoms: C_8  and  O_13 
REMARK       I    between atoms: N_12  and  C_8 
REMARK    5  A    between atoms: O_13  and  N_10 
REMARK    6  A    between atoms: C_16  and  N_12 
ROOT
ATOM      1  C   UNL d   1       0.397  -2.433   0.125  0.00  0.00     0.044 C 
ATOM      2  N   UNL d   1      -0.488  -3.379   0.034  0.00  0.00    -0.260 N 
ATOM      3  HN  UNL d   1      -0.260  -4.370   0.108  1.00  0.00     0.194 HD
ATOM      4  C   UNL d   1       0.039  -0.967   0.179  0.00  0.00     0.071 C 
ENDROOT
BRANCH   2   5
ATOM      5  O   UNL d   1      -1.796  -2.897  -0.177  0.00  0.00    -0.181 OA
BRANCH   5   6
ATOM      6  C   UNL d   1      -2.705  -3.847   0.219  0.00  0.00     0.387 C 
ATOM      7  N   UNL d   1      -3.881  -3.891  -0.488  0.00  0.00    -0.301 N 
ATOM      8  H   UNL d   1      -4.560  -4.484  -0.028  0.00  0.00     0.171 HD
ATOM      9  O   UNL d   1      -2.553  -4.600   1.181  0.00  0.00    -0.236 OA
BRANCH   7  10
ATOM     10  C   UNL d   1      -4.217  -3.412  -1.768  0.00  0.00     0.037 A 
ATOM     11  C   UNL d   1      -3.305  -2.855  -2.668  0.00  0.00     0.031 A 
ATOM     12  C   UNL d   1      -3.722  -2.459  -3.947  0.00  0.00     0.026 A 
ATOM     13  C   UNL d   1      -5.049  -2.621  -4.331  0.00  0.00     0.034 A 
ATOM     14  C   UNL d   1      -5.967  -3.183  -3.450  0.00  0.00     0.026 A 
ATOM     15 CL   UNL d   1      -5.553  -2.140  -5.903  0.00  0.00    -0.084 Cl
ATOM     16  C   UNL d   1      -5.548  -3.581  -2.176  0.00  0.00     0.031 A 
ENDBRANCH   7  10
ENDBRANCH   5   6
ENDBRANCH   2   5
BRANCH   1  17
ATOM     17  C   UNL d   1       1.783  -2.872   0.064  0.00  0.00     0.054 A 
ATOM     18  C   UNL d   1       2.979  -2.418   0.713  0.00  0.00     0.144 A 
ATOM     19  N   UNL d   1       4.048  -3.092   0.248  0.00  0.00    -0.254 N 
ATOM     20  O   UNL d   1       3.574  -4.031  -0.623  0.00  0.00    -0.241 OA
ATOM     21  HN  UNL d   1       5.024  -2.932   0.499  1.00  0.00     0.195 HD
ATOM     22  C   UNL d   1       2.230  -3.926  -0.721  0.00  0.00     0.087 A 
ATOM     23  C   UNL d   1       1.602  -4.919  -1.615  0.00  0.00     0.080 C 
BRANCH  18  24
ATOM     24  C   UNL d   1       3.170  -1.436   1.786  0.00  0.00     0.312 C 
ATOM     25  O   UNL d   1       2.252  -0.817   2.312  0.00  0.00    -0.258 OA
BRANCH  24  26
ATOM     26  O   UNL d   1       4.483  -1.339   2.157  0.00  0.00    -0.321 OA
ATOM     27  C   UNL d   1       4.806  -0.562   3.310  0.00  0.00     0.213 C 
ENDBRANCH  24  26
ENDBRANCH  18  24
ENDBRANCH   1  17
TORSDOF 6
