REMARK  5 active torsions:
REMARK  status: ('A' for Active; 'I' for Inactive)
REMARK    1  A    between atoms: N_8  and  C_1 
REMARK    2  A    between atoms: C_2  and  C_3 
REMARK    3  A    between atoms: N_9  and  S_6 
REMARK       I    between atoms: C_7  and  N_9 
REMARK       I    between atoms: N_14  and  C_7 
REMARK    4  A    between atoms: C_27  and  N_14 
REMARK    5  A    between atoms: C_17  and  C_20 
ROOT
ATOM      1  S   UNL d   1       2.539   4.240  -0.020  0.00  0.00    -0.120 SA
ATOM      2  N   UNL d   1      -0.260   2.479  -0.062  0.00  0.00    -0.364 N 
ATOM      3  C   UNL d   1       2.117   2.640  -0.807  0.00  0.00     0.105 C 
ATOM      4  C   UNL d   1       1.156   4.191   1.182  0.00  0.00     0.105 C 
ATOM      5  C   UNL d   1      -0.236   3.737   0.708  0.00  0.00     0.135 C 
ATOM      6  C   UNL d   1       0.654   2.484  -1.216  0.00  0.00     0.135 C 
ENDROOT
BRANCH   1   7
ATOM      7  N   UNL d   1       1.944   5.182  -1.043  0.00  0.00    -0.292 N 
ATOM      8  C   UNL d   1       2.631   5.669  -2.102  0.00  0.00     0.330 C 
ATOM      9  N   UNL d   1       4.003   5.424  -2.132  0.00  0.00    -0.308 N 
ATOM     10  O   UNL d   1       2.064   6.320  -2.980  0.00  0.00    -0.246 OA
ATOM     11  H   UNL d   1       4.319   4.858  -1.361  0.00  0.00     0.170 HD
ATOM     12  HN  UNL d   1       0.971   5.465  -0.928  1.00  0.00     0.178 HD
BRANCH   9  13
ATOM     13  C   UNL d   1       4.993   6.072  -2.906  0.00  0.00     0.036 C 
ATOM     14  C   UNL d   1       4.725   7.029  -3.878  0.00  0.00     0.030 C 
ATOM     15  C   UNL d   1       5.751   7.835  -4.395  0.00  0.00     0.010 C 
ATOM     16  C   UNL d   1       7.081   7.700  -3.963  0.00  0.00    -0.051 C 
ATOM     17  C   UNL d   1       7.358   6.622  -3.105  0.00  0.00     0.010 C 
ATOM     18  C   UNL d   1       6.329   5.817  -2.590  0.00  0.00     0.030 C 
BRANCH  16  19
ATOM     19  C   UNL d   1       8.133   8.788  -4.253  0.00  0.00    -0.024 C 
ATOM     20  C   UNL d   1       9.572   8.237  -4.344  0.00  0.00     0.019 C 
ATOM     21  C   UNL d   1       7.869   9.573  -5.558  0.00  0.00     0.019 C 
ATOM     22  C   UNL d   1       8.075   9.793  -3.078  0.00  0.00     0.019 C 
ENDBRANCH  16  19
ENDBRANCH   9  13
ENDBRANCH   1   7
BRANCH   2  23
ATOM     23  C   UNL d   1      -0.631   1.257   0.469  0.00  0.00     0.125 A 
ATOM     24  N   UNL d   1       0.163   0.189   0.175  0.00  0.00    -0.350 N 
ATOM     25  C   UNL d   1      -0.177  -1.053   0.591  0.00  0.00     0.106 A 
ATOM     26  HN  UNL d   1       1.020   0.327  -0.360  1.00  0.00     0.166 HD
ATOM     27  C   UNL d   1      -1.313  -1.338   1.320  0.00  0.00     0.065 A 
ATOM     28  C   UNL d   1      -2.149  -0.264   1.617  0.00  0.00     0.045 A 
ATOM     29  C   UNL d   1      -1.822   1.033   1.185  0.00  0.00     0.078 A 
ATOM     30 CL   UNL d   1      -3.038   2.237   1.464  0.00  0.00    -0.080 Cl
BRANCH  27  31
ATOM     31  C   UNL d   1      -1.603  -2.742   1.735  0.00  0.00     0.418 C 
ATOM     32  F   UNL d   1      -2.751  -2.871   2.460  0.00  0.00    -0.166 F 
ATOM     33  F   UNL d   1      -1.741  -3.590   0.677  0.00  0.00    -0.166 F 
ATOM     34  F   UNL d   1      -0.618  -3.276   2.510  0.00  0.00    -0.166 F 
ENDBRANCH  27  31
ENDBRANCH   2  23
TORSDOF 5
