REMARK  8 active torsions:
REMARK  status: ('A' for Active; 'I' for Inactive)
REMARK       I    between atoms: N_2  and  C_1 
REMARK    1  A    between atoms: C_3  and  C_1 
REMARK    2  A    between atoms: C_4  and  N_2 
REMARK    3  A    between atoms: C_5  and  N_2 
REMARK    4  A    between atoms: C_7  and  C_5 
REMARK    5  A    between atoms: O_19  and  C_7 
REMARK    6  A    between atoms: O_20  and  C_7 
REMARK    7  A    between atoms: C_22  and  O_19 
REMARK    8  A    between atoms: C_21  and  O_20 
ROOT
ATOM      1  C   UNL d   1       2.356   0.123  -0.119  0.00  0.00     0.258 C 
ATOM      2  N   UNL d   1       3.180  -1.032  -0.177  0.00  0.00    -0.309 N 
ATOM      3  O   UNL d   1       2.754   1.280  -0.255  0.00  0.00    -0.267 OA
ENDROOT
BRANCH   2   4
ATOM      4  C   UNL d   1       4.551  -0.870  -0.606  0.00  0.00     0.037 A 
ATOM      5  C   UNL d   1       5.298   0.264  -0.236  0.00  0.00     0.033 A 
ATOM      6  C   UNL d   1       6.584   0.493  -0.735  0.00  0.00     0.044 A 
ATOM      7  C   UNL d   1       7.152  -0.430  -1.594  0.00  0.00     0.116 A 
ATOM      8  C   UNL d   1       6.460  -1.581  -1.949  0.00  0.00     0.044 A 
ATOM      9  F   UNL d   1       8.372  -0.206  -2.098  0.00  0.00    -0.206 F 
ATOM     10  C   UNL d   1       5.165  -1.802  -1.456  0.00  0.00     0.033 A 
ENDBRANCH   2   4
BRANCH   2  11
ATOM     11  C   UNL d   1       2.613  -2.390  -0.064  0.00  0.00     0.193 C 
BRANCH  11  12
ATOM     12  C   UNL d   1       3.378  -3.476   0.739  0.00  0.00     0.277 C 
BRANCH  12  13
ATOM     13  O   UNL d   1       3.368  -3.097   2.123  0.00  0.00    -0.360 OA
BRANCH  13  14
ATOM     14  C   UNL d   1       3.990  -4.073   2.956  0.00  0.00     0.166 C 
ATOM     15  C   UNL d   1       3.887  -3.613   4.398  0.00  0.00     0.033 C 
ENDBRANCH  13  14
ENDBRANCH  12  13
BRANCH  12  16
ATOM     16  O   UNL d   1       2.673  -4.721   0.599  0.00  0.00    -0.360 OA
BRANCH  16  17
ATOM     17  C   UNL d   1       2.912  -5.405  -0.625  0.00  0.00     0.166 C 
ATOM     18  C   UNL d   1       2.084  -6.677  -0.615  0.00  0.00     0.033 C 
ENDBRANCH  16  17
ENDBRANCH  12  16
ENDBRANCH  11  12
ENDBRANCH   2  11
BRANCH   1  19
ATOM     19  C   UNL d   1       0.883   0.025   0.055  0.00  0.00     0.032 A 
ATOM     20  C   UNL d   1       0.282   0.902   0.968  0.00  0.00     0.017 A 
ATOM     21  C   UNL d   1      -1.107   0.945   1.096  0.00  0.00     0.007 A 
ATOM     22  C   UNL d   1      -1.914   0.107   0.318  0.00  0.00    -0.062 A 
ATOM     23  C   UNL d   1      -1.314  -0.750  -0.613  0.00  0.00     0.007 A 
ATOM     24  C   UNL d   1      -3.407   0.187   0.444  0.00  0.00     0.048 C 
ATOM     25  C   UNL d   1       0.075  -0.770  -0.765  0.00  0.00     0.017 A 
ENDBRANCH   1  19
TORSDOF 8
