REMARK  5 active torsions:
REMARK  status: ('A' for Active; 'I' for Inactive)
REMARK    1  A    between atoms: C_11  and  C_1 
REMARK    2  A    between atoms: S_2  and  N_12 
REMARK    3  A    between atoms: C_19  and  S_2 
REMARK    4  A    between atoms: C_5  and  C_3 
REMARK       I    between atoms: N_14  and  C_11 
REMARK    5  A    between atoms: N_12  and  N_14 
ROOT
ATOM      1  C   UNL d   1      -0.299  -2.630   0.041  0.00  0.00     0.279 C 
ATOM      2  N   UNL d   1       0.868  -3.378   0.067  0.00  0.00    -0.256 N 
ATOM      3  O   UNL d   1      -1.397  -3.187   0.069  0.00  0.00    -0.265 OA
ATOM      4  H   UNL d   1       1.789  -2.946   0.018  0.00  0.00     0.191 HD
ENDROOT
BRANCH   1   5
ATOM      5  C   UNL d   1      -0.136  -1.184  -0.014  0.00  0.00     0.098 A 
ATOM      6  S   UNL d   1       1.399  -0.415   0.086  0.00  0.00    -0.063 SA
ATOM      7  C   UNL d   1       0.647   1.128   0.031  0.00  0.00     0.104 A 
ATOM      8  N   UNL d   1      -0.665   1.100  -0.092  0.00  0.00    -0.351 N 
ATOM      9  C   UNL d   1      -1.121  -0.212  -0.137  0.00  0.00     0.029 A 
ATOM     10  HN  UNL d   1      -1.262   1.925  -0.146  1.00  0.00     0.166 HD
ATOM     11  C   UNL d   1      -2.584  -0.432  -0.306  0.00  0.00     0.070 C 
BRANCH   7  12
ATOM     12  C   UNL d   1       1.403   2.426   0.123  0.00  0.00     0.091 A 
ATOM     13  N   UNL d   1       2.740   2.504   0.176  0.00  0.00    -0.258 N 
ATOM     14  O   UNL d   1       3.034   3.855   0.261  0.00  0.00    -0.242 OA
ATOM     15  HN  UNL d   1       3.403   1.729   0.157  1.00  0.00     0.195 HD
ATOM     16  C   UNL d   1       1.880   4.573   0.272  0.00  0.00     0.074 A 
ATOM     17  C   UNL d   1       0.815   3.712   0.178  0.00  0.00     0.068 A 
ATOM     18  C   UNL d   1       2.019   6.037   0.381  0.00  0.00     0.079 C 
ENDBRANCH   7  12
ENDBRANCH   1   5
BRANCH   2  19
ATOM     19  N   UNL d   1       0.800  -4.827   0.166  0.00  0.00    -0.220 N 
ATOM     20  H   UNL d   1      -0.112  -5.290   0.237  0.00  0.00     0.200 HD
BRANCH  19  21
ATOM     21  S   UNL d   1       2.239  -5.704   0.217  0.00  0.00     0.276 S 
ATOM     22  O   UNL d   1       2.936  -5.453  -1.027  0.00  0.00    -0.199 OA
ATOM     23  O   UNL d   1       2.871  -5.416   1.488  0.00  0.00    -0.199 OA
BRANCH  21  24
ATOM     24  C   UNL d   1       1.707  -7.398   0.231  0.00  0.00     0.081 A 
ATOM     25  C   UNL d   1       1.598  -8.096  -0.975  0.00  0.00     0.025 A 
ATOM     26  C   UNL d   1       1.309  -9.462  -0.960  0.00  0.00     0.002 A 
ATOM     27  C   UNL d   1       1.138 -10.126   0.255  0.00  0.00     0.000 A 
ATOM     28  C   UNL d   1       1.250  -9.427   1.459  0.00  0.00     0.002 A 
ATOM     29  C   UNL d   1       1.539  -8.061   1.450  0.00  0.00     0.025 A 
ENDBRANCH  21  24
ENDBRANCH  19  21
ENDBRANCH   2  19
TORSDOF 5
