REMARK  2 active torsions:
REMARK  status: ('A' for Active; 'I' for Inactive)
REMARK    1  A    between atoms: C_7  and  C_1 
REMARK    2  A    between atoms: C_8  and  C_4 
ROOT
ATOM      1  C   UNL d   1       0.013  -1.306  -0.040  0.00  0.00     0.070 A 
ATOM      2  N   UNL d   1      -1.324   0.536   0.061  0.00  0.00    -0.259 N 
ATOM      3  HN  UNL d   1      -2.139   1.149   0.094  1.00  0.00     0.195 HD
ATOM      4  C   UNL d   1      -1.334  -0.807   0.013  0.00  0.00     0.081 A 
ATOM      5  O   UNL d   1      -0.010   0.924   0.059  0.00  0.00    -0.241 OA
ATOM      6  C   UNL d   1       0.794  -0.166   0.001  0.00  0.00     0.088 A 
ATOM      7  C   UNL d   1       2.240   0.132  -0.045  0.00  0.00     0.080 C 
ENDROOT
BRANCH   4   8
ATOM      8  C   UNL d   1      -2.612  -1.526   0.054  0.00  0.00    -0.006 A 
ATOM      9  C   UNL d   1      -3.753  -0.968  -0.545  0.00  0.00     0.014 A 
ATOM     10  C   UNL d   1      -4.985  -1.626  -0.490  0.00  0.00     0.001 A 
ATOM     11  C   UNL d   1      -5.093  -2.850   0.164  0.00  0.00     0.000 A 
ATOM     12  C   UNL d   1      -3.973  -3.412   0.771  0.00  0.00     0.001 A 
ATOM     13  C   UNL d   1      -2.743  -2.749   0.726  0.00  0.00     0.014 A 
ENDBRANCH   4   8
BRANCH   1  14
ATOM     14  C   UNL d   1       0.464  -2.682  -0.164  0.00  0.00     0.160 C 
ATOM     15  O   UNL d   1      -0.182  -3.509  -0.806  0.00  0.00    -0.293 OA
ATOM     16  C   UNL d   1       1.719  -3.137   0.538  0.00  0.00     0.097 C 
ENDBRANCH   1  14
TORSDOF 2
