REMARK  6 active torsions:
REMARK  status: ('A' for Active; 'I' for Inactive)
REMARK    1  A    between atoms: C_4  and  C_1 
REMARK    2  A    between atoms: O_6  and  C_2 
REMARK       I    between atoms: C_3  and  N_5 
REMARK    3  A    between atoms: C_9  and  C_3 
REMARK    4  A    between atoms: N_5  and  C_4 
REMARK    5  A    between atoms: C_10  and  O_6 
REMARK    6  A    between atoms: O_18  and  C_12 
ROOT
ATOM      1  C   UNL d   1       0.226   1.142  -0.123  0.00  0.00     0.015 A 
ATOM      2  C   UNL d   1       1.636   1.201  -0.095  0.00  0.00     0.085 A 
ATOM      3  C   UNL d   1      -0.373  -0.131  -0.047  0.00  0.00     0.044 A 
ATOM      4 CL   UNL d   1      -2.088  -0.351   0.022  0.00  0.00    -0.084 Cl
ATOM      5  C   UNL d   1       2.397   0.020  -0.162  0.00  0.00     0.038 A 
ATOM      6  C   UNL d   1       1.785  -1.225  -0.106  0.00  0.00     0.004 A 
ATOM      7  C   UNL d   1       0.402  -1.298  -0.019  0.00  0.00     0.024 A 
ENDROOT
BRANCH   1   8
ATOM      8  C   UNL d   1      -0.596   2.393  -0.319  0.00  0.00     0.166 C 
BRANCH   8   9
ATOM      9  N   UNL d   1      -0.636   3.262   0.836  0.00  0.00    -0.352 N 
ATOM     10  C   UNL d   1      -1.448   4.380   0.799  0.00  0.00     0.251 C 
ATOM     11  O   UNL d   1      -2.207   4.635  -0.127  0.00  0.00    -0.268 OA
ATOM     12  H   UNL d   1       0.184   3.288   1.429  0.00  0.00     0.163 HD
BRANCH  10  13
ATOM     13  C   UNL d   1      -1.329   5.321   1.948  0.00  0.00     0.032 A 
ATOM     14  C   UNL d   1      -1.591   6.679   1.738  0.00  0.00     0.017 A 
ATOM     15  C   UNL d   1      -1.491   7.582   2.798  0.00  0.00     0.001 A 
ATOM     16  C   UNL d   1      -1.142   7.128   4.069  0.00  0.00     0.000 A 
ATOM     17  C   UNL d   1      -0.901   5.770   4.286  0.00  0.00     0.001 A 
ATOM     18  C   UNL d   1      -0.997   4.864   3.229  0.00  0.00     0.017 A 
ENDBRANCH  10  13
ENDBRANCH   8   9
ENDBRANCH   1   8
BRANCH   2  19
ATOM     19  O   UNL d   1       2.245   2.447  -0.016  0.00  0.00    -0.310 OA
BRANCH  19  20
ATOM     20  C   UNL d   1       3.471   2.508   0.622  0.00  0.00     0.076 A 
ATOM     21  C   UNL d   1       4.509   3.179  -0.026  0.00  0.00     0.040 A 
ATOM     22  C   UNL d   1       5.806   3.139   0.503  0.00  0.00     0.039 A 
ATOM     23  C   UNL d   1       6.061   2.433   1.681  0.00  0.00     0.068 A 
ATOM     24  C   UNL d   1       5.001   1.846   2.373  0.00  0.00     0.039 A 
ATOM     25  C   UNL d   1       3.704   1.898   1.859  0.00  0.00     0.040 A 
BRANCH  23  26
ATOM     26  O   UNL d   1       7.289   2.282   2.264  0.00  0.00    -0.356 OA
ATOM     27  C   UNL d   1       8.399   2.277   1.372  0.00  0.00     0.210 C 
ENDBRANCH  23  26
ENDBRANCH  19  20
ENDBRANCH   2  19
TORSDOF 6
