REMARK  6 active torsions:
REMARK  status: ('A' for Active; 'I' for Inactive)
REMARK    1  A    between atoms: C_5  and  C_1 
REMARK    2  A    between atoms: N_8  and  C_12 
REMARK    3  A    between atoms: O_14  and  C_10 
REMARK    4  A    between atoms: N_19  and  C_11 
REMARK    5  A    between atoms: C_20  and  O_14 
REMARK    6  A    between atoms: O_26  and  C_21 
ROOT
ATOM      1  C   UNL d   1       2.217   2.249   0.079  0.00  0.00     0.052 C 
ATOM      2  C   UNL d   1       2.241   3.145   1.168  0.00  0.00     0.054 C 
ATOM      3  C   UNL d   1       3.082   2.473  -1.005  0.00  0.00     0.090 C 
ATOM      4  C   UNL d   1       3.149   4.215   1.188  0.00  0.00     0.104 C 
ATOM      5  C   UNL d   1       4.058   3.485  -0.916  0.00  0.00     0.041 C 
ATOM      6  C   UNL d   1       4.080   4.370   0.161  0.00  0.00     0.039 C 
ENDROOT
BRANCH   1   7
ATOM      7  C   UNL d   1       1.310   1.083   0.197  0.00  0.00     0.165 A 
ATOM      8  N   UNL d   1       0.594   0.805   1.241  0.00  0.00    -0.330 N 
ATOM      9  C   UNL d   1       0.029  -0.412   0.934  0.00  0.00     0.126 A 
ATOM     10  HN  UNL d   1       0.478   1.357   2.091  1.00  0.00     0.168 HD
ATOM     11  C   UNL d   1      -0.677  -1.099   1.848  0.00  0.00     0.120 C 
ATOM     12  C   UNL d   1       0.405  -0.789  -0.460  0.00  0.00     0.318 A 
ATOM     13  O   UNL d   1       1.256   0.215  -0.831  0.00  0.00    -0.255 OA
ATOM     14  O   UNL d   1       0.069  -1.725  -1.157  0.00  0.00    -0.257 OA
BRANCH  11  15
ATOM     15  N   UNL d   1      -1.276  -2.349   1.942  0.00  0.00    -0.396 N 
ATOM     16  C   UNL d   1      -1.167  -3.404   0.938  0.00  0.00     0.148 C 
ATOM     17  C   UNL d   1      -2.109  -2.710   3.094  0.00  0.00     0.148 C 
ENDBRANCH  11  15
ENDBRANCH   1   7
BRANCH   3  18
ATOM     18  O   UNL d   1       2.983   1.692  -2.142  0.00  0.00    -0.310 OA
BRANCH  18  19
ATOM     19  C   UNL d   1       3.225   2.300  -3.359  0.00  0.00     0.076 A 
ATOM     20  C   UNL d   1       3.971   1.581  -4.293  0.00  0.00     0.040 A 
ATOM     21  C   UNL d   1       4.364   2.188  -5.492  0.00  0.00     0.039 A 
ATOM     22  C   UNL d   1       4.012   3.514  -5.753  0.00  0.00     0.068 A 
ATOM     23  C   UNL d   1       3.185   4.195  -4.859  0.00  0.00     0.039 A 
ATOM     24  C   UNL d   1       2.772   3.585  -3.675  0.00  0.00     0.040 A 
BRANCH  22  25
ATOM     25  O   UNL d   1       4.391   4.231  -6.853  0.00  0.00    -0.356 OA
ATOM     26  C   UNL d   1       5.629   3.845  -7.442  0.00  0.00     0.210 C 
ENDBRANCH  22  25
ENDBRANCH  18  19
ENDBRANCH   3  18
BRANCH   4  27
ATOM     27  N   UNL d   1       3.130   5.180   2.297  0.00  0.00    -0.116 N 
ATOM     28  O   UNL d   1       2.308   4.996   3.204  0.00  0.00    -0.532 OA
ATOM     29  O   UNL d   1       3.927   6.127   2.246  0.00  0.00    -0.532 OA
ENDBRANCH   4  27
TORSDOF 6
