REMARK  3 active torsions:
REMARK  status: ('A' for Active; 'I' for Inactive)
REMARK    1  A    between atoms: S_7  and  C_2 
REMARK    2  A    between atoms: C_9  and  C_3 
REMARK    3  A    between atoms: C_16  and  S_7 
ROOT
ATOM      1  C   UNL d   1      -0.725  -0.044  -0.218  0.00  0.00     0.079 A 
ATOM      2  C   UNL d   1       0.139   1.022  -0.039  0.00  0.00     0.063 A 
ATOM      3  C   UNL d   1      -0.074  -1.321  -0.031  0.00  0.00     0.003 A 
ATOM      4  S   UNL d   1       1.745   0.492   0.229  0.00  0.00    -0.092 SA
ATOM      5  C   UNL d   1       1.278  -1.147   0.204  0.00  0.00     0.065 A 
ATOM      6  C   UNL d   1      -2.113   0.125  -0.542  0.00  0.00     0.102 C 
ATOM      7  N   UNL d   1      -3.243   0.253  -0.770  0.00  0.00    -0.191 NA
ENDROOT
BRANCH   2   8
ATOM      8  S   UNL d   1      -0.195   2.752  -0.098  0.00  0.00    -0.117 SA
BRANCH   8   9
ATOM      9  C   UNL d   1      -1.328   2.998   1.321  0.00  0.00     0.045 C 
ATOM     10  C   UNL d   1      -0.707   2.558   2.645  0.00  0.00     0.021 C 
ATOM     11  C   UNL d   1      -1.692   4.481   1.383  0.00  0.00     0.021 C 
ENDBRANCH   8   9
ENDBRANCH   2   8
BRANCH   3  12
ATOM     12  C   UNL d   1      -0.658  -2.669  -0.030  0.00  0.00    -0.024 A 
ATOM     13  C   UNL d   1       0.022  -3.750  -0.614  0.00  0.00     0.014 A 
ATOM     14  C   UNL d   1      -0.505  -5.045  -0.552  0.00  0.00     0.024 A 
ATOM     15  C   UNL d   1      -1.725  -5.267   0.082  0.00  0.00     0.034 A 
ATOM     16  C   UNL d   1      -2.421  -4.206   0.652  0.00  0.00     0.024 A 
ATOM     17 CL   UNL d   1      -2.366  -6.860   0.172  0.00  0.00    -0.084 Cl
ATOM     18  C   UNL d   1      -1.887  -2.913   0.603  0.00  0.00     0.014 A 
ENDBRANCH   3  12
TORSDOF 3
