REMARK  3 active torsions:
REMARK  status: ('A' for Active; 'I' for Inactive)
REMARK    1  A    between atoms: C_3  and  S_1 
REMARK    2  A    between atoms: C_4  and  S_1 
REMARK    3  A    between atoms: C_13  and  C_8 
ROOT
ATOM      1  N   UNL d   1      -2.057  -1.794   0.392  0.00  0.00    -0.196 NA
ATOM      2  C   UNL d   1      -0.423  -0.232  -0.918  0.00  0.00     0.269 C 
ATOM      3  C   UNL d   1      -1.312  -1.112  -0.180  0.00  0.00     0.074 C 
ENDROOT
BRANCH   2   4
ATOM      4  S   UNL d   1       1.075  -0.064   0.004  0.00  0.00     0.187 S 
ATOM      5  O   UNL d   1       1.894   0.914  -0.695  0.00  0.00    -0.222 OA
ATOM      6  O   UNL d   1       1.618  -1.382   0.282  0.00  0.00    -0.222 OA
BRANCH   4   7
ATOM      7  C   UNL d   1       0.611   0.674   1.555  0.00  0.00     0.060 A 
ATOM      8  C   UNL d   1       0.277  -0.140   2.638  0.00  0.00     0.024 A 
ATOM      9  C   UNL d   1      -0.051   0.444   3.864  0.00  0.00     0.009 A 
ATOM     10  C   UNL d   1      -0.029   1.838   4.028  0.00  0.00    -0.055 A 
ATOM     11  C   UNL d   1       0.332   2.638   2.931  0.00  0.00     0.009 A 
ATOM     12  C   UNL d   1       0.655   2.063   1.700  0.00  0.00     0.024 A 
BRANCH  10  13
ATOM     13  C   UNL d   1      -0.374   2.492   5.357  0.00  0.00     0.010 C 
ATOM     14  C   UNL d   1      -1.814   2.191   5.778  0.00  0.00     0.015 C 
ATOM     15  C   UNL d   1       0.609   2.093   6.462  0.00  0.00     0.015 C 
ENDBRANCH  10  13
ENDBRANCH   4   7
ENDBRANCH   2   4
TORSDOF 3
