REMARK  4 active torsions:
REMARK  status: ('A' for Active; 'I' for Inactive)
REMARK    1  A    between atoms: C_6  and  C_1 
REMARK    2  A    between atoms: C_16  and  N_4 
REMARK    3  A    between atoms: C_7  and  N_8 
REMARK    4  A    between atoms: N_17  and  C_10 
ROOT
ATOM      1  C   UNL d   1      -1.989  -4.527   0.108  0.00  0.00     0.145 C 
ATOM      2  C   UNL d   1      -3.114  -5.025  -0.462  0.00  0.00     0.125 C 
ATOM      3  C   UNL d   1      -1.081  -5.405   0.808  0.00  0.00     0.120 C 
ATOM      4  C   UNL d   1      -3.450  -6.422  -0.403  0.00  0.00     0.114 C 
ATOM      5  N   UNL d   1      -0.331  -6.089   1.370  0.00  0.00    -0.190 NA
ATOM      6  N   UNL d   1      -3.772  -7.533  -0.339  0.00  0.00    -0.190 NA
ENDROOT
BRANCH   1   7
ATOM      7  N   UNL d   1      -1.810  -3.146   0.112  0.00  0.00    -0.354 N 
ATOM      8  C   UNL d   1      -0.605  -2.687  -0.027  0.00  0.00     0.108 C 
ATOM      9  HN  UNL d   1      -2.603  -2.514   0.222  1.00  0.00     0.166 HD
BRANCH   8  10
ATOM     10  C   UNL d   1      -0.273  -1.251   0.038  0.00  0.00     0.073 C 
ATOM     11  C   UNL d   1       1.110  -0.724  -0.048  0.00  0.00     0.280 C 
ATOM     12  N   UNL d   1       1.028   0.666   0.093  0.00  0.00    -0.218 N 
ATOM     13  O   UNL d   1       2.081  -1.449  -0.204  0.00  0.00    -0.265 OA
ATOM     14  N   UNL d   1      -0.341   1.015   0.300  0.00  0.00    -0.290 N 
ATOM     15  C   UNL d   1      -1.072  -0.173   0.153  0.00  0.00     0.042 C 
ATOM     16  C   UNL d   1      -0.819   2.341  -0.077  0.00  0.00     0.178 C 
ATOM     17  C   UNL d   1      -2.567  -0.229   0.114  0.00  0.00     0.071 C 
BRANCH  12  18
ATOM     18  C   UNL d   1       2.117   1.572   0.049  0.00  0.00     0.060 A 
ATOM     19  C   UNL d   1       3.263   1.250  -0.696  0.00  0.00     0.031 A 
ATOM     20  C   UNL d   1       4.340   2.137  -0.796  0.00  0.00     0.002 A 
ATOM     21  C   UNL d   1       4.294   3.362  -0.142  0.00  0.00     0.000 A 
ATOM     22  C   UNL d   1       3.182   3.689   0.627  0.00  0.00     0.002 A 
ATOM     23  C   UNL d   1       2.110   2.794   0.731  0.00  0.00     0.031 A 
ENDBRANCH  12  18
ENDBRANCH   8  10
ENDBRANCH   1   7
BRANCH   2  24
ATOM     24  N   UNL d   1      -4.064  -4.234  -1.118  0.00  0.00    -0.291 NA
ATOM     25  H   UNL d   1      -3.944  -3.249  -0.870  0.00  0.00     0.125 HD
ATOM     26  H   UNL d   1      -5.022  -4.559  -0.994  0.00  0.00     0.125 HD
ENDBRANCH   2  24
TORSDOF 4
