REMARK  3 active torsions:
REMARK  status: ('A' for Active; 'I' for Inactive)
REMARK    1  A    between atoms: N_7  and  C_1 
REMARK    2  A    between atoms: C_8  and  C_2 
REMARK    3  A    between atoms: O_13  and  C_8 
ROOT
ATOM      1  C   UNL d   1      -0.687  -1.325  -0.012  0.00  0.00     0.161 A 
ATOM      2  C   UNL d   1       0.704  -1.343  -0.022  0.00  0.00     0.159 A 
ATOM      3  N   UNL d   1       1.049  -0.006  -0.008  0.00  0.00    -0.288 N 
ATOM      4  N   UNL d   1      -0.009   0.832  -0.024  0.00  0.00    -0.300 N 
ATOM      5  HN  UNL d   1       0.005   1.851  -0.046  1.00  0.00     0.187 HD
ATOM      6  C   UNL d   1      -1.077   0.032  -0.004  0.00  0.00     0.057 A 
ATOM      7  C   UNL d   1       2.363   0.601  -0.032  0.00  0.00     0.178 C 
ATOM      8  C   UNL d   1      -2.444   0.613  -0.007  0.00  0.00     0.072 C 
ENDROOT
BRANCH   2   9
ATOM      9  C   UNL d   1       1.661  -2.418   0.036  0.00  0.00     0.198 C 
ATOM     10  O   UNL d   1       2.763  -2.337   0.561  0.00  0.00    -0.645 OA
BRANCH   9  11
ATOM     11  O   UNL d   1       1.270  -3.559  -0.571  0.00  0.00    -0.772 OA
ATOM     12  H   UNL d   1       0.389  -3.576  -1.005  0.00  0.00     0.167 HD
ENDBRANCH   9  11
ENDBRANCH   2   9
BRANCH   1  13
ATOM     13  N   UNL d   1      -1.562  -2.449   0.001  0.00  0.00    -0.111 N 
ATOM     14  O   UNL d   1      -1.290  -3.352  -0.803  0.00  0.00    -0.532 OA
ATOM     15  O   UNL d   1      -2.507  -2.428   0.794  0.00  0.00    -0.532 OA
ENDBRANCH   1  13
TORSDOF 3
