REMARK  3 active torsions:
REMARK  status: ('A' for Active; 'I' for Inactive)
REMARK    1  A    between atoms: C_9  and  C_1 
REMARK       I    between atoms: C_5  and  N_10 
REMARK    2  A    between atoms: C_8  and  C_5 
REMARK    3  A    between atoms: N_10  and  C_14 
ROOT
ATOM      1  C   UNL d   1       2.066  -1.536   0.322  0.00  0.00    -0.004 A 
ATOM      2  C   UNL d   1       2.140  -2.416  -0.774  0.00  0.00     0.043 A 
ATOM      3  C   UNL d   1       3.321  -3.101  -1.068  0.00  0.00     0.035 A 
ATOM      4  C   UNL d   1       3.181  -1.395   1.156  0.00  0.00     0.014 A 
ATOM      5  C   UNL d   1       4.361  -2.084   0.877  0.00  0.00     0.003 A 
ATOM      6  C   UNL d   1       4.431  -2.927  -0.233  0.00  0.00     0.029 A 
ENDROOT
BRANCH   3   7
ATOM      7  N   UNL d   1       3.497  -3.928  -2.198  0.00  0.00    -0.323 N 
ATOM      8  C   UNL d   1       2.563  -4.252  -3.162  0.00  0.00     0.257 C 
ATOM      9  O   UNL d   1       1.367  -3.981  -3.139  0.00  0.00    -0.267 OA
ATOM     10  H   UNL d   1       4.429  -4.305  -2.321  0.00  0.00     0.169 HD
BRANCH   8  11
ATOM     11  C   UNL d   1       3.098  -4.919  -4.385  0.00  0.00     0.054 A 
ATOM     12  C   UNL d   1       4.140  -5.854  -4.409  0.00  0.00     0.049 A 
ATOM     13 CL   UNL d   1       4.907  -6.464  -2.984  0.00  0.00    -0.083 Cl
ATOM     14  C   UNL d   1       4.597  -6.361  -5.634  0.00  0.00     0.025 A 
ATOM     15  C   UNL d   1       4.016  -5.948  -6.833  0.00  0.00     0.002 A 
ATOM     16  C   UNL d   1       2.964  -5.038  -6.817  0.00  0.00     0.001 A 
ATOM     17  C   UNL d   1       2.505  -4.530  -5.601  0.00  0.00     0.019 A 
ENDBRANCH   8  11
ENDBRANCH   3   7
BRANCH   1  18
ATOM     18  C   UNL d   1       0.836  -0.773   0.554  0.00  0.00     0.077 A 
ATOM     19  C   UNL d   1       0.661   0.595   0.896  0.00  0.00     0.057 A 
ATOM     20  C   UNL d   1      -0.692   0.817   0.938  0.00  0.00     0.131 A 
ATOM     21 BR   UNL d   1       1.977   1.902   1.155  0.00  0.00    -0.047 Br
ATOM     22  N   UNL d   1      -1.257  -0.376   0.611  0.00  0.00    -0.306 N 
ATOM     23  N   UNL d   1      -0.367  -1.357   0.398  0.00  0.00    -0.297 N 
ATOM     24  C   UNL d   1      -2.668  -0.632   0.438  0.00  0.00     0.177 C 
ATOM     25  HN  UNL d   1      -0.559  -2.333   0.168  1.00  0.00     0.187 HD
ENDBRANCH   1  18
TORSDOF 3
