REMARK  6 active torsions:
REMARK  status: ('A' for Active; 'I' for Inactive)
REMARK    1  A    between atoms: N_3  and  S_1 
REMARK    2  A    between atoms: C_12  and  S_1 
REMARK    3  A    between atoms: S_2  and  N_4 
REMARK    4  A    between atoms: C_11  and  S_2 
REMARK    5  A    between atoms: C_5  and  N_3 
REMARK    6  A    between atoms: N_4  and  C_6 
ROOT
ATOM      1  C   UNL d   1       0.765  -0.285  -2.724  0.00  0.00     0.050 A 
ATOM      2  C   UNL d   1      -0.254  -0.093  -3.673  0.00  0.00     0.064 A 
ATOM      3  C   UNL d   1       2.077   0.100  -3.025  0.00  0.00     0.033 A 
ATOM      4  C   UNL d   1       0.040   0.516  -4.892  0.00  0.00     0.032 A 
ATOM      5  C   UNL d   1       2.373   0.713  -4.249  0.00  0.00    -0.060 A 
ATOM      6  C   UNL d   1       1.343   0.930  -5.173  0.00  0.00     0.009 A 
ATOM      7  C   UNL d   1       3.776   1.128  -4.587  0.00  0.00     0.048 C 
ENDROOT
BRANCH   1   8
ATOM      8  N   UNL d   1       0.502  -0.921  -1.464  0.00  0.00    -0.179 NA
ATOM      9  H   UNL d   1       0.988  -0.460  -0.697  0.00  0.00     0.146 HD
BRANCH   8  10
ATOM     10  S   UNL d   1       0.822  -2.583  -1.398  0.00  0.00     0.245 S 
ATOM     11  O   UNL d   1       2.257  -2.723  -1.270  0.00  0.00    -0.206 OA
ATOM     12  O   UNL d   1       0.073  -3.268  -2.432  0.00  0.00    -0.206 OA
BRANCH  10  13
ATOM     13  C   UNL d   1       0.089  -2.990   0.171  0.00  0.00     0.074 A 
ATOM     14  C   UNL d   1      -1.261  -2.695   0.378  0.00  0.00     0.025 A 
ATOM     15  C   UNL d   1      -1.837  -2.939   1.624  0.00  0.00     0.002 A 
ATOM     16  C   UNL d   1      -1.067  -3.481   2.655  0.00  0.00     0.000 A 
ATOM     17  C   UNL d   1       0.279  -3.786   2.442  0.00  0.00     0.002 A 
ATOM     18  C   UNL d   1       0.864  -3.541   1.198  0.00  0.00     0.025 A 
ENDBRANCH  10  13
ENDBRANCH   8  10
ENDBRANCH   1   8
BRANCH   2  19
ATOM     19  N   UNL d   1      -1.580  -0.560  -3.484  0.00  0.00    -0.279 N 
ATOM     20  H   UNL d   1      -1.884  -1.409  -3.956  0.00  0.00     0.179 HD
BRANCH  19  21
ATOM     21  S   UNL d   1      -2.680   0.222  -2.511  0.00  0.00     0.263 S 
ATOM     22  O   UNL d   1      -3.890  -0.574  -2.553  0.00  0.00    -0.200 OA
ATOM     23  O   UNL d   1      -2.075   0.572  -1.241  0.00  0.00    -0.200 OA
BRANCH  21  24
ATOM     24  C   UNL d   1      -3.028   1.738  -3.381  0.00  0.00     0.079 A 
ATOM     25  C   UNL d   1      -4.001   1.751  -4.388  0.00  0.00     0.025 A 
ATOM     26  C   UNL d   1      -4.383   2.966  -4.961  0.00  0.00     0.002 A 
ATOM     27  C   UNL d   1      -3.803   4.159  -4.524  0.00  0.00     0.000 A 
ATOM     28  C   UNL d   1      -2.829   4.141  -3.526  0.00  0.00     0.002 A 
ATOM     29  C   UNL d   1      -2.439   2.931  -2.950  0.00  0.00     0.025 A 
ENDBRANCH  21  24
ENDBRANCH  19  21
ENDBRANCH   2  19
TORSDOF 6
