REMARK  3 active torsions:
REMARK  status: ('A' for Active; 'I' for Inactive)
REMARK    1  A    between atoms: C_9  and  C_1 
REMARK    2  A    between atoms: C_7  and  C_8 
REMARK       I    between atoms: C_8  and  N_10 
REMARK    3  A    between atoms: N_10  and  C_12 
ROOT
ATOM      1  C   UNL d   1       2.116  -1.498   0.281  0.00  0.00    -0.004 A 
ATOM      2  C   UNL d   1       2.182  -2.323  -0.858  0.00  0.00     0.043 A 
ATOM      3  C   UNL d   1       3.359  -2.995  -1.192  0.00  0.00     0.035 A 
ATOM      4  C   UNL d   1       3.236  -1.392   1.113  0.00  0.00     0.014 A 
ATOM      5  C   UNL d   1       4.413  -2.068   0.794  0.00  0.00     0.003 A 
ATOM      6  C   UNL d   1       4.475  -2.858  -0.355  0.00  0.00     0.029 A 
ENDROOT
BRANCH   1   7
ATOM      7  C   UNL d   1       0.885  -0.757   0.559  0.00  0.00     0.077 A 
ATOM      8  C   UNL d   1       0.702   0.604   0.924  0.00  0.00     0.057 A 
ATOM      9  C   UNL d   1      -0.650   0.808   1.006  0.00  0.00     0.131 A 
ATOM     10 BR   UNL d   1       2.016   1.918   1.163  0.00  0.00    -0.047 Br
ATOM     11  N   UNL d   1      -1.211  -0.389   0.679  0.00  0.00    -0.306 N 
ATOM     12  N   UNL d   1      -0.314  -1.355   0.426  0.00  0.00    -0.297 N 
ATOM     13  C   UNL d   1      -2.622  -0.660   0.544  0.00  0.00     0.177 C 
ATOM     14  HN  UNL d   1      -0.500  -2.328   0.185  1.00  0.00     0.187 HD
ENDBRANCH   1   7
BRANCH   3  15
ATOM     15  N   UNL d   1       3.522  -3.788  -2.347  0.00  0.00    -0.323 N 
ATOM     16  C   UNL d   1       2.584  -4.069  -3.341  0.00  0.00     0.277 C 
ATOM     17  O   UNL d   1       1.404  -3.715  -3.288  0.00  0.00    -0.268 OA
ATOM     18  H   UNL d   1       4.450  -4.181  -2.483  0.00  0.00     0.169 HD
BRANCH  16  19
ATOM     19  C   UNL d   1       3.121  -4.873  -4.556  0.00  0.00     0.269 C 
ATOM     20 CL   UNL d   1       4.878  -5.204  -4.417  0.00  0.00    -0.073 Cl
ATOM     21 CL   UNL d   1       2.249  -6.425  -4.639  0.00  0.00    -0.073 Cl
ATOM     22 CL   UNL d   1       2.837  -3.917  -6.035  0.00  0.00    -0.073 Cl
ENDBRANCH  16  19
ENDBRANCH   3  15
TORSDOF 3
