REMARK  2 active torsions:
REMARK  status: ('A' for Active; 'I' for Inactive)
REMARK    1  A    between atoms: N_3  and  C_1 
REMARK       I    between atoms: C_7  and  N_3 
REMARK       I    between atoms: N_9  and  C_7 
REMARK    2  A    between atoms: C_10  and  N_9 
ROOT
ATOM      1  N   UNL d   1       1.384  -2.198   0.052  0.00  0.00    -0.293 N 
ATOM      2  C   UNL d   1       0.928  -3.482   0.152  0.00  0.00     0.326 C 
ATOM      3  N   UNL d   1       1.747  -4.484  -0.292  0.00  0.00    -0.306 N 
ATOM      4  O   UNL d   1      -0.194  -3.808   0.539  0.00  0.00    -0.247 OA
ATOM      5  H   UNL d   1       2.383  -2.085   0.143  0.00  0.00     0.172 HD
ATOM      6  H   UNL d   1       1.220  -5.346  -0.359  0.00  0.00     0.171 HD
ENDROOT
BRANCH   1   7
ATOM      7  C   UNL d   1       0.646  -1.091   0.432  0.00  0.00     0.127 C 
ATOM      8  N   UNL d   1      -0.711  -0.885   0.344  0.00  0.00    -0.281 N 
ATOM      9  N   UNL d   1      -1.106   0.259   0.951  0.00  0.00    -0.302 N 
ATOM     10  C   UNL d   1      -1.696  -1.596  -0.437  0.00  0.00     0.179 C 
ATOM     11  C   UNL d   1       0.035   0.828   1.355  0.00  0.00     0.025 C 
ATOM     12  HN  UNL d   1      -2.057   0.609   1.071  1.00  0.00     0.186 HD
ATOM     13  C   UNL d   1       1.157   0.072   0.969  0.00  0.00     0.076 C 
ATOM     14  C   UNL d   1       0.012   2.087   2.133  0.00  0.00     0.070 C 
ENDBRANCH   1   7
BRANCH   3  15
ATOM     15  C   UNL d   1       3.074  -4.514  -0.765  0.00  0.00     0.075 A 
ATOM     16  C   UNL d   1       4.075  -3.579  -0.469  0.00  0.00     0.146 A 
ATOM     17  C   UNL d   1       5.349  -3.670  -1.018  0.00  0.00     0.086 A 
ATOM     18  F   UNL d   1       3.855  -2.587   0.407  0.00  0.00    -0.204 F 
ATOM     19  C   UNL d   1       5.638  -4.722  -1.869  0.00  0.00     0.119 A 
ATOM     20  C   UNL d   1       4.689  -5.695  -2.150  0.00  0.00     0.044 A 
ATOM     21  F   UNL d   1       6.856  -4.808  -2.421  0.00  0.00    -0.206 F 
ATOM     22  C   UNL d   1       3.413  -5.602  -1.587  0.00  0.00     0.036 A 
ENDBRANCH   3  15
TORSDOF 2
