REMARK  3 active torsions:
REMARK  status: ('A' for Active; 'I' for Inactive)
REMARK    1  A    between atoms: C_2  and  S_1 
REMARK    2  A    between atoms: C_6  and  S_1 
REMARK    3  A    between atoms: C_7  and  C_3 
ROOT
ATOM      1  C   UNL d   1       0.365  -1.173   1.192  0.00  0.00     0.144 C 
ATOM      2  C   UNL d   1       1.168  -2.163   1.627  0.00  0.00     0.048 C 
ATOM      3  C   UNL d   1      -1.000  -1.049   1.536  0.00  0.00     0.112 C 
ATOM      4  N   UNL d   1      -2.120  -0.964   1.829  0.00  0.00    -0.191 NA
ENDROOT
BRANCH   1   5
ATOM      5  S   UNL d   1       1.000  -0.057   0.022  0.00  0.00     0.216 S 
ATOM      6  O   UNL d   1       0.386  -0.333  -1.263  0.00  0.00    -0.216 OA
ATOM      7  O   UNL d   1       2.450  -0.010   0.119  0.00  0.00    -0.216 OA
BRANCH   5   8
ATOM      8  C   UNL d   1       0.417   1.547   0.542  0.00  0.00     0.065 A 
ATOM      9  C   UNL d   1       1.214   2.338   1.374  0.00  0.00     0.024 A 
ATOM     10  C   UNL d   1       0.780   3.617   1.728  0.00  0.00     0.008 A 
ATOM     11  C   UNL d   1      -0.443   4.113   1.254  0.00  0.00    -0.062 A 
ATOM     12  C   UNL d   1      -1.216   3.320   0.395  0.00  0.00     0.008 A 
ATOM     13  C   UNL d   1      -0.892   5.493   1.636  0.00  0.00     0.048 C 
ATOM     14  C   UNL d   1      -0.787   2.042   0.032  0.00  0.00     0.024 A 
ENDBRANCH   5   8
ENDBRANCH   1   5
BRANCH   2  15
ATOM     15  C   UNL d   1       0.756  -3.237   2.546  0.00  0.00    -0.012 A 
ATOM     16  C   UNL d   1       1.082  -3.225   3.911  0.00  0.00     0.044 A 
ATOM     17 CL   UNL d   1       1.936  -1.902   4.625  0.00  0.00    -0.083 Cl
ATOM     18  C   UNL d   1       0.713  -4.292   4.737  0.00  0.00     0.024 A 
ATOM     19  C   UNL d   1       0.004  -5.372   4.208  0.00  0.00     0.002 A 
ATOM     20  C   UNL d   1      -0.344  -5.383   2.860  0.00  0.00     0.001 A 
ATOM     21  C   UNL d   1       0.032  -4.323   2.030  0.00  0.00     0.013 A 
ENDBRANCH   2  15
TORSDOF 3
