REMARK  3 active torsions:
REMARK  status: ('A' for Active; 'I' for Inactive)
REMARK    1  A    between atoms: C_12  and  C_3 
REMARK    2  A    between atoms: C_14  and  C_12 
REMARK    3  A    between atoms: N_17  and  C_15 
ROOT
ATOM      1  N   UNL d   1      -0.355  -0.508   0.033  0.00  0.00    -0.241 N 
ATOM      2  C   UNL d   1      -0.221   0.855  -0.181  0.00  0.00     0.143 A 
ATOM      3  C   UNL d   1       1.962  -0.721  -0.145  0.00  0.00     0.122 A 
ATOM      4  C   UNL d   1       0.773  -1.329   0.083  0.00  0.00     0.064 A 
ATOM      5  N   UNL d   1       2.035   0.654  -0.356  0.00  0.00    -0.294 N 
ATOM      6  HN  UNL d   1       2.949   1.077  -0.519  1.00  0.00     0.187 HD
ATOM      7  N   UNL d   1       1.015   1.397  -0.352  0.00  0.00    -0.283 N 
ATOM      8  HN  UNL d   1       1.117   2.404  -0.477  1.00  0.00     0.188 HD
ATOM      9  N   UNL d   1      -1.663  -0.863   0.143  0.00  0.00    -0.297 N 
ATOM     10  HN  UNL d   1      -2.039  -1.798   0.300  1.00  0.00     0.187 HD
ATOM     11  C   UNL d   1      -1.493   1.381  -0.167  0.00  0.00     0.077 A 
ATOM     12  C   UNL d   1      -2.349   0.273   0.002  0.00  0.00     0.026 A 
ATOM     13  C   UNL d   1       0.512  -2.776   0.392  0.00  0.00     0.073 C 
ATOM     14  C   UNL d   1      -3.833   0.247   0.026  0.00  0.00     0.070 C 
ENDROOT
BRANCH   3  15
ATOM     15  C   UNL d   1       3.261  -1.506  -0.236  0.00  0.00     0.203 C 
ATOM     16  O   UNL d   1       3.296  -2.732  -0.195  0.00  0.00    -0.286 OA
BRANCH  15  17
ATOM     17  C   UNL d   1       4.527  -0.719  -0.408  0.00  0.00     0.074 C 
ATOM     18  C   UNL d   1       5.711  -1.341  -0.548  0.00  0.00     0.088 C 
BRANCH  18  19
ATOM     19  N   UNL d   1       6.989  -0.806  -0.678  0.00  0.00    -0.398 N 
ATOM     20  C   UNL d   1       7.314   0.613  -0.545  0.00  0.00     0.148 C 
ATOM     21  C   UNL d   1       8.144  -1.642  -1.027  0.00  0.00     0.148 C 
ENDBRANCH  18  19
ENDBRANCH  15  17
ENDBRANCH   3  15
TORSDOF 3
