REMARK  10 active torsions:
REMARK  status: ('A' for Active; 'I' for Inactive)
REMARK    1  A    between atoms: C_9  and  C_2 
REMARK    2  A    between atoms: S_11  and  C_3 
REMARK    3  A    between atoms: C_8  and  C_12 
REMARK    4  A    between atoms: C_16  and  C_9 
REMARK    5  A    between atoms: C_15  and  S_11 
REMARK    6  A    between atoms: C_12  and  C_15 
REMARK    7  A    between atoms: O_23  and  C_16 
REMARK    8  A    between atoms: O_24  and  C_16 
REMARK    9  A    between atoms: C_26  and  O_23 
REMARK   10  A    between atoms: C_25  and  O_24 
ROOT
ATOM      1  N   UNL d   1       0.720  -0.102   0.822  0.00  0.00    -0.319 N 
ATOM      2  C   UNL d   1       0.019   0.978   0.330  0.00  0.00     0.104 A 
ATOM      3  C   UNL d   1      -0.108  -1.183   0.662  0.00  0.00     0.162 A 
ATOM      4  N   UNL d   1      -1.175   0.566  -0.056  0.00  0.00    -0.287 N 
ATOM      5  HN  UNL d   1      -1.912   1.153  -0.445  1.00  0.00     0.188 HD
ATOM      6  N   UNL d   1      -1.254  -0.792   0.155  0.00  0.00    -0.278 N 
ATOM      7  HN  UNL d   1      -2.057  -1.387  -0.046  1.00  0.00     0.189 HD
ATOM      8  C   UNL d   1       2.073  -0.122   1.315  0.00  0.00     0.159 C 
ENDROOT
BRANCH   3   9
ATOM      9  S   UNL d   1       0.349  -2.809   1.038  0.00  0.00    -0.085 SA
BRANCH   9  10
ATOM     10  C   UNL d   1      -0.962  -3.741   0.191  0.00  0.00     0.166 C 
BRANCH  10  11
ATOM     11  C   UNL d   1      -0.712  -5.245   0.243  0.00  0.00     0.170 C 
ATOM     12  O   UNL d   1       0.367  -5.752   0.539  0.00  0.00    -0.291 OA
BRANCH  11  13
ATOM     13  C   UNL d   1      -1.825  -6.145  -0.190  0.00  0.00     0.032 A 
ATOM     14  C   UNL d   1      -2.071  -7.382   0.430  0.00  0.00     0.049 A 
ATOM     15  C   UNL d   1      -3.061  -8.239  -0.071  0.00  0.00     0.048 A 
ATOM     16 CL   UNL d   1      -1.247  -7.910   1.855  0.00  0.00    -0.083 Cl
ATOM     17  C   UNL d   1      -3.812  -7.862  -1.181  0.00  0.00     0.035 A 
ATOM     18  C   UNL d   1      -3.595  -6.629  -1.790  0.00  0.00     0.025 A 
ATOM     19 CL   UNL d   1      -5.013  -8.922  -1.806  0.00  0.00    -0.084 Cl
ATOM     20  C   UNL d   1      -2.603  -5.774  -1.300  0.00  0.00     0.018 A 
ENDBRANCH  11  13
ENDBRANCH  10  11
ENDBRANCH   9  10
ENDBRANCH   3   9
BRANCH   2  21
ATOM     21  C   UNL d   1       0.573   2.351   0.122  0.00  0.00     0.138 C 
BRANCH  21  22
ATOM     22  C   UNL d   1      -0.301   3.471   0.710  0.00  0.00     0.266 C 
BRANCH  22  23
ATOM     23  O   UNL d   1      -0.121   3.477   2.138  0.00  0.00    -0.361 OA
BRANCH  23  24
ATOM     24  C   UNL d   1      -0.920   4.484   2.766  0.00  0.00     0.166 C 
ATOM     25  C   UNL d   1      -0.734   4.399   4.269  0.00  0.00     0.033 C 
ENDBRANCH  23  24
ENDBRANCH  22  23
BRANCH  22  26
ATOM     26  O   UNL d   1       0.140   4.735   0.191  0.00  0.00    -0.361 OA
BRANCH  26  27
ATOM     27  C   UNL d   1      -0.362   5.027  -1.109  0.00  0.00     0.166 C 
ATOM     28  C   UNL d   1       0.067   6.436  -1.473  0.00  0.00     0.033 C 
ENDBRANCH  26  27
ENDBRANCH  22  26
ENDBRANCH  21  22
ENDBRANCH   2  21
TORSDOF 10
