REMARK  3 active torsions:
REMARK  status: ('A' for Active; 'I' for Inactive)
REMARK    1  A    between atoms: C_9  and  C_7 
REMARK    2  A    between atoms: O_18  and  C_8 
REMARK    3  A    between atoms: O_19  and  C_11 
ROOT
ATOM      1  C   UNL d   1       1.292   0.065  -0.682  0.00  0.00     0.101 A 
ATOM      2  N   UNL d   1      -0.685  -1.250  -1.084  0.00  0.00    -0.275 N 
ATOM      3  N   UNL d   1      -0.696   0.985  -1.683  0.00  0.00    -0.275 N 
ATOM      4  C   UNL d   1       0.600  -1.250  -0.631  0.00  0.00     0.265 A 
ATOM      5  C   UNL d   1       0.590   1.227  -1.290  0.00  0.00     0.265 A 
ATOM      6  C   UNL d   1      -1.366  -0.193  -1.605  0.00  0.00     0.329 A 
ATOM      7  C   UNL d   1       2.517   0.129  -0.122  0.00  0.00     0.036 C 
ATOM      8  O   UNL d   1       1.089   2.333  -1.460  0.00  0.00    -0.267 OA
ATOM      9  O   UNL d   1       1.126  -2.276  -0.208  0.00  0.00    -0.267 OA
ATOM     10  O   UNL d   1      -2.524  -0.301  -1.990  0.00  0.00    -0.246 OA
ATOM     11  H   UNL d   1      -1.183  -2.128  -1.039  0.00  0.00     0.173 HD
ATOM     12  H   UNL d   1      -1.192   1.763  -2.095  0.00  0.00     0.173 HD
ENDROOT
BRANCH   7  13
ATOM     13  C   UNL d   1       3.315   1.355   0.035  0.00  0.00    -0.010 A 
ATOM     14  C   UNL d   1       3.240   2.159   1.194  0.00  0.00     0.080 A 
ATOM     15  C   UNL d   1       3.947   3.383   1.271  0.00  0.00     0.124 A 
ATOM     16 CL   UNL d   1       2.325   1.544   2.546  0.00  0.00    -0.080 Cl
ATOM     17  C   UNL d   1       4.771   3.758   0.191  0.00  0.00     0.103 A 
ATOM     18  C   UNL d   1       4.870   2.920  -0.931  0.00  0.00     0.040 A 
ATOM     19  C   UNL d   1       4.151   1.733  -1.016  0.00  0.00     0.016 A 
BRANCH  15  20
ATOM     20  O   UNL d   1       3.973   4.162   2.402  0.00  0.00    -0.351 OA
ATOM     21  C   UNL d   1       2.704   4.554   2.925  0.00  0.00     0.210 C 
ENDBRANCH  15  20
BRANCH  17  22
ATOM     22  O   UNL d   1       5.562   4.869   0.054  0.00  0.00    -0.353 OA
ATOM     23  C   UNL d   1       5.414   5.942   0.968  0.00  0.00     0.210 C 
ENDBRANCH  17  22
ENDBRANCH   7  13
TORSDOF 3
