REMARK  4 active torsions:
REMARK  status: ('A' for Active; 'I' for Inactive)
REMARK    1  A    between atoms: C_2  and  S_1 
REMARK    2  A    between atoms: C_13  and  S_1 
REMARK    3  A    between atoms: N_16  and  C_5 
REMARK    4  A    between atoms: C_12  and  C_6 
ROOT
ATOM      1  C   UNL d   1       0.305   1.632  -0.109  0.00  0.00     0.113 A 
ATOM      2  N   UNL d   1      -1.493   3.172   0.052  0.00  0.00    -0.330 N 
ATOM      3  HN  UNL d   1      -2.493   3.366   0.107  1.00  0.00     0.168 HD
ATOM      4  C   UNL d   1      -1.036   1.911  -0.004  0.00  0.00     0.102 A 
ATOM      5  C   UNL d   1      -0.591   4.180   0.034  0.00  0.00     0.133 A 
ATOM      6  N   UNL d   1       0.744   3.982  -0.079  0.00  0.00    -0.349 N 
ATOM      7  HN  UNL d   1       1.399   4.762  -0.121  1.00  0.00     0.167 HD
ATOM      8  C   UNL d   1       1.163   2.703  -0.133  0.00  0.00     0.116 A 
ENDROOT
BRANCH   5   9
ATOM      9  C   UNL d   1      -1.068   5.582   0.177  0.00  0.00     0.076 A 
ATOM     10  N   UNL d   1      -2.402   5.783   0.379  0.00  0.00    -0.363 N 
ATOM     11  C   UNL d   1      -2.840   7.053   0.535  0.00  0.00     0.088 A 
ATOM     12  HN  UNL d   1      -3.052   4.998   0.412  1.00  0.00     0.165 HD
ATOM     13  C   UNL d   1      -2.017   8.165   0.499  0.00  0.00     0.017 A 
ATOM     14  C   UNL d   1      -0.660   7.964   0.291  0.00  0.00     0.004 A 
ATOM     15  C   UNL d   1      -0.181   6.665   0.130  0.00  0.00     0.033 A 
ENDBRANCH   5   9
BRANCH   4  16
ATOM     16  N   UNL d   1      -2.027   0.931  -0.029  0.00  0.00    -0.287 NA
ATOM     17  H   UNL d   1      -2.917   1.388   0.158  0.00  0.00     0.125 HD
ATOM     18  H   UNL d   1      -1.839   0.182   0.643  0.00  0.00     0.125 HD
ENDBRANCH   4  16
BRANCH   1  19
ATOM     19  S   UNL d   1       0.942   0.005  -0.050  0.00  0.00     0.183 S 
ATOM     20  O   UNL d   1       0.050  -0.767   0.801  0.00  0.00    -0.222 OA
ATOM     21  O   UNL d   1       2.346   0.109   0.302  0.00  0.00    -0.222 OA
BRANCH  19  22
ATOM     22  C   UNL d   1       0.828  -0.624  -1.732  0.00  0.00     0.105 C 
ATOM     23  C   UNL d   1       1.769   0.119  -2.677  0.00  0.00     0.026 C 
ATOM     24  C   UNL d   1       1.145  -2.119  -1.742  0.00  0.00     0.026 C 
ENDBRANCH  19  22
ENDBRANCH   1  19
TORSDOF 4
