REMARK  6 active torsions:
REMARK  status: ('A' for Active; 'I' for Inactive)
REMARK    1  A    between atoms: N_2  and  S_1 
REMARK    2  A    between atoms: C_4  and  S_1 
REMARK    3  A    between atoms: C_3  and  N_10 
REMARK    4  A    between atoms: N_8  and  C_3 
REMARK    5  A    between atoms: C_15  and  N_8 
REMARK    6  A    between atoms: N_10  and  C_20 
ROOT
ATOM      1  C   UNL d   1       0.737   1.348  -0.672  0.00  0.00     0.079 A 
ATOM      2  C   UNL d   1      -0.326   1.540  -1.557  0.00  0.00     0.027 A 
ATOM      3  C   UNL d   1       1.355   2.448  -0.073  0.00  0.00     0.027 A 
ATOM      4  C   UNL d   1      -0.249   3.943  -1.146  0.00  0.00     0.034 A 
ATOM      5  C   UNL d   1      -0.797   2.844  -1.795  0.00  0.00     0.031 A 
ATOM      6  C   UNL d   1       0.851   3.747  -0.304  0.00  0.00     0.031 A 
ENDROOT
BRANCH   4   7
ATOM      7  N   UNL d   1      -0.761   5.263  -1.198  0.00  0.00    -0.333 N 
ATOM      8  H   UNL d   1      -0.376   5.900  -0.512  0.00  0.00     0.168 HD
BRANCH   7   9
ATOM      9  C   UNL d   1      -1.806   5.834  -1.895  0.00  0.00     0.176 C 
ATOM     10  S   UNL d   1      -2.826   5.209  -3.057  0.00  0.00    -0.041 SA
BRANCH   9  11
ATOM     11  N   UNL d   1      -2.077   7.118  -1.479  0.00  0.00    -0.333 N 
ATOM     12  H   UNL d   1      -3.007   7.411  -1.780  0.00  0.00     0.168 HD
BRANCH  11  13
ATOM     13  C   UNL d   1      -1.184   8.214  -1.524  0.00  0.00     0.037 C 
ATOM     14  C   UNL d   1      -1.723   9.432  -1.103  0.00  0.00     0.069 C 
ATOM     15  C   UNL d   1      -1.165  10.572  -1.620  0.00  0.00     0.107 C 
ATOM     16  O   UNL d   1      -1.697  11.819  -1.513  0.00  0.00    -0.323 OA
ATOM     17  C   UNL d   1      -0.068  10.532  -2.447  0.00  0.00     0.105 C 
ATOM     18  C   UNL d   1      -0.968  12.489  -2.561  0.00  0.00     0.352 C 
ATOM     19  O   UNL d   1       0.191  11.747  -3.003  0.00  0.00    -0.323 OA
ATOM     20  C   UNL d   1       0.592   9.353  -2.724  0.00  0.00     0.042 C 
ATOM     21  C   UNL d   1       0.025   8.167  -2.245  0.00  0.00     0.032 C 
ENDBRANCH  11  13
ENDBRANCH   9  11
ENDBRANCH   7   9
ENDBRANCH   4   7
BRANCH   1  22
ATOM     22  S   UNL d   1       1.118  -0.294  -0.078  0.00  0.00     0.260 S 
ATOM     23  O   UNL d   1       2.262  -0.150   0.806  0.00  0.00    -0.200 OA
ATOM     24  O   UNL d   1      -0.123  -0.855   0.408  0.00  0.00    -0.200 OA
BRANCH  22  25
ATOM     25  N   UNL d   1       1.642  -1.205  -1.409  0.00  0.00    -0.307 N 
ATOM     26  C   UNL d   1       0.633  -1.902  -2.235  0.00  0.00     0.135 C 
ATOM     27  C   UNL d   1       1.289  -3.075  -2.966  0.00  0.00     0.021 C 
ATOM     28  C   UNL d   1       2.471  -2.601  -3.802  0.00  0.00     0.003 C 
ATOM     29  C   UNL d   1       3.480  -1.877  -2.917  0.00  0.00     0.021 C 
ATOM     30  C   UNL d   1       2.836  -0.732  -2.137  0.00  0.00     0.135 C 
ENDBRANCH  22  25
ENDBRANCH   1  22
TORSDOF 6
