REMARK  7 active torsions:
REMARK  status: ('A' for Active; 'I' for Inactive)
REMARK    1  A    between atoms: C_3  and  C_1 
REMARK    2  A    between atoms: C_11  and  C_2 
REMARK    3  A    between atoms: O_17  and  C_11 
REMARK    4  A    between atoms: C_15  and  C_12 
REMARK    5  A    between atoms: O_16  and  C_15 
REMARK    6  A    between atoms: C_18  and  O_16 
REMARK    7  A    between atoms: C_20  and  O_17 
ROOT
ATOM      1  C   UNL d   1       0.366  -2.732  -0.064  0.00  0.00     0.054 A 
ATOM      2  N   UNL d   1       1.212  -3.206   0.921  0.00  0.00    -0.351 N 
ATOM      3  HN  UNL d   1       1.612  -2.640   1.669  1.00  0.00     0.166 HD
ATOM      4  C   UNL d   1       0.031  -3.653  -1.034  0.00  0.00     0.082 A 
ATOM      5  C   UNL d   1       1.427  -4.497   0.752  0.00  0.00     0.075 A 
ATOM      6  S   UNL d   1       0.722  -5.176  -0.665  0.00  0.00    -0.084 SA
ENDROOT
BRANCH   1   7
ATOM      7  C   UNL d   1      -0.060  -1.336  -0.015  0.00  0.00     0.057 A 
ATOM      8  C   UNL d   1      -0.268  -0.532   1.146  0.00  0.00     0.144 A 
ATOM      9  N   UNL d   1      -0.616   0.718   0.779  0.00  0.00    -0.254 N 
ATOM     10  O   UNL d   1      -0.653   0.731  -0.594  0.00  0.00    -0.241 OA
ATOM     11  HN  UNL d   1      -0.812   1.502   1.401  1.00  0.00     0.195 HD
ATOM     12  C   UNL d   1      -0.316  -0.493  -1.074  0.00  0.00     0.087 A 
ATOM     13  C   UNL d   1      -0.266  -0.609  -2.544  0.00  0.00     0.080 C 
BRANCH   8  14
ATOM     14  C   UNL d   1      -0.176  -0.854   2.571  0.00  0.00     0.312 C 
ATOM     15  O   UNL d   1       0.061  -0.018   3.438  0.00  0.00    -0.258 OA
BRANCH  14  16
ATOM     16  O   UNL d   1      -0.432  -2.168   2.849  0.00  0.00    -0.317 OA
BRANCH  16  17
ATOM     17  C   UNL d   1      -0.286  -2.554   4.222  0.00  0.00     0.175 C 
ATOM     18  C   UNL d   1       1.178  -2.748   4.577  0.00  0.00     0.034 C 
ENDBRANCH  16  17
ENDBRANCH  14  16
ENDBRANCH   8  14
ENDBRANCH   1   7
BRANCH   5  19
ATOM     19  C   UNL d   1       2.230  -5.366   1.677  0.00  0.00     0.240 C 
BRANCH  19  20
ATOM     20  O   UNL d   1       1.312  -5.940   2.611  0.00  0.00    -0.345 OA
BRANCH  20  21
ATOM     21  C   UNL d   1       1.842  -6.729   3.595  0.00  0.00     0.069 A 
ATOM     22  C   UNL d   1       3.180  -7.111   3.709  0.00  0.00     0.037 A 
ATOM     23  C   UNL d   1       3.588  -7.933   4.765  0.00  0.00     0.003 A 
ATOM     24  C   UNL d   1       2.666  -8.375   5.710  0.00  0.00     0.000 A 
ATOM     25  C   UNL d   1       1.329  -7.997   5.602  0.00  0.00     0.003 A 
ATOM     26  C   UNL d   1       0.921  -7.178   4.546  0.00  0.00     0.037 A 
ENDBRANCH  20  21
ENDBRANCH  19  20
ENDBRANCH   5  19
TORSDOF 7
