REMARK  1 active torsions:
REMARK  status: ('A' for Active; 'I' for Inactive)
REMARK    1  A    between atoms: C_4  and  C_1 
ROOT
ATOM      1  C   UNL d   1      -2.296   0.051   0.006  0.00  0.00     0.035 A 
ATOM      2  N   UNL d   1      -1.614   1.251   0.019  0.00  0.00    -0.344 N 
ATOM      3  HN  UNL d   1      -2.018   2.188   0.034  1.00  0.00     0.167 HD
ATOM      4  N   UNL d   1      -0.153  -0.438  -0.009  0.00  0.00    -0.317 N 
ATOM      5  C   UNL d   1      -0.335   0.939   0.008  0.00  0.00     0.111 A 
ATOM      6  C   UNL d   1      -1.401  -1.002  -0.013  0.00  0.00     0.123 A 
ATOM      7  C   UNL d   1       1.095  -1.054  -0.020  0.00  0.00     0.098 A 
ATOM      8  C   UNL d   1       0.839   1.744   0.011  0.00  0.00     0.049 A 
ATOM      9  C   UNL d   1       2.200  -0.290  -0.015  0.00  0.00     0.018 A 
ATOM     10  C   UNL d   1       2.053   1.160  -0.001  0.00  0.00     0.005 A 
ENDROOT
BRANCH   1  11
ATOM     11  C   UNL d   1      -3.806   0.028   0.013  0.00  0.00     0.005 C 
ATOM     12  C   UNL d   1      -4.364   0.767  -1.233  0.00  0.00     0.020 C 
ATOM     13  C   UNL d   1      -5.903   0.767  -1.226  0.00  0.00    -0.013 C 
ATOM     14  C   UNL d   1      -6.411  -0.684  -1.237  0.00  0.00     0.009 C 
ATOM     15  C   UNL d   1      -6.404   1.470   0.046  0.00  0.00     0.009 C 
ATOM     16  C   UNL d   1      -5.899  -1.429   0.005  0.00  0.00    -0.013 C 
ATOM     17  C   UNL d   1      -4.362  -1.424  -0.003  0.00  0.00     0.020 C 
ATOM     18  C   UNL d   1      -6.398  -0.718   1.272  0.00  0.00     0.009 C 
ATOM     19  C   UNL d   1      -5.890   0.733   1.294  0.00  0.00    -0.013 C 
ATOM     20  C   UNL d   1      -4.352   0.733   1.285  0.00  0.00     0.020 C 
ENDBRANCH   1  11
TORSDOF 1
