REMARK  6 active torsions:
REMARK  status: ('A' for Active; 'I' for Inactive)
REMARK    1  A    between atoms: N_2  and  S_1 
REMARK    2  A    between atoms: C_4  and  S_1 
REMARK    3  A    between atoms: C_3  and  N_10 
REMARK    4  A    between atoms: N_7  and  C_3 
REMARK    5  A    between atoms: C_12  and  N_7 
REMARK    6  A    between atoms: N_10  and  C_17 
ROOT
ATOM      1  C   UNL d   1       1.107   0.809  -1.590  0.00  0.00     0.079 A 
ATOM      2  C   UNL d   1       1.023  -0.235  -2.516  0.00  0.00     0.027 A 
ATOM      3  C   UNL d   1       0.675   2.092  -1.940  0.00  0.00     0.027 A 
ATOM      4  C   UNL d   1      -0.040   1.262  -4.110  0.00  0.00     0.034 A 
ATOM      5  C   UNL d   1       0.116   2.316  -3.203  0.00  0.00     0.031 A 
ATOM      6  C   UNL d   1       0.440  -0.008  -3.769  0.00  0.00     0.031 A 
ENDROOT
BRANCH   4   7
ATOM      7  N   UNL d   1      -0.815   1.395  -5.284  0.00  0.00    -0.333 N 
ATOM      8  H   UNL d   1      -1.145   0.534  -5.707  0.00  0.00     0.168 HD
BRANCH   7   9
ATOM      9  C   UNL d   1      -1.076   2.522  -6.015  0.00  0.00     0.176 C 
ATOM     10  S   UNL d   1       0.020   3.753  -6.322  0.00  0.00    -0.041 SA
BRANCH   9  11
ATOM     11  N   UNL d   1      -2.277   2.588  -6.668  0.00  0.00    -0.333 N 
ATOM     12  H   UNL d   1      -2.286   3.313  -7.379  0.00  0.00     0.168 HD
BRANCH  11  13
ATOM     13  C   UNL d   1      -3.498   1.907  -6.477  0.00  0.00     0.037 A 
ATOM     14  C   UNL d   1      -3.806   1.138  -5.357  0.00  0.00     0.072 A 
ATOM     15  C   UNL d   1      -5.019   0.451  -5.299  0.00  0.00     0.124 A 
ATOM     16  F   UNL d   1      -5.274  -0.310  -4.224  0.00  0.00    -0.205 F 
ATOM     17  C   UNL d   1      -5.956   0.524  -6.331  0.00  0.00    -0.023 A 
ATOM     18  C   UNL d   1      -5.680   1.359  -7.417  0.00  0.00     0.012 A 
ATOM     19  C   UNL d   1      -7.177  -0.344  -6.329  0.00  0.00     0.051 C 
ATOM     20  C   UNL d   1      -4.467   2.054  -7.480  0.00  0.00     0.030 A 
ENDBRANCH  11  13
ENDBRANCH   9  11
ENDBRANCH   7   9
ENDBRANCH   4   7
BRANCH   1  21
ATOM     21  S   UNL d   1       1.452   0.446   0.128  0.00  0.00     0.260 S 
ATOM     22  O   UNL d   1       0.724   1.412   0.918  0.00  0.00    -0.200 OA
ATOM     23  O   UNL d   1       1.222  -0.978   0.309  0.00  0.00    -0.200 OA
BRANCH  21  24
ATOM     24  N   UNL d   1       3.110   0.736   0.320  0.00  0.00    -0.307 N 
ATOM     25  C   UNL d   1       4.038  -0.193  -0.357  0.00  0.00     0.135 C 
ATOM     26  C   UNL d   1       5.397  -0.132   0.335  0.00  0.00     0.021 C 
ATOM     27  C   UNL d   1       5.941   1.294   0.328  0.00  0.00     0.003 C 
ATOM     28  C   UNL d   1       4.939   2.250   0.968  0.00  0.00     0.021 C 
ATOM     29  C   UNL d   1       3.559   2.147   0.317  0.00  0.00     0.135 C 
ENDBRANCH  21  24
ENDBRANCH   1  21
TORSDOF 6
