REMARK  4 active torsions:
REMARK  status: ('A' for Active; 'I' for Inactive)
REMARK    1  A    between atoms: C_4  and  S_1 
REMARK    2  A    between atoms: C_7  and  S_1 
REMARK    3  A    between atoms: N_2  and  C_3 
REMARK    4  A    between atoms: O_16  and  C_5 
ROOT
ATOM      1  C   UNL d   1      -0.225  -2.447   3.566  0.00  0.00     0.136 A 
ATOM      2  C   UNL d   1       0.412  -0.912   1.351  0.00  0.00     0.067 A 
ATOM      3  C   UNL d   1       0.321  -3.067   2.439  0.00  0.00     0.100 A 
ATOM      4  C   UNL d   1       0.642  -2.296   1.323  0.00  0.00     0.062 A 
ATOM      5  C   UNL d   1      -0.442  -1.062   3.606  0.00  0.00     0.040 A 
ATOM      6  C   UNL d   1      -0.117  -0.290   2.490  0.00  0.00     0.026 A 
ENDROOT
BRANCH   2   7
ATOM      7  S   UNL d   1       0.932   0.084  -0.033  0.00  0.00     0.206 S 
ATOM      8  O   UNL d   1       1.989  -0.649  -0.705  0.00  0.00    -0.217 OA
ATOM      9  O   UNL d   1       1.177   1.422   0.473  0.00  0.00    -0.217 OA
BRANCH   7  10
ATOM     10  C   UNL d   1      -0.440   0.183  -1.161  0.00  0.00     0.064 A 
ATOM     11  C   UNL d   1      -1.315   1.273  -1.094  0.00  0.00     0.025 A 
ATOM     12  C   UNL d   1      -2.342   1.389  -2.034  0.00  0.00     0.025 A 
ATOM     13  C   UNL d   1      -2.482   0.427  -3.034  0.00  0.00     0.034 A 
ATOM     14  C   UNL d   1      -1.605  -0.656  -3.104  0.00  0.00     0.025 A 
ATOM     15 CL   UNL d   1      -3.734   0.586  -4.203  0.00  0.00    -0.084 Cl
ATOM     16  C   UNL d   1      -0.575  -0.779  -2.169  0.00  0.00     0.025 A 
ENDBRANCH   7  10
ENDBRANCH   2   7
BRANCH   3  17
ATOM     17  O   UNL d   1       0.577  -4.407   2.435  0.00  0.00    -0.358 OA
ATOM     18  H   UNL d   1       0.969  -4.679   1.587  0.00  0.00     0.217 HD
ENDBRANCH   3  17
BRANCH   1  19
ATOM     19  N   UNL d   1      -0.564  -3.226   4.740  0.00  0.00    -0.113 N 
ATOM     20  O   UNL d   1      -1.430  -4.103   4.616  0.00  0.00    -0.532 OA
ATOM     21  O   UNL d   1      -0.012  -2.903   5.803  0.00  0.00    -0.532 OA
ENDBRANCH   1  19
TORSDOF 4
