REMARK  0 active torsions:
REMARK  status: ('A' for Active; 'I' for Inactive)
REMARK       I    between atoms: C_3  and  N_1 
ROOT
ATOM      1  N   UNL d   1       1.458   1.214  -0.013  0.00  0.00    -0.318 N 
ATOM      2  C   UNL d   1       0.141   0.706   0.041  0.00  0.00     0.043 A 
ATOM      3  C   UNL d   1       1.990   2.480  -0.090  0.00  0.00     0.220 C 
ATOM      4  C   UNL d   1       2.386   0.078   0.099  0.00  0.00     0.137 C 
ATOM      5  C   UNL d   1       0.182  -0.693   0.001  0.00  0.00    -0.030 A 
ATOM      6  O   UNL d   1       3.220   2.651  -0.046  0.00  0.00    -0.273 OA
ATOM      7  C   UNL d   1       1.583  -1.203  -0.105  0.00  0.00     0.061 C 
ATOM      8  C   UNL d   1      -1.086   1.345   0.132  0.00  0.00     0.030 A 
ATOM      9  C   UNL d   1       1.129   3.701  -0.235  0.00  0.00     0.117 C 
ATOM     10  C   UNL d   1      -0.970  -1.472   0.012  0.00  0.00     0.009 A 
ATOM     11  C   UNL d   1      -2.257   0.571   0.137  0.00  0.00     0.002 A 
ATOM     12  C   UNL d   1      -2.201  -0.826   0.070  0.00  0.00     0.001 A 
ENDROOT
TORSDOF 0
