REMARK  6 active torsions:
REMARK  status: ('A' for Active; 'I' for Inactive)
REMARK    1  A    between atoms: N_2  and  C_1 
REMARK    2  A    between atoms: C_11  and  N_5 
REMARK    3  A    between atoms: O_12  and  C_7 
REMARK    4  A    between atoms: C_20  and  C_13 
REMARK    5  A    between atoms: C_21  and  C_20 
REMARK    6  A    between atoms: C_22  and  C_21 
ROOT
ATOM      1  N   UNL d   1       1.305  -2.537  -0.071  0.00  0.00    -0.297 N 
ATOM      2  HN  UNL d   1       0.608  -3.202  -0.407  1.00  0.00     0.187 HD
ATOM      3  N   UNL d   1       2.466  -2.866   0.243  0.00  0.00    -0.300 N 
ATOM      4  HN  UNL d   1       3.156  -2.212   0.615  1.00  0.00     0.187 HD
ENDROOT
BRANCH   1   5
ATOM      5  C   UNL d   1       1.043  -1.149   0.083  0.00  0.00     0.092 A 
ATOM      6  C   UNL d   1      -0.250  -0.733   0.508  0.00  0.00     0.005 A 
ATOM      7  C   UNL d   1      -0.557   0.652   0.554  0.00  0.00    -0.024 A 
ATOM      8  C   UNL d   1      -1.267  -1.642   0.883  0.00  0.00     0.014 A 
ATOM      9  C   UNL d   1      -1.839   1.077   0.943  0.00  0.00     0.012 A 
ATOM     10  C   UNL d   1       0.414   1.597   0.199  0.00  0.00     0.015 A 
ATOM     11  C   UNL d   1      -2.821   0.155   1.299  0.00  0.00     0.001 A 
ATOM     12  C   UNL d   1      -2.535  -1.203   1.274  0.00  0.00     0.001 A 
ATOM     13  C   UNL d   1       1.682   1.195  -0.208  0.00  0.00     0.040 A 
ATOM     14  C   UNL d   1       1.983  -0.160  -0.272  0.00  0.00     0.094 A 
BRANCH  14  15
ATOM     15  O   UNL d   1       3.239  -0.476  -0.724  0.00  0.00    -0.358 OA
ATOM     16  H   UNL d   1       3.307  -1.449  -0.656  0.00  0.00     0.217 HD
ENDBRANCH  14  15
ENDBRANCH   1   5
BRANCH   3  17
ATOM     17  C   UNL d   1       2.727  -4.239   0.030  0.00  0.00     0.048 A 
ATOM     18  C   UNL d   1       2.043  -5.034  -0.902  0.00  0.00     0.031 A 
ATOM     19  C   UNL d   1       2.351  -6.391  -1.057  0.00  0.00     0.009 A 
ATOM     20  C   UNL d   1       3.359  -6.981  -0.287  0.00  0.00    -0.058 A 
ATOM     21  C   UNL d   1       4.080  -6.181   0.607  0.00  0.00     0.009 A 
ATOM     22  C   UNL d   1       3.762  -4.827   0.762  0.00  0.00     0.031 A 
BRANCH  20  23
ATOM     23  C   UNL d   1       3.651  -8.458  -0.414  0.00  0.00     0.038 C 
BRANCH  23  24
ATOM     24  C   UNL d   1       3.482  -9.241   0.895  0.00  0.00     0.004 C 
BRANCH  24  25
ATOM     25  C   UNL d   1       2.052  -9.201   1.443  0.00  0.00    -0.004 C 
ATOM     26  C   UNL d   1       1.937  -9.984   2.742  0.00  0.00     0.005 C 
ENDBRANCH  24  25
ENDBRANCH  23  24
ENDBRANCH  20  23
ENDBRANCH   3  17
TORSDOF 6
