REMARK  3 active torsions:
REMARK  status: ('A' for Active; 'I' for Inactive)
REMARK    1  A    between atoms: C_3  and  N_6 
REMARK    2  A    between atoms: C_4  and  C_9 
REMARK       I    between atoms: C_5  and  N_6 
REMARK    3  A    between atoms: C_11  and  C_5 
ROOT
ATOM      1  C   UNL d   1      -1.833  -2.251  -2.455  0.00  0.00     0.252 C 
ATOM      2  N   UNL d   1      -1.155  -1.131  -1.992  0.00  0.00    -0.351 N 
ATOM      3  O   UNL d   1      -2.436  -3.035  -1.741  0.00  0.00    -0.268 OA
ATOM      4  H   UNL d   1      -0.544  -0.645  -2.630  0.00  0.00     0.163 HD
ENDROOT
BRANCH   1   5
ATOM      5  C   UNL d   1      -1.748  -2.471  -3.934  0.00  0.00     0.032 A 
ATOM      6  C   UNL d   1      -1.618  -3.777  -4.424  0.00  0.00     0.033 A 
ATOM      7  C   UNL d   1      -1.364  -4.003  -5.791  0.00  0.00     0.048 A 
ATOM      8  C   UNL d   1      -1.361  -2.909  -6.673  0.00  0.00     0.016 A 
ATOM      9  C   UNL d   1      -1.580  -1.615  -6.197  0.00  0.00     0.002 A 
ATOM     10  C   UNL d   1      -1.755  -1.394  -4.829  0.00  0.00     0.017 A 
BRANCH   7  11
ATOM     11  C   UNL d   1      -1.001  -5.376  -6.306  0.00  0.00     0.417 C 
ATOM     12  F   UNL d   1      -0.994  -6.340  -5.345  0.00  0.00    -0.166 F 
ATOM     13  F   UNL d   1      -1.839  -5.821  -7.283  0.00  0.00    -0.166 F 
ATOM     14  F   UNL d   1       0.248  -5.393  -6.855  0.00  0.00    -0.166 F 
ENDBRANCH   7  11
ENDBRANCH   1   5
BRANCH   2  15
ATOM     15  C   UNL d   1      -1.168  -0.693  -0.599  0.00  0.00     0.094 C 
ATOM     16  C   UNL d   1       0.051  -1.147   0.289  0.00  0.00    -0.016 C 
ATOM     17  C   UNL d   1       0.062  -0.068   1.430  0.00  0.00    -0.035 C 
ATOM     18  C   UNL d   1       1.360  -0.821  -0.478  0.00  0.00     0.012 C 
ATOM     19  C   UNL d   1      -0.019  -2.589   0.758  0.00  0.00     0.018 C 
ATOM     20  C   UNL d   1       0.157   1.081   0.399  0.00  0.00    -0.004 C 
ATOM     21  C   UNL d   1       1.257  -0.108   2.407  0.00  0.00     0.016 C 
ATOM     22  C   UNL d   1      -1.200  -0.023   2.315  0.00  0.00     0.016 C 
ATOM     23  C   UNL d   1       1.407   0.716  -0.436  0.00  0.00     0.006 C 
ATOM     24  C   UNL d   1      -1.069   0.852  -0.512  0.00  0.00     0.031 C 
ENDBRANCH   2  15
TORSDOF 3
