REMARK  2 active torsions:
REMARK  status: ('A' for Active; 'I' for Inactive)
REMARK       I    between atoms: N_2  and  C_1 
REMARK    1  A    between atoms: C_3  and  C_1 
REMARK    2  A    between atoms: C_7  and  N_2 
ROOT
ATOM      1  C   UNL d   1       0.957   0.039  -0.015  0.00  0.00     0.252 C 
ATOM      2  N   UNL d   1       0.298  -0.062  -1.226  0.00  0.00    -0.351 N 
ATOM      3  O   UNL d   1       2.177   0.126   0.076  0.00  0.00    -0.268 OA
ATOM      4  H   UNL d   1      -0.703   0.084  -1.266  0.00  0.00     0.163 HD
ENDROOT
BRANCH   1   5
ATOM      5  C   UNL d   1       0.126   0.059   1.218  0.00  0.00     0.033 A 
ATOM      6  C   UNL d   1       0.652   0.683   2.356  0.00  0.00     0.041 A 
ATOM      7  C   UNL d   1      -0.070   0.692   3.545  0.00  0.00     0.035 A 
ATOM      8 CL   UNL d   1       0.581   1.461   4.937  0.00  0.00    -0.084 Cl
ATOM      9  C   UNL d   1      -1.320   0.073   3.616  0.00  0.00     0.024 A 
ATOM     10  C   UNL d   1      -1.845  -0.559   2.488  0.00  0.00     0.003 A 
ATOM     11  C   UNL d   1      -1.126  -0.569   1.288  0.00  0.00     0.017 A 
ENDBRANCH   1   5
BRANCH   2  12
ATOM     12  C   UNL d   1       1.051  -0.033  -2.481  0.00  0.00     0.094 C 
ATOM     13  C   UNL d   1       1.304   1.398  -2.961  0.00  0.00     0.036 C 
ATOM     14  C   UNL d   1       0.007   1.912  -3.561  0.00  0.00     0.076 C 
ATOM     15  S   UNL d   1      -0.702   0.498  -4.446  0.00  0.00    -0.167 SA
ATOM     16  C   UNL d   1       0.324  -0.754  -3.616  0.00  0.00     0.099 C 
ENDBRANCH   2  12
TORSDOF 2
