REMARK  3 active torsions:
REMARK  status: ('A' for Active; 'I' for Inactive)
REMARK    1  A    between atoms: N_8  and  C_2 
REMARK    2  A    between atoms: N_9  and  N_8 
REMARK       I    between atoms: C_10  and  N_9 
REMARK    3  A    between atoms: C_12  and  C_10 
ROOT
ATOM      1  N   UNL d   1      -2.797   0.070  -0.042  0.00  0.00    -0.291 N 
ATOM      2  C   UNL d   1      -3.925   1.027  -0.027  0.00  0.00     0.178 C 
ENDROOT
BRANCH   1   3
ATOM      3  C   UNL d   1      -1.481   0.471  -0.356  0.00  0.00     0.094 C 
ATOM      4  C   UNL d   1      -0.432  -0.214  -0.853  0.00  0.00     0.133 C 
ATOM      5  C   UNL d   1       0.801   0.480  -1.355  0.00  0.00     0.285 C 
ATOM      6 CL   UNL d   1      -0.459  -1.928  -1.135  0.00  0.00    -0.076 Cl
ATOM      7  N   UNL d   1       0.749   1.869  -1.339  0.00  0.00    -0.261 N 
ATOM      8  O   UNL d   1       1.745  -0.150  -1.831  0.00  0.00    -0.265 OA
ATOM      9  N   UNL d   1      -0.119   2.562  -0.545  0.00  0.00    -0.305 N 
ATOM     10  C   UNL d   1       1.798   2.644  -1.975  0.00  0.00     0.181 C 
ATOM     11  C   UNL d   1      -1.110   1.889  -0.063  0.00  0.00     0.140 C 
ATOM     12  HN  UNL d   1       0.008   3.554  -0.344  1.00  0.00     0.186 HD
ENDBRANCH   1   3
BRANCH   1  13
ATOM     13  N   UNL d   1      -3.234  -1.266  -0.299  0.00  0.00    -0.264 N 
ATOM     14  C   UNL d   1      -4.226  -1.848   0.483  0.00  0.00     0.270 C 
ATOM     15  O   UNL d   1      -4.705  -1.357   1.498  0.00  0.00    -0.266 OA
ATOM     16  H   UNL d   1      -2.979  -1.641  -1.207  0.00  0.00     0.190 HD
BRANCH  14  17
ATOM     17  C   UNL d   1      -4.787  -3.126  -0.039  0.00  0.00     0.033 A 
ATOM     18  C   UNL d   1      -4.000  -4.074  -0.706  0.00  0.00     0.019 A 
ATOM     19  C   UNL d   1      -4.587  -5.251  -1.185  0.00  0.00     0.025 A 
ATOM     20  C   UNL d   1      -5.948  -5.483  -0.998  0.00  0.00     0.034 A 
ATOM     21  C   UNL d   1      -6.736  -4.552  -0.326  0.00  0.00     0.025 A 
ATOM     22 CL   UNL d   1      -6.657  -6.926  -1.589  0.00  0.00    -0.084 Cl
ATOM     23  C   UNL d   1      -6.154  -3.376   0.159  0.00  0.00     0.019 A 
ENDBRANCH  14  17
ENDBRANCH   1  13
TORSDOF 3
