REMARK  4 active torsions:
REMARK  status: ('A' for Active; 'I' for Inactive)
REMARK    1  A    between atoms: C_12  and  C_2 
REMARK    2  A    between atoms: C_4  and  S_11 
REMARK    3  A    between atoms: N_15  and  C_6 
REMARK    4  A    between atoms: S_11  and  C_12 
ROOT
ATOM      1  S   UNL d   1       2.954   2.140   5.577  0.00  0.00    -0.027 SA
ATOM      2  C   UNL d   1       2.427   2.635   4.026  0.00  0.00     0.130 A 
ATOM      3  C   UNL d   1       4.436   2.945   5.247  0.00  0.00     0.159 A 
ATOM      4  N   UNL d   1       3.296   3.365   3.364  0.00  0.00    -0.286 N 
ATOM      5  HN  UNL d   1       3.128   3.752   2.434  1.00  0.00     0.188 HD
ATOM      6  N   UNL d   1       4.464   3.546   4.078  0.00  0.00    -0.279 N 
ATOM      7  HN  UNL d   1       5.259   4.086   3.737  1.00  0.00     0.189 HD
ENDROOT
BRANCH   2   8
ATOM      8  S   UNL d   1       0.864   2.212   3.368  0.00  0.00    -0.103 SA
BRANCH   8   9
ATOM      9  C   UNL d   1       1.272   2.180   1.598  0.00  0.00     0.089 C 
BRANCH   9  10
ATOM     10  C   UNL d   1       0.066   1.719   0.838  0.00  0.00     0.037 A 
ATOM     11  C   UNL d   1       0.065   1.668  -0.672  0.00  0.00     0.118 A 
ATOM     12  C   UNL d   1      -0.758   2.702   0.045  0.00  0.00     0.051 A 
ATOM     13 CL   UNL d   1      -0.794   0.332  -1.437  0.00  0.00    -0.101 Cl
ATOM     14 CL   UNL d   1       1.463   2.209  -1.583  0.00  0.00    -0.101 Cl
ENDBRANCH   9  10
ENDBRANCH   8   9
ENDBRANCH   2   8
BRANCH   3  15
ATOM     15  N   UNL d   1       5.450   2.949   6.130  0.00  0.00    -0.379 N 
ATOM     16  H   UNL d   1       5.256   2.736   7.102  0.00  0.00     0.158 HD
ATOM     17  H   UNL d   1       6.178   3.640   5.984  0.00  0.00     0.158 HD
ENDBRANCH   3  15
TORSDOF 4
