REMARK  9 active torsions:
REMARK  status: ('A' for Active; 'I' for Inactive)
REMARK    1  A    between atoms: N_2  and  C_1 
REMARK    2  A    between atoms: C_4  and  C_1 
REMARK    3  A    between atoms: N_6  and  C_1 
REMARK    4  A    between atoms: C_7  and  C_1 
REMARK       I    between atoms: C_3  and  N_2 
REMARK    5  A    between atoms: C_5  and  C_3 
REMARK    6  A    between atoms: C_16  and  N_6 
REMARK    7  A    between atoms: O_18  and  C_7 
REMARK    8  A    between atoms: C_17  and  C_16 
REMARK    9  A    between atoms: C_23  and  O_18 
ROOT
ATOM      1  C   UNL d   1       1.056   0.090   0.043  0.00  0.00     0.416 C 
ENDROOT
BRANCH   1   2
ATOM      2  N   UNL d   1       0.642   1.395   0.608  0.00  0.00    -0.306 N 
ATOM      3  C   UNL d   1       1.124   1.976   1.748  0.00  0.00     0.256 C 
ATOM      4  O   UNL d   1       2.031   1.475   2.413  0.00  0.00    -0.268 OA
ATOM      5  H   UNL d   1      -0.171   1.804   0.162  0.00  0.00     0.166 HD
BRANCH   3   6
ATOM      6  C   UNL d   1       0.582   3.314   2.143  0.00  0.00     0.053 A 
ATOM      7  C   UNL d   1      -0.566   3.926   1.620  0.00  0.00     0.049 A 
ATOM      8 CL   UNL d   1      -1.688   3.154   0.553  0.00  0.00    -0.083 Cl
ATOM      9  C   UNL d   1      -0.883   5.245   1.979  0.00  0.00     0.025 A 
ATOM     10  C   UNL d   1      -0.088   5.947   2.883  0.00  0.00     0.002 A 
ATOM     11  C   UNL d   1       1.014   5.327   3.458  0.00  0.00     0.001 A 
ATOM     12  C   UNL d   1       1.345   4.022   3.093  0.00  0.00     0.019 A 
ENDBRANCH   3   6
ENDBRANCH   1   2
BRANCH   1  13
ATOM     13  C   UNL d   1       0.620   0.033  -1.486  0.00  0.00     0.453 C 
ATOM     14  F   UNL d   1      -0.217   1.071  -1.774  0.00  0.00    -0.166 F 
ATOM     15  F   UNL d   1       1.639   0.117  -2.370  0.00  0.00    -0.166 F 
ATOM     16  F   UNL d   1      -0.068  -1.100  -1.779  0.00  0.00    -0.166 F 
ENDBRANCH   1  13
BRANCH   1  17
ATOM     17  N   UNL d   1       0.379  -0.979   0.841  0.00  0.00     0.138 N 
ATOM     18  H   UNL d   1       0.505  -1.867   0.341  0.00  0.00     0.320 HD
BRANCH  17  19
ATOM     19  C   UNL d   1       0.929  -1.205   2.182  0.00  0.00     0.331 C 
BRANCH  19  20
ATOM     20  C   UNL d   1       0.300  -2.416   2.853  0.00  0.00     0.037 A 
ATOM     21  N   UNL d   1       0.507  -3.632   2.284  0.00  0.00    -0.368 N 
ATOM     22  C   UNL d   1      -0.027  -4.702   2.913  0.00  0.00     0.088 A 
ATOM     23  HN  UNL d   1       1.041  -3.732   1.420  1.00  0.00     0.165 HD
ATOM     24  C   UNL d   1      -0.766  -4.624   4.083  0.00  0.00     0.017 A 
ATOM     25  C   UNL d   1      -0.975  -3.373   4.647  0.00  0.00     0.003 A 
ATOM     26  C   UNL d   1      -0.436  -2.252   4.027  0.00  0.00     0.027 A 
ENDBRANCH  19  20
ENDBRANCH  17  19
ENDBRANCH   1  17
BRANCH   1  27
ATOM     27  C   UNL d   1       2.584  -0.098  -0.083  0.00  0.00     0.329 C 
ATOM     28  O   UNL d   1       3.151  -1.184  -0.154  0.00  0.00    -0.260 OA
BRANCH  27  29
ATOM     29  O   UNL d   1       3.219   1.112  -0.197  0.00  0.00    -0.318 OA
BRANCH  29  30
ATOM     30  C   UNL d   1       4.647   1.099  -0.092  0.00  0.00     0.174 C 
ATOM     31  C   UNL d   1       5.029   1.271   1.367  0.00  0.00     0.034 C 
ENDBRANCH  29  30
ENDBRANCH  27  29
ENDBRANCH   1  27
TORSDOF 9
