REMARK  4 active torsions:
REMARK  status: ('A' for Active; 'I' for Inactive)
REMARK    1  A    between atoms: S_11  and  C_4 
REMARK    2  A    between atoms: C_15  and  S_11 
REMARK    3  A    between atoms: C_13  and  C_15 
REMARK    4  A    between atoms: O_16  and  C_13 
ROOT
ATOM      1  C   UNL d   1       0.175  -0.771   0.025  0.00  0.00     0.065 A 
ATOM      2  S   UNL d   1      -1.395  -1.479   0.044  0.00  0.00    -0.096 SA
ATOM      3  C   UNL d   1       0.080   0.621  -0.009  0.00  0.00     0.059 A 
ATOM      4  C   UNL d   1       1.447  -1.347   0.036  0.00  0.00     0.090 A 
ATOM      5  C   UNL d   1      -1.277   1.093  -0.022  0.00  0.00    -0.027 A 
ATOM      6  C   UNL d   1      -2.169   0.039   0.009  0.00  0.00     0.059 A 
ATOM      7  N   UNL d   1       2.535  -0.548   0.004  0.00  0.00    -0.346 N 
ATOM      8  HN  UNL d   1       3.477  -0.941   0.001  1.00  0.00     0.167 HD
ATOM      9  N   UNL d   1       1.174   1.423  -0.034  0.00  0.00    -0.351 N 
ATOM     10  HN  UNL d   1       1.110   2.441  -0.059  1.00  0.00     0.166 HD
ATOM     11  C   UNL d   1       2.339   0.775  -0.021  0.00  0.00     0.181 A 
ATOM     12  C   UNL d   1      -1.680   2.530  -0.065  0.00  0.00     0.051 C 
ENDROOT
BRANCH   4  13
ATOM     13  S   UNL d   1       1.685  -3.107   0.028  0.00  0.00    -0.101 SA
BRANCH  13  14
ATOM     14  C   UNL d   1       3.316  -3.219   0.838  0.00  0.00     0.191 C 
BRANCH  14  15
ATOM     15  C   UNL d   1       3.287  -2.754   2.280  0.00  0.00     0.268 C 
ATOM     16  O   UNL d   1       2.314  -2.345   2.901  0.00  0.00    -0.264 OA
BRANCH  15  17
ATOM     17  O   UNL d   1       4.537  -2.887   2.819  0.00  0.00    -0.326 OA
ATOM     18  C   UNL d   1       4.620  -2.488   4.190  0.00  0.00     0.213 C 
ENDBRANCH  15  17
ENDBRANCH  14  15
ENDBRANCH  13  14
ENDBRANCH   4  13
TORSDOF 4
