REMARK  2 active torsions:
REMARK  status: ('A' for Active; 'I' for Inactive)
REMARK    1  A    between atoms: C_4  and  C_3 
REMARK    2  A    between atoms: O_14  and  C_7 
ROOT
ATOM      1  N   UNL d   1       1.141   1.339  -0.049  0.00  0.00    -0.352 N 
ATOM      2  HN  UNL d   1       1.104   2.358  -0.074  1.00  0.00     0.166 HD
ATOM      3  C   UNL d   1       2.342   0.695  -0.045  0.00  0.00     0.119 A 
ATOM      4  C   UNL d   1      -0.011  -0.789   0.025  0.00  0.00     0.024 A 
ATOM      5  C   UNL d   1       0.006   0.621  -0.018  0.00  0.00     0.045 A 
ATOM      6  C   UNL d   1       1.247  -1.423   0.024  0.00  0.00     0.080 A 
ATOM      7  C   UNL d   1       2.425  -0.689  -0.007  0.00  0.00     0.071 A 
ATOM      8  C   UNL d   1      -1.262  -1.456   0.061  0.00  0.00     0.023 A 
ATOM      9  C   UNL d   1      -1.199   1.305  -0.038  0.00  0.00     0.031 A 
ATOM     10  C   UNL d   1      -2.470  -0.748   0.020  0.00  0.00    -0.061 A 
ATOM     11  C   UNL d   1      -2.429   0.643  -0.025  0.00  0.00     0.009 A 
ATOM     12  C   UNL d   1      -3.777  -1.485   0.041  0.00  0.00     0.048 C 
ENDROOT
BRANCH   3  13
ATOM     13  C   UNL d   1       3.628   1.507  -0.102  0.00  0.00     0.432 C 
ATOM     14  F   UNL d   1       3.440   2.857  -0.127  0.00  0.00    -0.165 F 
ATOM     15  F   UNL d   1       4.446   1.268   0.965  0.00  0.00    -0.165 F 
ATOM     16  F   UNL d   1       4.378   1.218  -1.206  0.00  0.00    -0.165 F 
ENDBRANCH   3  13
BRANCH   6  17
ATOM     17  O   UNL d   1       1.414  -2.782   0.039  0.00  0.00    -0.360 OA
ATOM     18  H   UNL d   1       0.563  -3.221  -0.109  0.00  0.00     0.217 HD
ENDBRANCH   6  17
TORSDOF 2
