REMARK  6 active torsions:
REMARK  status: ('A' for Active; 'I' for Inactive)
REMARK    1  A    between atoms: N_6  and  C_3 
REMARK    2  A    between atoms: N_7  and  C_4 
REMARK    3  A    between atoms: N_8  and  C_5 
REMARK       I    between atoms: C_9  and  N_8 
REMARK    4  A    between atoms: C_10  and  C_9 
REMARK    5  A    between atoms: C_11  and  C_12 
REMARK    6  A    between atoms: O_19  and  C_11 
ROOT
ATOM      1  N   UNL d   1      -1.472   0.158  -0.017  0.00  0.00    -0.331 N 
ATOM      2  HN  UNL d   1      -2.474   0.267   0.137  1.00  0.00     0.168 HD
ATOM      3  C   UNL d   1      -0.661   1.251  -0.051  0.00  0.00     0.111 A 
ATOM      4  C   UNL d   1      -0.937  -1.079  -0.188  0.00  0.00     0.104 A 
ATOM      5  C   UNL d   1       0.735   1.115  -0.259  0.00  0.00     0.074 A 
ATOM      6  C   UNL d   1       0.415  -1.235  -0.489  0.00  0.00     0.051 A 
ATOM      7  C   UNL d   1       1.264  -0.139  -0.530  0.00  0.00     0.037 A 
ENDROOT
BRANCH   5   8
ATOM      8  N   UNL d   1       1.596   2.189   0.033  0.00  0.00    -0.321 N 
ATOM      9  C   UNL d   1       2.654   2.700  -0.659  0.00  0.00     0.246 C 
ATOM     10  O   UNL d   1       3.311   3.620  -0.174  0.00  0.00    -0.268 OA
ATOM     11  H   UNL d   1       1.253   2.819   0.751  0.00  0.00     0.169 HD
BRANCH   9  12
ATOM     12  C   UNL d   1       2.850   2.296  -2.070  0.00  0.00     0.081 C 
ATOM     13  C   UNL d   1       3.563   3.120  -2.855  0.00  0.00     0.086 C 
BRANCH  13  14
ATOM     14  C   UNL d   1       3.677   2.837  -4.294  0.00  0.00     0.165 C 
ATOM     15  O   UNL d   1       3.183   1.870  -4.845  0.00  0.00    -0.647 OA
BRANCH  14  16
ATOM     16  O   UNL d   1       4.376   3.788  -4.946  0.00  0.00    -0.773 OA
ATOM     17  H   UNL d   1       4.721   4.515  -4.395  0.00  0.00     0.167 HD
ENDBRANCH  14  16
ENDBRANCH  13  14
ENDBRANCH   9  12
ENDBRANCH   5   8
BRANCH   3  18
ATOM     18  N   UNL d   1      -1.208   2.533   0.186  0.00  0.00    -0.263 NA
ATOM     19  C   UNL d   1      -0.928   3.573  -0.836  0.00  0.00     0.123 C 
ATOM     20  C   UNL d   1      -1.307   4.936  -0.234  0.00  0.00     0.182 C 
ATOM     21  O   UNL d   1      -2.709   4.977   0.072  0.00  0.00    -0.389 OA
ATOM     22  C   UNL d   1      -3.052   3.938   1.008  0.00  0.00     0.182 C 
ATOM     23  C   UNL d   1      -2.652   2.533   0.509  0.00  0.00     0.123 C 
ENDBRANCH   3  18
BRANCH   4  24
ATOM     24  N   UNL d   1      -1.728  -2.218  -0.085  0.00  0.00    -0.363 N 
ATOM     25  C   UNL d   1      -3.177  -2.117  -0.309  0.00  0.00     0.150 C 
ATOM     26  C   UNL d   1      -3.985  -2.200   0.993  0.00  0.00     0.187 C 
ATOM     27  O   UNL d   1      -3.604  -3.334   1.790  0.00  0.00    -0.388 OA
ATOM     28  C   UNL d   1      -2.218  -3.227   2.142  0.00  0.00     0.187 C 
ATOM     29  C   UNL d   1      -1.321  -3.244   0.894  0.00  0.00     0.150 C 
ENDBRANCH   4  24
TORSDOF 6
