REMARK  5 active torsions:
REMARK  status: ('A' for Active; 'I' for Inactive)
REMARK    1  A    between atoms: C_16  and  N_1 
REMARK    2  A    between atoms: C_12  and  C_2 
REMARK    3  A    between atoms: S_9  and  C_3 
REMARK    4  A    between atoms: C_6  and  S_9 
REMARK    5  A    between atoms: O_24  and  C_18 
ROOT
ATOM      1  N   UNL d   1      -0.351  -1.587  -0.108  0.00  0.00    -0.274 N 
ATOM      2  C   UNL d   1       0.803  -0.800  -0.318  0.00  0.00     0.142 A 
ATOM      3  C   UNL d   1      -1.388  -0.680  -0.349  0.00  0.00     0.174 A 
ATOM      4  N   UNL d   1       0.447   0.447  -0.556  0.00  0.00    -0.282 N 
ATOM      5  HN  UNL d   1       1.085   1.229  -0.703  1.00  0.00     0.188 HD
ATOM      6  N   UNL d   1      -0.908   0.520  -0.575  0.00  0.00    -0.277 N 
ATOM      7  HN  UNL d   1      -1.458   1.363  -0.737  1.00  0.00     0.189 HD
ENDROOT
BRANCH   3   8
ATOM      8  S   UNL d   1      -3.095  -0.912  -0.156  0.00  0.00    -0.027 SA
BRANCH   8   9
ATOM      9  C   UNL d   1      -3.477  -1.560  -1.747  0.00  0.00     0.120 A 
ATOM     10  N   UNL d   1      -4.278  -2.603  -1.810  0.00  0.00    -0.344 N 
ATOM     11  C   UNL d   1      -4.300  -3.110  -3.092  0.00  0.00     0.050 A 
ATOM     12  HN  UNL d   1      -4.807  -2.981  -1.024  1.00  0.00     0.167 HD
ATOM     13  C   UNL d   1      -4.971  -4.280  -3.497  0.00  0.00     0.032 A 
ATOM     14  C   UNL d   1      -3.556  -2.393  -4.032  0.00  0.00     0.035 A 
ATOM     15  C   UNL d   1      -4.876  -4.712  -4.823  0.00  0.00     0.026 A 
ATOM     16  C   UNL d   1      -4.131  -3.979  -5.741  0.00  0.00     0.035 A 
ATOM     17  C   UNL d   1      -3.463  -2.806  -5.371  0.00  0.00     0.045 A 
ATOM     18 CL   UNL d   1      -4.017  -4.534  -7.368  0.00  0.00    -0.084 Cl
ATOM     19  S   UNL d   1      -2.835  -1.035  -3.246  0.00  0.00    -0.063 SA
ENDBRANCH   8   9
ENDBRANCH   3   8
BRANCH   1  20
ATOM     20  C   UNL d   1      -0.386  -2.991   0.227  0.00  0.00     0.043 A 
ATOM     21  C   UNL d   1       0.683  -3.590   0.913  0.00  0.00     0.030 A 
ATOM     22  C   UNL d   1       0.736  -4.977   1.107  0.00  0.00     0.002 A 
ATOM     23  C   UNL d   1      -0.297  -5.789   0.659  0.00  0.00     0.000 A 
ATOM     24  C   UNL d   1      -1.394  -5.209   0.038  0.00  0.00     0.002 A 
ATOM     25  C   UNL d   1      -1.434  -3.825  -0.172  0.00  0.00     0.030 A 
ENDBRANCH   1  20
BRANCH   2  26
ATOM     26  C   UNL d   1       2.197  -1.252  -0.406  0.00  0.00     0.043 A 
ATOM     27  C   UNL d   1       3.246  -0.671   0.331  0.00  0.00     0.082 A 
ATOM     28  C   UNL d   1       4.561  -1.125   0.153  0.00  0.00     0.038 A 
ATOM     29  C   UNL d   1       4.846  -2.164  -0.731  0.00  0.00     0.003 A 
ATOM     30  C   UNL d   1       3.822  -2.735  -1.477  0.00  0.00     0.001 A 
ATOM     31  C   UNL d   1       2.514  -2.271  -1.328  0.00  0.00     0.018 A 
BRANCH  27  32
ATOM     32  O   UNL d   1       3.147   0.396   1.184  0.00  0.00    -0.355 OA
ATOM     33  C   UNL d   1       2.178   0.277   2.219  0.00  0.00     0.210 C 
ENDBRANCH  27  32
ENDBRANCH   2  26
TORSDOF 5
