REMARK  4 active torsions:
REMARK  status: ('A' for Active; 'I' for Inactive)
REMARK    1  A    between atoms: C_2  and  C_1 
REMARK       I    between atoms: N_4  and  C_1 
REMARK    2  A    between atoms: C_3  and  N_6 
REMARK    3  A    between atoms: N_12  and  C_3 
REMARK    4  A    between atoms: N_6  and  N_4 
ROOT
ATOM      1  C   UNL d   1       0.807  -0.068   0.057  0.00  0.00     0.277 C 
ATOM      2  N   UNL d   1       0.221  -1.109   0.750  0.00  0.00    -0.263 N 
ATOM      3  O   UNL d   1       0.131   0.684  -0.650  0.00  0.00    -0.265 OA
ATOM      4  H   UNL d   1       0.766  -1.762   1.310  0.00  0.00     0.190 HD
ENDROOT
BRANCH   2   5
ATOM      5  N   UNL d   1      -1.156  -1.336   0.650  0.00  0.00    -0.274 N 
ATOM      6  H   UNL d   1      -1.681  -0.607   0.171  0.00  0.00     0.189 HD
BRANCH   5   7
ATOM      7  C   UNL d   1      -1.777  -2.299   1.430  0.00  0.00     0.186 C 
ATOM      8  S   UNL d   1      -0.944  -3.303   2.484  0.00  0.00    -0.040 SA
BRANCH   7   9
ATOM      9  N   UNL d   1      -3.136  -2.333   1.200  0.00  0.00    -0.370 N 
ATOM     10  C   UNL d   1      -4.105  -3.246   1.781  0.00  0.00     0.148 C 
ATOM     11  H   UNL d   1      -3.490  -1.727   0.473  0.00  0.00     0.161 HD
ENDBRANCH   7   9
ENDBRANCH   5   7
ENDBRANCH   2   5
BRANCH   1  12
ATOM     12  C   UNL d   1       2.250   0.065   0.217  0.00  0.00     0.074 A 
ATOM     13  S   UNL d   1       3.134  -0.875   1.350  0.00  0.00    -0.097 SA
ATOM     14  C   UNL d   1       4.611  -0.128   0.929  0.00  0.00     0.050 A 
ATOM     15  C   UNL d   1       4.449   0.814  -0.061  0.00  0.00     0.009 A 
ATOM     16  C   UNL d   1       3.088   0.927  -0.469  0.00  0.00     0.025 A 
ENDBRANCH   1  12
TORSDOF 4
