REMARK  2 active torsions:
REMARK  status: ('A' for Active; 'I' for Inactive)
REMARK    1  A    between atoms: C_12  and  C_9 
REMARK    2  A    between atoms: C_18  and  C_14 
ROOT
ATOM      1  C   UNL d   1       0.416   0.661  -0.259  0.00  0.00     0.139 A 
ATOM      2  C   UNL d   1       0.430  -0.722  -0.531  0.00  0.00     0.058 A 
ATOM      3  N   UNL d   1       1.527   1.057   0.360  0.00  0.00    -0.254 N 
ATOM      4  HN  UNL d   1       1.766   2.002   0.662  1.00  0.00     0.195 HD
ATOM      5  C   UNL d   1      -0.700   1.498  -0.639  0.00  0.00     0.289 A 
ATOM      6  N   UNL d   1      -1.692  -0.571  -1.583  0.00  0.00    -0.301 N 
ATOM      7  HN  UNL d   1      -2.483  -0.985  -2.076  1.00  0.00     0.186 HD
ATOM      8  N   UNL d   1      -1.702   0.779  -1.282  0.00  0.00    -0.264 N 
ATOM      9  C   UNL d   1       1.626  -1.192  -0.006  0.00  0.00     0.113 A 
ATOM     10  O   UNL d   1       2.285  -0.088   0.505  0.00  0.00    -0.236 OA
ATOM     11  C   UNL d   1      -0.676  -1.322  -1.241  0.00  0.00     0.037 A 
ATOM     12  O   UNL d   1      -0.793   2.704  -0.434  0.00  0.00    -0.264 OA
ATOM     13  C   UNL d   1      -0.742  -2.771  -1.638  0.00  0.00     0.070 C 
ATOM     14  H   UNL d   1      -2.518   1.303  -1.586  0.00  0.00     0.190 HD
ENDROOT
BRANCH   9  15
ATOM     15  C   UNL d   1       2.170  -2.502   0.070  0.00  0.00     0.041 C 
ATOM     16  C   UNL d   1       3.492  -2.714  -0.003  0.00  0.00     0.014 C 
BRANCH  16  17
ATOM     17  C   UNL d   1       4.016  -4.079   0.033  0.00  0.00    -0.034 A 
ATOM     18  C   UNL d   1       4.234  -4.776  -1.160  0.00  0.00     0.037 A 
ATOM     19  C   UNL d   1       4.688  -6.100  -1.132  0.00  0.00     0.056 A 
ATOM     20 CL   UNL d   1       4.920  -6.901  -2.645  0.00  0.00    -0.083 Cl
ATOM     21  C   UNL d   1       4.926  -6.730   0.094  0.00  0.00     0.055 A 
ATOM     22  C   UNL d   1       4.707  -6.033   1.286  0.00  0.00     0.026 A 
ATOM     23 CL   UNL d   1       5.482  -8.361   0.207  0.00  0.00    -0.083 Cl
ATOM     24  C   UNL d   1       4.252  -4.713   1.257  0.00  0.00     0.013 A 
ENDBRANCH  16  17
ENDBRANCH   9  15
TORSDOF 2
