REMARK  2 active torsions:
REMARK  status: ('A' for Active; 'I' for Inactive)
REMARK    1  A    between atoms: C_9  and  C_1 
REMARK    2  A    between atoms: N_2  and  C_8 
ROOT
ATOM      1  C   UNL d   1      -1.863  -1.549  -0.051  0.00  0.00     0.090 A 
ATOM      2  C   UNL d   1      -2.328  -0.290  -0.007  0.00  0.00     0.093 A 
ATOM      3  O   UNL d   1      -0.514  -1.877  -0.011  0.00  0.00    -0.309 OA
ATOM      4  C   UNL d   1      -1.379   0.834   0.038  0.00  0.00     0.187 A 
ATOM      5  C   UNL d   1       0.047   0.487   0.023  0.00  0.00     0.048 A 
ATOM      6  C   UNL d   1       0.406  -0.858   0.009  0.00  0.00     0.090 A 
ATOM      7  O   UNL d   1      -1.777   1.990   0.073  0.00  0.00    -0.287 OA
ATOM      8  C   UNL d   1       1.024   1.487   0.019  0.00  0.00     0.018 A 
ATOM      9  C   UNL d   1       1.756  -1.213   0.007  0.00  0.00     0.038 A 
ATOM     10  C   UNL d   1       2.372   1.130   0.006  0.00  0.00     0.001 A 
ATOM     11  C   UNL d   1       2.737  -0.218   0.003  0.00  0.00     0.003 A 
ENDROOT
BRANCH   1  12
ATOM     12  C   UNL d   1      -2.776  -2.712  -0.136  0.00  0.00    -0.002 A 
ATOM     13  C   UNL d   1      -3.983  -2.643  -0.856  0.00  0.00     0.017 A 
ATOM     14  C   UNL d   1      -4.840  -3.745  -0.940  0.00  0.00     0.037 A 
ATOM     15  C   UNL d   1      -4.488  -4.943  -0.311  0.00  0.00     0.102 A 
ATOM     16  C   UNL d   1      -3.284  -5.042   0.397  0.00  0.00     0.037 A 
ATOM     17  C   UNL d   1      -2.436  -3.930   0.479  0.00  0.00     0.017 A 
BRANCH  15  18
ATOM     18  N   UNL d   1      -5.384  -6.102  -0.399  0.00  0.00    -0.116 N 
ATOM     19  O   UNL d   1      -6.440  -5.967  -1.034  0.00  0.00    -0.532 OA
ATOM     20  O   UNL d   1      -5.032  -7.147   0.167  0.00  0.00    -0.532 OA
ENDBRANCH  15  18
ENDBRANCH   1  12
TORSDOF 2
