REMARK  6 active torsions:
REMARK  status: ('A' for Active; 'I' for Inactive)
REMARK    1  A    between atoms: N_2  and  S_1 
REMARK    2  A    between atoms: C_5  and  S_1 
REMARK    3  A    between atoms: N_3  and  N_2 
REMARK    4  A    between atoms: C_4  and  N_3 
REMARK    5  A    between atoms: N_8  and  C_4 
REMARK    6  A    between atoms: C_12  and  N_8 
ROOT
ATOM      1  N   UNL d   1       0.690   1.667   1.769  0.00  0.00    -0.266 N 
ATOM      2  H   UNL d   1       1.443   1.209   2.282  0.00  0.00     0.190 HD
ENDROOT
BRANCH   1   3
ATOM      3  N   UNL d   1       0.548   1.351   0.352  0.00  0.00    -0.221 N 
ATOM      4  H   UNL d   1      -0.047   2.011  -0.158  0.00  0.00     0.200 HD
BRANCH   3   5
ATOM      5  S   UNL d   1       1.917   0.834  -0.506  0.00  0.00     0.276 S 
ATOM      6  O   UNL d   1       2.421  -0.349   0.157  0.00  0.00    -0.199 OA
ATOM      7  O   UNL d   1       2.749   1.993  -0.749  0.00  0.00    -0.199 OA
BRANCH   5   8
ATOM      8  C   UNL d   1       1.190   0.370  -2.058  0.00  0.00     0.081 A 
ATOM      9  C   UNL d   1       0.399   1.300  -2.748  0.00  0.00     0.027 A 
ATOM     10  C   UNL d   1      -0.226   0.923  -3.938  0.00  0.00     0.025 A 
ATOM     11  C   UNL d   1      -0.044  -0.364  -4.440  0.00  0.00     0.034 A 
ATOM     12  C   UNL d   1       0.767  -1.282  -3.767  0.00  0.00     0.025 A 
ATOM     13 CL   UNL d   1      -0.820  -0.825  -5.905  0.00  0.00    -0.084 Cl
ATOM     14  C   UNL d   1       1.383  -0.920  -2.565  0.00  0.00     0.027 A 
ENDBRANCH   5   8
ENDBRANCH   3   5
ENDBRANCH   1   3
BRANCH   1  15
ATOM     15  C   UNL d   1       0.100   2.797   2.273  0.00  0.00     0.191 C 
ATOM     16  S   UNL d   1      -0.519   4.034   1.322  0.00  0.00    -0.039 SA
BRANCH  15  17
ATOM     17  N   UNL d   1       0.036   2.936   3.627  0.00  0.00    -0.332 N 
ATOM     18  H   UNL d   1      -0.169   3.887   3.919  0.00  0.00     0.168 HD
BRANCH  17  19
ATOM     19  C   UNL d   1      -0.146   1.953   4.624  0.00  0.00     0.034 A 
ATOM     20  C   UNL d   1      -0.367   0.598   4.357  0.00  0.00     0.031 A 
ATOM     21  C   UNL d   1      -0.650  -0.293   5.400  0.00  0.00     0.026 A 
ATOM     22  C   UNL d   1      -0.725   0.170   6.710  0.00  0.00     0.034 A 
ATOM     23  C   UNL d   1      -0.510   1.516   6.989  0.00  0.00     0.026 A 
ATOM     24 CL   UNL d   1      -1.111  -0.920   7.982  0.00  0.00    -0.084 Cl
ATOM     25  C   UNL d   1      -0.222   2.404   5.948  0.00  0.00     0.031 A 
ENDBRANCH  17  19
ENDBRANCH  15  17
ENDBRANCH   1  15
TORSDOF 6
