REMARK  3 active torsions:
REMARK  status: ('A' for Active; 'I' for Inactive)
REMARK    1  A    between atoms: C_2  and  N_1 
REMARK    2  A    between atoms: O_4  and  C_3 
REMARK    3  A    between atoms: C_11  and  O_4 
ROOT
ATOM      1  C   UNL d   1       0.278  -0.964   0.876  0.00  0.00     0.154 A 
ATOM      2  C   UNL d   1      -0.781  -1.510   0.174  0.00  0.00     0.181 A 
ATOM      3  N   UNL d   1      -1.499  -2.557   0.659  0.00  0.00    -0.345 N 
ATOM      4  HN  UNL d   1      -2.302  -2.928   0.152  1.00  0.00     0.167 HD
ATOM      5  C   UNL d   1       0.683  -1.530   2.087  0.00  0.00     0.042 A 
ATOM      6  C   UNL d   1      -1.107  -3.088   1.840  0.00  0.00     0.090 A 
ATOM      7  C   UNL d   1      -0.027  -2.622   2.576  0.00  0.00     0.020 A 
ENDROOT
BRANCH   2   8
ATOM      8  O   UNL d   1      -1.129  -0.987  -1.060  0.00  0.00    -0.290 OA
BRANCH   8   9
ATOM      9  C   UNL d   1      -1.662  -1.837  -1.998  0.00  0.00     0.095 A 
ATOM     10  C   UNL d   1      -1.232  -3.148  -2.208  0.00  0.00     0.064 A 
ATOM     11  C   UNL d   1      -1.825  -3.903  -3.215  0.00  0.00     0.052 A 
ATOM     12 CL   UNL d   1      -1.349  -5.532  -3.475  0.00  0.00    -0.083 Cl
ATOM     13  C   UNL d   1      -2.803  -3.312  -4.001  0.00  0.00     0.111 A 
ATOM     14  N   UNL d   1      -3.220  -2.031  -3.847  0.00  0.00    -0.371 N 
ATOM     15  C   UNL d   1      -2.635  -1.325  -2.849  0.00  0.00     0.124 A 
ATOM     16  HN  UNL d   1      -3.934  -1.622  -4.450  1.00  0.00     0.164 HD
ENDBRANCH   8   9
ENDBRANCH   2   8
BRANCH   1  17
ATOM     17  N   UNL d   1       0.985   0.175   0.353  0.00  0.00    -0.111 N 
ATOM     18  O   UNL d   1       0.333   1.204   0.143  0.00  0.00    -0.532 OA
ATOM     19  O   UNL d   1       2.207   0.049   0.196  0.00  0.00    -0.532 OA
ENDBRANCH   1  17
TORSDOF 3
