REMARK  6 active torsions:
REMARK  status: ('A' for Active; 'I' for Inactive)
REMARK    1  A    between atoms: S_2  and  C_1 
REMARK    2  A    between atoms: C_11  and  S_2 
REMARK    3  A    between atoms: S_13  and  C_3 
REMARK    4  A    between atoms: C_7  and  C_5 
REMARK    5  A    between atoms: S_8  and  C_7 
REMARK    6  A    between atoms: C_14  and  S_8 
ROOT
ATOM      1  C   UNL d   1       1.585   0.823   0.126  0.00  0.00     0.084 A 
ATOM      2  C   UNL d   1       0.340   1.419   0.181  0.00  0.00     0.063 A 
ATOM      3  C   UNL d   1       1.489  -0.610   0.130  0.00  0.00     0.049 A 
ATOM      4  C   UNL d   1       0.186  -1.073   0.205  0.00  0.00     0.065 A 
ATOM      5  S   UNL d   1      -0.906   0.240   0.263  0.00  0.00    -0.077 SA
ENDROOT
BRANCH   4   6
ATOM      6  C   UNL d   1      -0.220  -2.473   0.297  0.00  0.00     0.230 C 
ATOM      7  O   UNL d   1       0.535  -3.357   0.686  0.00  0.00    -0.279 OA
BRANCH   6   8
ATOM      8  S   UNL d   1      -1.811  -2.853  -0.359  0.00  0.00    -0.047 SA
BRANCH   8   9
ATOM      9  C   UNL d   1      -2.592  -3.975   0.786  0.00  0.00     0.008 A 
ATOM     10  C   UNL d   1      -3.997  -3.951   0.828  0.00  0.00     0.021 A 
ATOM     11  C   UNL d   1      -4.716  -4.864   1.607  0.00  0.00     0.025 A 
ATOM     12  C   UNL d   1      -4.033  -5.813   2.360  0.00  0.00     0.034 A 
ATOM     13  C   UNL d   1      -2.642  -5.844   2.346  0.00  0.00     0.025 A 
ATOM     14 CL   UNL d   1      -4.911  -6.965   3.287  0.00  0.00    -0.084 Cl
ATOM     15  C   UNL d   1      -1.925  -4.932   1.558  0.00  0.00     0.021 A 
ENDBRANCH   8   9
ENDBRANCH   6   8
ENDBRANCH   4   6
BRANCH   1  16
ATOM     16  S   UNL d   1       3.123   1.637   0.102  0.00  0.00     0.180 S 
ATOM     17  O   UNL d   1       4.102   0.571   0.129  0.00  0.00    -0.222 OA
ATOM     18  O   UNL d   1       3.026   2.539  -1.030  0.00  0.00    -0.222 OA
BRANCH  16  19
ATOM     19  C   UNL d   1       3.210   2.565   1.638  0.00  0.00     0.105 C 
ATOM     20  C   UNL d   1       3.121   1.646   2.852  0.00  0.00     0.026 C 
ATOM     21  C   UNL d   1       4.493   3.389   1.679  0.00  0.00     0.026 C 
ENDBRANCH  16  19
ENDBRANCH   1  16
BRANCH   2  22
ATOM     22  S   UNL d   1      -0.113   3.118   0.273  0.00  0.00    -0.126 SA
ATOM     23  C   UNL d   1       0.193   3.683  -1.417  0.00  0.00     0.096 C 
ENDBRANCH   2  22
TORSDOF 6
