REMARK  4 active torsions:
REMARK  status: ('A' for Active; 'I' for Inactive)
REMARK    1  A    between atoms: C_8  and  C_1 
REMARK    2  A    between atoms: C_9  and  C_2 
REMARK    3  A    between atoms: C_10  and  O_12 
REMARK    4  A    between atoms: O_12  and  C_11 
ROOT
ATOM      1  C   UNL d   1      -0.051   1.044  -0.267  0.00  0.00     0.177 A 
ATOM      2  C   UNL d   1      -0.021  -1.084  -0.353  0.00  0.00     0.176 A 
ATOM      3  O   UNL d   1      -0.896  -0.031  -0.351  0.00  0.00    -0.272 OA
ATOM      4  N   UNL d   1       1.215   0.689  -0.209  0.00  0.00    -0.277 N 
ATOM      5  HN  UNL d   1       2.021   1.310  -0.141  1.00  0.00     0.189 HD
ATOM      6  N   UNL d   1       1.236  -0.688  -0.258  0.00  0.00    -0.277 N 
ATOM      7  HN  UNL d   1       2.062  -1.286  -0.226  1.00  0.00     0.189 HD
ENDROOT
BRANCH   1   8
ATOM      8  C   UNL d   1      -0.675   2.352  -0.159  0.00  0.00     0.050 A 
ATOM      9  C   UNL d   1      -0.130   3.392   0.616  0.00  0.00     0.092 A 
ATOM     10  C   UNL d   1      -0.740   4.656   0.618  0.00  0.00     0.038 A 
ATOM     11  C   UNL d   1      -1.896   4.890  -0.127  0.00  0.00     0.003 A 
ATOM     12  C   UNL d   1      -2.452   3.866  -0.884  0.00  0.00     0.001 A 
ATOM     13  C   UNL d   1      -1.851   2.606  -0.892  0.00  0.00     0.018 A 
BRANCH   9  14
ATOM     14  O   UNL d   1       1.070   3.325   1.270  0.00  0.00    -0.254 OA
BRANCH  14  15
ATOM     15  C   UNL d   1       1.156   2.416   2.365  0.00  0.00     0.530 C 
ATOM     16  F   UNL d   1       0.140   1.530   2.421  0.00  0.00    -0.144 F 
ATOM     17  F   UNL d   1       2.325   1.743   2.288  0.00  0.00    -0.144 F 
ATOM     18  F   UNL d   1       1.161   3.118   3.520  0.00  0.00    -0.144 F 
ENDBRANCH  14  15
ENDBRANCH   9  14
ENDBRANCH   1   8
BRANCH   2  19
ATOM     19  C   UNL d   1      -0.568  -2.432  -0.344  0.00  0.00     0.038 A 
ATOM     20  C   UNL d   1      -1.774  -2.809  -0.958  0.00  0.00     0.048 A 
ATOM     21 CL   UNL d   1      -2.771  -1.714  -1.856  0.00  0.00    -0.083 Cl
ATOM     22  C   UNL d   1      -2.216  -4.140  -0.897  0.00  0.00     0.025 A 
ATOM     23  C   UNL d   1      -1.462  -5.107  -0.232  0.00  0.00     0.002 A 
ATOM     24  C   UNL d   1      -0.264  -4.752   0.376  0.00  0.00     0.001 A 
ATOM     25  C   UNL d   1       0.178  -3.429   0.317  0.00  0.00     0.017 A 
ENDBRANCH   2  19
TORSDOF 4
