REMARK  4 active torsions:
REMARK  status: ('A' for Active; 'I' for Inactive)
REMARK    1  A    between atoms: C_3  and  C_8 
REMARK    2  A    between atoms: C_9  and  C_4 
REMARK    3  A    between atoms: N_5  and  C_9 
REMARK    4  A    between atoms: C_8  and  N_5 
ROOT
ATOM      1  N   UNL d   1       2.472   3.436  -0.253  0.00  0.00     0.091 N 
ATOM      2  H   UNL d   1       2.643   3.320  -1.247  0.00  0.00     0.316 HD
ENDROOT
BRANCH   1   3
ATOM      3  C   UNL d   1       1.136   2.926   0.044  0.00  0.00     0.309 C 
BRANCH   3   4
ATOM      4  C   UNL d   1       0.978   1.502  -0.463  0.00  0.00    -0.019 A 
ATOM      5  C   UNL d   1       0.608   1.199  -1.807  0.00  0.00    -0.018 A 
ATOM      6  C   UNL d   1       0.462  -0.162  -2.184  0.00  0.00    -0.025 A 
ATOM      7  C   UNL d   1       0.376   2.176  -2.804  0.00  0.00     0.013 A 
ATOM      8  C   UNL d   1       0.692  -1.179  -1.248  0.00  0.00     0.012 A 
ATOM      9  C   UNL d   1       0.088  -0.494  -3.500  0.00  0.00     0.012 A 
ATOM     10  C   UNL d   1       1.085  -0.875   0.052  0.00  0.00     0.002 A 
ATOM     11  C   UNL d   1       1.234   0.452   0.440  0.00  0.00     0.010 A 
ATOM     12  C   UNL d   1      -0.133   0.496  -4.457  0.00  0.00     0.001 A 
ATOM     13  C   UNL d   1       0.014   1.831  -4.108  0.00  0.00     0.001 A 
ENDBRANCH   3   4
ENDBRANCH   1   3
BRANCH   1  14
ATOM     14  C   UNL d   1       2.673   4.833   0.138  0.00  0.00     0.309 C 
BRANCH  14  15
ATOM     15  C   UNL d   1       1.746   5.846  -0.513  0.00  0.00    -0.019 A 
ATOM     16  C   UNL d   1       1.693   6.072  -1.921  0.00  0.00    -0.018 A 
ATOM     17  C   UNL d   1       0.724   6.976  -2.430  0.00  0.00    -0.025 A 
ATOM     18  C   UNL d   1       2.547   5.446  -2.859  0.00  0.00     0.013 A 
ATOM     19  C   UNL d   1       0.591   7.162  -3.816  0.00  0.00     0.012 A 
ATOM     20  C   UNL d   1      -0.105   7.687  -1.552  0.00  0.00     0.012 A 
ATOM     21  C   UNL d   1       1.409   6.481  -4.714  0.00  0.00     0.001 A 
ATOM     22  C   UNL d   1       2.397   5.633  -4.235  0.00  0.00     0.001 A 
ATOM     23  C   UNL d   1      -0.010   7.505  -0.177  0.00  0.00     0.002 A 
ATOM     24  C   UNL d   1       0.897   6.584   0.336  0.00  0.00     0.010 A 
ENDBRANCH  14  15
ENDBRANCH   1  14
TORSDOF 4
