REMARK  6 active torsions:
REMARK  status: ('A' for Active; 'I' for Inactive)
REMARK    1  A    between atoms: N_7  and  C_1 
REMARK    2  A    between atoms: C_3  and  N_7 
REMARK    3  A    between atoms: N_4  and  C_3 
REMARK       I    between atoms: C_9  and  N_4 
REMARK    4  A    between atoms: C_12  and  C_8 
REMARK    5  A    between atoms: C_16  and  C_9 
REMARK    6  A    between atoms: C_13  and  C_14 
ROOT
ATOM      1  C   UNL d   1       0.941  -0.646  -0.043  0.00  0.00     0.124 A 
ATOM      2  C   UNL d   1       0.772   0.655  -0.446  0.00  0.00     0.081 A 
ATOM      3  N   UNL d   1      -1.268  -0.160   0.138  0.00  0.00    -0.298 N 
ATOM      4  HN  UNL d   1      -2.270  -0.264   0.299  1.00  0.00     0.187 HD
ATOM      5  C   UNL d   1      -0.605   0.950  -0.227  0.00  0.00     0.062 A 
ATOM      6  N   UNL d   1      -0.315  -1.101   0.242  0.00  0.00    -0.285 N 
ATOM      7  H   UNL d   1      -0.590  -2.033   0.533  0.00  0.00     0.188 HD
ENDROOT
BRANCH   1   8
ATOM      8  N   UNL d   1       2.177  -1.266   0.058  0.00  0.00    -0.318 N 
ATOM      9  H   UNL d   1       2.975  -0.777  -0.366  0.00  0.00     0.170 HD
BRANCH   8  10
ATOM     10  C   UNL d   1       2.479  -2.439   0.818  0.00  0.00     0.180 C 
ATOM     11  S   UNL d   1       1.433  -3.378   1.716  0.00  0.00    -0.040 SA
BRANCH  10  12
ATOM     12  N   UNL d   1       3.815  -2.765   0.801  0.00  0.00    -0.299 N 
ATOM     13  C   UNL d   1       4.831  -2.097   0.142  0.00  0.00     0.257 C 
ATOM     14  O   UNL d   1       4.626  -1.025  -0.432  0.00  0.00    -0.267 OA
ATOM     15  H   UNL d   1       4.041  -3.571   1.364  0.00  0.00     0.171 HD
BRANCH  13  16
ATOM     16  C   UNL d   1       6.196  -2.701   0.150  0.00  0.00     0.032 A 
ATOM     17  C   UNL d   1       6.438  -4.043   0.475  0.00  0.00     0.017 A 
ATOM     18  C   UNL d   1       7.737  -4.558   0.404  0.00  0.00     0.001 A 
ATOM     19  C   UNL d   1       8.796  -3.744   0.006  0.00  0.00     0.000 A 
ATOM     20  C   UNL d   1       8.565  -2.409  -0.315  0.00  0.00     0.001 A 
ATOM     21  C   UNL d   1       7.271  -1.888  -0.243  0.00  0.00     0.017 A 
ENDBRANCH  13  16
ENDBRANCH  10  12
ENDBRANCH   8  10
ENDBRANCH   1   8
BRANCH   5  22
ATOM     22  C   UNL d   1      -1.257   2.259  -0.327  0.00  0.00    -0.008 A 
ATOM     23  C   UNL d   1      -2.634   2.381  -0.535  0.00  0.00     0.014 A 
ATOM     24  C   UNL d   1      -3.229   3.647  -0.654  0.00  0.00     0.009 A 
ATOM     25  C   UNL d   1      -2.473   4.832  -0.561  0.00  0.00    -0.051 A 
ATOM     26  C   UNL d   1      -1.100   4.691  -0.309  0.00  0.00     0.009 A 
ATOM     27  C   UNL d   1      -0.504   3.430  -0.193  0.00  0.00     0.014 A 
BRANCH  25  28
ATOM     28  C   UNL d   1      -3.134   6.210  -0.749  0.00  0.00    -0.024 C 
ATOM     29  C   UNL d   1      -2.147   7.392  -0.606  0.00  0.00     0.019 C 
ATOM     30  C   UNL d   1      -3.747   6.298  -2.163  0.00  0.00     0.019 C 
ATOM     31  C   UNL d   1      -4.249   6.419   0.297  0.00  0.00     0.019 C 
ENDBRANCH  25  28
ENDBRANCH   5  22
TORSDOF 6
