REMARK  7 active torsions:
REMARK  status: ('A' for Active; 'I' for Inactive)
REMARK    1  A    between atoms: C_9  and  N_1 
REMARK    2  A    between atoms: C_3  and  S_15 
REMARK    3  A    between atoms: C_20  and  C_8 
REMARK    4  A    between atoms: C_14  and  C_11 
REMARK    5  A    between atoms: C_22  and  C_14 
REMARK    6  A    between atoms: S_15  and  C_22 
REMARK    7  A    between atoms: C_16  and  C_20 
ROOT
ATOM      1  O   UNL d   1      -3.607  -6.689  -4.496  0.00  0.00    -0.272 OA
ATOM      2  C   UNL d   1      -2.368  -6.580  -3.922  0.00  0.00     0.203 A 
ATOM      3  N   UNL d   1      -1.585  -7.595  -4.227  0.00  0.00    -0.272 N 
ATOM      4  HN  UNL d   1      -0.628  -7.742  -3.908  1.00  0.00     0.189 HD
ATOM      5  N   UNL d   1      -2.310  -8.422  -5.063  0.00  0.00    -0.281 N 
ATOM      6  HN  UNL d   1      -1.997  -9.299  -5.479  1.00  0.00     0.189 HD
ATOM      7  C   UNL d   1      -3.486  -7.849  -5.214  0.00  0.00     0.145 A 
ENDROOT
BRANCH   2   8
ATOM      8  S   UNL d   1      -1.899  -5.206  -2.970  0.00  0.00    -0.077 SA
BRANCH   8   9
ATOM      9  C   UNL d   1      -0.153  -5.593  -2.678  0.00  0.00     0.166 C 
BRANCH   9  10
ATOM     10  C   UNL d   1       0.470  -4.499  -1.839  0.00  0.00     0.169 C 
ATOM     11  O   UNL d   1       0.406  -4.537  -0.611  0.00  0.00    -0.291 OA
BRANCH  10  12
ATOM     12  C   UNL d   1       1.175  -3.340  -2.478  0.00  0.00     0.013 A 
ATOM     13  C   UNL d   1       1.815  -2.418  -1.632  0.00  0.00     0.051 A 
ATOM     14  C   UNL d   1       2.476  -1.307  -2.172  0.00  0.00     0.103 A 
ATOM     15  C   UNL d   1       2.502  -1.099  -3.554  0.00  0.00     0.036 A 
ATOM     16  C   UNL d   1       1.871  -2.015  -4.396  0.00  0.00     0.003 A 
ATOM     17  C   UNL d   1       1.211  -3.131  -3.863  0.00  0.00     0.015 A 
BRANCH  14  18
ATOM     18  N   UNL d   1       3.150  -0.354  -1.279  0.00  0.00    -0.116 N 
ATOM     19  O   UNL d   1       3.175  -0.611  -0.068  0.00  0.00    -0.532 OA
ATOM     20  O   UNL d   1       3.660   0.654  -1.794  0.00  0.00    -0.532 OA
ENDBRANCH  14  18
ENDBRANCH  10  12
ENDBRANCH   9  10
ENDBRANCH   8   9
ENDBRANCH   2   8
BRANCH   7  21
ATOM     21  C   UNL d   1      -4.630  -8.241  -6.075  0.00  0.00     0.125 C 
BRANCH  21  22
ATOM     22  C   UNL d   1      -4.602  -7.514  -7.392  0.00  0.00    -0.044 A 
ATOM     23  C   UNL d   1      -5.139  -6.257  -7.611  0.00  0.00     0.057 A 
ATOM     24  S   UNL d   1      -4.916  -5.709  -9.215  0.00  0.00    -0.113 SA
ATOM     25  C   UNL d   1      -4.098  -7.144  -9.649  0.00  0.00     0.050 A 
ATOM     26  C   UNL d   1      -3.996  -8.020  -8.591  0.00  0.00     0.015 A 
ENDBRANCH  21  22
ENDBRANCH   7  21
TORSDOF 7
