REMARK  5 active torsions:
REMARK  status: ('A' for Active; 'I' for Inactive)
REMARK    1  A    between atoms: C_10  and  C_1 
REMARK    2  A    between atoms: C_9  and  C_5 
REMARK    3  A    between atoms: C_6  and  N_11 
REMARK    4  A    between atoms: O_19  and  C_9 
REMARK    5  A    between atoms: N_11  and  C_14 
ROOT
ATOM      1  C   UNL d   1       2.147  -1.445   0.077  0.00  0.00    -0.005 A 
ATOM      2  C   UNL d   1       2.349  -2.278  -1.040  0.00  0.00     0.037 A 
ATOM      3  C   UNL d   1       3.513  -3.051  -1.172  0.00  0.00     0.013 A 
ATOM      4  C   UNL d   1       3.143  -1.386   1.058  0.00  0.00     0.014 A 
ATOM      5  C   UNL d   1       4.322  -2.117   0.919  0.00  0.00     0.003 A 
ATOM      6  C   UNL d   1       4.506  -2.940  -0.190  0.00  0.00     0.024 A 
ENDROOT
BRANCH   3   7
ATOM      7  N   UNL d   1       3.732  -3.761  -2.397  0.00  0.00    -0.262 NA
ATOM      8  H   UNL d   1       4.170  -3.054  -3.003  0.00  0.00     0.133 HD
BRANCH   7   9
ATOM      9  C   UNL d   1       4.523  -4.909  -2.417  0.00  0.00     0.012 C 
ATOM     10  C   UNL d   1       5.837  -5.016  -2.703  0.00  0.00     0.044 C 
ATOM     11  C   UNL d   1       6.447  -6.374  -2.618  0.00  0.00     0.120 C 
ATOM     12  S   UNL d   1       5.061  -7.527  -2.433  0.00  0.00    -0.159 SA
ATOM     13  C   UNL d   1       3.837  -6.222  -2.115  0.00  0.00     0.126 C 
BRANCH  10  14
ATOM     14  C   UNL d   1       6.773  -3.917  -3.011  0.00  0.00     0.291 C 
ATOM     15  O   UNL d   1       7.987  -4.043  -2.938  0.00  0.00    -0.260 OA
BRANCH  14  16
ATOM     16  O   UNL d   1       6.115  -2.791  -3.385  0.00  0.00    -0.323 OA
ATOM     17  C   UNL d   1       6.975  -1.681  -3.648  0.00  0.00     0.213 C 
ENDBRANCH  14  16
ENDBRANCH  10  14
ENDBRANCH   7   9
ENDBRANCH   3   7
BRANCH   1  18
ATOM     18  C   UNL d   1       0.904  -0.682   0.214  0.00  0.00     0.077 A 
ATOM     19  C   UNL d   1       0.672   0.628   0.719  0.00  0.00     0.057 A 
ATOM     20  C   UNL d   1      -0.680   0.837   0.662  0.00  0.00     0.131 A 
ATOM     21 BR   UNL d   1       1.927   1.884   1.321  0.00  0.00    -0.047 Br
ATOM     22  N   UNL d   1      -1.194  -0.299   0.124  0.00  0.00    -0.306 N 
ATOM     23  N   UNL d   1      -0.270  -1.226  -0.175  0.00  0.00    -0.297 N 
ATOM     24  C   UNL d   1      -2.589  -0.551  -0.155  0.00  0.00     0.177 C 
ATOM     25  HN  UNL d   1      -0.421  -2.140  -0.601  1.00  0.00     0.187 HD
ENDBRANCH   1  18
TORSDOF 5
