REMARK  1 active torsions:
REMARK  status: ('A' for Active; 'I' for Inactive)
REMARK    1  A    between atoms: N_14  and  C_7 
ROOT
ATOM      1  S   UNL d   1       2.162   0.802   0.881  0.00  0.00     0.270 S 
ATOM      2  C   UNL d   1       2.246  -0.497  -0.241  0.00  0.00     0.146 C 
ATOM      3  N   UNL d   1       0.686   1.568   0.421  0.00  0.00    -0.275 N 
ATOM      4  C   UNL d   1      -0.388   0.684   0.148  0.00  0.00     0.066 A 
ATOM      5  C   UNL d   1      -0.226  -0.674  -0.059  0.00  0.00     0.084 A 
ATOM      6  C   UNL d   1       1.046  -1.380  -0.181  0.00  0.00     0.215 C 
ATOM      7  C   UNL d   1       3.167  -0.728  -1.188  0.00  0.00     0.114 C 
ATOM      8  S   UNL d   1      -1.713  -1.478  -0.272  0.00  0.00    -0.096 SA
ATOM      9  O   UNL d   1       1.914   0.224   2.193  0.00  0.00    -0.200 OA
ATOM     10  O   UNL d   1       3.228   1.769   0.747  0.00  0.00    -0.200 OA
ATOM     11  C   UNL d   1      -1.752   1.076   0.018  0.00  0.00     0.039 A 
ATOM     12  C   UNL d   1      -2.582  -0.004  -0.192  0.00  0.00     0.053 A 
ATOM     13  O   UNL d   1       1.161  -2.595  -0.343  0.00  0.00    -0.285 OA
ATOM     14  C   UNL d   1       0.772   2.860  -0.282  0.00  0.00     0.170 C 
ENDROOT
BRANCH   7  15
ATOM     15  N   UNL d   1       4.262  -0.043  -1.702  0.00  0.00    -0.397 N 
ATOM     16  C   UNL d   1       4.333   1.416  -1.815  0.00  0.00     0.148 C 
ATOM     17  C   UNL d   1       5.321  -0.741  -2.436  0.00  0.00     0.148 C 
ENDBRANCH   7  15
TORSDOF 1
