REMARK  2 active torsions:
REMARK  status: ('A' for Active; 'I' for Inactive)
REMARK    1  A    between atoms: C_8  and  N_1 
REMARK    2  A    between atoms: C_2  and  C_7 
ROOT
ATOM      1  C   UNL d   1      -1.558   5.084  -0.004  0.00  0.00     0.063 A 
ATOM      2  C   UNL d   1      -0.748   2.449  -0.017  0.00  0.00     0.128 A 
ATOM      3  N   UNL d   1      -0.247   3.290  -0.963  0.00  0.00    -0.350 N 
ATOM      4  HN  UNL d   1       0.417   2.962  -1.665  1.00  0.00     0.166 HD
ATOM      5  C   UNL d   1      -0.664   4.578  -0.936  0.00  0.00     0.106 A 
ATOM      6  C   UNL d   1      -2.045   4.206   0.969  0.00  0.00     0.021 A 
ATOM      7  C   UNL d   1      -1.641   2.871   0.966  0.00  0.00     0.051 A 
ENDROOT
BRANCH   2   8
ATOM      8  N   UNL d   1      -0.357   1.085  -0.058  0.00  0.00    -0.235 N 
ATOM      9  N   UNL d   1      -0.831   0.138   0.795  0.00  0.00    -0.287 N 
ATOM     10  C   UNL d   1      -0.224  -0.962   0.345  0.00  0.00     0.199 A 
ATOM     11  HN  UNL d   1      -1.481   0.242   1.574  1.00  0.00     0.188 HD
ATOM     12  N   UNL d   1       0.614  -0.783  -0.715  0.00  0.00    -0.346 N 
ATOM     13  C   UNL d   1       0.514   0.506  -0.946  0.00  0.00     0.209 A 
ATOM     14  HN  UNL d   1       1.178  -1.477  -1.206  1.00  0.00     0.167 HD
ENDBRANCH   2   8
BRANCH   1  15
ATOM     15  C   UNL d   1      -1.991   6.519  -0.053  0.00  0.00     0.418 C 
ATOM     16  F   UNL d   1      -1.426   7.223  -1.072  0.00  0.00    -0.166 F 
ATOM     17  F   UNL d   1      -3.337   6.649  -0.211  0.00  0.00    -0.166 F 
ATOM     18  F   UNL d   1      -1.680   7.195   1.087  0.00  0.00    -0.166 F 
ENDBRANCH   1  15
TORSDOF 2
