REMARK  3 active torsions:
REMARK  status: ('A' for Active; 'I' for Inactive)
REMARK    1  A    between atoms: N_7  and  C_1 
REMARK    2  A    between atoms: C_2  and  C_3 
REMARK       I    between atoms: C_3  and  N_7 
REMARK    3  A    between atoms: C_14  and  C_6 
ROOT
ATOM      1  C   UNL d   1      -1.512   0.209  -0.239  0.00  0.00     0.152 A 
ATOM      2  N   UNL d   1      -1.367  -1.085  -0.304  0.00  0.00    -0.335 N 
ATOM      3  HN  UNL d   1      -2.127  -1.751  -0.441  1.00  0.00     0.168 HD
ATOM      4  C   UNL d   1      -0.031  -1.425  -0.161  0.00  0.00     0.057 A 
ATOM      5  S   UNL d   1      -0.089   1.115  -0.018  0.00  0.00    -0.057 SA
ATOM      6  C   UNL d   1       0.834  -0.344  -0.054  0.00  0.00     0.010 A 
ATOM      7  C   UNL d   1       2.320  -0.277   0.021  0.00  0.00     0.059 C 
ENDROOT
BRANCH   1   8
ATOM      8  N   UNL d   1      -2.659   0.951  -0.285  0.00  0.00    -0.303 N 
ATOM      9  C   UNL d   1      -3.875   0.377  -0.576  0.00  0.00     0.262 C 
ATOM     10  O   UNL d   1      -4.028  -0.765  -0.998  0.00  0.00    -0.267 OA
ATOM     11  H   UNL d   1      -2.559   1.938  -0.131  0.00  0.00     0.171 HD
BRANCH   9  12
ATOM     12  C   UNL d   1      -5.038   1.238  -0.391  0.00  0.00     0.087 A 
ATOM     13  C   UNL d   1      -5.173   2.459   0.248  0.00  0.00     0.090 A 
ATOM     14  O   UNL d   1      -6.473   2.859   0.191  0.00  0.00    -0.242 OA
ATOM     15  C   UNL d   1      -4.285   3.395   0.966  0.00  0.00     0.080 C 
ATOM     16  N   UNL d   1      -7.223   1.925  -0.482  0.00  0.00    -0.265 N 
ATOM     17  C   UNL d   1      -6.371   0.955  -0.829  0.00  0.00     0.047 A 
ATOM     18  HN  UNL d   1      -8.224   1.963  -0.676  1.00  0.00     0.194 HD
ATOM     19  C   UNL d   1      -6.864  -0.219  -1.591  0.00  0.00     0.071 C 
ENDBRANCH   9  12
ENDBRANCH   1   8
BRANCH   4  20
ATOM     20  C   UNL d   1       0.344  -2.836  -0.151  0.00  0.00    -0.007 A 
ATOM     21  C   UNL d   1      -0.350  -3.734  -0.973  0.00  0.00     0.038 A 
ATOM     22  C   UNL d   1      -0.062  -5.103  -0.939  0.00  0.00     0.040 A 
ATOM     23 CL   UNL d   1      -0.969  -6.149  -1.973  0.00  0.00    -0.084 Cl
ATOM     24  C   UNL d   1       0.924  -5.606  -0.076  0.00  0.00    -0.040 A 
ATOM     25  C   UNL d   1       1.609  -4.706   0.751  0.00  0.00     0.009 A 
ATOM     26  C   UNL d   1       1.241  -7.073   0.004  0.00  0.00     0.050 C 
ATOM     27  C   UNL d   1       1.316  -3.338   0.720  0.00  0.00     0.014 A 
ENDBRANCH   4  20
TORSDOF 3
