REMARK  2 active torsions:
REMARK  status: ('A' for Active; 'I' for Inactive)
REMARK    1  A    between atoms: C_13  and  C_3 
REMARK       I    between atoms: N_16  and  C_13 
REMARK    2  A    between atoms: N_17  and  N_16 
ROOT
ATOM      1  C   UNL d   1      -1.335   0.863  -0.014  0.00  0.00     0.086 A 
ATOM      2  C   UNL d   1      -2.611   1.523  -0.036  0.00  0.00     0.075 A 
ATOM      3  C   UNL d   1      -0.017   1.327   0.011  0.00  0.00     0.086 A 
ATOM      4  N   UNL d   1      -1.236  -0.499  -0.076  0.00  0.00    -0.298 N 
ATOM      5  N   UNL d   1      -4.513   3.038  -0.515  0.00  0.00    -0.269 N 
ATOM      6  HN  UNL d   1      -5.144   3.779  -0.823  1.00  0.00     0.195 HD
ATOM      7  N   UNL d   1       0.015  -0.963  -0.094  0.00  0.00    -0.304 N 
ATOM      8  HN  UNL d   1       0.322  -1.934  -0.151  1.00  0.00     0.186 HD
ATOM      9  C   UNL d   1      -3.836   1.161   0.527  0.00  0.00     0.043 A 
ATOM     10  N   UNL d   1      -4.889   2.029   0.245  0.00  0.00    -0.298 N 
ATOM     11  HN  UNL d   1      -5.841   1.900   0.589  1.00  0.00     0.187 HD
ATOM     12  S   UNL d   1      -2.900   2.976  -0.922  0.00  0.00     0.006 SA
ATOM     13  C   UNL d   1       0.776   0.135  -0.022  0.00  0.00     0.040 A 
ATOM     14  C   UNL d   1      -4.174  -0.015   1.369  0.00  0.00     0.071 C 
ATOM     15  C   UNL d   1       2.249  -0.062   0.042  0.00  0.00     0.071 C 
ATOM     16  H   UNL d   1      -1.990  -1.175  -0.125  0.00  0.00     0.187 HD
ENDROOT
BRANCH   3  17
ATOM     17  C   UNL d   1       0.389   2.725   0.098  0.00  0.00     0.270 C 
ATOM     18  O   UNL d   1      -0.256   3.570   0.711  0.00  0.00    -0.266 OA
ATOM     19  N   UNL d   1       1.533   3.065  -0.621  0.00  0.00    -0.290 N 
ATOM     20  H   UNL d   1       2.050   2.371  -1.153  0.00  0.00     0.183 HD
BRANCH  19  21
ATOM     21  N   UNL d   1       1.956   4.416  -0.671  0.00  0.00    -0.247 NA
ATOM     22  H   UNL d   1       1.341   4.946  -0.033  0.00  0.00     0.143 HD
ATOM     23  H   UNL d   1       1.730   4.790  -1.597  0.00  0.00     0.143 HD
ENDBRANCH  19  21
ENDBRANCH   3  17
TORSDOF 2
