REMARK  4 active torsions:
REMARK  status: ('A' for Active; 'I' for Inactive)
REMARK    1  A    between atoms: C_5  and  N_1 
REMARK    2  A    between atoms: C_8  and  C_4 
REMARK    3  A    between atoms: S_11  and  C_8 
REMARK    4  A    between atoms: C_18  and  S_11 
ROOT
ATOM      1  N   UNL d   1       0.691  -0.825  -0.060  0.00  0.00    -0.257 N 
ATOM      2  N   UNL d   1       0.817   0.518  -0.151  0.00  0.00    -0.289 N 
ATOM      3  HN  UNL d   1       1.688   1.045  -0.216  1.00  0.00     0.188 HD
ATOM      4  C   UNL d   1      -0.428   1.024  -0.140  0.00  0.00     0.107 A 
ATOM      5  C   UNL d   1      -0.641  -1.208  -0.035  0.00  0.00     0.033 A 
ATOM      6  C   UNL d   1      -1.369  -0.035  -0.052  0.00  0.00     0.062 A 
ATOM      7  C   UNL d   1      -1.149  -2.605  -0.065  0.00  0.00     0.070 C 
ENDROOT
BRANCH   4   8
ATOM      8  C   UNL d   1      -0.645   2.481  -0.223  0.00  0.00     0.241 C 
ATOM      9  O   UNL d   1       0.238   3.319  -0.056  0.00  0.00    -0.278 OA
BRANCH   8  10
ATOM     10  S   UNL d   1      -2.302   2.968  -0.568  0.00  0.00    -0.046 SA
BRANCH  10  11
ATOM     11  C   UNL d   1      -2.167   4.114  -1.934  0.00  0.00     0.008 A 
ATOM     12  C   UNL d   1      -1.030   4.277  -2.731  0.00  0.00     0.019 A 
ATOM     13  C   UNL d   1      -1.045   5.144  -3.832  0.00  0.00     0.008 A 
ATOM     14  C   UNL d   1      -2.199   5.861  -4.163  0.00  0.00    -0.062 A 
ATOM     15  C   UNL d   1      -3.335   5.710  -3.365  0.00  0.00     0.008 A 
ATOM     16  C   UNL d   1      -2.224   6.726  -5.389  0.00  0.00     0.048 C 
ATOM     17  C   UNL d   1      -3.316   4.850  -2.262  0.00  0.00     0.019 A 
ENDBRANCH  10  11
ENDBRANCH   8  10
ENDBRANCH   4   8
BRANCH   1  18
ATOM     18  C   UNL d   1       1.865  -1.615   0.013  0.00  0.00     0.100 A 
ATOM     19  C   UNL d   1       2.064  -2.531   1.061  0.00  0.00     0.066 A 
ATOM     20  C   UNL d   1       3.253  -3.270   1.134  0.00  0.00     0.050 A 
ATOM     21 CL   UNL d   1       0.981  -2.721   2.397  0.00  0.00    -0.082 Cl
ATOM     22  C   UNL d   1       4.256  -3.075   0.192  0.00  0.00     0.037 A 
ATOM     23  C   UNL d   1       4.086  -2.155  -0.835  0.00  0.00     0.050 A 
ATOM     24 CL   UNL d   1       5.721  -3.968   0.306  0.00  0.00    -0.084 Cl
ATOM     25  C   UNL d   1       2.894  -1.428  -0.932  0.00  0.00     0.066 A 
ATOM     26 CL   UNL d   1       2.746  -0.414  -2.331  0.00  0.00    -0.082 Cl
ENDBRANCH   1  18
TORSDOF 4
