REMARK  5 active torsions:
REMARK  status: ('A' for Active; 'I' for Inactive)
REMARK    1  A    between atoms: N_3  and  C_1 
REMARK    2  A    between atoms: O_9  and  C_2 
REMARK    3  A    between atoms: O_11  and  C_5 
REMARK    4  A    between atoms: C_18  and  O_9 
REMARK    5  A    between atoms: C_19  and  O_11 
ROOT
ATOM      1  C   UNL d   1       1.482   1.205  -0.087  0.00  0.00     0.138 C 
ATOM      2  C   UNL d   1       0.110   1.231   0.182  0.00  0.00     0.132 C 
ATOM      3  C   UNL d   1      -0.566   0.005   0.338  0.00  0.00     0.114 C 
ATOM      4  C   UNL d   1       0.094  -1.193  -0.009  0.00  0.00     0.099 C 
ATOM      5  C   UNL d   1      -1.865  -0.033   0.946  0.00  0.00     0.105 C 
ATOM      6  N   UNL d   1      -2.903  -0.051   1.465  0.00  0.00    -0.191 NA
ATOM      7  C   UNL d   1       2.178   0.008  -0.297  0.00  0.00     0.042 C 
ATOM      8  C   UNL d   1       1.467  -1.188  -0.292  0.00  0.00     0.041 C 
ENDROOT
BRANCH   2   9
ATOM      9  O   UNL d   1      -0.492   2.457   0.380  0.00  0.00    -0.305 OA
BRANCH   9  10
ATOM     10  C   UNL d   1      -1.665   2.734  -0.284  0.00  0.00     0.091 A 
ATOM     11  C   UNL d   1      -2.038   2.232  -1.529  0.00  0.00     0.124 A 
ATOM     12  N   UNL d   1      -3.245   2.455  -2.104  0.00  0.00    -0.373 N 
ATOM     13  C   UNL d   1      -4.102   3.248  -1.423  0.00  0.00     0.088 A 
ATOM     14  HN  UNL d   1      -3.493   2.045  -3.005  1.00  0.00     0.164 HD
ATOM     15  C   UNL d   1      -3.795   3.850  -0.213  0.00  0.00     0.020 A 
ATOM     16  C   UNL d   1      -2.552   3.592   0.358  0.00  0.00     0.040 A 
ENDBRANCH   9  10
ENDBRANCH   2   9
BRANCH   4  17
ATOM     17  O   UNL d   1      -0.492  -2.441  -0.004  0.00  0.00    -0.308 OA
BRANCH  17  18
ATOM     18  C   UNL d   1      -1.692  -2.628  -0.651  0.00  0.00     0.091 A 
ATOM     19  C   UNL d   1      -2.497  -3.658  -0.178  0.00  0.00     0.124 A 
ATOM     20  N   UNL d   1      -3.730  -3.943  -0.657  0.00  0.00    -0.373 N 
ATOM     21  C   UNL d   1      -4.187  -3.153  -1.651  0.00  0.00     0.088 A 
ATOM     22  HN  UNL d   1      -4.285  -4.714  -0.285  1.00  0.00     0.164 HD
ATOM     23  C   UNL d   1      -3.445  -2.131  -2.223  0.00  0.00     0.020 A 
ATOM     24  C   UNL d   1      -2.163  -1.884  -1.732  0.00  0.00     0.040 A 
ENDBRANCH  17  18
ENDBRANCH   4  17
BRANCH   1  25
ATOM     25  N   UNL d   1       2.240   2.439  -0.105  0.00  0.00    -0.113 N 
ATOM     26  O   UNL d   1       1.982   3.243  -1.010  0.00  0.00    -0.532 OA
ATOM     27  O   UNL d   1       3.112   2.571   0.762  0.00  0.00    -0.532 OA
ENDBRANCH   1  25
TORSDOF 5
