REMARK  9 active torsions:
REMARK  status: ('A' for Active; 'I' for Inactive)
REMARK    1  A    between atoms: C_8  and  C_1 
REMARK    2  A    between atoms: N_9  and  C_2 
REMARK    3  A    between atoms: C_10  and  N_4 
REMARK    4  A    between atoms: C_6  and  O_11 
REMARK    5  A    between atoms: C_7  and  C_6 
REMARK    6  A    between atoms: O_18  and  C_8 
REMARK    7  A    between atoms: C_16  and  N_9 
REMARK    8  A    between atoms: O_11  and  C_17 
REMARK    9  A    between atoms: C_29  and  O_18 
ROOT
ATOM      1  N   UNL d   1       0.190   2.586   0.226  0.00  0.00    -0.254 NA
ATOM      2  H   UNL d   1       1.211   2.589   0.162  0.00  0.00     0.134 HD
ENDROOT
BRANCH   1   3
ATOM      3  C   UNL d   1      -0.298   1.299   0.114  0.00  0.00     0.095 A 
ATOM      4  C   UNL d   1      -1.530   0.788   0.052  0.00  0.00     0.062 A 
ATOM      5  C   UNL d   1      -1.577  -0.689  -0.003  0.00  0.00     0.174 A 
ATOM      6  N   UNL d   1      -0.172  -1.028  -0.037  0.00  0.00    -0.334 N 
ATOM      7  C   UNL d   1       0.618   0.118   0.041  0.00  0.00     0.266 A 
ATOM      8  O   UNL d   1       1.830   0.210   0.055  0.00  0.00    -0.266 OA
BRANCH   4   9
ATOM      9  C   UNL d   1      -2.740   1.614   0.037  0.00  0.00     0.292 C 
ATOM     10  O   UNL d   1      -2.821   2.737  -0.423  0.00  0.00    -0.259 OA
BRANCH   9  11
ATOM     11  O   UNL d   1      -3.729   0.940   0.677  0.00  0.00    -0.318 OA
BRANCH  11  12
ATOM     12  C   UNL d   1      -4.787   1.771   1.177  0.00  0.00     0.174 C 
ATOM     13  C   UNL d   1      -4.474   2.061   2.634  0.00  0.00     0.034 C 
ENDBRANCH  11  12
ENDBRANCH   9  11
ENDBRANCH   4   9
BRANCH   6  14
ATOM     14  C   UNL d   1       0.341  -2.416  -0.177  0.00  0.00     0.025 C 
ATOM     15  C   UNL d   1      -0.798  -3.455  -0.289  0.00  0.00     0.037 C 
ATOM     16  C   UNL d   1       1.197  -2.527  -1.452  0.00  0.00     0.037 C 
ATOM     17  C   UNL d   1       1.196  -2.804   1.045  0.00  0.00     0.037 C 
ENDBRANCH   6  14
ENDBRANCH   1   3
BRANCH   1  18
ATOM     18  C   UNL d   1      -0.235   3.448   1.271  0.00  0.00     0.013 A 
ATOM     19  C   UNL d   1      -0.473   2.978   2.571  0.00  0.00     0.026 A 
ATOM     20  C   UNL d   1      -0.859   3.849   3.597  0.00  0.00     0.039 A 
ATOM     21  C   UNL d   1      -0.984   5.208   3.335  0.00  0.00     0.079 A 
ATOM     22  C   UNL d   1      -0.715   5.701   2.056  0.00  0.00     0.039 A 
ATOM     23  C   UNL d   1      -0.324   4.825   1.035  0.00  0.00     0.026 A 
BRANCH  21  24
ATOM     24  O   UNL d   1      -1.318   6.185   4.310  0.00  0.00    -0.275 OA
BRANCH  24  25
ATOM     25  C   UNL d   1      -1.741   5.924   5.607  0.00  0.00     0.300 C 
ATOM     26  O   UNL d   1      -1.927   4.837   6.130  0.00  0.00    -0.259 OA
BRANCH  25  27
ATOM     27  C   UNL d   1      -1.794   7.184   6.384  0.00  0.00     0.061 A 
ATOM     28  C   UNL d   1      -2.372   8.372   5.926  0.00  0.00     0.050 A 
ATOM     29 CL   UNL d   1      -3.188   8.507   4.410  0.00  0.00    -0.083 Cl
ATOM     30  C   UNL d   1      -2.355   9.512   6.743  0.00  0.00     0.025 A 
ATOM     31  C   UNL d   1      -1.787   9.466   8.018  0.00  0.00     0.002 A 
ATOM     32  C   UNL d   1      -1.242   8.276   8.492  0.00  0.00     0.001 A 
ATOM     33  C   UNL d   1      -1.248   7.139   7.681  0.00  0.00     0.019 A 
ENDBRANCH  25  27
ENDBRANCH  24  25
ENDBRANCH  21  24
ENDBRANCH   1  18
TORSDOF 9
