REMARK  6 active torsions:
REMARK  status: ('A' for Active; 'I' for Inactive)
REMARK    1  A    between atoms: S_9  and  C_2 
REMARK    2  A    between atoms: C_8  and  C_4 
REMARK    3  A    between atoms: C_7  and  C_8 
REMARK    4  A    between atoms: C_17  and  S_9 
REMARK    5  A    between atoms: N_16  and  C_13 
REMARK    6  A    between atoms: C_19  and  C_17 
ROOT
ATOM      1  C   UNL d   1       0.019  -0.810   0.124  0.00  0.00     0.041 A 
ATOM      2  C   UNL d   1       1.117  -1.644   0.088  0.00  0.00     0.056 A 
ATOM      3  C   UNL d   1       0.380   0.598   0.019  0.00  0.00    -0.021 A 
ATOM      4  C   UNL d   1       1.761   0.779  -0.072  0.00  0.00     0.063 A 
ATOM      5  S   UNL d   1       2.559  -0.742  -0.050  0.00  0.00    -0.078 SA
ATOM      6  C   UNL d   1      -1.376  -1.197   0.276  0.00  0.00     0.162 C 
ATOM      7  C   UNL d   1      -0.691   1.686   0.038  0.00  0.00     0.050 C 
ATOM      8  C   UNL d   1      -2.115   1.157   0.417  0.00  0.00    -0.037 C 
ATOM      9  C   UNL d   1      -2.368  -0.199  -0.267  0.00  0.00     0.093 C 
ATOM     10  O   UNL d   1      -1.754  -2.210   0.864  0.00  0.00    -0.292 OA
ATOM     11  C   UNL d   1      -3.204   2.135  -0.055  0.00  0.00     0.015 C 
ATOM     12  C   UNL d   1      -2.254   1.003   1.950  0.00  0.00     0.015 C 
ENDROOT
BRANCH   2  13
ATOM     13  S   UNL d   1       1.232  -3.402   0.200  0.00  0.00    -0.117 SA
BRANCH  13  14
ATOM     14  C   UNL d   1      -0.055  -3.971  -0.941  0.00  0.00     0.118 C 
BRANCH  14  15
ATOM     15  C   UNL d   1      -0.062  -5.469  -1.104  0.00  0.00    -0.049 A 
ATOM     16  C   UNL d   1      -0.702  -6.280  -0.151  0.00  0.00     0.009 A 
ATOM     17  C   UNL d   1      -0.775  -7.661  -0.334  0.00  0.00     0.024 A 
ATOM     18  C   UNL d   1      -0.203  -8.237  -1.465  0.00  0.00     0.034 A 
ATOM     19  C   UNL d   1       0.455  -7.446  -2.406  0.00  0.00     0.024 A 
ATOM     20 CL   UNL d   1      -0.318  -9.936  -1.711  0.00  0.00    -0.084 Cl
ATOM     21  C   UNL d   1       0.530  -6.065  -2.224  0.00  0.00     0.009 A 
ENDBRANCH  14  15
ENDBRANCH  13  14
ENDBRANCH   2  13
BRANCH   4  22
ATOM     22  C   UNL d   1       2.522   2.041  -0.151  0.00  0.00     0.190 C 
ATOM     23  O   UNL d   1       1.959   3.136  -0.180  0.00  0.00    -0.287 OA
BRANCH  22  24
ATOM     24  C   UNL d   1       4.029   2.002  -0.190  0.00  0.00     0.073 C 
ATOM     25  C   UNL d   1       4.793   3.086   0.010  0.00  0.00     0.088 C 
BRANCH  25  26
ATOM     26  N   UNL d   1       6.180   3.197   0.054  0.00  0.00    -0.398 N 
ATOM     27  C   UNL d   1       7.116   2.070  -0.020  0.00  0.00     0.148 C 
ATOM     28  C   UNL d   1       6.847   4.491   0.226  0.00  0.00     0.148 C 
ENDBRANCH  25  26
ENDBRANCH  22  24
ENDBRANCH   4  22
TORSDOF 6
