REMARK  8 active torsions:
REMARK  status: ('A' for Active; 'I' for Inactive)
REMARK    1  A    between atoms: N_4  and  C_1 
REMARK       I    between atoms: C_2  and  N_6 
REMARK    2  A    between atoms: C_3  and  C_2 
REMARK    3  A    between atoms: C_8  and  C_3 
REMARK    4  A    between atoms: N_6  and  N_4 
REMARK    5  A    between atoms: O_10  and  C_8 
REMARK    6  A    between atoms: O_11  and  C_8 
REMARK    7  A    between atoms: C_13  and  O_10 
REMARK    8  A    between atoms: C_14  and  O_11 
ROOT
ATOM      1  C   UNL d   1       0.475  -3.321  -1.118  0.00  0.00     0.240 C 
ATOM      2  N   UNL d   1       1.238  -2.228  -1.487  0.00  0.00    -0.268 N 
ATOM      3  O   UNL d   1       0.955  -4.298  -0.538  0.00  0.00    -0.272 OA
ATOM      4  H   UNL d   1       0.874  -1.584  -2.184  0.00  0.00     0.190 HD
ENDROOT
BRANCH   1   5
ATOM      5  C   UNL d   1      -0.970  -3.278  -1.532  0.00  0.00     0.165 C 
BRANCH   5   6
ATOM      6  C   UNL d   1      -1.667  -1.999  -1.077  0.00  0.00     0.268 C 
BRANCH   6   7
ATOM      7  O   UNL d   1      -1.240  -0.959  -1.982  0.00  0.00    -0.361 OA
BRANCH   7   8
ATOM      8  C   UNL d   1      -1.920   0.275  -1.756  0.00  0.00     0.166 C 
ATOM      9  C   UNL d   1      -1.388   1.308  -2.733  0.00  0.00     0.033 C 
ENDBRANCH   7   8
ENDBRANCH   6   7
BRANCH   6  10
ATOM     10  O   UNL d   1      -3.086  -2.163  -1.152  0.00  0.00    -0.361 OA
BRANCH  10  11
ATOM     11  C   UNL d   1      -3.636  -2.909  -0.068  0.00  0.00     0.166 C 
ATOM     12  C   UNL d   1      -5.148  -2.902  -0.197  0.00  0.00     0.033 C 
ENDBRANCH  10  11
ENDBRANCH   6  10
ENDBRANCH   5   6
ENDBRANCH   1   5
BRANCH   2  13
ATOM     13  N   UNL d   1       2.614  -2.354  -1.323  0.00  0.00    -0.274 N 
ATOM     14  H   UNL d   1       2.915  -3.253  -0.937  0.00  0.00     0.189 HD
BRANCH  13  15
ATOM     15  C   UNL d   1       3.584  -1.462  -1.609  0.00  0.00     0.186 C 
ATOM     16  S   UNL d   1       5.174  -1.909  -1.349  0.00  0.00    -0.040 SA
ATOM     17  N   UNL d   1       3.359  -0.230  -2.094  0.00  0.00    -0.370 N 
ATOM     18  C   UNL d   1       2.144   0.496  -2.350  0.00  0.00     0.148 C 
ATOM     19  H   UNL d   1       4.220   0.279  -2.267  0.00  0.00     0.161 HD
ENDBRANCH  13  15
ENDBRANCH   2  13
TORSDOF 8
