REMARK  6 active torsions:
REMARK  status: ('A' for Active; 'I' for Inactive)
REMARK    1  A    between atoms: N_2  and  C_1 
REMARK    2  A    between atoms: C_13  and  C_5 
REMARK    3  A    between atoms: C_6  and  O_14 
REMARK       I    between atoms: N_15  and  C_6 
REMARK    4  A    between atoms: O_14  and  N_9 
REMARK    5  A    between atoms: C_18  and  N_15 
REMARK    6  A    between atoms: C_16  and  C_18 
ROOT
ATOM      1  N   UNL d   1       3.781  -0.828  -0.082  0.00  0.00    -0.267 N 
ATOM      2  HN  UNL d   1       3.839   0.184  -0.197  1.00  0.00     0.194 HD
ATOM      3  C   UNL d   1       2.681  -1.496  -0.009  0.00  0.00     0.126 C 
ENDROOT
BRANCH   1   4
ATOM      4  O   UNL d   1       4.887  -1.686   0.019  0.00  0.00    -0.181 OA
BRANCH   4   5
ATOM      5  C   UNL d   1       6.081  -1.010  -0.168  0.00  0.00     0.382 C 
ATOM      6  O   UNL d   1       7.043  -1.565  -0.696  0.00  0.00    -0.236 OA
ATOM      7  N   UNL d   1       6.215   0.281   0.289  0.00  0.00    -0.332 N 
ATOM      8  H   UNL d   1       7.091   0.709   0.026  0.00  0.00     0.165 HD
BRANCH   7   9
ATOM      9  C   UNL d   1       5.337   0.989   1.187  0.00  0.00     0.151 C 
BRANCH   9  10
ATOM     10  C   UNL d   1       6.125   2.052   1.884  0.00  0.00    -0.018 C 
ATOM     11  C   UNL d   1       5.779   3.347   1.917  0.00  0.00     0.008 C 
ENDBRANCH   9  10
ENDBRANCH   7   9
ENDBRANCH   4   5
ENDBRANCH   1   4
BRANCH   3  12
ATOM     12  C   UNL d   1       1.453  -0.721  -0.043  0.00  0.00    -0.009 A 
ATOM     13  C   UNL d   1       1.378   0.714  -0.109  0.00  0.00     0.057 A 
ATOM     14  C   UNL d   1       0.082   1.173  -0.082  0.00  0.00     0.144 A 
ATOM     15  S   UNL d   1      -1.052  -0.088  -0.015  0.00  0.00    -0.077 SA
ATOM     16  C   UNL d   1       0.188  -1.278   0.002  0.00  0.00     0.065 A 
BRANCH  14  17
ATOM     17  N   UNL d   1      -0.330   2.552  -0.095  0.00  0.00    -0.108 N 
ATOM     18  O   UNL d   1       0.577   3.396  -0.084  0.00  0.00    -0.531 OA
ATOM     19  O   UNL d   1      -1.542   2.803  -0.111  0.00  0.00    -0.531 OA
ENDBRANCH  14  17
ENDBRANCH   3  12
TORSDOF 6
