REMARK  2 active torsions:
REMARK  status: ('A' for Active; 'I' for Inactive)
REMARK    1  A    between atoms: O_5  and  C_1 
REMARK    2  A    between atoms: C_8  and  O_5 
ROOT
ATOM      1  C   UNL d   1      -1.018  -1.518  -0.221  0.00  0.00     0.152 C 
ATOM      2  C   UNL d   1      -1.528  -0.283  -0.110  0.00  0.00     0.122 C 
ATOM      3  C   UNL d   1       0.448  -1.685  -0.459  0.00  0.00     0.218 C 
ATOM      4  C   UNL d   1      -0.688   0.943  -0.113  0.00  0.00     0.207 C 
ATOM      5  C   UNL d   1       1.321  -0.515  -0.246  0.00  0.00     0.031 A 
ATOM      6  C   UNL d   1       0.774   0.756  -0.101  0.00  0.00     0.030 A 
ATOM      7  O   UNL d   1       0.945  -2.745  -0.819  0.00  0.00    -0.284 OA
ATOM      8  O   UNL d   1      -1.157   2.073  -0.096  0.00  0.00    -0.286 OA
ATOM      9 CL   UNL d   1      -3.234  -0.029   0.072  0.00  0.00    -0.077 Cl
ATOM     10  C   UNL d   1       1.615   1.865   0.063  0.00  0.00     0.016 A 
ATOM     11  C   UNL d   1       2.712  -0.686  -0.206  0.00  0.00     0.016 A 
ATOM     12  C   UNL d   1       2.999   1.693   0.102  0.00  0.00     0.001 A 
ATOM     13  C   UNL d   1       3.547   0.418  -0.027  0.00  0.00     0.001 A 
ENDROOT
BRANCH   1  14
ATOM     14  O   UNL d   1      -1.872  -2.620  -0.235  0.00  0.00    -0.303 OA
BRANCH  14  15
ATOM     15  C   UNL d   1      -1.511  -3.814   0.345  0.00  0.00     0.098 A 
ATOM     16  C   UNL d   1      -2.023  -4.991  -0.219  0.00  0.00     0.067 A 
ATOM     17 CL   UNL d   1      -3.054  -4.947  -1.605  0.00  0.00    -0.081 Cl
ATOM     18  C   UNL d   1      -1.714  -6.234   0.338  0.00  0.00     0.026 A 
ATOM     19  C   UNL d   1      -0.897  -6.309   1.465  0.00  0.00     0.002 A 
ATOM     20  C   UNL d   1      -0.409  -5.141   2.049  0.00  0.00     0.003 A 
ATOM     21  C   UNL d   1      -0.729  -3.896   1.503  0.00  0.00     0.039 A 
ENDBRANCH  14  15
ENDBRANCH   1  14
TORSDOF 2
