REMARK  4 active torsions:
REMARK  status: ('A' for Active; 'I' for Inactive)
REMARK    1  A    between atoms: C_7  and  C_1 
REMARK    2  A    between atoms: C_10  and  N_3 
REMARK    3  A    between atoms: C_8  and  C_7 
REMARK    4  A    between atoms: N_12  and  C_9 
ROOT
ATOM      1  C   UNL d   1      -0.202  -1.036  -0.020  0.00  0.00     0.120 C 
ATOM      2  N   UNL d   1       0.984   0.773  -0.318  0.00  0.00    -0.014 NA
ATOM      3  N   UNL d   1      -0.298   1.159  -0.085  0.00  0.00    -0.242 N 
ATOM      4  N   UNL d   1       1.061  -0.543  -0.212  0.00  0.00    -0.278 N 
ATOM      5  HN  UNL d   1       1.916  -1.096  -0.265  1.00  0.00     0.184 HD
ATOM      6  C   UNL d   1      -1.099   0.028   0.004  0.00  0.00     0.060 C 
ATOM      7  C   UNL d   1      -2.584   0.002   0.003  0.00  0.00     0.072 C 
ENDROOT
BRANCH   1   8
ATOM      8  C   UNL d   1      -0.514  -2.459   0.084  0.00  0.00     0.202 C 
ATOM      9  O   UNL d   1      -1.653  -2.883   0.246  0.00  0.00    -0.286 OA
BRANCH   8  10
ATOM     10  C   UNL d   1       0.669  -3.366  -0.014  0.00  0.00     0.074 C 
ATOM     11  C   UNL d   1       0.497  -4.694   0.064  0.00  0.00     0.088 C 
BRANCH  11  12
ATOM     12  N   UNL d   1       1.417  -5.732  -0.004  0.00  0.00    -0.398 N 
ATOM     13  C   UNL d   1       2.863  -5.564  -0.154  0.00  0.00     0.148 C 
ATOM     14  C   UNL d   1       0.999  -7.133   0.121  0.00  0.00     0.148 C 
ENDBRANCH  11  12
ENDBRANCH   8  10
ENDBRANCH   1   8
BRANCH   3  15
ATOM     15  C   UNL d   1      -0.612   2.542   0.017  0.00  0.00     0.054 A 
ATOM     16  C   UNL d   1      -1.721   2.998   0.740  0.00  0.00     0.031 A 
ATOM     17  C   UNL d   1      -2.003   4.367   0.801  0.00  0.00     0.002 A 
ATOM     18  C   UNL d   1      -1.181   5.285   0.148  0.00  0.00     0.000 A 
ATOM     19  C   UNL d   1      -0.061   4.842  -0.549  0.00  0.00     0.002 A 
ATOM     20  C   UNL d   1       0.234   3.478  -0.602  0.00  0.00     0.031 A 
ENDBRANCH   3  15
TORSDOF 4
