REMARK  3 active torsions:
REMARK  status: ('A' for Active; 'I' for Inactive)
REMARK    1  A    between atoms: C_5  and  C_1 
REMARK    2  A    between atoms: C_4  and  C_16 
REMARK       I    between atoms: N_17  and  C_5 
REMARK    3  A    between atoms: N_14  and  N_17 
ROOT
ATOM      1  N   UNL d   1       3.959  -0.975  -0.000  0.00  0.00    -0.307 N 
ATOM      2  HN  UNL d   1       3.332  -0.172   0.045  1.00  0.00     0.186 HD
ATOM      3  C   UNL d   1       5.240  -0.809  -0.023  0.00  0.00     0.139 C 
ENDROOT
BRANCH   1   4
ATOM      4  N   UNL d   1       3.459  -2.244  -0.037  0.00  0.00    -0.265 N 
ATOM      5  C   UNL d   1       2.080  -2.406  -0.018  0.00  0.00     0.287 C 
ATOM      6  O   UNL d   1       1.273  -1.482   0.030  0.00  0.00    -0.264 OA
ATOM      7  H   UNL d   1       4.059  -3.065  -0.078  0.00  0.00     0.190 HD
BRANCH   5   8
ATOM      8  C   UNL d   1       1.636  -3.803  -0.059  0.00  0.00     0.109 A 
ATOM      9  N   UNL d   1       2.513  -4.894  -0.112  0.00  0.00    -0.349 N 
ATOM     10  C   UNL d   1       1.817  -6.016  -0.140  0.00  0.00     0.047 A 
ATOM     11  HN  UNL d   1       3.531  -4.831  -0.126  1.00  0.00     0.166 HD
ATOM     12  C   UNL d   1       2.393  -7.389  -0.198  0.00  0.00     0.076 C 
ATOM     13  S   UNL d   1       0.107  -5.840  -0.106  0.00  0.00    -0.087 SA
ATOM     14  C   UNL d   1       0.296  -4.146  -0.050  0.00  0.00     0.086 A 
ENDBRANCH   5   8
ENDBRANCH   1   4
BRANCH   3  15
ATOM     15  C   UNL d   1       5.773   0.545   0.016  0.00  0.00     0.088 A 
ATOM     16  C   UNL d   1       5.090   1.793   0.085  0.00  0.00     0.080 A 
ATOM     17  C   UNL d   1       6.073   2.751   0.094  0.00  0.00     0.133 A 
ATOM     18 CL   UNL d   1       3.421   2.093   0.146  0.00  0.00    -0.080 Cl
ATOM     19  N   UNL d   1       7.251   2.075   0.033  0.00  0.00    -0.310 N 
ATOM     20  N   UNL d   1       7.109   0.738  -0.014  0.00  0.00    -0.298 N 
ATOM     21  H   UNL d   1       8.190   2.462   0.021  0.00  0.00     0.186 HD
ATOM     22  HN  UNL d   1       7.843   0.031  -0.062  1.00  0.00     0.187 HD
ENDBRANCH   3  15
TORSDOF 3
