REMARK  8 active torsions:
REMARK  status: ('A' for Active; 'I' for Inactive)
REMARK    1  A    between atoms: C_4  and  C_1 
REMARK    2  A    between atoms: C_11  and  N_2 
REMARK    3  A    between atoms: C_12  and  N_3 
REMARK    4  A    between atoms: O_13  and  C_4 
REMARK    5  A    between atoms: C_20  and  C_11 
REMARK    6  A    between atoms: C_21  and  C_12 
REMARK    7  A    between atoms: C_16  and  C_20 
REMARK    8  A    between atoms: C_17  and  C_21 
ROOT
ATOM      1  C   UNL d   1       0.786   1.308  -0.341  0.00  0.00     0.186 C 
ATOM      2  N   UNL d   1       0.700  -1.184  -0.189  0.00  0.00     0.119 N 
ATOM      3  N   UNL d   1      -1.366   0.064  -0.205  0.00  0.00     0.119 N 
ATOM      4  C   UNL d   1       0.845   1.374  -1.808  0.00  0.00     0.084 C 
ATOM      5  C   UNL d   1       1.470   0.030   0.167  0.00  0.00     0.312 C 
ATOM      6  C   UNL d   1      -0.662   1.303   0.166  0.00  0.00     0.312 C 
ATOM      7  N   UNL d   1       0.901   1.576  -2.951  0.00  0.00    -0.196 NA
ATOM      8  C   UNL d   1      -0.669  -1.111   0.332  0.00  0.00     0.542 C 
ENDROOT
BRANCH   1   9
ATOM      9  C   UNL d   1       1.455   2.538   0.249  0.00  0.00     0.167 C 
ATOM     10  O   UNL d   1       1.996   2.541   1.351  0.00  0.00    -0.649 OA
BRANCH   9  11
ATOM     11  O   UNL d   1       1.345   3.694  -0.449  0.00  0.00    -0.775 OA
ATOM     12  H   UNL d   1       0.935   3.668  -1.340  0.00  0.00     0.167 HD
ENDBRANCH   9  11
ENDBRANCH   1   9
BRANCH   2  13
ATOM     13  C   UNL d   1       1.409  -2.385   0.310  0.00  0.00     0.279 C 
BRANCH  13  14
ATOM     14  C   UNL d   1       0.755  -3.713  -0.112  0.00  0.00     0.068 C 
BRANCH  14  15
ATOM     15  C   UNL d   1       1.507  -4.916   0.404  0.00  0.00    -0.056 A 
ATOM     16  C   UNL d   1       1.241  -5.416   1.688  0.00  0.00     0.009 A 
ATOM     17  C   UNL d   1       1.909  -6.549   2.156  0.00  0.00     0.024 A 
ATOM     18  C   UNL d   1       2.850  -7.180   1.345  0.00  0.00     0.034 A 
ATOM     19  C   UNL d   1       3.134  -6.683   0.074  0.00  0.00     0.024 A 
ATOM     20 CL   UNL d   1       3.660  -8.587   1.914  0.00  0.00    -0.084 Cl
ATOM     21  C   UNL d   1       2.466  -5.550  -0.395  0.00  0.00     0.009 A 
ENDBRANCH  14  15
ENDBRANCH  13  14
ENDBRANCH   2  13
BRANCH   3  22
ATOM     22  C   UNL d   1      -2.770   0.052   0.259  0.00  0.00     0.279 C 
BRANCH  22  23
ATOM     23  C   UNL d   1      -3.649   1.119  -0.412  0.00  0.00     0.068 C 
BRANCH  23  24
ATOM     24  C   UNL d   1      -5.073   1.080   0.089  0.00  0.00    -0.056 A 
ATOM     25  C   UNL d   1      -5.432   1.788   1.247  0.00  0.00     0.009 A 
ATOM     26  C   UNL d   1      -6.752   1.781   1.698  0.00  0.00     0.024 A 
ATOM     27  C   UNL d   1      -7.717   1.062   0.998  0.00  0.00     0.034 A 
ATOM     28  C   UNL d   1      -7.371   0.339  -0.143  0.00  0.00     0.024 A 
ATOM     29 CL   UNL d   1      -9.350   1.073   1.540  0.00  0.00    -0.084 Cl
ATOM     30  C   UNL d   1      -6.049   0.345  -0.595  0.00  0.00     0.009 A 
ENDBRANCH  23  24
ENDBRANCH  22  23
ENDBRANCH   3  22
TORSDOF 8
