REMARK  2 active torsions:
REMARK  status: ('A' for Active; 'I' for Inactive)
REMARK    1  A    between atoms: C_6  and  C_1 
REMARK    2  A    between atoms: C_9  and  N_4 
REMARK       I    between atoms: N_10  and  C_6 
ROOT
ATOM      1  C   UNL d   1       1.175  -1.276   0.077  0.00  0.00     0.128 C 
ATOM      2  N   UNL d   1       2.306  -0.664  -0.114  0.00  0.00    -0.285 N 
ATOM      3  HN  UNL d   1       3.161  -1.204  -0.256  1.00  0.00     0.188 HD
ATOM      4  N   UNL d   1       2.351   0.713  -0.127  0.00  0.00    -0.219 N 
ATOM      5  C   UNL d   1       1.202   1.515  -0.188  0.00  0.00     0.278 C 
ATOM      6  C   UNL d   1      -0.106  -0.548   0.242  0.00  0.00     0.013 A 
ATOM      7  C   UNL d   1      -0.086   0.819  -0.015  0.00  0.00     0.046 A 
ATOM      8  O   UNL d   1       1.170   2.730  -0.355  0.00  0.00    -0.265 OA
ATOM      9  C   UNL d   1      -1.326  -1.160   0.561  0.00  0.00     0.015 A 
ATOM     10  C   UNL d   1      -1.281   1.554  -0.060  0.00  0.00     0.018 A 
ATOM     11  C   UNL d   1      -2.517  -0.423   0.529  0.00  0.00     0.001 A 
ATOM     12  C   UNL d   1      -2.498   0.925   0.193  0.00  0.00     0.001 A 
ENDROOT
BRANCH   4  13
ATOM     13  C   UNL d   1       3.678   1.259  -0.092  0.00  0.00     0.060 A 
ATOM     14  C   UNL d   1       3.934   2.562   0.369  0.00  0.00     0.033 A 
ATOM     15  C   UNL d   1       5.239   3.068   0.424  0.00  0.00     0.026 A 
ATOM     16  C   UNL d   1       6.306   2.280   0.013  0.00  0.00     0.034 A 
ATOM     17  C   UNL d   1       6.082   0.985  -0.444  0.00  0.00     0.026 A 
ATOM     18 CL   UNL d   1       7.906   2.904   0.069  0.00  0.00    -0.084 Cl
ATOM     19  C   UNL d   1       4.777   0.479  -0.484  0.00  0.00     0.033 A 
ENDBRANCH   4  13
BRANCH   1  20
ATOM     20  C   UNL d   1       1.166  -2.812   0.029  0.00  0.00     0.272 C 
ATOM     21  N   UNL d   1       2.215  -3.561   0.584  0.00  0.00    -0.355 N 
ATOM     22  C   UNL d   1       2.151  -5.002   0.403  0.00  0.00     0.152 C 
ATOM     23  C   UNL d   1       3.539  -3.023   0.854  0.00  0.00     0.152 C 
ATOM     24  O   UNL d   1       0.202  -3.345  -0.518  0.00  0.00    -0.266 OA
ENDBRANCH   1  20
TORSDOF 2
