REMARK  4 active torsions:
REMARK  status: ('A' for Active; 'I' for Inactive)
REMARK    1  A    between atoms: S_7  and  C_2 
REMARK    2  A    between atoms: C_17  and  S_7 
REMARK    3  A    between atoms: C_11  and  C_17 
REMARK       I    between atoms: N_16  and  C_11 
REMARK    4  A    between atoms: N_18  and  N_16 
ROOT
ATOM      1  C   UNL d   1       0.046  -0.747  -0.005  0.00  0.00     0.042 A 
ATOM      2  C   UNL d   1       1.174  -1.545  -0.033  0.00  0.00     0.057 A 
ATOM      3  C   UNL d   1       0.363   0.671  -0.055  0.00  0.00    -0.014 A 
ATOM      4  C   UNL d   1       1.728   0.887  -0.099  0.00  0.00     0.093 A 
ATOM      5  S   UNL d   1       2.599  -0.577  -0.086  0.00  0.00    -0.071 SA
ATOM      6  C   UNL d   1      -1.346  -1.159   0.124  0.00  0.00     0.162 C 
ATOM      7  C   UNL d   1       2.371   2.165  -0.145  0.00  0.00     0.107 C 
ATOM      8  N   UNL d   1       2.870   3.213  -0.169  0.00  0.00    -0.191 NA
ATOM      9  C   UNL d   1      -0.716   1.741  -0.051  0.00  0.00     0.050 C 
ATOM     10  C   UNL d   1      -2.116   1.188   0.347  0.00  0.00    -0.037 C 
ATOM     11  C   UNL d   1      -2.355  -0.155  -0.375  0.00  0.00     0.093 C 
ATOM     12  O   UNL d   1      -1.709  -2.179   0.706  0.00  0.00    -0.292 OA
ATOM     13  C   UNL d   1      -3.220   2.172  -0.073  0.00  0.00     0.015 C 
ATOM     14  C   UNL d   1      -2.206   1.002   1.879  0.00  0.00     0.015 C 
ENDROOT
BRANCH   2  15
ATOM     15  S   UNL d   1       1.393  -3.293   0.021  0.00  0.00    -0.112 SA
BRANCH  15  16
ATOM     16  C   UNL d   1       0.007  -4.035  -0.859  0.00  0.00     0.184 C 
BRANCH  16  17
ATOM     17  C   UNL d   1      -0.118  -3.548  -2.287  0.00  0.00     0.241 C 
ATOM     18  O   UNL d   1      -0.776  -2.559  -2.614  0.00  0.00    -0.271 OA
ATOM     19  N   UNL d   1       0.540  -4.365  -3.205  0.00  0.00    -0.293 N 
ATOM     20  H   UNL d   1       1.268  -4.999  -2.876  0.00  0.00     0.183 HD
BRANCH  19  21
ATOM     21  N   UNL d   1       0.473  -4.066  -4.580  0.00  0.00    -0.247 NA
ATOM     22  H   UNL d   1      -0.034  -3.175  -4.675  0.00  0.00     0.143 HD
ATOM     23  H   UNL d   1      -0.142  -4.755  -5.021  0.00  0.00     0.143 HD
ENDBRANCH  19  21
ENDBRANCH  16  17
ENDBRANCH  15  16
ENDBRANCH   2  15
TORSDOF 4
