REMARK  7 active torsions:
REMARK  status: ('A' for Active; 'I' for Inactive)
REMARK    1  A    between atoms: C_2  and  S_1 
REMARK    2  A    between atoms: N_10  and  S_1 
REMARK    3  A    between atoms: C_15  and  C_6 
REMARK    4  A    between atoms: C_22  and  C_7 
REMARK    5  A    between atoms: C_9  and  N_14 
REMARK    6  A    between atoms: N_14  and  N_10 
REMARK    7  A    between atoms: O_26  and  C_15 
ROOT
ATOM      1  N   UNL d   1       0.974   1.617   1.983  0.00  0.00    -0.275 N 
ATOM      2  H   UNL d   1       1.863   1.163   2.186  0.00  0.00     0.189 HD
ENDROOT
BRANCH   1   3
ATOM      3  C   UNL d   1       0.535   2.592   2.874  0.00  0.00     0.141 A 
ATOM      4  C   UNL d   1       1.260   2.875   4.032  0.00  0.00     0.077 A 
ATOM      5  S   UNL d   1       2.700   2.145   4.598  0.00  0.00    -0.088 SA
ATOM      6  C   UNL d   1       0.821   3.867   4.891  0.00  0.00     0.055 A 
ATOM      7  C   UNL d   1       2.776   3.150   5.990  0.00  0.00    -0.007 A 
ATOM      8  C   UNL d   1       1.694   4.018   6.011  0.00  0.00     0.046 A 
ATOM      9  N   UNL d   1      -0.302   4.589   4.655  0.00  0.00    -0.351 N 
ATOM     10  C   UNL d   1      -0.940   4.248   3.527  0.00  0.00     0.182 A 
ATOM     11  HN  UNL d   1      -0.631   5.325   5.279  1.00  0.00     0.166 HD
ATOM     12  N   UNL d   1      -0.597   3.298   2.640  0.00  0.00    -0.336 N 
ATOM     13  HN  UNL d   1      -1.170   3.115   1.816  1.00  0.00     0.168 HD
BRANCH   7  14
ATOM     14  C   UNL d   1       3.938   2.999   6.976  0.00  0.00    -0.018 C 
ATOM     15  C   UNL d   1       5.280   3.284   6.266  0.00  0.00     0.020 C 
ATOM     16  C   UNL d   1       3.804   3.993   8.147  0.00  0.00     0.020 C 
ATOM     17  C   UNL d   1       3.966   1.575   7.567  0.00  0.00     0.020 C 
ENDBRANCH   7  14
ENDBRANCH   1   3
BRANCH   1  18
ATOM     18  N   UNL d   1       0.267   1.214   0.793  0.00  0.00    -0.220 N 
ATOM     19  H   UNL d   1      -0.679   1.564   0.641  0.00  0.00     0.200 HD
BRANCH  18  20
ATOM     20  S   UNL d   1       0.863  -0.048  -0.146  0.00  0.00     0.292 S 
ATOM     21  O   UNL d   1       2.142   0.352  -0.693  0.00  0.00    -0.197 OA
ATOM     22  O   UNL d   1       0.699  -1.284   0.583  0.00  0.00    -0.197 OA
BRANCH  20  23
ATOM     23  C   UNL d   1      -0.211  -0.204  -1.548  0.00  0.00     0.153 A 
ATOM     24  N   UNL d   1      -0.023  -1.137  -2.556  0.00  0.00    -0.336 N 
ATOM     25  C   UNL d   1      -1.057  -1.057  -3.480  0.00  0.00     0.111 A 
ATOM     26  C   UNL d   1       1.083  -2.073  -2.657  0.00  0.00     0.157 C 
ATOM     27  C   UNL d   1      -1.881  -0.025  -3.059  0.00  0.00     0.039 A 
ATOM     28  C   UNL d   1      -1.356   0.507  -1.871  0.00  0.00     0.046 A 
BRANCH  25  29
ATOM     29  C   UNL d   1      -1.220  -1.897  -4.651  0.00  0.00     0.309 C 
ATOM     30  O   UNL d   1      -0.471  -2.797  -5.006  0.00  0.00    -0.258 OA
BRANCH  29  31
ATOM     31  O   UNL d   1      -2.360  -1.533  -5.305  0.00  0.00    -0.321 OA
ATOM     32  C   UNL d   1      -2.651  -2.289  -6.477  0.00  0.00     0.213 C 
ENDBRANCH  29  31
ENDBRANCH  25  29
ENDBRANCH  20  23
ENDBRANCH  18  20
ENDBRANCH   1  18
TORSDOF 7
