REMARK  3 active torsions:
REMARK  status: ('A' for Active; 'I' for Inactive)
REMARK    1  A    between atoms: C_14  and  C_3 
REMARK    2  A    between atoms: C_6  and  S_13 
REMARK    3  A    between atoms: S_13  and  C_14 
ROOT
ATOM      1  C   UNL d   1      -3.729  -4.168  -0.015  0.00  0.00     0.007 A 
ATOM      2  C   UNL d   1      -5.948  -5.893  -0.113  0.00  0.00     0.040 A 
ATOM      3  C   UNL d   1      -3.567  -5.566   0.016  0.00  0.00     0.027 A 
ATOM      4  C   UNL d   1      -5.022  -3.627  -0.108  0.00  0.00    -0.044 A 
ATOM      5  C   UNL d   1      -6.122  -4.506  -0.143  0.00  0.00     0.032 A 
ATOM      6  C   UNL d   1      -4.664  -6.441  -0.032  0.00  0.00    -0.039 A 
ATOM      7 CL   UNL d   1      -7.357  -6.887  -0.205  0.00  0.00    -0.084 Cl
ATOM      8  C   UNL d   1      -4.431  -7.927  -0.045  0.00  0.00     0.050 C 
ATOM      9  C   UNL d   1      -5.327  -2.157  -0.207  0.00  0.00     0.049 C 
ENDROOT
BRANCH   1  10
ATOM     10  S   UNL d   1      -2.226  -3.197  -0.036  0.00  0.00    -0.123 SA
BRANCH  10  11
ATOM     11  C   UNL d   1      -2.279  -2.474   1.645  0.00  0.00     0.138 C 
BRANCH  11  12
ATOM     12  C   UNL d   1      -1.020  -1.734   1.955  0.00  0.00     0.044 A 
ATOM     13  N   UNL d   1      -0.341  -1.998   3.081  0.00  0.00    -0.264 N 
ATOM     14  O   UNL d   1       0.756  -1.158   3.069  0.00  0.00    -0.243 OA
ATOM     15  HN  UNL d   1      -0.586  -2.679   3.800  1.00  0.00     0.194 HD
ATOM     16  C   UNL d   1       0.728  -0.389   1.951  0.00  0.00     0.074 A 
ATOM     17  C   UNL d   1       1.840   0.562   1.766  0.00  0.00     0.079 C 
ATOM     18  C   UNL d   1      -0.387  -0.703   1.216  0.00  0.00     0.062 A 
ENDBRANCH  11  12
ENDBRANCH  10  11
ENDBRANCH   1  10
TORSDOF 3
