REMARK  6 active torsions:
REMARK  status: ('A' for Active; 'I' for Inactive)
REMARK    1  A    between atoms: C_2  and  S_1 
REMARK    2  A    between atoms: C_3  and  S_1 
REMARK    3  A    between atoms: C_10  and  C_2 
REMARK    4  A    between atoms: N_12  and  C_10 
REMARK    5  A    between atoms: C_11  and  C_13 
REMARK    6  A    between atoms: C_13  and  N_12 
ROOT
ATOM      1  C   UNL d   1       0.916   1.570   0.310  0.00  0.00     0.176 C 
ENDROOT
BRANCH   1   2
ATOM      2  S   UNL d   1       1.708   0.033  -0.114  0.00  0.00     0.177 S 
ATOM      3  O   UNL d   1       3.049   0.050   0.440  0.00  0.00    -0.223 OA
ATOM      4  O   UNL d   1       1.497  -0.203  -1.530  0.00  0.00    -0.223 OA
BRANCH   2   5
ATOM      5  C   UNL d   1       0.787  -1.228   0.741  0.00  0.00     0.059 A 
ATOM      6  C   UNL d   1      -0.560  -1.430   0.428  0.00  0.00     0.024 A 
ATOM      7  C   UNL d   1      -1.277  -2.431   1.089  0.00  0.00     0.008 A 
ATOM      8  C   UNL d   1      -0.650  -3.239   2.049  0.00  0.00    -0.062 A 
ATOM      9  C   UNL d   1       0.701  -3.027   2.347  0.00  0.00     0.008 A 
ATOM     10  C   UNL d   1      -1.426  -4.327   2.735  0.00  0.00     0.048 C 
ATOM     11  C   UNL d   1       1.423  -2.025   1.694  0.00  0.00     0.024 A 
ENDBRANCH   2   5
ENDBRANCH   1   2
BRANCH   1  12
ATOM     12  C   UNL d   1       0.903   1.821   1.815  0.00  0.00     0.287 C 
BRANCH  12  13
ATOM     13  N   UNL d   1       0.294   3.113   2.228  0.00  0.00     0.089 N 
ATOM     14  C   UNL d   1       0.413   3.232   3.692  0.00  0.00     0.310 C 
BRANCH  13  15
ATOM     15  C   UNL d   1      -1.118   3.217   1.812  0.00  0.00     0.311 C 
BRANCH  15  16
ATOM     16  C   UNL d   1      -1.789   4.531   2.127  0.00  0.00    -0.015 A 
ATOM     17  C   UNL d   1      -1.261   5.742   1.688  0.00  0.00     0.096 A 
ATOM     18  N   UNL d   1      -1.863   6.942   1.865  0.00  0.00    -0.375 N 
ATOM     19  C   UNL d   1      -3.047   6.938   2.512  0.00  0.00     0.087 A 
ATOM     20  HN  UNL d   1      -1.442   7.807   1.526  1.00  0.00     0.164 HD
ATOM     21  C   UNL d   1      -3.653   5.793   3.000  0.00  0.00     0.018 A 
ATOM     22  C   UNL d   1      -3.012   4.574   2.803  0.00  0.00     0.011 A 
ENDBRANCH  15  16
ENDBRANCH  13  15
ENDBRANCH  12  13
ENDBRANCH   1  12
TORSDOF 6
