REMARK  5 active torsions:
REMARK  status: ('A' for Active; 'I' for Inactive)
REMARK    1  A    between atoms: C_7  and  C_1 
REMARK    2  A    between atoms: C_6  and  C_2 
REMARK    3  A    between atoms: C_12  and  C_5 
REMARK       I    between atoms: N_11  and  C_7 
REMARK    4  A    between atoms: C_8  and  C_14 
REMARK    5  A    between atoms: C_14  and  N_11 
ROOT
ATOM      1  C   UNL d   1       1.159   0.591   0.010  0.00  0.00     0.073 A 
ATOM      2  C   UNL d   1       0.979  -0.672   0.561  0.00  0.00     0.175 A 
ATOM      3  O   UNL d   1      -0.313  -1.090   0.358  0.00  0.00    -0.304 OA
ATOM      4  C   UNL d   1      -0.121   0.951  -0.524  0.00  0.00     0.058 A 
ATOM      5  C   UNL d   1      -0.975  -0.110  -0.321  0.00  0.00     0.087 A 
ENDROOT
BRANCH   1   6
ATOM      6  C   UNL d   1       2.351   1.434  -0.025  0.00  0.00     0.254 C 
ATOM      7  N   UNL d   1       3.558   0.771  -0.109  0.00  0.00    -0.352 N 
ATOM      8  H   UNL d   1       3.599  -0.225   0.053  0.00  0.00     0.163 HD
ATOM      9  O   UNL d   1       2.264   2.654  -0.028  0.00  0.00    -0.268 OA
BRANCH   7  10
ATOM     10  C   UNL d   1       4.820   1.477   0.000  0.00  0.00     0.164 C 
BRANCH  10  11
ATOM     11  C   UNL d   1       5.986   0.719  -0.600  0.00  0.00    -0.004 A 
ATOM     12  C   UNL d   1       7.291   0.917  -0.106  0.00  0.00     0.088 A 
ATOM     13  C   UNL d   1       8.401   0.299  -0.704  0.00  0.00     0.003 A 
ATOM     14  O   UNL d   1       7.441   1.764   0.962  0.00  0.00    -0.325 OA
ATOM     15  C   UNL d   1       9.776   0.545  -0.163  0.00  0.00     0.212 C 
ATOM     16  C   UNL d   1       8.206  -0.560  -1.790  0.00  0.00     0.054 A 
ATOM     17  O   UNL d   1       9.800   1.728   0.626  0.00  0.00    -0.362 OA
ATOM     18  C   UNL d   1       8.734   1.699   1.564  0.00  0.00     0.345 C 
ATOM     19  C   UNL d   1       6.923  -0.761  -2.281  0.00  0.00     0.117 A 
ATOM     20  C   UNL d   1       5.823  -0.126  -1.711  0.00  0.00     0.054 A 
ATOM     21  F   UNL d   1       6.742  -1.575  -3.330  0.00  0.00    -0.206 F 
ENDBRANCH  10  11
ENDBRANCH   7  10
ENDBRANCH   1   6
BRANCH   2  22
ATOM     22  C   UNL d   1       1.844  -1.625   1.300  0.00  0.00     0.440 C 
ATOM     23  F   UNL d   1       3.116  -1.166   1.444  0.00  0.00    -0.164 F 
ATOM     24  F   UNL d   1       1.387  -1.885   2.549  0.00  0.00    -0.164 F 
ATOM     25  F   UNL d   1       1.954  -2.814   0.655  0.00  0.00    -0.164 F 
ENDBRANCH   2  22
BRANCH   5  26
ATOM     26  C   UNL d   1      -2.348  -0.406  -0.721  0.00  0.00    -0.002 A 
ATOM     27  C   UNL d   1      -2.897   0.210  -1.858  0.00  0.00     0.016 A 
ATOM     28  C   UNL d   1      -4.180  -0.120  -2.306  0.00  0.00     0.024 A 
ATOM     29  C   UNL d   1      -4.936  -1.060  -1.611  0.00  0.00     0.034 A 
ATOM     30  C   UNL d   1      -4.425  -1.657  -0.461  0.00  0.00     0.024 A 
ATOM     31 CL   UNL d   1      -6.497  -1.496  -2.186  0.00  0.00    -0.084 Cl
ATOM     32  C   UNL d   1      -3.137  -1.331  -0.018  0.00  0.00     0.016 A 
ENDBRANCH   5  26
TORSDOF 5
