REMARK  6 active torsions:
REMARK  status: ('A' for Active; 'I' for Inactive)
REMARK    1  A    between atoms: C_6  and  C_1 
REMARK    2  A    between atoms: C_16  and  C_5 
REMARK    3  A    between atoms: O_17  and  C_6 
REMARK    4  A    between atoms: C_8  and  O_15 
REMARK    5  A    between atoms: O_15  and  C_16 
REMARK    6  A    between atoms: C_20  and  O_17 
ROOT
ATOM      1  C   UNL d   1       1.335   0.802   0.029  0.00  0.00     0.115 A 
ATOM      2  N   UNL d   1       1.459  -0.588   0.005  0.00  0.00    -0.347 N 
ATOM      3  HN  UNL d   1       2.344  -1.092  -0.041  1.00  0.00     0.166 HD
ATOM      4  C   UNL d   1       0.025   1.248   0.099  0.00  0.00     0.087 A 
ATOM      5  C   UNL d   1       0.273  -1.157   0.052  0.00  0.00     0.075 A 
ATOM      6  S   UNL d   1      -1.059  -0.072   0.139  0.00  0.00    -0.084 SA
ENDROOT
BRANCH   5   7
ATOM      7  C   UNL d   1       0.039  -2.637  -0.014  0.00  0.00     0.240 C 
BRANCH   7   8
ATOM      8  O   UNL d   1      -0.051  -3.110   1.330  0.00  0.00    -0.345 OA
BRANCH   8   9
ATOM      9  C   UNL d   1      -0.217  -4.456   1.503  0.00  0.00     0.072 A 
ATOM     10  C   UNL d   1      -0.410  -5.396   0.491  0.00  0.00     0.060 A 
ATOM     11  C   UNL d   1      -0.578  -6.744   0.819  0.00  0.00     0.038 A 
ATOM     12 CL   UNL d   1      -0.826  -7.896  -0.436  0.00  0.00    -0.084 Cl
ATOM     13  C   UNL d   1      -0.551  -7.168   2.144  0.00  0.00     0.048 A 
ATOM     14  C   UNL d   1      -0.353  -6.227   3.150  0.00  0.00     0.038 A 
ATOM     15  C   UNL d   1      -0.188  -4.878   2.836  0.00  0.00     0.060 A 
ATOM     16 CL   UNL d   1      -0.316  -6.731   4.794  0.00  0.00    -0.084 Cl
ENDBRANCH   8   9
ENDBRANCH   7   8
ENDBRANCH   5   7
BRANCH   1  17
ATOM     17  C   UNL d   1       2.487   1.697  -0.092  0.00  0.00     0.310 C 
ATOM     18  O   UNL d   1       2.380   2.917  -0.174  0.00  0.00    -0.258 OA
BRANCH  17  19
ATOM     19  O   UNL d   1       3.661   1.012  -0.194  0.00  0.00    -0.317 OA
BRANCH  19  20
ATOM     20  C   UNL d   1       4.767   1.751  -0.725  0.00  0.00     0.175 C 
ATOM     21  C   UNL d   1       4.728   1.629  -2.239  0.00  0.00     0.034 C 
ENDBRANCH  19  20
ENDBRANCH  17  19
ENDBRANCH   1  17
TORSDOF 6
