REMARK  8 active torsions:
REMARK  status: ('A' for Active; 'I' for Inactive)
REMARK    1  A    between atoms: C_5  and  C_1 
REMARK    2  A    between atoms: C_7  and  C_2 
REMARK    3  A    between atoms: C_11  and  C_5 
REMARK    4  A    between atoms: N_14  and  C_6 
REMARK    5  A    between atoms: O_15  and  C_7 
REMARK    6  A    between atoms: O_16  and  C_11 
REMARK    7  A    between atoms: C_17  and  O_15 
REMARK    8  A    between atoms: C_18  and  O_16 
ROOT
ATOM      1  C   UNL d   1       1.107   1.180  -0.070  0.00  0.00     0.038 A 
ATOM      2  C   UNL d   1       1.865   0.019  -0.046  0.00  0.00     0.078 A 
ATOM      3  N   UNL d   1      -0.253   1.140  -0.117  0.00  0.00    -0.335 N 
ATOM      4  HN  UNL d   1      -0.803   1.999  -0.118  1.00  0.00     0.168 HD
ATOM      5  C   UNL d   1      -0.848  -0.055  -0.164  0.00  0.00     0.154 A 
ATOM      6  N   UNL d   1      -0.206  -1.220  -0.119  0.00  0.00    -0.342 N 
ATOM      7  HN  UNL d   1      -0.704  -2.110  -0.122  1.00  0.00     0.167 HD
ATOM      8  C   UNL d   1       1.143  -1.158  -0.069  0.00  0.00     0.110 A 
ENDROOT
BRANCH   1   9
ATOM      9  C   UNL d   1       1.688   2.567   0.001  0.00  0.00     0.169 C 
BRANCH   9  10
ATOM     10  C   UNL d   1       2.625   2.908  -1.127  0.00  0.00     0.264 C 
ATOM     11  O   UNL d   1       2.940   2.172  -2.051  0.00  0.00    -0.265 OA
BRANCH  10  12
ATOM     12  O   UNL d   1       3.131   4.160  -0.911  0.00  0.00    -0.322 OA
BRANCH  12  13
ATOM     13  C   UNL d   1       4.334   4.474  -1.623  0.00  0.00     0.174 C 
ATOM     14  C   UNL d   1       5.508   4.049  -0.760  0.00  0.00     0.034 C 
ENDBRANCH  12  13
ENDBRANCH  10  12
ENDBRANCH   9  10
ENDBRANCH   1   9
BRANCH   2  15
ATOM     15  C   UNL d   1       3.336  -0.006   0.055  0.00  0.00     0.296 C 
ATOM     16  O   UNL d   1       3.987   0.874   0.588  0.00  0.00    -0.259 OA
BRANCH  15  17
ATOM     17  O   UNL d   1       3.809  -1.137  -0.526  0.00  0.00    -0.318 OA
BRANCH  17  18
ATOM     18  C   UNL d   1       5.236  -1.290  -0.546  0.00  0.00     0.174 C 
ATOM     19  C   UNL d   1       5.712  -1.889   0.764  0.00  0.00     0.034 C 
ENDBRANCH  17  18
ENDBRANCH  15  17
ENDBRANCH   2  15
BRANCH   5  20
ATOM     20  N   UNL d   1      -2.224  -0.082  -0.204  0.00  0.00    -0.274 NA
ATOM     21  H   UNL d   1      -2.599   0.776   0.174  0.00  0.00     0.127 HD
ATOM     22  H   UNL d   1      -2.564  -0.952   0.181  0.00  0.00     0.127 HD
ENDBRANCH   5  20
TORSDOF 8
