REMARK  5 active torsions:
REMARK  status: ('A' for Active; 'I' for Inactive)
REMARK    1  A    between atoms: C_2  and  S_1 
REMARK    2  A    between atoms: N_3  and  S_1 
REMARK    3  A    between atoms: C_4  and  N_3 
REMARK    4  A    between atoms: C_9  and  C_13 
REMARK    5  A    between atoms: N_12  and  C_11 
ROOT
ATOM      1  C   UNL d   1       0.816  -0.753   2.574  0.00  0.00     0.070 A 
ATOM      2  C   UNL d   1       2.190  -1.116   2.525  0.00  0.00     0.058 A 
ATOM      3  C   UNL d   1       0.521  -1.703   4.808  0.00  0.00     0.050 A 
ATOM      4  C   UNL d   1       0.009  -1.046   3.688  0.00  0.00     0.048 A 
ATOM      5  C   UNL d   1       2.665  -1.801   3.668  0.00  0.00     0.032 A 
ATOM      6  C   UNL d   1       1.858  -2.090   4.780  0.00  0.00     0.018 A 
ENDROOT
BRANCH   1   7
ATOM      7  N   UNL d   1       0.147  -0.074   1.507  0.00  0.00    -0.278 N 
ATOM      8  H   UNL d   1      -0.714  -0.504   1.185  0.00  0.00     0.179 HD
BRANCH   7   9
ATOM      9  S   UNL d   1       0.055   1.603   1.505  0.00  0.00     0.267 S 
ATOM     10  O   UNL d   1       1.373   2.183   1.643  0.00  0.00    -0.200 OA
ATOM     11  O   UNL d   1      -0.799   1.945   0.386  0.00  0.00    -0.200 OA
BRANCH   9  12
ATOM     12  C   UNL d   1      -0.835   2.132   2.863  0.00  0.00     0.135 A 
ATOM     13  C   UNL d   1      -0.384   2.761   4.002  0.00  0.00     0.098 A 
ATOM     14  O   UNL d   1      -1.448   3.001   4.818  0.00  0.00    -0.241 OA
ATOM     15  C   UNL d   1       0.919   3.199   4.541  0.00  0.00     0.081 C 
ATOM     16  N   UNL d   1      -2.598   2.498   4.246  0.00  0.00    -0.264 N 
ATOM     17  C   UNL d   1      -2.226   1.968   3.074  0.00  0.00     0.054 A 
ATOM     18  HN  UNL d   1      -3.540   2.525   4.636  1.00  0.00     0.194 HD
ATOM     19  C   UNL d   1      -3.241   1.282   2.239  0.00  0.00     0.072 C 
ENDBRANCH   9  12
ENDBRANCH   7   9
ENDBRANCH   1   7
BRANCH   2  20
ATOM     20  N   UNL d   1       3.057  -0.808   1.474  0.00  0.00    -0.375 N 
ATOM     21  C   UNL d   1       2.611  -0.847   0.065  0.00  0.00     0.149 C 
ATOM     22  C   UNL d   1       3.395   0.216  -0.716  0.00  0.00     0.187 C 
ATOM     23  O   UNL d   1       4.789  -0.129  -0.733  0.00  0.00    -0.388 OA
ATOM     24  C   UNL d   1       5.306  -0.139   0.606  0.00  0.00     0.187 C 
ATOM     25  C   UNL d   1       4.518  -1.061   1.564  0.00  0.00     0.149 C 
ENDBRANCH   2  20
BRANCH   3  26
ATOM     26  C   UNL d   1      -0.350  -1.988   6.004  0.00  0.00     0.417 C 
ATOM     27  F   UNL d   1      -1.619  -1.511   5.869  0.00  0.00    -0.166 F 
ATOM     28  F   UNL d   1      -0.479  -3.321   6.247  0.00  0.00    -0.166 F 
ATOM     29  F   UNL d   1       0.138  -1.439   7.149  0.00  0.00    -0.166 F 
ENDBRANCH   3  26
TORSDOF 5
