REMARK  3 active torsions:
REMARK  status: ('A' for Active; 'I' for Inactive)
REMARK    1  A    between atoms: C_6  and  C_1 
REMARK    2  A    between atoms: C_8  and  N_2 
REMARK    3  A    between atoms: O_10  and  C_6 
ROOT
ATOM      1  C   UNL d   1      -0.533  -1.230   0.016  0.00  0.00     0.127 A 
ATOM      2  N   UNL d   1       0.784  -0.798   0.021  0.00  0.00    -0.277 N 
ATOM      3  N   UNL d   1       0.864   0.559   0.019  0.00  0.00    -0.302 N 
ATOM      4  HN  UNL d   1       1.713   1.125   0.012  1.00  0.00     0.186 HD
ATOM      5  C   UNL d   1      -1.297  -0.069   0.032  0.00  0.00     0.064 A 
ATOM      6  C   UNL d   1      -0.390   0.997   0.027  0.00  0.00     0.024 A 
ATOM      7  C   UNL d   1      -0.673   2.450   0.004  0.00  0.00     0.070 C 
ENDROOT
BRANCH   1   8
ATOM      8  C   UNL d   1      -1.026  -2.578  -0.075  0.00  0.00     0.195 C 
ATOM      9  O   UNL d   1      -0.520  -3.496  -0.700  0.00  0.00    -0.645 OA
BRANCH   8  10
ATOM     10  O   UNL d   1      -2.192  -2.736   0.602  0.00  0.00    -0.772 OA
ATOM     11  H   UNL d   1      -2.467  -1.945   1.100  0.00  0.00     0.167 HD
ENDBRANCH   8  10
ENDBRANCH   1   8
BRANCH   2  12
ATOM     12  C   UNL d   1       2.073  -1.531  -0.012  0.00  0.00     0.043 C 
ATOM     13  C   UNL d   1       2.484  -1.760  -1.478  0.00  0.00     0.039 C 
ATOM     14  C   UNL d   1       3.184  -0.679   0.671  0.00  0.00     0.039 C 
ATOM     15  C   UNL d   1       2.084  -2.875   0.744  0.00  0.00     0.039 C 
ENDBRANCH   2  12
TORSDOF 3
