REMARK  3 active torsions:
REMARK  status: ('A' for Active; 'I' for Inactive)
REMARK    1  A    between atoms: C_4  and  C_1 
REMARK    2  A    between atoms: O_13  and  C_2 
REMARK    3  A    between atoms: O_12  and  C_3 
REMARK       I    between atoms: N_9  and  C_4 
ROOT
ATOM      1  C   UNL d   1      -0.110  -2.291   0.090  0.00  0.00     0.101 A 
ATOM      2  C   UNL d   1      -1.272  -1.476   0.014  0.00  0.00     0.108 A 
ATOM      3  C   UNL d   1       1.177  -1.729   0.145  0.00  0.00     0.108 A 
ATOM      4  C   UNL d   1      -1.094  -0.082  -0.037  0.00  0.00     0.070 A 
ATOM      5  C   UNL d   1       1.321  -0.343   0.111  0.00  0.00     0.070 A 
ATOM      6  C   UNL d   1       0.196   0.470   0.004  0.00  0.00     0.053 A 
ATOM      7 CL   UNL d   1      -2.360   1.092  -0.134  0.00  0.00    -0.081 Cl
ATOM      8 CL   UNL d   1       2.873   0.408   0.185  0.00  0.00    -0.081 Cl
ENDROOT
BRANCH   1   9
ATOM      9  C   UNL d   1      -0.259  -3.766   0.065  0.00  0.00     0.255 C 
ATOM     10  O   UNL d   1      -0.836  -4.341  -0.849  0.00  0.00    -0.268 OA
ATOM     11  N   UNL d   1       0.336  -4.459   1.082  0.00  0.00    -0.366 N 
ATOM     12  H   UNL d   1       1.001  -4.018   1.706  0.00  0.00     0.159 HD
ATOM     13  H   UNL d   1       0.341  -5.467   1.010  0.00  0.00     0.159 HD
ENDBRANCH   1   9
BRANCH   2  14
ATOM     14  O   UNL d   1      -2.438  -2.188   0.053  0.00  0.00    -0.353 OA
ATOM     15  C   UNL d   1      -3.712  -1.581  -0.045  0.00  0.00     0.210 C 
ENDBRANCH   2  14
BRANCH   3  16
ATOM     16  O   UNL d   1       2.294  -2.506   0.328  0.00  0.00    -0.353 OA
ATOM     17  C   UNL d   1       2.751  -3.079  -0.900  0.00  0.00     0.210 C 
ENDBRANCH   3  16
TORSDOF 3
