REMARK  5 active torsions:
REMARK  status: ('A' for Active; 'I' for Inactive)
REMARK    1  A    between atoms: N_3  and  C_1 
REMARK    2  A    between atoms: O_11  and  C_4 
REMARK    3  A    between atoms: N_7  and  C_6 
REMARK    4  A    between atoms: N_16  and  C_10 
REMARK    5  A    between atoms: C_17  and  O_11 
ROOT
ATOM      1  C   UNL d   1       0.224   1.178  -0.106  0.00  0.00     0.063 A 
ATOM      2  C   UNL d   1       1.622   1.246  -0.249  0.00  0.00     0.071 A 
ATOM      3  C   UNL d   1       2.444   0.110  -0.130  0.00  0.00     0.105 A 
ATOM      4  C   UNL d   1      -0.357  -0.087   0.046  0.00  0.00     0.063 A 
ATOM      5  C   UNL d   1       1.862  -1.160   0.003  0.00  0.00     0.069 A 
ATOM      6  C   UNL d   1       0.461  -1.228   0.087  0.00  0.00     0.058 A 
ATOM      7 CL   UNL d   1      -2.057  -0.406   0.026  0.00  0.00    -0.082 Cl
ENDROOT
BRANCH   3   8
ATOM      8  O   UNL d   1       3.820   0.220  -0.197  0.00  0.00    -0.308 OA
BRANCH   8   9
ATOM      9  C   UNL d   1       4.440   1.302   0.403  0.00  0.00     0.076 A 
ATOM     10  C   UNL d   1       3.955   1.963   1.538  0.00  0.00     0.039 A 
ATOM     11  C   UNL d   1       4.606   3.100   2.022  0.00  0.00     0.026 A 
ATOM     12  C   UNL d   1       5.785   3.531   1.418  0.00  0.00     0.034 A 
ATOM     13  C   UNL d   1       6.314   2.837   0.331  0.00  0.00     0.026 A 
ATOM     14 CL   UNL d   1       6.590   4.926   2.022  0.00  0.00    -0.084 Cl
ATOM     15  C   UNL d   1       5.639   1.723  -0.178  0.00  0.00     0.039 A 
ENDBRANCH   8   9
ENDBRANCH   3   8
BRANCH   5  16
ATOM     16  N   UNL d   1       2.520  -2.402  -0.050  0.00  0.00    -0.350 N 
ATOM     17  C   UNL d   1       3.649  -2.603   0.544  0.00  0.00     0.178 C 
ATOM     18  HN  UNL d   1       2.092  -3.167  -0.573  1.00  0.00     0.166 HD
BRANCH  17  19
ATOM     19  N   UNL d   1       4.337  -3.796   0.559  0.00  0.00    -0.386 N 
ATOM     20  C   UNL d   1       5.658  -3.923   1.145  0.00  0.00     0.149 C 
ATOM     21  C   UNL d   1       3.812  -4.992  -0.086  0.00  0.00     0.149 C 
ENDBRANCH  17  19
ENDBRANCH   5  16
BRANCH   1  22
ATOM     22  N   UNL d   1      -0.503   2.411  -0.096  0.00  0.00    -0.331 N 
ATOM     23  C   UNL d   1      -1.693   2.690   0.548  0.00  0.00     0.096 A 
ATOM     24  C   UNL d   1      -2.039   4.006   0.333  0.00  0.00     0.019 A 
ATOM     25  C   UNL d   1      -1.014   4.586  -0.435  0.00  0.00     0.019 A 
ATOM     26  C   UNL d   1      -0.079   3.602  -0.668  0.00  0.00     0.096 A 
ENDBRANCH   1  22
TORSDOF 5
