REMARK  5 active torsions:
REMARK  status: ('A' for Active; 'I' for Inactive)
REMARK    1  A    between atoms: C_2  and  C_1 
REMARK    2  A    between atoms: C_8  and  C_2 
REMARK    3  A    between atoms: C_11  and  N_3 
REMARK    4  A    between atoms: C_9  and  C_8 
REMARK    5  A    between atoms: N_18  and  C_10 
ROOT
ATOM      1  C   UNL d   1      -0.512  -2.937   0.025  0.00  0.00     0.077 C 
ATOM      2  C   UNL d   1       0.538  -3.787  -0.001  0.00  0.00     0.104 C 
ENDROOT
BRANCH   1   3
ATOM      3  C   UNL d   1      -0.149  -1.578   0.182  0.00  0.00     0.154 A 
ATOM      4  N   UNL d   1       0.064  -0.715  -0.902  0.00  0.00    -0.224 N 
ATOM      5  N   UNL d   1       0.367   0.502  -0.372  0.00  0.00     0.001 NA
ATOM      6  N   UNL d   1       0.362   0.366   0.942  0.00  0.00    -0.007 NA
ATOM      7  N   UNL d   1       0.052  -0.908   1.301  0.00  0.00    -0.269 N 
ATOM      8  HN  UNL d   1      -0.012  -1.275   2.250  1.00  0.00     0.185 HD
BRANCH   4   9
ATOM      9  C   UNL d   1      -0.019  -0.869  -2.321  0.00  0.00     0.056 A 
ATOM     10  C   UNL d   1      -0.355  -2.076  -2.950  0.00  0.00     0.031 A 
ATOM     11  C   UNL d   1      -0.407  -2.164  -4.347  0.00  0.00     0.002 A 
ATOM     12  C   UNL d   1      -0.125  -1.055  -5.134  0.00  0.00     0.000 A 
ATOM     13  C   UNL d   1       0.205   0.153  -4.528  0.00  0.00     0.002 A 
ATOM     14  C   UNL d   1       0.251   0.248  -3.134  0.00  0.00     0.031 A 
ENDBRANCH   4   9
ENDBRANCH   1   3
BRANCH   1  15
ATOM     15  C   UNL d   1      -1.972  -3.317  -0.060  0.00  0.00     0.197 C 
ATOM     16  O   UNL d   1      -2.366  -4.309  -0.663  0.00  0.00    -0.286 OA
BRANCH  15  17
ATOM     17  C   UNL d   1      -3.014  -2.510   0.649  0.00  0.00     0.021 A 
ATOM     18  C   UNL d   1      -3.115  -1.116   0.581  0.00  0.00     0.058 A 
ATOM     19  C   UNL d   1      -4.098  -0.448   1.311  0.00  0.00     0.120 A 
ATOM     20  F   UNL d   1      -4.146   0.889   1.267  0.00  0.00    -0.206 F 
ATOM     21  C   UNL d   1      -5.028  -1.139   2.068  0.00  0.00     0.084 A 
ATOM     22  C   UNL d   1      -4.973  -2.525   2.076  0.00  0.00     0.120 A 
ATOM     23  C   UNL d   1      -3.983  -3.215   1.377  0.00  0.00     0.058 A 
ATOM     24  F   UNL d   1      -5.889  -3.212   2.770  0.00  0.00    -0.206 F 
ENDBRANCH  15  17
ENDBRANCH   1  15
BRANCH   2  25
ATOM     25  N   UNL d   1       0.752  -5.138  -0.238  0.00  0.00    -0.398 N 
ATOM     26  C   UNL d   1      -0.044  -5.956  -1.150  0.00  0.00     0.148 C 
ATOM     27  C   UNL d   1       1.906  -5.834   0.345  0.00  0.00     0.148 C 
ENDBRANCH   2  25
TORSDOF 5
