REMARK  3 active torsions:
REMARK  status: ('A' for Active; 'I' for Inactive)
REMARK    1  A    between atoms: C_6  and  N_1 
REMARK    2  A    between atoms: C_2  and  C_8 
REMARK       I    between atoms: N_3  and  C_2 
REMARK       I    between atoms: C_5  and  N_4 
REMARK    3  A    between atoms: C_16  and  C_5 
ROOT
ATOM      1  C   UNL d   1      -2.335   4.783   0.730  0.00  0.00     0.253 C 
ATOM      2  N   UNL d   1      -3.434   4.679   1.578  0.00  0.00    -0.345 N 
ATOM      3  N   UNL d   1      -5.677   3.639   3.045  0.00  0.00    -0.349 N 
ATOM      4  C   UNL d   1      -6.806   3.275   3.777  0.00  0.00     0.224 C 
ATOM      5  C   UNL d   1      -5.875   4.297   1.741  0.00  0.00     0.145 C 
ATOM      6  C   UNL d   1      -4.331   3.073   3.237  0.00  0.00     0.145 C 
ATOM      7  C   UNL d   1      -3.228   4.085   2.902  0.00  0.00     0.146 C 
ATOM      8  C   UNL d   1      -4.756   5.310   1.436  0.00  0.00     0.146 C 
ATOM      9  O   UNL d   1      -1.206   4.430   1.079  0.00  0.00    -0.267 OA
ATOM     10  O   UNL d   1      -7.935   3.585   3.393  0.00  0.00    -0.273 OA
ENDROOT
BRANCH   1  11
ATOM     11  C   UNL d   1      -2.461   5.309  -0.658  0.00  0.00     0.032 A 
ATOM     12  C   UNL d   1      -1.383   6.043  -1.184  0.00  0.00     0.019 A 
ATOM     13  C   UNL d   1      -1.417   6.522  -2.497  0.00  0.00     0.037 A 
ATOM     14  C   UNL d   1      -2.542   6.270  -3.291  0.00  0.00     0.102 A 
ATOM     15  C   UNL d   1      -3.609   5.511  -2.789  0.00  0.00     0.037 A 
ATOM     16  C   UNL d   1      -3.549   5.005  -1.486  0.00  0.00     0.019 A 
BRANCH  14  17
ATOM     17  N   UNL d   1      -2.602   6.785  -4.665  0.00  0.00    -0.116 N 
ATOM     18  O   UNL d   1      -3.640   6.593  -5.307  0.00  0.00    -0.532 OA
ATOM     19  O   UNL d   1      -1.604   7.387  -5.097  0.00  0.00    -0.532 OA
ENDBRANCH  14  17
ENDBRANCH   1  11
BRANCH   4  20
ATOM     20  C   UNL d   1      -6.603   2.532   5.111  0.00  0.00     0.078 C 
ATOM     21  C   UNL d   1      -7.838   1.731   5.547  0.00  0.00     0.014 C 
ATOM     22  C   UNL d   1      -8.964   2.568   6.145  0.00  0.00     0.001 C 
ATOM     23  C   UNL d   1      -8.482   3.522   7.230  0.00  0.00     0.000 C 
ATOM     24  C   UNL d   1      -7.264   4.336   6.809  0.00  0.00     0.001 C 
ATOM     25  C   UNL d   1      -6.139   3.481   6.224  0.00  0.00     0.014 C 
ENDBRANCH   4  20
TORSDOF 3
