REMARK  4 active torsions:
REMARK  status: ('A' for Active; 'I' for Inactive)
REMARK    1  A    between atoms: C_14  and  C_3 
REMARK    2  A    between atoms: C_7  and  C_4 
REMARK    3  A    between atoms: C_16  and  C_13 
REMARK    4  A    between atoms: C_20  and  C_17 
ROOT
ATOM      1  C   UNL d   1       0.176  -0.789  -0.025  0.00  0.00     0.142 A 
ATOM      2  N   UNL d   1       0.339   0.608   0.010  0.00  0.00    -0.234 N 
ATOM      3  C   UNL d   1      -0.778   1.440   0.018  0.00  0.00     0.144 A 
ATOM      4  C   UNL d   1       1.447  -1.325  -0.045  0.00  0.00     0.060 A 
ATOM      5  N   UNL d   1      -1.059  -1.378  -0.016  0.00  0.00    -0.336 N 
ATOM      6  HN  UNL d   1      -1.158  -2.393  -0.034  1.00  0.00     0.167 HD
ATOM      7  C   UNL d   1      -2.013   0.896   0.014  0.00  0.00     0.071 A 
ATOM      8  N   UNL d   1       1.653   0.940   0.039  0.00  0.00    -0.302 N 
ATOM      9  HN  UNL d   1       2.054   1.877   0.075  1.00  0.00     0.186 HD
ATOM     10  C   UNL d   1      -2.108  -0.600   0.016  0.00  0.00     0.120 A 
ATOM     11  C   UNL d   1       2.308  -0.222   0.011  0.00  0.00     0.126 A 
ENDROOT
BRANCH   4  12
ATOM     12  C   UNL d   1       1.834  -2.764  -0.095  0.00  0.00     0.090 A 
ATOM     13  N   UNL d   1       3.096  -3.138  -0.007  0.00  0.00    -0.349 N 
ATOM     14  C   UNL d   1       3.187  -4.525  -0.013  0.00  0.00     0.050 A 
ATOM     15  HN  UNL d   1       3.891  -2.502   0.056  1.00  0.00     0.166 HD
ATOM     16  C   UNL d   1       1.984  -5.181  -0.188  0.00  0.00     0.082 A 
ATOM     17  S   UNL d   1       0.707  -4.052  -0.269  0.00  0.00    -0.081 SA
BRANCH  14  18
ATOM     18  C   UNL d   1       4.463  -5.211   0.153  0.00  0.00    -0.009 A 
ATOM     19  C   UNL d   1       4.534  -6.487   0.738  0.00  0.00     0.015 A 
ATOM     20  C   UNL d   1       5.764  -7.127   0.909  0.00  0.00     0.024 A 
ATOM     21  C   UNL d   1       6.935  -6.494   0.499  0.00  0.00     0.034 A 
ATOM     22  C   UNL d   1       6.885  -5.228  -0.080  0.00  0.00     0.024 A 
ATOM     23 CL   UNL d   1       8.449  -7.279   0.720  0.00  0.00    -0.084 Cl
ATOM     24  C   UNL d   1       5.652  -4.587  -0.249  0.00  0.00     0.015 A 
ENDBRANCH  14  18
ENDBRANCH   4  12
BRANCH   3  25
ATOM     25  C   UNL d   1      -0.594   2.913   0.025  0.00  0.00     0.434 C 
ATOM     26  F   UNL d   1       0.673   3.373  -0.058  0.00  0.00    -0.165 F 
ATOM     27  F   UNL d   1      -1.273   3.476  -1.014  0.00  0.00    -0.165 F 
ATOM     28  F   UNL d   1      -1.134   3.453   1.151  0.00  0.00    -0.165 F 
ENDBRANCH   3  25
BRANCH  10  29
ATOM     29  C   UNL d   1      -3.510  -1.220   0.067  0.00  0.00     0.432 C 
ATOM     30  F   UNL d   1      -4.494  -0.279   0.117  0.00  0.00    -0.165 F 
ATOM     31  F   UNL d   1      -3.773  -1.990  -1.023  0.00  0.00    -0.165 F 
ATOM     32  F   UNL d   1      -3.682  -2.010   1.159  0.00  0.00    -0.165 F 
ENDBRANCH  10  29
TORSDOF 4
