REMARK  4 active torsions:
REMARK  status: ('A' for Active; 'I' for Inactive)
REMARK       I    between atoms: N_2  and  C_1 
REMARK    1  A    between atoms: C_3  and  C_1 
REMARK       I    between atoms: C_5  and  N_2 
REMARK    2  A    between atoms: C_4  and  N_6 
REMARK       I    between atoms: N_6  and  C_5 
REMARK    3  A    between atoms: O_20  and  C_13 
REMARK    4  A    between atoms: O_19  and  C_14 
ROOT
ATOM      1  C   UNL d   1       0.775   0.150  -0.481  0.00  0.00     0.265 C 
ATOM      2  N   UNL d   1       1.386  -0.844   0.286  0.00  0.00    -0.275 N 
ATOM      3  C   UNL d   1       1.278  -1.388   1.553  0.00  0.00     0.327 C 
ATOM      4  N   UNL d   1       0.129  -1.114   2.235  0.00  0.00    -0.303 N 
ATOM      5  O   UNL d   1       0.902   0.138  -1.704  0.00  0.00    -0.267 OA
ATOM      6  O   UNL d   1       2.159  -2.158   1.936  0.00  0.00    -0.247 OA
ATOM      7  H   UNL d   1       2.087  -1.340  -0.249  0.00  0.00     0.173 HD
ATOM      8  H   UNL d   1      -0.692  -1.039   1.642  0.00  0.00     0.171 HD
ENDROOT
BRANCH   1   9
ATOM      9  C   UNL d   1      -0.020   1.220   0.140  0.00  0.00     0.099 A 
ATOM     10  C   UNL d   1       0.493   2.523   0.304  0.00  0.00     0.086 A 
ATOM     11  C   UNL d   1      -0.306   3.487   0.948  0.00  0.00     0.038 A 
ATOM     12  C   UNL d   1      -1.578   3.186   1.424  0.00  0.00     0.005 A 
ATOM     13  C   UNL d   1      -2.090   1.911   1.232  0.00  0.00     0.038 A 
ATOM     14  C   UNL d   1      -1.339   0.942   0.557  0.00  0.00     0.086 A 
BRANCH  10  15
ATOM     15  O   UNL d   1       1.708   3.062  -0.017  0.00  0.00    -0.355 OA
ATOM     16  C   UNL d   1       2.624   2.388  -0.859  0.00  0.00     0.210 C 
ENDBRANCH  10  15
BRANCH  14  17
ATOM     17  O   UNL d   1      -1.943  -0.292   0.536  0.00  0.00    -0.355 OA
ATOM     18  C   UNL d   1      -1.973  -0.977  -0.715  0.00  0.00     0.210 C 
ENDBRANCH  14  17
ENDBRANCH   1   9
BRANCH   4  19
ATOM     19  C   UNL d   1      -0.164  -1.622   3.520  0.00  0.00     0.114 A 
ATOM     20  C   UNL d   1       0.754  -1.657   4.571  0.00  0.00     0.149 A 
ATOM     21  C   UNL d   1       0.388  -2.163   5.816  0.00  0.00     0.087 A 
ATOM     22  F   UNL d   1       1.980  -1.133   4.435  0.00  0.00    -0.203 F 
ATOM     23  C   UNL d   1      -0.905  -2.643   6.003  0.00  0.00     0.122 A 
ATOM     24  C   UNL d   1      -1.839  -2.615   4.980  0.00  0.00     0.087 A 
ATOM     25  F   UNL d   1      -1.257  -3.135   7.198  0.00  0.00    -0.206 F 
ATOM     26  C   UNL d   1      -1.463  -2.089   3.751  0.00  0.00     0.149 A 
ATOM     27  F   UNL d   1      -2.362  -2.075   2.753  0.00  0.00    -0.203 F 
ENDBRANCH   4  19
TORSDOF 4
