REMARK  3 active torsions:
REMARK  status: ('A' for Active; 'I' for Inactive)
REMARK    1  A    between atoms: C_8  and  C_2 
REMARK    2  A    between atoms: S_9  and  C_3 
REMARK    3  A    between atoms: C_10  and  N_6 
ROOT
ATOM      1  C   UNL d   1       1.132  -0.302   0.073  0.00  0.00     0.094 C 
ATOM      2  C   UNL d   1       0.174   0.856   0.090  0.00  0.00     0.033 C 
ATOM      3  C   UNL d   1      -1.129   0.508   0.194  0.00  0.00     0.061 C 
ATOM      4  S   UNL d   1       0.385  -1.714   0.794  0.00  0.00    -0.033 SA
ATOM      5  S   UNL d   1      -1.497  -1.204   0.221  0.00  0.00    -0.043 SA
ATOM      6  N   UNL d   1       2.347  -0.192  -0.369  0.00  0.00    -0.349 N 
ATOM      7  HN  UNL d   1       2.630   0.698  -0.780  1.00  0.00     0.166 HD
ENDROOT
BRANCH   2   8
ATOM      8  C   UNL d   1       0.713   2.224   0.102  0.00  0.00    -0.021 A 
ATOM      9  C   UNL d   1       0.767   2.943   1.303  0.00  0.00     0.012 A 
ATOM     10  C   UNL d   1       1.291   4.236   1.324  0.00  0.00     0.001 A 
ATOM     11  C   UNL d   1       1.761   4.818   0.149  0.00  0.00     0.000 A 
ATOM     12  C   UNL d   1       1.714   4.108  -1.049  0.00  0.00     0.001 A 
ATOM     13  C   UNL d   1       1.197   2.811  -1.073  0.00  0.00     0.012 A 
ENDBRANCH   2   8
BRANCH   6  14
ATOM     14  C   UNL d   1       3.291  -1.222  -0.314  0.00  0.00     0.033 A 
ATOM     15  C   UNL d   1       3.104  -2.477  -0.905  0.00  0.00     0.031 A 
ATOM     16  C   UNL d   1       4.103  -3.454  -0.838  0.00  0.00     0.026 A 
ATOM     17  C   UNL d   1       5.317  -3.161  -0.221  0.00  0.00     0.034 A 
ATOM     18  C   UNL d   1       5.540  -1.902   0.328  0.00  0.00     0.026 A 
ATOM     19 CL   UNL d   1       6.554  -4.355  -0.154  0.00  0.00    -0.084 Cl
ATOM     20  C   UNL d   1       4.527  -0.940   0.279  0.00  0.00     0.031 A 
ENDBRANCH   6  14
BRANCH   3  21
ATOM     21  S   UNL d   1      -2.482   1.593   0.373  0.00  0.00    -0.126 SA
ATOM     22  C   UNL d   1      -2.281   2.756  -0.991  0.00  0.00     0.096 C 
ENDBRANCH   3  21
TORSDOF 3
