REMARK  2 active torsions:
REMARK  status: ('A' for Active; 'I' for Inactive)
REMARK    1  A    between atoms: C_8  and  C_1 
REMARK    2  A    between atoms: C_9  and  C_10 
ROOT
ATOM      1  C   UNL d   1       0.813   2.413   0.011  0.00  0.00     0.010 A 
ATOM      2  C   UNL d   1       1.649   5.142  -0.001  0.00  0.00    -0.051 A 
ATOM      3  C   UNL d   1       0.396   3.293   1.013  0.00  0.00     0.016 A 
ATOM      4  C   UNL d   1       1.652   2.906  -0.994  0.00  0.00     0.016 A 
ATOM      5  C   UNL d   1       2.062   4.245  -0.999  0.00  0.00     0.009 A 
ATOM      6  C   UNL d   1       0.809   4.632   1.008  0.00  0.00     0.009 A 
ENDROOT
BRANCH   1   7
ATOM      7  C   UNL d   1       0.390   1.019   0.009  0.00  0.00     0.144 A 
ATOM      8  N   UNL d   1      -0.464   0.490   0.951  0.00  0.00    -0.266 N 
ATOM      9  N   UNL d   1      -0.625  -0.791   0.648  0.00  0.00    -0.005 NA
ATOM     10  HN  UNL d   1      -0.890   0.988   1.732  1.00  0.00     0.186 HD
ATOM     11  N   UNL d   1       0.126  -0.974  -0.442  0.00  0.00    -0.225 N 
ATOM     12  N   UNL d   1       0.781   0.103  -0.896  0.00  0.00    -0.271 N 
ATOM     13  H   UNL d   1       0.196  -1.881  -0.895  0.00  0.00     0.205 HD
ATOM     14  HN  UNL d   1       1.401   0.200  -1.700  1.00  0.00     0.190 HD
ENDBRANCH   1   7
BRANCH   2  15
ATOM     15  C   UNL d   1       2.071   6.621   0.007  0.00  0.00    -0.024 C 
ATOM     16  C   UNL d   1       2.980   7.011  -1.181  0.00  0.00     0.019 C 
ATOM     17  C   UNL d   1       0.817   7.519  -0.065  0.00  0.00     0.019 C 
ATOM     18  C   UNL d   1       2.849   6.944   1.301  0.00  0.00     0.019 C 
ENDBRANCH   2  15
TORSDOF 2
