REMARK  3 active torsions:
REMARK  status: ('A' for Active; 'I' for Inactive)
REMARK    1  A    between atoms: C_2  and  C_1 
REMARK    2  A    between atoms: O_3  and  C_1 
REMARK    3  A    between atoms: C_6  and  O_3 
ROOT
ATOM      1  C   UNL d   1       1.082   0.069   0.154  0.00  0.00     0.301 C 
ATOM      2  O   UNL d   1       2.304   0.045   0.150  0.00  0.00    -0.259 OA
ENDROOT
BRANCH   1   3
ATOM      3  C   UNL d   1       0.303   1.325   0.001  0.00  0.00     0.078 A 
ATOM      4  C   UNL d   1      -1.092   1.367  -0.057  0.00  0.00     0.132 A 
ATOM      5  F   UNL d   1      -1.836   0.253   0.008  0.00  0.00    -0.205 F 
ATOM      6  C   UNL d   1      -1.769   2.581  -0.189  0.00  0.00     0.043 A 
ATOM      7  C   UNL d   1      -1.052   3.774  -0.268  0.00  0.00     0.003 A 
ATOM      8  C   UNL d   1       0.340   3.750  -0.223  0.00  0.00     0.001 A 
ATOM      9  C   UNL d   1       1.016   2.532  -0.090  0.00  0.00     0.021 A 
ENDBRANCH   1   3
BRANCH   1  10
ATOM     10  O   UNL d   1       0.237  -1.014   0.326  0.00  0.00    -0.275 OA
BRANCH  10  11
ATOM     11  C   UNL d   1       0.665  -2.357   0.440  0.00  0.00     0.081 A 
ATOM     12  C   UNL d   1       1.849  -2.847  -0.106  0.00  0.00     0.063 A 
ATOM     13  C   UNL d   1       2.138  -4.213  -0.003  0.00  0.00     0.058 A 
ATOM     14 CL   UNL d   1       3.615  -4.776  -0.704  0.00  0.00    -0.082 Cl
ATOM     15  C   UNL d   1       1.239  -5.078   0.635  0.00  0.00     0.056 A 
ATOM     16  C   UNL d   1       0.052  -4.573   1.176  0.00  0.00     0.028 A 
ATOM     17 CL   UNL d   1       1.523  -6.777   0.773  0.00  0.00    -0.083 Cl
ATOM     18  C   UNL d   1      -0.237  -3.212   1.075  0.00  0.00     0.039 A 
ENDBRANCH  10  11
ENDBRANCH   1  10
TORSDOF 3
