REMARK  6 active torsions:
REMARK  status: ('A' for Active; 'I' for Inactive)
REMARK    1  A    between atoms: N_2  and  S_1 
REMARK    2  A    between atoms: C_5  and  N_2 
REMARK    3  A    between atoms: C_6  and  N_2 
REMARK    4  A    between atoms: C_7  and  C_3 
REMARK    5  A    between atoms: C_4  and  C_6 
REMARK    6  A    between atoms: O_14  and  C_7 
ROOT
ATOM      1  N   UNL d   1       0.980  -0.457   1.769  0.00  0.00    -0.171 NA
ENDROOT
BRANCH   1   2
ATOM      2  S   UNL d   1       1.539  -0.175   0.163  0.00  0.00     0.212 S 
ATOM      3  O   UNL d   1       0.481  -0.569  -0.746  0.00  0.00    -0.211 OA
ATOM      4  O   UNL d   1       2.855  -0.769   0.049  0.00  0.00    -0.211 OA
ATOM      5  C   UNL d   1       1.704   1.605   0.022  0.00  0.00     0.180 C 
ENDBRANCH   1   2
BRANCH   1   6
ATOM      6  C   UNL d   1       0.002   0.513   2.231  0.00  0.00     0.041 A 
ATOM      7  C   UNL d   1       0.333   1.548   3.136  0.00  0.00     0.061 A 
ATOM      8  C   UNL d   1      -0.641   2.514   3.454  0.00  0.00     0.019 A 
ATOM      9  C   UNL d   1      -1.913   2.471   2.886  0.00  0.00     0.001 A 
ATOM     10  C   UNL d   1      -2.241   1.449   2.000  0.00  0.00     0.002 A 
ATOM     11  C   UNL d   1      -1.292   0.478   1.680  0.00  0.00     0.026 A 
BRANCH   7  12
ATOM     12  C   UNL d   1       1.640   1.736   3.829  0.00  0.00     0.294 C 
ATOM     13  O   UNL d   1       1.724   2.285   4.913  0.00  0.00    -0.259 OA
BRANCH  12  14
ATOM     14  O   UNL d   1       2.683   1.318   3.074  0.00  0.00    -0.322 OA
ATOM     15  C   UNL d   1       3.963   1.417   3.705  0.00  0.00     0.213 C 
ENDBRANCH  12  14
ENDBRANCH   7  12
ENDBRANCH   1   6
BRANCH   1  16
ATOM     16  C   UNL d   1       0.585  -1.903   1.996  0.00  0.00     0.157 C 
BRANCH  16  17
ATOM     17  C   UNL d   1       1.694  -2.841   2.405  0.00  0.00     0.017 C 
ATOM     18  C   UNL d   1       1.832  -4.068   1.742  0.00  0.00     0.125 C 
ATOM     19  F   UNL d   1       0.930  -4.432   0.819  0.00  0.00    -0.205 F 
ATOM     20  C   UNL d   1       2.854  -4.969   2.047  0.00  0.00     0.043 C 
ATOM     21  C   UNL d   1       3.791  -4.645   3.020  0.00  0.00     0.005 C 
ATOM     22  C   UNL d   1       3.635  -3.468   3.746  0.00  0.00     0.024 C 
ATOM     23  C   UNL d   1       2.558  -2.611   3.482  0.00  0.00     0.044 C 
ATOM     24 CL   UNL d   1       2.246  -1.391   4.655  0.00  0.00    -0.084 Cl
ENDBRANCH  16  17
ENDBRANCH   1  16
TORSDOF 6
