REMARK  5 active torsions:
REMARK  status: ('A' for Active; 'I' for Inactive)
REMARK    1  A    between atoms: O_5  and  C_1 
REMARK    2  A    between atoms: N_11  and  C_2 
REMARK    3  A    between atoms: C_10  and  O_5 
REMARK    4  A    between atoms: C_16  and  N_11 
REMARK    5  A    between atoms: C_19  and  C_16 
ROOT
ATOM      1  C   UNL d   1      -0.813   1.020  -0.256  0.00  0.00     0.142 A 
ATOM      2  C   UNL d   1      -1.412  -0.240  -0.243  0.00  0.00     0.139 A 
ATOM      3  N   UNL d   1      -0.695  -1.352  -0.002  0.00  0.00    -0.330 N 
ATOM      4  HN  UNL d   1      -1.146  -2.264   0.061  1.00  0.00     0.168 HD
ATOM      5  N   UNL d   1       1.293  -0.059   0.172  0.00  0.00    -0.347 N 
ATOM      6  HN  UNL d   1       2.300  -0.016   0.331  1.00  0.00     0.167 HD
ATOM      7  C   UNL d   1       0.558   1.057  -0.032  0.00  0.00     0.044 A 
ATOM      8  C   UNL d   1       0.633  -1.226   0.154  0.00  0.00     0.079 A 
ATOM      9  C   UNL d   1       1.306   2.358   0.006  0.00  0.00     0.071 C 
ATOM     10  C   UNL d   1       1.433  -2.488   0.237  0.00  0.00     0.089 C 
ENDROOT
BRANCH   2  11
ATOM     11  N   UNL d   1      -2.772  -0.390  -0.511  0.00  0.00    -0.370 N 
ATOM     12  H   UNL d   1      -2.999  -0.193  -1.478  0.00  0.00     0.161 HD
BRANCH  11  13
ATOM     13  C   UNL d   1      -3.472  -1.502   0.113  0.00  0.00     0.160 C 
BRANCH  13  14
ATOM     14  C   UNL d   1      -3.368  -2.858  -0.544  0.00  0.00    -0.040 A 
ATOM     15  C   UNL d   1      -3.505  -3.998   0.274  0.00  0.00     0.010 A 
ATOM     16  C   UNL d   1      -3.536  -5.284  -0.274  0.00  0.00     0.024 A 
ATOM     17  C   UNL d   1      -3.432  -5.444  -1.650  0.00  0.00     0.034 A 
ATOM     18  C   UNL d   1      -3.286  -4.331  -2.479  0.00  0.00     0.024 A 
ATOM     19 CL   UNL d   1      -3.505  -7.021  -2.332  0.00  0.00    -0.084 Cl
ATOM     20  C   UNL d   1      -3.259  -3.043  -1.929  0.00  0.00     0.010 A 
ENDBRANCH  13  14
ENDBRANCH  11  13
ENDBRANCH   2  11
BRANCH   1  21
ATOM     21  O   UNL d   1      -1.424   2.199  -0.593  0.00  0.00    -0.303 OA
BRANCH  21  22
ATOM     22  C   UNL d   1      -2.537   2.683   0.060  0.00  0.00     0.098 A 
ATOM     23  C   UNL d   1      -3.106   3.850  -0.484  0.00  0.00     0.069 A 
ATOM     24  C   UNL d   1      -4.269   4.407   0.051  0.00  0.00     0.050 A 
ATOM     25 CL   UNL d   1      -2.377   4.656  -1.833  0.00  0.00    -0.081 Cl
ATOM     26  C   UNL d   1      -4.874   3.797   1.144  0.00  0.00     0.035 A 
ATOM     27  C   UNL d   1      -4.300   2.669   1.729  0.00  0.00     0.026 A 
ATOM     28 CL   UNL d   1      -6.337   4.439   1.780  0.00  0.00    -0.084 Cl
ATOM     29  C   UNL d   1      -3.121   2.127   1.202  0.00  0.00     0.041 A 
ENDBRANCH  21  22
ENDBRANCH   1  21
TORSDOF 5
