REMARK  5 active torsions:
REMARK  status: ('A' for Active; 'I' for Inactive)
REMARK    1  A    between atoms: N_4  and  S_1 
REMARK    2  A    between atoms: C_5  and  S_1 
REMARK    3  A    between atoms: C_6  and  C_2 
REMARK    4  A    between atoms: C_3  and  N_4 
REMARK    5  A    between atoms: O_19  and  C_6 
ROOT
ATOM      1  S   UNL d   1       0.632   0.180  -0.165  0.00  0.00     0.245 S 
ATOM      2  O   UNL d   1      -0.538   0.680  -0.861  0.00  0.00    -0.206 OA
ATOM      3  O   UNL d   1       1.957   0.708  -0.413  0.00  0.00    -0.206 OA
ENDROOT
BRANCH   1   4
ATOM      4  N   UNL d   1       0.623  -1.518  -0.419  0.00  0.00    -0.180 NA
ATOM      5  H   UNL d   1      -0.367  -1.734  -0.566  0.00  0.00     0.146 HD
BRANCH   4   6
ATOM      6  C   UNL d   1       1.419  -1.998  -1.493  0.00  0.00     0.046 A 
ATOM      7  C   UNL d   1       2.756  -2.371  -1.453  0.00  0.00     0.102 A 
ATOM      8  S   UNL d   1       3.299  -2.896  -3.003  0.00  0.00    -0.094 SA
ATOM      9  C   UNL d   1       1.775  -2.636  -3.714  0.00  0.00     0.052 A 
ATOM     10  C   UNL d   1       0.861  -2.163  -2.801  0.00  0.00     0.033 A 
BRANCH   7  11
ATOM     11  C   UNL d   1       3.659  -2.415  -0.314  0.00  0.00     0.301 C 
ATOM     12  O   UNL d   1       3.319  -2.466   0.863  0.00  0.00    -0.259 OA
BRANCH  11  13
ATOM     13  O   UNL d   1       4.963  -2.397  -0.723  0.00  0.00    -0.322 OA
ATOM     14  C   UNL d   1       5.942  -2.442   0.316  0.00  0.00     0.213 C 
ENDBRANCH  11  13
ENDBRANCH   7  11
ENDBRANCH   4   6
ENDBRANCH   1   4
BRANCH   1  15
ATOM     15  C   UNL d   1       0.326   0.304   1.581  0.00  0.00     0.076 A 
ATOM     16  C   UNL d   1       1.225  -0.297   2.465  0.00  0.00     0.034 A 
ATOM     17  C   UNL d   1       1.022  -0.202   3.845  0.00  0.00    -0.021 A 
ATOM     18  C   UNL d   1       1.975  -0.842   4.807  0.00  0.00     0.051 C 
ATOM     19  C   UNL d   1      -0.079   0.520   4.317  0.00  0.00     0.128 A 
ATOM     20  C   UNL d   1      -0.982   1.139   3.444  0.00  0.00    -0.021 A 
ATOM     21  F   UNL d   1      -0.265   0.625   5.642  0.00  0.00    -0.205 F 
ATOM     22  C   UNL d   1      -0.778   1.020   2.061  0.00  0.00     0.034 A 
ATOM     23  C   UNL d   1      -2.150   1.919   3.973  0.00  0.00     0.051 C 
ENDBRANCH   1  15
TORSDOF 5
