REMARK  3 active torsions:
REMARK  status: ('A' for Active; 'I' for Inactive)
REMARK    1  A    between atoms: C_6  and  C_7 
REMARK    2  A    between atoms: C_7  and  O_12 
REMARK    3  A    between atoms: O_12  and  N_10 
ROOT
ATOM      1  C   UNL d   1      -0.691   0.526   0.057  0.00  0.00     0.024 A 
ATOM      2  C   UNL d   1      -1.127  -0.789   0.010  0.00  0.00     0.025 A 
ATOM      3  N   UNL d   1      -0.025  -1.604  -0.019  0.00  0.00    -0.353 N 
ATOM      4  C   UNL d   1       0.733   0.505   0.071  0.00  0.00     0.005 A 
ATOM      5  C   UNL d   1       1.127  -0.838   0.013  0.00  0.00     0.045 A 
ATOM      6  C   UNL d   1      -1.653   1.626   0.072  0.00  0.00     0.045 C 
ATOM      7  N   UNL d   1      -1.218   2.816   0.353  0.00  0.00    -0.261 N 
ATOM      8  HN  UNL d   1      -0.243   3.022   0.570  1.00  0.00     0.194 HD
ATOM      9  C   UNL d   1      -2.552  -1.233  -0.029  0.00  0.00     0.058 C 
ATOM     10  C   UNL d   1      -0.022  -3.050  -0.094  0.00  0.00     0.156 C 
ATOM     11  C   UNL d   1       1.733   1.500   0.103  0.00  0.00     0.014 A 
ATOM     12  C   UNL d   1       2.480  -1.215  -0.010  0.00  0.00     0.030 A 
ATOM     13  C   UNL d   1      -3.089   1.254  -0.280  0.00  0.00     0.060 C 
ATOM     14  C   UNL d   1      -3.475  -0.075   0.386  0.00  0.00     0.012 C 
ATOM     15  C   UNL d   1       3.082   1.133   0.075  0.00  0.00     0.001 A 
ATOM     16  C   UNL d   1       3.449  -0.208   0.019  0.00  0.00     0.002 A 
ENDROOT
BRANCH   7  17
ATOM     17  O   UNL d   1      -2.234   3.792   0.326  0.00  0.00    -0.195 OA
BRANCH  17  18
ATOM     18  C   UNL d   1      -1.707   5.016   0.629  0.00  0.00     0.316 C 
ATOM     19  O   UNL d   1      -0.556   5.266   0.970  0.00  0.00    -0.257 OA
BRANCH  18  20
ATOM     20  C   UNL d   1      -2.742   6.085   0.604  0.00  0.00     0.063 A 
ATOM     21  C   UNL d   1      -3.830   6.141  -0.281  0.00  0.00     0.052 A 
ATOM     22  C   UNL d   1      -4.728   7.219  -0.224  0.00  0.00     0.048 A 
ATOM     23 CL   UNL d   1      -4.118   4.974  -1.522  0.00  0.00    -0.083 Cl
ATOM     24  C   UNL d   1      -4.537   8.247   0.697  0.00  0.00     0.035 A 
ATOM     25  C   UNL d   1      -3.451   8.220   1.563  0.00  0.00     0.025 A 
ATOM     26 CL   UNL d   1      -5.642   9.564   0.751  0.00  0.00    -0.084 Cl
ATOM     27  C   UNL d   1      -2.559   7.145   1.516  0.00  0.00     0.021 A 
ENDBRANCH  18  20
ENDBRANCH  17  18
ENDBRANCH   7  17
TORSDOF 3
