REMARK  4 active torsions:
REMARK  status: ('A' for Active; 'I' for Inactive)
REMARK    1  A    between atoms: C_4  and  C_1 
REMARK       I    between atoms: N_9  and  C_4 
REMARK    2  A    between atoms: C_10  and  C_5 
REMARK    3  A    between atoms: C_6  and  C_10 
REMARK    4  A    between atoms: C_14  and  N_9 
ROOT
ATOM      1  C   UNL d   1       1.163   0.843  -0.208  0.00  0.00     0.108 A 
ATOM      2  N   UNL d   1       1.379  -0.489   0.169  0.00  0.00    -0.349 N 
ATOM      3  HN  UNL d   1       2.237  -0.849   0.587  1.00  0.00     0.166 HD
ATOM      4  C   UNL d   1       0.301  -1.210  -0.101  0.00  0.00     0.055 A 
ATOM      5  C   UNL d   1      -0.092   1.093  -0.733  0.00  0.00     0.086 A 
ATOM      6  S   UNL d   1      -1.017  -0.333  -0.787  0.00  0.00    -0.086 SA
ENDROOT
BRANCH   1   7
ATOM      7  C   UNL d   1       2.166   1.910  -0.057  0.00  0.00     0.273 C 
ATOM      8  N   UNL d   1       3.311   1.506   0.605  0.00  0.00    -0.322 N 
ATOM      9  H   UNL d   1       3.341   0.520   0.846  0.00  0.00     0.169 HD
ATOM     10  O   UNL d   1       1.938   3.035  -0.489  0.00  0.00    -0.266 OA
BRANCH   8  11
ATOM     11  C   UNL d   1       4.372   2.334   1.036  0.00  0.00     0.035 A 
ATOM     12  C   UNL d   1       4.399   3.719   0.846  0.00  0.00     0.030 A 
ATOM     13  C   UNL d   1       5.441   4.497   1.357  0.00  0.00     0.009 A 
ATOM     14  C   UNL d   1       6.487   3.907   2.069  0.00  0.00    -0.062 A 
ATOM     15  C   UNL d   1       6.485   2.519   2.236  0.00  0.00     0.009 A 
ATOM     16  C   UNL d   1       7.572   4.769   2.641  0.00  0.00     0.048 C 
ATOM     17  C   UNL d   1       5.435   1.739   1.724  0.00  0.00     0.030 A 
ENDBRANCH   8  11
ENDBRANCH   1   7
BRANCH   4  18
ATOM     18  C   UNL d   1       0.175  -2.703   0.068  0.00  0.00     0.107 C 
BRANCH  18  19
ATOM     19  C   UNL d   1      -0.131  -3.148   1.486  0.00  0.00    -0.009 A 
ATOM     20  C   UNL d   1      -1.456  -3.279   1.950  0.00  0.00     0.042 A 
ATOM     21 CL   UNL d   1      -2.829  -2.953   0.950  0.00  0.00    -0.084 Cl
ATOM     22  C   UNL d   1      -1.732  -3.710   3.255  0.00  0.00     0.024 A 
ATOM     23  C   UNL d   1      -0.693  -4.027   4.124  0.00  0.00     0.003 A 
ATOM     24  C   UNL d   1       0.623  -3.901   3.690  0.00  0.00     0.024 A 
ATOM     25  C   UNL d   1       0.904  -3.460   2.390  0.00  0.00     0.042 A 
ATOM     26 CL   UNL d   1       2.576  -3.344   1.958  0.00  0.00    -0.084 Cl
ENDBRANCH  18  19
ENDBRANCH   4  18
TORSDOF 4
