REMARK  3 active torsions:
REMARK  status: ('A' for Active; 'I' for Inactive)
REMARK    1  A    between atoms: C_8  and  C_1 
REMARK    2  A    between atoms: C_7  and  C_2 
REMARK    3  A    between atoms: O_17  and  C_8 
ROOT
ATOM      1  C   UNL d   1       2.083  -1.321  -0.081  0.00  0.00     0.053 A 
ATOM      2  C   UNL d   1       0.587  -1.701  -0.131  0.00  0.00     0.106 A 
ATOM      3  C   UNL d   1      -0.327  -0.476  -0.094  0.00  0.00     0.024 A 
ATOM      4  C   UNL d   1       2.475  -0.026   0.017  0.00  0.00     0.018 A 
ATOM      5  C   UNL d   1       0.159   0.778  -0.001  0.00  0.00     0.020 A 
ATOM      6  N   UNL d   1       1.521   0.982   0.051  0.00  0.00    -0.362 N 
ATOM      7  C   UNL d   1      -1.800  -0.676  -0.162  0.00  0.00     0.158 C 
ATOM      8  O   UNL d   1      -2.286  -1.734  -0.553  0.00  0.00    -0.293 OA
ATOM      9  C   UNL d   1      -0.710   2.015   0.035  0.00  0.00     0.058 C 
ATOM     10  C   UNL d   1       3.897   0.474   0.083  0.00  0.00     0.069 C 
ATOM     11  C   UNL d   1      -2.671   0.474   0.288  0.00  0.00     0.084 C 
ATOM     12  C   UNL d   1      -2.163   1.754  -0.350  0.00  0.00     0.014 C 
ATOM     13  H   UNL d   1       1.856   1.937   0.143  0.00  0.00     0.165 HD
ENDROOT
BRANCH   2  14
ATOM     14  C   UNL d   1       0.201  -2.762   0.915  0.00  0.00     0.002 A 
ATOM     15  C   UNL d   1      -0.298  -4.046   0.716  0.00  0.00    -0.047 A 
ATOM     16  C   UNL d   1      -0.543  -4.705   1.966  0.00  0.00     0.015 A 
ATOM     17  C   UNL d   1      -0.581  -4.703  -0.599  0.00  0.00     0.049 C 
ATOM     18  C   UNL d   1      -0.229  -3.923   3.053  0.00  0.00     0.051 A 
ATOM     19  S   UNL d   1       0.362  -2.395   2.591  0.00  0.00    -0.105 SA
ENDBRANCH   2  14
BRANCH   1  20
ATOM     20  C   UNL d   1       3.055  -2.446  -0.082  0.00  0.00     0.291 C 
ATOM     21  O   UNL d   1       4.119  -2.451   0.520  0.00  0.00    -0.260 OA
BRANCH  20  22
ATOM     22  O   UNL d   1       2.580  -3.471  -0.836  0.00  0.00    -0.323 OA
ATOM     23  C   UNL d   1       3.345  -4.679  -0.777  0.00  0.00     0.213 C 
ENDBRANCH  20  22
ENDBRANCH   1  20
TORSDOF 3
