REMARK  3 active torsions:
REMARK  status: ('A' for Active; 'I' for Inactive)
REMARK    1  A    between atoms: N_9  and  C_3 
REMARK    2  A    between atoms: C_14  and  N_4 
REMARK    3  A    between atoms: C_19  and  N_5 
ROOT
ATOM      1  C   UNL d   1      -0.073  -1.312  -0.081  0.00  0.00     0.132 C 
ATOM      2  C   UNL d   1      -0.400  -2.707  -0.034  0.00  0.00     0.169 C 
ATOM      3  C   UNL d   1       1.145  -0.661  -0.242  0.00  0.00     0.158 C 
ATOM      4  N   UNL d   1       0.291  -3.729   0.610  0.00  0.00    -0.223 N 
ATOM      5  N   UNL d   1      -1.002  -0.301   0.004  0.00  0.00    -0.286 N 
ATOM      6  N   UNL d   1      -0.445   0.927   0.071  0.00  0.00    -0.300 N 
ATOM      7  HN  UNL d   1      -0.919   1.819   0.218  1.00  0.00     0.187 HD
ATOM      8  C   UNL d   1       0.867   0.718  -0.097  0.00  0.00     0.057 C 
ATOM      9  N   UNL d   1      -1.389  -3.247  -0.716  0.00  0.00    -0.268 N 
ATOM     10  HN  UNL d   1      -2.116  -2.752  -1.232  1.00  0.00     0.185 HD
ATOM     11  N   UNL d   1      -0.199  -4.907   0.159  0.00  0.00     0.001 NA
ATOM     12  N   UNL d   1      -1.246  -4.602  -0.593  0.00  0.00    -0.007 NA
ATOM     13  C   UNL d   1       1.783   1.889  -0.117  0.00  0.00     0.072 C 
ENDROOT
BRANCH   4  14
ATOM     14  C   UNL d   1       1.312  -3.677   1.590  0.00  0.00     0.056 A 
ATOM     15  C   UNL d   1       1.417  -2.588   2.469  0.00  0.00     0.033 A 
ATOM     16  C   UNL d   1       2.480  -2.523   3.373  0.00  0.00     0.026 A 
ATOM     17  C   UNL d   1       3.433  -3.539   3.403  0.00  0.00     0.034 A 
ATOM     18  C   UNL d   1       3.314  -4.641   2.558  0.00  0.00     0.026 A 
ATOM     19 CL   UNL d   1       4.758  -3.433   4.494  0.00  0.00    -0.084 Cl
ATOM     20  C   UNL d   1       2.244  -4.723   1.663  0.00  0.00     0.033 A 
ENDBRANCH   4  14
BRANCH   3  21
ATOM     21  N   UNL d   1       2.419  -1.272  -0.479  0.00  0.00    -0.111 N 
ATOM     22  O   UNL d   1       2.429  -2.278  -1.197  0.00  0.00    -0.532 OA
ATOM     23  O   UNL d   1       3.397  -0.772   0.086  0.00  0.00    -0.532 OA
ENDBRANCH   3  21
BRANCH   5  24
ATOM     24  C   UNL d   1      -2.450  -0.400   0.098  0.00  0.00     0.145 C 
ATOM     25  C   UNL d   1      -3.123  -0.316  -1.262  0.00  0.00     0.028 C 
ENDBRANCH   5  24
TORSDOF 3
