REMARK  3 active torsions:
REMARK  status: ('A' for Active; 'I' for Inactive)
REMARK    1  A    between atoms: N_10  and  C_3 
REMARK    2  A    between atoms: C_9  and  C_6 
REMARK    3  A    between atoms: N_11  and  C_7 
ROOT
ATOM      1  N   UNL d   1       0.107   1.023  -0.098  0.00  0.00    -0.324 N 
ATOM      2  HN  UNL d   1       0.143   2.042  -0.140  1.00  0.00     0.169 HD
ATOM      3  C   UNL d   1      -0.869   0.329  -0.683  0.00  0.00     0.156 A 
ATOM      4  N   UNL d   1      -0.994  -0.999  -0.646  0.00  0.00    -0.336 N 
ATOM      5  HN  UNL d   1      -1.783  -1.465  -1.095  1.00  0.00     0.168 HD
ATOM      6  C   UNL d   1      -0.044  -1.708   0.002  0.00  0.00     0.022 A 
ATOM      7  C   UNL d   1       1.035   0.312   0.547  0.00  0.00     0.081 A 
ATOM      8  C   UNL d   1       0.997  -1.062   0.642  0.00  0.00     0.068 A 
ENDROOT
BRANCH   6   9
ATOM      9  C   UNL d   1      -0.217  -3.229   0.042  0.00  0.00    -0.009 C 
ATOM     10  C   UNL d   1      -1.052  -3.597   1.280  0.00  0.00     0.021 C 
ATOM     11  C   UNL d   1      -0.959  -3.720  -1.222  0.00  0.00     0.021 C 
ATOM     12  C   UNL d   1       1.128  -3.984   0.100  0.00  0.00     0.021 C 
ENDBRANCH   6   9
BRANCH   7  13
ATOM     13  N   UNL d   1       2.050   1.034   1.178  0.00  0.00    -0.289 NA
ATOM     14  H   UNL d   1       1.913   2.013   0.937  0.00  0.00     0.125 HD
ATOM     15  H   UNL d   1       2.969   0.707   0.902  0.00  0.00     0.125 HD
ENDBRANCH   7  13
BRANCH   3  16
ATOM     16  N   UNL d   1      -1.856   1.040  -1.337  0.00  0.00    -0.274 NA
ATOM     17  H   UNL d   1      -1.913   1.968  -0.944  0.00  0.00     0.127 HD
ATOM     18  H   UNL d   1      -2.704   0.490  -1.346  0.00  0.00     0.127 HD
ENDBRANCH   3  16
TORSDOF 3
