REMARK  8 active torsions:
REMARK  status: ('A' for Active; 'I' for Inactive)
REMARK    1  A    between atoms: N_7  and  S_1 
REMARK    2  A    between atoms: C_14  and  S_1 
REMARK    3  A    between atoms: C_2  and  C_6 
REMARK    4  A    between atoms: S_3  and  C_10 
REMARK    5  A    between atoms: C_13  and  S_3 
REMARK       I    between atoms: C_6  and  N_9 
REMARK    6  A    between atoms: N_9  and  N_7 
REMARK    7  A    between atoms: C_10  and  C_8 
REMARK    8  A    between atoms: C_15  and  C_13 
ROOT
ATOM      1  C   UNL d   1      -0.131  -4.444   0.097  0.00  0.00     0.109 A 
ATOM      2  N   UNL d   1      -1.189  -3.703   0.637  0.00  0.00    -0.348 N 
ATOM      3  HN  UNL d   1      -1.351  -2.710   0.470  1.00  0.00     0.166 HD
ATOM      4  C   UNL d   1      -1.949  -4.476   1.395  0.00  0.00     0.065 A 
ATOM      5  C   UNL d   1      -0.089  -5.759   0.519  0.00  0.00     0.086 A 
ATOM      6  S   UNL d   1      -1.396  -6.100   1.562  0.00  0.00    -0.085 SA
ENDROOT
BRANCH   1   7
ATOM      7  C   UNL d   1       0.849  -3.881  -0.837  0.00  0.00     0.287 C 
ATOM      8  N   UNL d   1       0.838  -2.502  -0.931  0.00  0.00    -0.255 N 
ATOM      9  H   UNL d   1       0.265  -1.934  -0.306  0.00  0.00     0.191 HD
ATOM     10  O   UNL d   1       1.655  -4.571  -1.462  0.00  0.00    -0.264 OA
BRANCH   8  11
ATOM     11  N   UNL d   1       1.924  -1.858  -1.702  0.00  0.00    -0.220 N 
ATOM     12  H   UNL d   1       2.609  -2.517  -2.092  0.00  0.00     0.200 HD
BRANCH  11  13
ATOM     13  S   UNL d   1       2.564  -0.423  -1.060  0.00  0.00     0.276 S 
ATOM     14  O   UNL d   1       3.317  -0.787   0.122  0.00  0.00    -0.199 OA
ATOM     15  O   UNL d   1       1.495   0.547  -1.000  0.00  0.00    -0.199 OA
BRANCH  13  16
ATOM     16  C   UNL d   1       3.725   0.087  -2.310  0.00  0.00     0.081 A 
ATOM     17  C   UNL d   1       3.325   0.998  -3.296  0.00  0.00     0.027 A 
ATOM     18  C   UNL d   1       4.264   1.486  -4.209  0.00  0.00     0.025 A 
ATOM     19  C   UNL d   1       5.593   1.071  -4.131  0.00  0.00     0.034 A 
ATOM     20  C   UNL d   1       5.996   0.164  -3.148  0.00  0.00     0.025 A 
ATOM     21 CL   UNL d   1       6.751   1.697  -5.238  0.00  0.00    -0.084 Cl
ATOM     22  C   UNL d   1       5.060  -0.327  -2.229  0.00  0.00     0.027 A 
ENDBRANCH  13  16
ENDBRANCH  11  13
ENDBRANCH   8  11
ENDBRANCH   1   7
BRANCH   4  23
ATOM     23  C   UNL d   1      -3.248  -4.077   2.006  0.00  0.00     0.205 C 
BRANCH  23  24
ATOM     24  S   UNL d   1      -2.975  -3.375   3.621  0.00  0.00     0.156 S 
ATOM     25  O   UNL d   1      -4.279  -3.016   4.162  0.00  0.00    -0.227 OA
ATOM     26  O   UNL d   1      -2.136  -4.285   4.387  0.00  0.00    -0.227 OA
BRANCH  24  27
ATOM     27  C   UNL d   1      -2.044  -1.870   3.362  0.00  0.00     0.205 C 
BRANCH  27  28
ATOM     28  C   UNL d   1      -2.822  -0.960   2.495  0.00  0.00     0.066 A 
ATOM     29  O   UNL d   1      -2.543  -1.010   1.162  0.00  0.00    -0.326 OA
ATOM     30  C   UNL d   1      -3.374  -0.130   0.548  0.00  0.00     0.142 A 
ATOM     31  C   UNL d   1      -4.177   0.496   1.471  0.00  0.00     0.027 A 
ATOM     32  C   UNL d   1      -3.815  -0.034   2.734  0.00  0.00     0.035 A 
ENDBRANCH  27  28
ENDBRANCH  24  27
ENDBRANCH  23  24
ENDBRANCH   4  23
TORSDOF 8
