REMARK  6 active torsions:
REMARK  status: ('A' for Active; 'I' for Inactive)
REMARK    1  A    between atoms: C_2  and  N_1 
REMARK    2  A    between atoms: C_3  and  C_5 
REMARK    3  A    between atoms: O_14  and  C_6 
REMARK    4  A    between atoms: C_17  and  O_14 
REMARK    5  A    between atoms: O_15  and  C_16 
REMARK    6  A    between atoms: C_16  and  C_17 
ROOT
ATOM      1  C   UNL d   1       0.095  -1.137  -0.240  0.00  0.00     0.137 A 
ATOM      2  C   UNL d   1       0.557  -2.244   0.492  0.00  0.00     0.055 A 
ATOM      3  C   UNL d   1      -0.067  -3.487   0.330  0.00  0.00     0.050 A 
ATOM      4  C   UNL d   1      -0.985  -1.221  -1.128  0.00  0.00     0.101 A 
ATOM      5  C   UNL d   1      -1.150  -3.582  -0.557  0.00  0.00     0.019 A 
ATOM      6  C   UNL d   1      -1.604  -2.466  -1.274  0.00  0.00     0.040 A 
ENDROOT
BRANCH   4   7
ATOM      7  O   UNL d   1      -1.376  -0.081  -1.775  0.00  0.00    -0.347 OA
BRANCH   7   8
ATOM      8  C   UNL d   1      -2.427  -0.199  -2.735  0.00  0.00     0.201 C 
BRANCH   8   9
ATOM      9  C   UNL d   1      -2.637   1.143  -3.426  0.00  0.00     0.190 C 
BRANCH   9  10
ATOM     10  O   UNL d   1      -3.703   1.036  -4.362  0.00  0.00    -0.399 OA
ATOM     11  H   UNL d   1      -3.797   1.907  -4.786  0.00  0.00     0.209 HD
ENDBRANCH   9  10
ENDBRANCH   8   9
ENDBRANCH   7   8
ENDBRANCH   4   7
BRANCH   1  12
ATOM     12  N   UNL d   1       0.776   0.129  -0.043  0.00  0.00    -0.113 N 
ATOM     13  O   UNL d   1       0.761   0.597   1.103  0.00  0.00    -0.532 OA
ATOM     14  O   UNL d   1       1.374   0.613  -1.015  0.00  0.00    -0.532 OA
ENDBRANCH   1  12
BRANCH   3  15
ATOM     15  C   UNL d   1       0.395  -4.710   1.087  0.00  0.00     0.417 C 
ATOM     16  F   UNL d   1       1.493  -4.487   1.858  0.00  0.00    -0.166 F 
ATOM     17  F   UNL d   1      -0.564  -5.191   1.924  0.00  0.00    -0.166 F 
ATOM     18  F   UNL d   1       0.721  -5.738   0.257  0.00  0.00    -0.166 F 
ENDBRANCH   3  15
TORSDOF 6
