REMARK  5 active torsions:
REMARK  status: ('A' for Active; 'I' for Inactive)
REMARK    1  A    between atoms: N_2  and  S_1 
REMARK    2  A    between atoms: C_11  and  S_1 
REMARK    3  A    between atoms: C_4  and  C_3 
REMARK    4  A    between atoms: C_19  and  C_7 
REMARK    5  A    between atoms: C_10  and  C_15 
ROOT
ATOM      1  N   UNL d   1       0.228  -0.143  -1.461  0.00  0.00    -0.176 N 
ATOM      2  C   UNL d   1       0.097  -1.315  -2.198  0.00  0.00     0.085 C 
ATOM      3  N   UNL d   1      -0.269   0.942  -2.142  0.00  0.00    -0.295 N 
ATOM      4  HN  UNL d   1      -0.424   1.886  -1.787  1.00  0.00     0.187 HD
ATOM      5  C   UNL d   1      -0.311  -0.903  -3.457  0.00  0.00     0.052 C 
ATOM      6  C   UNL d   1      -0.502   0.481  -3.367  0.00  0.00     0.111 C 
ENDROOT
BRANCH   2   7
ATOM      7  C   UNL d   1       0.328  -2.755  -1.868  0.00  0.00     0.054 A 
ATOM      8  C   UNL d   1       0.888  -3.772  -2.719  0.00  0.00     0.080 A 
ATOM      9  N   UNL d   1       0.776  -4.976  -2.138  0.00  0.00    -0.259 N 
ATOM     10  O   UNL d   1       0.190  -4.765  -0.915  0.00  0.00    -0.241 OA
ATOM     11  HN  UNL d   1       1.068  -5.872  -2.528  1.00  0.00     0.195 HD
ATOM     12  C   UNL d   1      -0.084  -3.442  -0.745  0.00  0.00     0.087 A 
ATOM     13  C   UNL d   1      -0.818  -3.139   0.498  0.00  0.00     0.080 C 
BRANCH   8  14
ATOM     14  C   UNL d   1       1.546  -3.649  -4.023  0.00  0.00    -0.006 A 
ATOM     15  C   UNL d   1       1.352  -4.623  -5.018  0.00  0.00     0.015 A 
ATOM     16  C   UNL d   1       1.981  -4.504  -6.262  0.00  0.00     0.024 A 
ATOM     17  C   UNL d   1       2.804  -3.411  -6.522  0.00  0.00     0.034 A 
ATOM     18  C   UNL d   1       3.015  -2.442  -5.544  0.00  0.00     0.024 A 
ATOM     19 CL   UNL d   1       3.571  -3.258  -8.053  0.00  0.00    -0.084 Cl
ATOM     20  C   UNL d   1       2.400  -2.570  -4.295  0.00  0.00     0.015 A 
ENDBRANCH   8  14
ENDBRANCH   2   7
BRANCH   1  21
ATOM     21  S   UNL d   1       1.211   0.052  -0.035  0.00  0.00     0.282 S 
ATOM     22  O   UNL d   1       2.041   1.219  -0.281  0.00  0.00    -0.198 OA
ATOM     23  O   UNL d   1       1.796  -1.241   0.250  0.00  0.00    -0.198 OA
BRANCH  21  24
ATOM     24  C   UNL d   1       0.100   0.464   1.294  0.00  0.00     0.082 A 
ATOM     25  C   UNL d   1       0.414   0.001   2.580  0.00  0.00     0.041 A 
ATOM     26  C   UNL d   1      -0.434   0.280   3.664  0.00  0.00     0.049 A 
ATOM     27  C   UNL d   1      -1.587   1.049   3.439  0.00  0.00     0.016 A 
ATOM     28  C   UNL d   1      -1.885   1.528   2.160  0.00  0.00     0.002 A 
ATOM     29  C   UNL d   1      -1.043   1.239   1.084  0.00  0.00     0.025 A 
BRANCH  26  30
ATOM     30  C   UNL d   1      -0.132  -0.235   5.053  0.00  0.00     0.417 C 
ATOM     31  F   UNL d   1       1.010  -0.972   5.122  0.00  0.00    -0.166 F 
ATOM     32  F   UNL d   1       0.009   0.765   5.964  0.00  0.00    -0.166 F 
ATOM     33  F   UNL d   1      -1.123  -1.040   5.529  0.00  0.00    -0.166 F 
ENDBRANCH  26  30
ENDBRANCH  21  24
ENDBRANCH   1  21
TORSDOF 5
