REMARK  3 active torsions:
REMARK  status: ('A' for Active; 'I' for Inactive)
REMARK    1  A    between atoms: C_3  and  C_1 
REMARK    2  A    between atoms: O_7  and  C_3 
REMARK    3  A    between atoms: C_11  and  O_7 
ROOT
ATOM      1  C   UNL d   1       3.496  -1.293   0.172  0.00  0.00     0.305 C 
ATOM      2  O   UNL d   1       3.816  -2.466   0.318  0.00  0.00    -0.258 OA
ENDROOT
BRANCH   1   3
ATOM      3  C   UNL d   1       2.126  -0.796   0.215  0.00  0.00     0.082 A 
ATOM      4  S   UNL d   1       1.739   0.854  -0.005  0.00  0.00    -0.084 SA
ATOM      5  C   UNL d   1       0.044   0.562   0.044  0.00  0.00     0.016 A 
ATOM      6  C   UNL d   1      -0.986   1.511  -0.112  0.00  0.00     0.019 A 
ATOM      7  C   UNL d   1      -0.231  -0.789   0.257  0.00  0.00    -0.018 A 
ATOM      8  C   UNL d   1      -2.313   1.077  -0.088  0.00  0.00     0.001 A 
ATOM      9  C   UNL d   1      -2.613  -0.266   0.096  0.00  0.00     0.001 A 
ATOM     10  C   UNL d   1      -1.587  -1.199   0.281  0.00  0.00     0.013 A 
ATOM     11  C   UNL d   1       0.980  -1.546   0.407  0.00  0.00     0.038 A 
ENDBRANCH   1   3
BRANCH   1  12
ATOM     12  O   UNL d   1       4.396  -0.255  -0.088  0.00  0.00    -0.273 OA
BRANCH  12  13
ATOM     13  C   UNL d   1       5.757  -0.448  -0.400  0.00  0.00     0.096 A 
ATOM     14  C   UNL d   1       6.595   0.641  -0.167  0.00  0.00     0.064 A 
ATOM     15  C   UNL d   1       7.928   0.559  -0.558  0.00  0.00     0.052 A 
ATOM     16 CL   UNL d   1       8.989   1.885  -0.313  0.00  0.00    -0.083 Cl
ATOM     17  C   UNL d   1       8.369  -0.604  -1.169  0.00  0.00     0.111 A 
ATOM     18  N   UNL d   1       7.575  -1.679  -1.406  0.00  0.00    -0.371 N 
ATOM     19  C   UNL d   1       6.279  -1.578  -1.018  0.00  0.00     0.125 A 
ATOM     20  HN  UNL d   1       7.936  -2.522  -1.853  1.00  0.00     0.164 HD
ENDBRANCH  12  13
ENDBRANCH   1  12
TORSDOF 3
