REMARK  4 active torsions:
REMARK  status: ('A' for Active; 'I' for Inactive)
REMARK       I    between atoms: N_2  and  C_1 
REMARK    1  A    between atoms: O_3  and  C_1 
REMARK    2  A    between atoms: C_5  and  N_2 
REMARK    3  A    between atoms: C_6  and  O_3 
REMARK    4  A    between atoms: C_7  and  C_5 
ROOT
ATOM      1  C   UNL d   1       0.984   0.279  -0.133  0.00  0.00     0.365 C 
ATOM      2  N   UNL d   1       0.377  -0.424  -1.137  0.00  0.00    -0.336 N 
ATOM      3  O   UNL d   1       0.419   0.456   0.940  0.00  0.00    -0.238 OA
ATOM      4  H   UNL d   1      -0.520  -0.808  -0.870  0.00  0.00     0.164 HD
ENDROOT
BRANCH   1   5
ATOM      5  O   UNL d   1       2.248   0.735  -0.481  0.00  0.00    -0.262 OA
BRANCH   5   6
ATOM      6  C   UNL d   1       2.948   1.418   0.520  0.00  0.00     0.081 A 
ATOM      7  C   UNL d   1       3.380   0.756   1.669  0.00  0.00     0.037 A 
ATOM      8  C   UNL d   1       4.149   1.446   2.605  0.00  0.00     0.003 A 
ATOM      9  C   UNL d   1       4.492   2.781   2.381  0.00  0.00     0.000 A 
ATOM     10  C   UNL d   1       4.066   3.431   1.220  0.00  0.00     0.003 A 
ATOM     11  C   UNL d   1       3.296   2.747   0.280  0.00  0.00     0.037 A 
ENDBRANCH   5   6
ENDBRANCH   1   5
BRANCH   2  12
ATOM     12  C   UNL d   1       1.022  -0.908  -2.340  0.00  0.00     0.128 C 
BRANCH  12  13
ATOM     13  C   UNL d   1       1.830  -2.192  -2.089  0.00  0.00    -0.005 C 
ATOM     14  C   UNL d   1       0.943  -3.326  -1.568  0.00  0.00     0.011 C 
ATOM     15  C   UNL d   1       2.536  -2.633  -3.372  0.00  0.00     0.011 C 
ENDBRANCH  12  13
ENDBRANCH   2  12
TORSDOF 4
