REMARK  2 active torsions:
REMARK  status: ('A' for Active; 'I' for Inactive)
REMARK    1  A    between atoms: S_9  and  C_2 
REMARK    2  A    between atoms: C_4  and  S_9 
ROOT
ATOM      1  N   UNL d   1       0.907   0.048  -0.021  0.00  0.00    -0.315 N 
ATOM      2  C   UNL d   1       0.094   1.142  -0.182  0.00  0.00     0.169 A 
ATOM      3  C   UNL d   1       0.081  -1.049  -0.155  0.00  0.00     0.141 A 
ATOM      4  N   UNL d   1      -1.155  -0.623  -0.345  0.00  0.00    -0.282 N 
ATOM      5  HN  UNL d   1      -1.978  -1.214  -0.459  1.00  0.00     0.188 HD
ATOM      6  N   UNL d   1      -1.143   0.748  -0.363  0.00  0.00    -0.278 N 
ATOM      7  HN  UNL d   1      -1.954   1.354  -0.494  1.00  0.00     0.189 HD
ATOM      8  C   UNL d   1       0.444  -2.438  -0.105  0.00  0.00     0.050 A 
ATOM      9  S   UNL d   1      -0.647  -3.600   0.544  0.00  0.00    -0.098 SA
ATOM     10  C   UNL d   1       1.600  -3.053  -0.555  0.00  0.00     0.023 A 
ATOM     11  C   UNL d   1       0.417  -4.896   0.219  0.00  0.00     0.050 A 
ATOM     12  C   UNL d   1       1.585  -4.466  -0.366  0.00  0.00     0.009 A 
ATOM     13  C   UNL d   1       2.312   0.020   0.298  0.00  0.00     0.160 C 
ENDROOT
BRANCH   2  14
ATOM     14  S   UNL d   1       0.559   2.801  -0.021  0.00  0.00    -0.027 SA
BRANCH  14  15
ATOM     15  C   UNL d   1       1.654   2.897  -1.381  0.00  0.00     0.120 A 
ATOM     16  N   UNL d   1       2.952   2.832  -1.181  0.00  0.00    -0.344 N 
ATOM     17  C   UNL d   1       3.619   3.006  -2.379  0.00  0.00     0.050 A 
ATOM     18  HN  UNL d   1       3.399   2.676  -0.277  1.00  0.00     0.167 HD
ATOM     19  C   UNL d   1       5.020   3.019  -2.542  0.00  0.00     0.032 A 
ATOM     20  C   UNL d   1       2.804   3.174  -3.501  0.00  0.00     0.035 A 
ATOM     21  C   UNL d   1       5.567   3.175  -3.819  0.00  0.00     0.026 A 
ATOM     22  C   UNL d   1       4.734   3.325  -4.923  0.00  0.00     0.035 A 
ATOM     23  C   UNL d   1       3.342   3.338  -4.789  0.00  0.00     0.045 A 
ATOM     24 CL   UNL d   1       5.431   3.492  -6.489  0.00  0.00    -0.084 Cl
ATOM     25  S   UNL d   1       1.155   3.142  -2.997  0.00  0.00    -0.063 SA
ENDBRANCH  14  15
ENDBRANCH   2  14
TORSDOF 2
