REMARK  2 active torsions:
REMARK  status: ('A' for Active; 'I' for Inactive)
REMARK    1  A    between atoms: N_13  and  C_10 
REMARK    2  A    between atoms: C_15  and  N_13 
ROOT
ATOM      1  S   UNL d   1      -1.006  -1.414   0.047  0.00  0.00     0.270 S 
ATOM      2  C   UNL d   1      -1.731  -0.193   2.280  0.00  0.00     0.101 A 
ATOM      3  N   UNL d   1      -1.451  -1.466   1.674  0.00  0.00    -0.269 N 
ATOM      4  C   UNL d   1      -2.033   0.966   1.570  0.00  0.00     0.057 A 
ATOM      5  C   UNL d   1      -2.082  -0.251  -0.578  0.00  0.00     0.146 C 
ATOM      6  C   UNL d   1      -2.099   1.038   0.106  0.00  0.00     0.210 C 
ATOM      7  S   UNL d   1      -1.789   0.047   3.962  0.00  0.00    -0.075 SA
ATOM      8  C   UNL d   1      -2.350   2.066   2.476  0.00  0.00    -0.032 A 
ATOM      9  C   UNL d   1      -2.228   1.680   3.802  0.00  0.00    -0.012 A 
ATOM     10  C   UNL d   1      -2.994  -0.564  -1.509  0.00  0.00     0.118 C 
ATOM     11  O   UNL d   1      -1.300  -2.722  -0.513  0.00  0.00    -0.200 OA
ATOM     12  O   UNL d   1       0.352  -0.904  -0.011  0.00  0.00    -0.200 OA
ATOM     13  O   UNL d   1      -2.273   2.078  -0.528  0.00  0.00    -0.286 OA
ATOM     14  C   UNL d   1      -1.148  -2.703   2.399  0.00  0.00     0.170 C 
ATOM     15  C   UNL d   1      -2.791   3.447   2.086  0.00  0.00     0.050 C 
ATOM     16  C   UNL d   1      -2.463   2.513   5.021  0.00  0.00     0.057 C 
ENDROOT
BRANCH  10  17
ATOM     17  N   UNL d   1      -3.976   0.242  -2.028  0.00  0.00    -0.363 N 
ATOM     18  H   UNL d   1      -3.892   1.248  -1.848  0.00  0.00     0.165 HD
BRANCH  17  19
ATOM     19  C   UNL d   1      -5.106  -0.129  -2.784  0.00  0.00     0.053 A 
ATOM     20  C   UNL d   1      -5.761   0.821  -3.593  0.00  0.00     0.060 A 
ATOM     21 CL   UNL d   1      -5.235   2.471  -3.621  0.00  0.00    -0.082 Cl
ATOM     22  C   UNL d   1      -6.843   0.462  -4.400  0.00  0.00     0.026 A 
ATOM     23  C   UNL d   1      -7.295  -0.856  -4.411  0.00  0.00     0.002 A 
ATOM     24  C   UNL d   1      -6.667  -1.809  -3.616  0.00  0.00     0.002 A 
ATOM     25  C   UNL d   1      -5.578  -1.450  -2.815  0.00  0.00     0.031 A 
ENDBRANCH  17  19
ENDBRANCH  10  17
TORSDOF 2
