REMARK  5 active torsions:
REMARK  status: ('A' for Active; 'I' for Inactive)
REMARK    1  A    between atoms: O_5  and  C_1 
REMARK    2  A    between atoms: O_10  and  C_2 
REMARK    3  A    between atoms: C_7  and  O_5 
REMARK    4  A    between atoms: C_17  and  C_6 
REMARK       I    between atoms: N_14  and  C_7 
REMARK    5  A    between atoms: C_12  and  O_10 
ROOT
ATOM      1  C   UNL d   1       0.828  -1.199  -0.544  0.00  0.00     0.190 C 
ATOM      2  C   UNL d   1      -0.560  -1.197  -0.606  0.00  0.00     0.149 C 
ATOM      3  N   UNL d   1       1.582  -0.087  -0.393  0.00  0.00    -0.320 N 
ATOM      4  HN  UNL d   1       2.601  -0.119  -0.425  1.00  0.00     0.169 HD
ATOM      5  C   UNL d   1       0.913   1.060  -0.200  0.00  0.00     0.117 C 
ATOM      6  N   UNL d   1      -0.426   1.133  -0.075  0.00  0.00    -0.343 N 
ATOM      7  HN  UNL d   1      -0.884   2.020   0.136  1.00  0.00     0.167 HD
ATOM      8  C   UNL d   1      -1.150  -0.000  -0.236  0.00  0.00     0.045 C 
ATOM      9  C   UNL d   1      -2.621   0.171  -0.008  0.00  0.00     0.071 C 
ENDROOT
BRANCH   2  10
ATOM     10  O   UNL d   1      -1.218  -2.350  -0.926  0.00  0.00    -0.303 OA
BRANCH  10  11
ATOM     11  C   UNL d   1      -2.251  -2.353  -1.838  0.00  0.00     0.098 A 
ATOM     12  C   UNL d   1      -3.175  -3.408  -1.743  0.00  0.00     0.069 A 
ATOM     13  C   UNL d   1      -4.272  -3.477  -2.603  0.00  0.00     0.050 A 
ATOM     14 CL   UNL d   1      -2.998  -4.652  -0.557  0.00  0.00    -0.081 Cl
ATOM     15  C   UNL d   1      -4.448  -2.490  -3.568  0.00  0.00     0.035 A 
ATOM     16  C   UNL d   1      -3.521  -1.458  -3.701  0.00  0.00     0.026 A 
ATOM     17 CL   UNL d   1      -5.816  -2.549  -4.610  0.00  0.00    -0.084 Cl
ATOM     18  C   UNL d   1      -2.408  -1.402  -2.854  0.00  0.00     0.041 A 
ENDBRANCH  10  11
ENDBRANCH   2  10
BRANCH   1  19
ATOM     19  O   UNL d   1       1.595  -2.359  -0.760  0.00  0.00    -0.241 OA
BRANCH  19  20
ATOM     20  C   UNL d   1       1.351  -3.460   0.056  0.00  0.00     0.368 C 
ATOM     21  N   UNL d   1       2.288  -4.481  -0.132  0.00  0.00    -0.336 N 
ATOM     22  C   UNL d   1       2.072  -5.719   0.594  0.00  0.00     0.154 C 
ATOM     23  C   UNL d   1       3.662  -4.157  -0.475  0.00  0.00     0.154 C 
ATOM     24  O   UNL d   1       0.427  -3.550   0.856  0.00  0.00    -0.238 OA
ENDBRANCH  19  20
ENDBRANCH   1  19
BRANCH   5  25
ATOM     25  C   UNL d   1       1.660   2.334  -0.213  0.00  0.00     0.008 A 
ATOM     26  C   UNL d   1       3.059   2.380  -0.364  0.00  0.00     0.015 A 
ATOM     27  C   UNL d   1       3.749   3.596  -0.443  0.00  0.00     0.001 A 
ATOM     28  C   UNL d   1       3.054   4.801  -0.370  0.00  0.00     0.000 A 
ATOM     29  C   UNL d   1       1.673   4.789  -0.205  0.00  0.00     0.001 A 
ATOM     30  C   UNL d   1       0.990   3.573  -0.127  0.00  0.00     0.015 A 
ENDBRANCH   5  25
TORSDOF 5
