REMARK  3 active torsions:
REMARK  status: ('A' for Active; 'I' for Inactive)
REMARK    1  A    between atoms: C_3  and  S_1 
REMARK    2  A    between atoms: N_4  and  S_1 
REMARK    3  A    between atoms: N_2  and  N_4 
ROOT
ATOM      1  N   UNL d   1      -0.389   2.233  -0.552  0.00  0.00    -0.204 N 
ATOM      2  C   UNL d   1      -0.103   3.578  -0.789  0.00  0.00     0.280 A 
ATOM      3  C   UNL d   1      -1.419   1.593  -1.211  0.00  0.00     0.211 A 
ATOM      4  C   UNL d   1      -1.060   4.280  -1.672  0.00  0.00     0.060 A 
ATOM      5  N   UNL d   1      -2.245   2.162  -2.025  0.00  0.00    -0.350 N 
ATOM      6  HN  UNL d   1      -2.971   1.627  -2.502  1.00  0.00     0.166 HD
ATOM      7  C   UNL d   1      -2.106   3.540  -2.228  0.00  0.00     0.049 A 
ATOM      8  O   UNL d   1       0.849   4.200  -0.324  0.00  0.00    -0.265 OA
ATOM      9  C   UNL d   1      -0.967   5.662  -1.881  0.00  0.00     0.019 A 
ATOM     10  C   UNL d   1      -3.078   4.206  -2.978  0.00  0.00     0.030 A 
ATOM     11  C   UNL d   1      -1.949   6.315  -2.626  0.00  0.00     0.001 A 
ATOM     12  C   UNL d   1      -3.009   5.588  -3.168  0.00  0.00     0.002 A 
ENDROOT
BRANCH   1  13
ATOM     13  N   UNL d   1       0.313   1.482   0.537  0.00  0.00    -0.208 N 
ATOM     14  C   UNL d   1       0.912   2.271   1.640  0.00  0.00     0.192 C 
BRANCH  13  15
ATOM     15  S   UNL d   1       1.258   0.140   0.042  0.00  0.00     0.280 S 
ATOM     16  O   UNL d   1       0.655  -0.506  -1.099  0.00  0.00    -0.199 OA
ATOM     17  O   UNL d   1       2.655   0.522   0.045  0.00  0.00    -0.199 OA
BRANCH  15  18
ATOM     18  C   UNL d   1       1.156  -1.069   1.281  0.00  0.00     0.112 A 
ATOM     19  C   UNL d   1      -0.008  -1.663   1.707  0.00  0.00     0.099 A 
ATOM     20  S   UNL d   1       0.244  -2.814   2.934  0.00  0.00    -0.064 SA
ATOM     21 CL   UNL d   1      -1.624  -1.398   1.186  0.00  0.00    -0.075 Cl
ATOM     22  C   UNL d   1       1.913  -2.538   2.900  0.00  0.00     0.077 A 
ATOM     23  C   UNL d   1       2.292  -1.589   1.985  0.00  0.00     0.059 A 
ATOM     24 CL   UNL d   1       2.942  -3.415   3.956  0.00  0.00    -0.076 Cl
ENDBRANCH  15  18
ENDBRANCH  13  15
ENDBRANCH   1  13
TORSDOF 3
