REMARK  9 active torsions:
REMARK  status: ('A' for Active; 'I' for Inactive)
REMARK    1  A    between atoms: N_3  and  C_1 
REMARK    2  A    between atoms: O_4  and  C_2 
REMARK    3  A    between atoms: C_8  and  O_4 
REMARK    4  A    between atoms: C_5  and  C_7 
REMARK    5  A    between atoms: C_12  and  C_8 
REMARK    6  A    between atoms: C_24  and  C_23 
REMARK    7  A    between atoms: C_25  and  C_24 
REMARK    8  A    between atoms: C_27  and  C_25 
REMARK    9  A    between atoms: C_26  and  C_27 
ROOT
ATOM      1  C   UNL d   1      -1.880  -5.566   2.095  0.00  0.00     0.139 A 
ATOM      2  C   UNL d   1      -1.982  -4.832   0.902  0.00  0.00     0.130 A 
ATOM      3  C   UNL d   1      -2.401  -6.867   2.208  0.00  0.00     0.055 A 
ATOM      4  C   UNL d   1      -3.040  -7.453   1.109  0.00  0.00     0.051 A 
ATOM      5  C   UNL d   1      -2.533  -5.458  -0.222  0.00  0.00     0.048 A 
ATOM      6  C   UNL d   1      -3.076  -6.746  -0.103  0.00  0.00     0.038 A 
ATOM      7 BR   UNL d   1      -2.647  -4.684  -1.951  0.00  0.00    -0.048 Br
ENDROOT
BRANCH   2   8
ATOM      8  O   UNL d   1      -1.833  -3.422   0.973  0.00  0.00    -0.271 OA
BRANCH   8   9
ATOM      9  C   UNL d   1      -1.220  -2.640   0.007  0.00  0.00     0.298 C 
ATOM     10  O   UNL d   1      -0.227  -2.950  -0.631  0.00  0.00    -0.259 OA
BRANCH   9  11
ATOM     11  C   UNL d   1      -2.008  -1.378  -0.157  0.00  0.00     0.040 A 
ATOM     12  C   UNL d   1      -1.625  -0.455  -1.137  0.00  0.00     0.018 A 
ATOM     13  C   UNL d   1      -2.313   0.759  -1.273  0.00  0.00     0.008 A 
ATOM     14  C   UNL d   1      -3.393   1.063  -0.433  0.00  0.00    -0.058 A 
ATOM     15  C   UNL d   1      -3.833   0.096   0.478  0.00  0.00     0.008 A 
ATOM     16  C   UNL d   1      -3.143  -1.108   0.623  0.00  0.00     0.018 A 
BRANCH  14  17
ATOM     17  C   UNL d   1      -4.035   2.432  -0.454  0.00  0.00     0.038 C 
BRANCH  17  18
ATOM     18  C   UNL d   1      -3.924   3.168   0.893  0.00  0.00     0.005 C 
BRANCH  18  19
ATOM     19  C   UNL d   1      -2.475   3.437   1.322  0.00  0.00    -0.000 C 
BRANCH  19  20
ATOM     20  C   UNL d   1      -2.420   4.146   2.676  0.00  0.00    -0.005 C 
ATOM     21  C   UNL d   1      -0.987   4.400   3.117  0.00  0.00     0.005 C 
ENDBRANCH  19  20
ENDBRANCH  18  19
ENDBRANCH  17  18
ENDBRANCH  14  17
ENDBRANCH   9  11
ENDBRANCH   8   9
ENDBRANCH   2   8
BRANCH   1  22
ATOM     22  N   UNL d   1      -1.213  -5.014   3.260  0.00  0.00    -0.113 N 
ATOM     23  O   UNL d   1      -1.625  -3.928   3.696  0.00  0.00    -0.532 OA
ATOM     24  O   UNL d   1      -0.309  -5.699   3.774  0.00  0.00    -0.532 OA
ENDBRANCH   1  22
BRANCH   4  25
ATOM     25  C   UNL d   1      -3.698  -8.811   1.190  0.00  0.00     0.417 C 
ATOM     26  F   UNL d   1      -3.453  -9.464   2.357  0.00  0.00    -0.166 F 
ATOM     27  F   UNL d   1      -5.052  -8.731   1.079  0.00  0.00    -0.166 F 
ATOM     28  F   UNL d   1      -3.287  -9.641   0.194  0.00  0.00    -0.166 F 
ENDBRANCH   4  25
TORSDOF 9
