REMARK  7 active torsions:
REMARK  status: ('A' for Active; 'I' for Inactive)
REMARK    1  A    between atoms: N_6  and  C_1 
REMARK    2  A    between atoms: C_7  and  C_4 
REMARK    3  A    between atoms: C_10  and  N_6 
REMARK    4  A    between atoms: C_9  and  C_7 
REMARK    5  A    between atoms: O_15  and  C_9 
REMARK    6  A    between atoms: O_14  and  N_11 
REMARK    7  A    between atoms: C_16  and  O_15 
ROOT
ATOM      1  C   UNL d   1      -0.622   0.144  -0.990  0.00  0.00     0.149 A 
ATOM      2  N   UNL d   1       0.446   0.901  -1.117  0.00  0.00    -0.339 N 
ATOM      3  HN  UNL d   1       0.609   1.541  -1.894  1.00  0.00     0.168 HD
ATOM      4  C   UNL d   1       1.318   0.716  -0.060  0.00  0.00     0.027 A 
ATOM      5  S   UNL d   1      -0.649  -0.819   0.438  0.00  0.00    -0.064 SA
ATOM      6  C   UNL d   1       0.868  -0.174   0.900  0.00  0.00     0.078 A 
ENDROOT
BRANCH   1   7
ATOM      7  N   UNL d   1      -1.638   0.091  -1.869  0.00  0.00    -0.331 N 
ATOM      8  H   UNL d   1      -2.413  -0.529  -1.683  0.00  0.00     0.168 HD
BRANCH   7   9
ATOM      9  C   UNL d   1      -1.736   0.801  -3.027  0.00  0.00     0.206 C 
ATOM     10  N   UNL d   1      -2.734   0.719  -3.846  0.00  0.00    -0.265 N 
ATOM     11  HN  UNL d   1      -3.553   0.123  -3.727  1.00  0.00     0.194 HD
BRANCH  10  12
ATOM     12  O   UNL d   1      -2.501   1.583  -4.924  0.00  0.00    -0.289 OA
ATOM     13  H   UNL d   1      -3.292   1.445  -5.477  0.00  0.00     0.244 HD
ENDBRANCH  10  12
ENDBRANCH   7   9
ENDBRANCH   1   7
BRANCH   4  14
ATOM     14  C   UNL d   1       2.580   1.510  -0.047  0.00  0.00     0.168 C 
BRANCH  14  15
ATOM     15  C   UNL d   1       3.816   0.660   0.113  0.00  0.00     0.264 C 
ATOM     16  O   UNL d   1       3.851  -0.556   0.244  0.00  0.00    -0.265 OA
BRANCH  15  17
ATOM     17  O   UNL d   1       4.906   1.482   0.192  0.00  0.00    -0.322 OA
BRANCH  17  18
ATOM     18  C   UNL d   1       6.096   0.868   0.704  0.00  0.00     0.174 C 
ATOM     19  C   UNL d   1       6.058   0.946   2.219  0.00  0.00     0.034 C 
ENDBRANCH  17  18
ENDBRANCH  15  17
ENDBRANCH  14  15
ENDBRANCH   4  14
TORSDOF 7
