REMARK  6 active torsions:
REMARK  status: ('A' for Active; 'I' for Inactive)
REMARK    1  A    between atoms: C_12  and  N_1 
REMARK    2  A    between atoms: N_3  and  C_11 
REMARK    3  A    between atoms: C_14  and  C_9 
REMARK    4  A    between atoms: C_13  and  C_10 
REMARK    5  A    between atoms: C_17  and  C_15 
REMARK    6  A    between atoms: C_16  and  C_17 
ROOT
ATOM      1  C   UNL d   1       6.680   0.062   0.114  0.00  0.00     0.077 C 
ENDROOT
BRANCH   1   2
ATOM      2  C   UNL d   1       7.371   1.403   0.170  0.00  0.00    -0.054 A 
ATOM      3  C   UNL d   1       7.582   2.049   1.393  0.00  0.00     0.010 A 
ATOM      4  C   UNL d   1       8.344   3.223   1.451  0.00  0.00     0.030 A 
ATOM      5  C   UNL d   1       8.904   3.784   0.300  0.00  0.00     0.032 A 
ATOM      6  C   UNL d   1       8.660   3.153  -0.925  0.00  0.00     0.030 A 
ATOM      7  C   UNL d   1       7.888   1.986  -0.993  0.00  0.00     0.010 A 
BRANCH   5   8
ATOM      8  N   UNL d   1       9.755   4.891   0.469  0.00  0.00    -0.364 N 
ATOM      9  C   UNL d   1       9.868   5.779  -0.468  0.00  0.00     0.117 C 
ATOM     10  HN  UNL d   1      10.285   4.997   1.334  1.00  0.00     0.165 HD
BRANCH   9  11
ATOM     11  C   UNL d   1      10.759   6.953  -0.343  0.00  0.00     0.047 A 
ATOM     12  N   UNL d   1      10.779   7.766  -1.428  0.00  0.00    -0.365 N 
ATOM     13  C   UNL d   1      11.568   8.858  -1.343  0.00  0.00     0.088 A 
ATOM     14  HN  UNL d   1      10.228   7.564  -2.262  1.00  0.00     0.165 HD
ATOM     15  C   UNL d   1      12.332   9.177  -0.230  0.00  0.00     0.017 A 
ATOM     16  C   UNL d   1      12.295   8.319   0.866  0.00  0.00     0.004 A 
ATOM     17  C   UNL d   1      11.496   7.181   0.813  0.00  0.00     0.031 A 
ENDBRANCH   9  11
ENDBRANCH   5   8
ENDBRANCH   1   2
BRANCH   1  18
ATOM     18  C   UNL d   1       5.176   0.092  -0.002  0.00  0.00    -0.054 A 
ATOM     19  C   UNL d   1       4.554   0.127  -1.255  0.00  0.00     0.010 A 
ATOM     20  C   UNL d   1       3.160   0.041  -1.359  0.00  0.00     0.030 A 
ATOM     21  C   UNL d   1       2.354  -0.076  -0.221  0.00  0.00     0.032 A 
ATOM     22  C   UNL d   1       2.982  -0.091   1.031  0.00  0.00     0.030 A 
ATOM     23  C   UNL d   1       4.373   0.007   1.141  0.00  0.00     0.010 A 
BRANCH  21  24
ATOM     24  N   UNL d   1       0.973  -0.260  -0.414  0.00  0.00    -0.364 N 
ATOM     25  C   UNL d   1       0.134   0.204   0.458  0.00  0.00     0.117 C 
ATOM     26  HN  UNL d   1       0.633  -0.756  -1.237  1.00  0.00     0.165 HD
BRANCH  25  27
ATOM     27  C   UNL d   1      -1.329   0.031   0.326  0.00  0.00     0.047 A 
ATOM     28  N   UNL d   1      -2.051   0.532   1.358  0.00  0.00    -0.365 N 
ATOM     29  C   UNL d   1      -3.392   0.401   1.271  0.00  0.00     0.088 A 
ATOM     30  HN  UNL d   1      -1.606   0.983   2.157  1.00  0.00     0.165 HD
ATOM     31  C   UNL d   1      -4.042  -0.202   0.205  0.00  0.00     0.017 A 
ATOM     32  C   UNL d   1      -3.273  -0.709  -0.838  0.00  0.00     0.004 A 
ATOM     33  C   UNL d   1      -1.886  -0.595  -0.781  0.00  0.00     0.031 A 
ENDBRANCH  25  27
ENDBRANCH  21  24
ENDBRANCH   1  18
TORSDOF 6
