REMARK  6 active torsions:
REMARK  status: ('A' for Active; 'I' for Inactive)
REMARK    1  A    between atoms: C_3  and  C_1 
REMARK    2  A    between atoms: N_4  and  C_2 
REMARK       I    between atoms: N_11  and  C_3 
REMARK       I    between atoms: C_7  and  N_4 
REMARK    3  A    between atoms: C_5  and  C_9 
REMARK    4  A    between atoms: C_6  and  C_8 
REMARK    5  A    between atoms: C_21  and  C_7 
REMARK    6  A    between atoms: C_12  and  N_11 
ROOT
ATOM      1  C   UNL d   1      -0.120   2.401   0.190  0.00  0.00     0.061 C 
ATOM      2  C   UNL d   1      -1.321   1.676  -0.001  0.00  0.00     0.068 C 
ATOM      3  C   UNL d   1      -1.238   0.274  -0.133  0.00  0.00     0.040 C 
ATOM      4  C   UNL d   1      -0.035  -0.396   0.105  0.00  0.00     0.040 C 
ATOM      5  C   UNL d   1       1.081   1.721   0.449  0.00  0.00     0.038 C 
ATOM      6  C   UNL d   1       1.105   0.328   0.434  0.00  0.00     0.013 C 
ATOM      7 BR   UNL d   1      -2.657  -0.790  -0.843  0.00  0.00    -0.049 Br
ATOM      8 BR   UNL d   1       2.713  -0.585   0.824  0.00  0.00    -0.051 Br
ENDROOT
BRANCH   1   9
ATOM      9  C   UNL d   1      -0.121   3.894   0.145  0.00  0.00     0.258 C 
ATOM     10  N   UNL d   1       1.002   4.489  -0.414  0.00  0.00    -0.323 N 
ATOM     11  H   UNL d   1       1.681   3.882  -0.858  0.00  0.00     0.169 HD
ATOM     12  O   UNL d   1      -1.142   4.484   0.491  0.00  0.00    -0.267 OA
BRANCH  10  13
ATOM     13  C   UNL d   1       1.153   5.872  -0.668  0.00  0.00     0.036 A 
ATOM     14  C   UNL d   1       0.351   6.849  -0.074  0.00  0.00     0.045 A 
ATOM     15  C   UNL d   1       0.459   8.201  -0.434  0.00  0.00     0.050 A 
ATOM     16  C   UNL d   1       1.413   8.575  -1.391  0.00  0.00     0.032 A 
ATOM     17  C   UNL d   1       2.253   7.616  -1.978  0.00  0.00     0.050 A 
ATOM     18  C   UNL d   1       2.128   6.268  -1.591  0.00  0.00     0.045 A 
BRANCH  15  19
ATOM     19  C   UNL d   1      -0.468   9.211   0.200  0.00  0.00     0.417 C 
ATOM     20  F   UNL d   1      -0.357  10.456  -0.342  0.00  0.00    -0.166 F 
ATOM     21  F   UNL d   1      -1.779   8.867   0.072  0.00  0.00    -0.166 F 
ATOM     22  F   UNL d   1      -0.242   9.361   1.533  0.00  0.00    -0.166 F 
ENDBRANCH  15  19
BRANCH  17  23
ATOM     23  C   UNL d   1       3.258   8.005  -3.036  0.00  0.00     0.417 C 
ATOM     24  F   UNL d   1       3.160   9.305  -3.429  0.00  0.00    -0.166 F 
ATOM     25  F   UNL d   1       4.542   7.832  -2.621  0.00  0.00    -0.166 F 
ATOM     26  F   UNL d   1       3.127   7.261  -4.169  0.00  0.00    -0.166 F 
ENDBRANCH  17  23
ENDBRANCH  10  13
ENDBRANCH   1   9
BRANCH   2  27
ATOM     27  N   UNL d   1      -2.563   2.380  -0.038  0.00  0.00    -0.321 N 
ATOM     28  C   UNL d   1      -3.642   1.974   0.741  0.00  0.00     0.256 C 
ATOM     29  O   UNL d   1      -3.612   1.016   1.511  0.00  0.00    -0.267 OA
ATOM     30  H   UNL d   1      -2.474   3.397  -0.083  0.00  0.00     0.169 HD
BRANCH  28  31
ATOM     31  C   UNL d   1      -4.879   2.814   0.689  0.00  0.00     0.032 A 
ATOM     32  C   UNL d   1      -5.059   3.870  -0.215  0.00  0.00     0.017 A 
ATOM     33  C   UNL d   1      -6.256   4.596  -0.215  0.00  0.00     0.001 A 
ATOM     34  C   UNL d   1      -7.279   4.270   0.676  0.00  0.00     0.000 A 
ATOM     35  C   UNL d   1      -7.111   3.219   1.573  0.00  0.00     0.001 A 
ATOM     36  C   UNL d   1      -5.917   2.497   1.579  0.00  0.00     0.017 A 
ENDBRANCH  28  31
ENDBRANCH   2  27
TORSDOF 6
