REMARK  4 active torsions:
REMARK  status: ('A' for Active; 'I' for Inactive)
REMARK    1  A    between atoms: C_3  and  C_1 
REMARK    2  A    between atoms: C_5  and  C_2 
REMARK       I    between atoms: N_11  and  C_3 
REMARK    3  A    between atoms: O_14  and  C_7 
REMARK    4  A    between atoms: O_15  and  C_12 
ROOT
ATOM      1  C   UNL d   1       0.867   0.456  -0.660  0.00  0.00     0.112 C 
ATOM      2  C   UNL d   1       0.397  -0.797  -0.796  0.00  0.00     0.042 C 
ATOM      3  C   UNL d   1       2.031   0.923  -1.327  0.00  0.00     0.105 C 
ATOM      4  N   UNL d   1       2.967   1.364  -1.855  0.00  0.00    -0.191 NA
ENDROOT
BRANCH   1   5
ATOM      5  C   UNL d   1       0.098   1.380   0.227  0.00  0.00     0.260 C 
ATOM      6  O   UNL d   1      -0.891   1.024   0.859  0.00  0.00    -0.267 OA
ATOM      7  N   UNL d   1       0.537   2.667   0.315  0.00  0.00    -0.365 N 
ATOM      8  H   UNL d   1       1.339   3.046  -0.174  0.00  0.00     0.159 HD
ATOM      9  H   UNL d   1       0.013   3.297   0.909  0.00  0.00     0.159 HD
ENDBRANCH   1   5
BRANCH   2  10
ATOM     10  C   UNL d   1       1.031  -1.810  -1.651  0.00  0.00    -0.001 A 
ATOM     11  C   UNL d   1       2.083  -2.647  -1.246  0.00  0.00     0.081 A 
ATOM     12  C   UNL d   1       2.733  -3.454  -2.193  0.00  0.00     0.074 A 
ATOM     13  C   UNL d   1       2.335  -3.455  -3.531  0.00  0.00     0.070 A 
ATOM     14  C   UNL d   1       1.263  -2.655  -3.920  0.00  0.00     0.038 A 
ATOM     15  C   UNL d   1       0.614  -1.840  -2.992  0.00  0.00     0.017 A 
BRANCH  11  16
ATOM     16  O   UNL d   1       2.647  -2.711   0.003  0.00  0.00    -0.355 OA
ATOM     17  C   UNL d   1       1.764  -2.649   1.117  0.00  0.00     0.210 C 
ENDBRANCH  11  16
BRANCH  13  18
ATOM     18  O   UNL d   1       2.908  -4.172  -4.544  0.00  0.00    -0.356 OA
ATOM     19  C   UNL d   1       4.061  -4.938  -4.217  0.00  0.00     0.210 C 
ENDBRANCH  13  18
ENDBRANCH   2  10
TORSDOF 4
