REMARK  3 active torsions:
REMARK  status: ('A' for Active; 'I' for Inactive)
REMARK    1  A    between atoms: S_8  and  C_1 
REMARK    2  A    between atoms: N_7  and  C_2 
REMARK    3  A    between atoms: C_9  and  S_8 
ROOT
ATOM      1  C   UNL d   1       0.631  -1.363   0.056  0.00  0.00     0.128 A 
ATOM      2  C   UNL d   1      -0.744  -1.311   0.148  0.00  0.00     0.161 A 
ATOM      3  N   UNL d   1       1.042  -0.054  -0.003  0.00  0.00    -0.287 N 
ATOM      4  N   UNL d   1       0.011   0.824  -0.043  0.00  0.00    -0.300 N 
ATOM      5  HN  UNL d   1       0.059   1.839  -0.126  1.00  0.00     0.187 HD
ATOM      6  C   UNL d   1      -1.085   0.059   0.049  0.00  0.00     0.058 A 
ATOM      7  C   UNL d   1       2.378   0.491  -0.040  0.00  0.00     0.178 C 
ATOM      8  C   UNL d   1      -2.421   0.706   0.040  0.00  0.00     0.072 C 
ENDROOT
BRANCH   1   9
ATOM      9  S   UNL d   1       1.733  -2.704  -0.065  0.00  0.00    -0.051 SA
BRANCH   9  10
ATOM     10  C   UNL d   1       2.175  -2.923   1.654  0.00  0.00     0.075 A 
ATOM     11  N   UNL d   1       2.089  -1.860   2.488  0.00  0.00    -0.360 N 
ATOM     12  C   UNL d   1       2.411  -2.071   3.785  0.00  0.00     0.089 A 
ATOM     13  HN  UNL d   1       1.795  -0.942   2.154  1.00  0.00     0.166 HD
ATOM     14  C   UNL d   1       2.840  -3.288   4.289  0.00  0.00     0.017 A 
ATOM     15  C   UNL d   1       2.956  -4.356   3.411  0.00  0.00     0.004 A 
ATOM     16  C   UNL d   1       2.622  -4.173   2.071  0.00  0.00     0.037 A 
ENDBRANCH   9  10
ENDBRANCH   1   9
BRANCH   2  17
ATOM     17  N   UNL d   1      -1.631  -2.415   0.269  0.00  0.00    -0.111 N 
ATOM     18  O   UNL d   1      -1.434  -3.202   1.204  0.00  0.00    -0.532 OA
ATOM     19  O   UNL d   1      -2.548  -2.485  -0.559  0.00  0.00    -0.532 OA
ENDBRANCH   2  17
TORSDOF 3
