REMARK  5 active torsions:
REMARK  status: ('A' for Active; 'I' for Inactive)
REMARK    1  A    between atoms: C_6  and  C_1 
REMARK    2  A    between atoms: C_3  and  C_2 
REMARK    3  A    between atoms: O_18  and  C_3 
REMARK    4  A    between atoms: C_7  and  O_10 
REMARK    5  A    between atoms: O_10  and  C_13 
ROOT
ATOM      1  C   UNL d   1       1.882  -5.916  -1.921  0.00  0.00     0.055 A 
ATOM      2  N   UNL d   1       0.264  -5.831  -0.125  0.00  0.00    -0.346 N 
ATOM      3  HN  UNL d   1      -0.630  -6.123   0.271  1.00  0.00     0.167 HD
ATOM      4  C   UNL d   1       1.067  -4.952   0.519  0.00  0.00     0.147 A 
ATOM      5  C   UNL d   1       0.696  -6.307  -1.316  0.00  0.00     0.107 A 
ATOM      6  C   UNL d   1       2.675  -4.977  -1.253  0.00  0.00     0.023 A 
ATOM      7  C   UNL d   1       2.260  -4.484  -0.012  0.00  0.00     0.057 A 
ENDROOT
BRANCH   4   8
ATOM      8  O   UNL d   1       0.702  -4.474   1.774  0.00  0.00    -0.294 OA
BRANCH   8   9
ATOM      9  C   UNL d   1      -0.144  -5.253   2.536  0.00  0.00     0.078 A 
ATOM     10  C   UNL d   1      -0.059  -6.649   2.586  0.00  0.00     0.053 A 
ATOM     11  C   UNL d   1      -0.983  -7.399   3.322  0.00  0.00     0.050 A 
ATOM     12  C   UNL d   1      -1.934  -6.724   4.101  0.00  0.00     0.016 A 
ATOM     13  C   UNL d   1      -1.979  -5.327   4.108  0.00  0.00     0.004 A 
ATOM     14  C   UNL d   1      -1.091  -4.593   3.318  0.00  0.00     0.037 A 
BRANCH  11  15
ATOM     15  C   UNL d   1      -0.980  -8.903   3.237  0.00  0.00     0.417 C 
ATOM     16  F   UNL d   1      -0.064  -9.401   2.359  0.00  0.00    -0.166 F 
ATOM     17  F   UNL d   1      -2.183  -9.404   2.837  0.00  0.00    -0.166 F 
ATOM     18  F   UNL d   1      -0.708  -9.495   4.432  0.00  0.00    -0.166 F 
ENDBRANCH  11  15
ENDBRANCH   8   9
ENDBRANCH   4   8
BRANCH   1  19
ATOM     19  C   UNL d   1       2.220  -6.521  -3.226  0.00  0.00     0.294 C 
ATOM     20  O   UNL d   1       1.525  -7.365  -3.774  0.00  0.00    -0.259 OA
BRANCH  19  21
ATOM     21  O   UNL d   1       3.375  -6.008  -3.711  0.00  0.00    -0.322 OA
ATOM     22  C   UNL d   1       3.747  -6.537  -4.984  0.00  0.00     0.213 C 
ENDBRANCH  19  21
ENDBRANCH   1  19
TORSDOF 5
