REMARK  3 active torsions:
REMARK  status: ('A' for Active; 'I' for Inactive)
REMARK    1  A    between atoms: S_2  and  C_1 
REMARK    2  A    between atoms: C_9  and  S_2 
REMARK    3  A    between atoms: S_10  and  C_3 
ROOT
ATOM      1  C   UNL d   1       0.133  -1.320   0.015  0.00  0.00     0.107 A 
ATOM      2  C   UNL d   1      -0.166  -0.202   0.801  0.00  0.00     0.065 A 
ATOM      3  C   UNL d   1       1.068  -0.981  -1.054  0.00  0.00     0.086 A 
ATOM      4  S   UNL d   1       0.755   1.181   0.252  0.00  0.00    -0.068 SA
ATOM      5  C   UNL d   1       1.461   0.328  -0.998  0.00  0.00     0.099 A 
ATOM      6 CL   UNL d   1       1.637  -2.040  -2.289  0.00  0.00    -0.080 Cl
ATOM      7 CL   UNL d   1       2.554   1.158  -2.039  0.00  0.00    -0.074 Cl
ENDROOT
BRANCH   1   8
ATOM      8  S   UNL d   1      -0.508  -2.942   0.090  0.00  0.00     0.182 S 
ATOM      9  O   UNL d   1      -1.332  -3.028   1.272  0.00  0.00    -0.222 OA
ATOM     10  O   UNL d   1      -1.084  -3.138  -1.222  0.00  0.00    -0.222 OA
BRANCH   8  11
ATOM     11  C   UNL d   1       0.870  -4.072   0.330  0.00  0.00     0.105 C 
ATOM     12  C   UNL d   1       1.576  -3.833   1.660  0.00  0.00     0.026 C 
ATOM     13  C   UNL d   1       0.365  -5.513   0.247  0.00  0.00     0.026 C 
ENDBRANCH   8  11
ENDBRANCH   1   8
BRANCH   2  14
ATOM     14  S   UNL d   1      -1.176   0.271   2.166  0.00  0.00    -0.126 SA
ATOM     15  C   UNL d   1      -2.189  -1.048   2.792  0.00  0.00     0.096 C 
ENDBRANCH   2  14
TORSDOF 3
