REMARK  8 active torsions:
REMARK  status: ('A' for Active; 'I' for Inactive)
REMARK    1  A    between atoms: N_2  and  C_1 
REMARK    2  A    between atoms: C_3  and  C_1 
REMARK    3  A    between atoms: C_6  and  C_1 
REMARK    4  A    between atoms: N_7  and  C_1 
REMARK       I    between atoms: C_4  and  N_2 
REMARK    5  A    between atoms: C_5  and  C_4 
REMARK    6  A    between atoms: O_20  and  C_6 
REMARK    7  A    between atoms: C_10  and  N_7 
REMARK    8  A    between atoms: C_26  and  O_20 
ROOT
ATOM      1  C   UNL d   1       0.852  -0.121   0.046  0.00  0.00     0.297 C 
ENDROOT
BRANCH   1   2
ATOM      2  N   UNL d   1       0.453  -1.531   0.175  0.00  0.00    -0.314 N 
ATOM      3  C   UNL d   1       0.352  -2.184   1.375  0.00  0.00     0.255 C 
ATOM      4  O   UNL d   1       0.645  -1.664   2.443  0.00  0.00    -0.268 OA
ATOM      5  H   UNL d   1       0.064  -1.963  -0.655  0.00  0.00     0.166 HD
BRANCH   3   6
ATOM      6  C   UNL d   1      -0.252  -3.544   1.323  0.00  0.00     0.053 A 
ATOM      7  C   UNL d   1       0.124  -4.529   0.398  0.00  0.00     0.049 A 
ATOM      8 CL   UNL d   1       1.418  -4.332  -0.726  0.00  0.00    -0.083 Cl
ATOM      9  C   UNL d   1      -0.542  -5.760   0.375  0.00  0.00     0.025 A 
ATOM     10  C   UNL d   1      -1.572  -6.022   1.280  0.00  0.00     0.002 A 
ATOM     11  C   UNL d   1      -1.929  -5.058   2.221  0.00  0.00     0.001 A 
ATOM     12  C   UNL d   1      -1.270  -3.827   2.245  0.00  0.00     0.019 A 
ENDBRANCH   3   6
ENDBRANCH   1   2
BRANCH   1  13
ATOM     13  C   UNL d   1       0.091   0.884   0.988  0.00  0.00     0.442 C 
ATOM     14  F   UNL d   1      -1.094   0.389   1.424  0.00  0.00    -0.166 F 
ATOM     15  F   UNL d   1       0.830   1.192   2.087  0.00  0.00    -0.166 F 
ATOM     16  F   UNL d   1      -0.194   2.069   0.388  0.00  0.00    -0.166 F 
ENDBRANCH   1  13
BRANCH   1  17
ATOM     17  C   UNL d   1       0.419   0.345  -1.363  0.00  0.00     0.318 C 
ATOM     18  O   UNL d   1      -0.496  -0.181  -1.995  0.00  0.00    -0.260 OA
BRANCH  17  19
ATOM     19  O   UNL d   1       1.191   1.366  -1.836  0.00  0.00    -0.318 OA
BRANCH  19  20
ATOM     20  C   UNL d   1       0.915   1.818  -3.168  0.00  0.00     0.174 C 
ATOM     21  C   UNL d   1       1.573   0.909  -4.191  0.00  0.00     0.034 C 
ENDBRANCH  19  20
ENDBRANCH  17  19
ENDBRANCH   1  17
BRANCH   1  22
ATOM     22  N   UNL d   1       2.329  -0.077   0.231  0.00  0.00    -0.348 N 
ATOM     23  H   UNL d   1       2.568  -0.024   1.223  0.00  0.00     0.163 HD
BRANCH  22  24
ATOM     24  C   UNL d   1       3.306  -0.672  -0.548  0.00  0.00     0.032 A 
ATOM     25  C   UNL d   1       3.058  -1.414  -1.708  0.00  0.00     0.056 A 
ATOM     26  C   UNL d   1       4.105  -1.920  -2.487  0.00  0.00     0.074 A 
ATOM     27 CL   UNL d   1       3.736  -2.861  -3.882  0.00  0.00    -0.081 Cl
ATOM     28  C   UNL d   1       5.422  -1.653  -2.139  0.00  0.00     0.138 A 
ATOM     29  C   UNL d   1       5.702  -0.890  -1.016  0.00  0.00     0.046 A 
ATOM     30  F   UNL d   1       6.438  -2.113  -2.882  0.00  0.00    -0.204 F 
ATOM     31  C   UNL d   1       4.650  -0.405  -0.232  0.00  0.00     0.032 A 
ENDBRANCH  22  24
ENDBRANCH   1  22
TORSDOF 8
