REMARK  7 active torsions:
REMARK  status: ('A' for Active; 'I' for Inactive)
REMARK    1  A    between atoms: C_3  and  C_1 
REMARK    2  A    between atoms: C_5  and  C_1 
REMARK    3  A    between atoms: C_7  and  C_1 
REMARK    4  A    between atoms: O_20  and  C_1 
REMARK       I    between atoms: C_2  and  N_4 
REMARK       I    between atoms: N_6  and  C_2 
REMARK    5  A    between atoms: N_4  and  C_8 
REMARK    6  A    between atoms: O_22  and  C_5 
REMARK    7  A    between atoms: C_10  and  N_6 
ROOT
ATOM      1  C   UNL d   1       0.423   0.509  -1.220  0.00  0.00    -0.005 A 
ATOM      2  C   UNL d   1      -0.311   1.523  -3.821  0.00  0.00     0.038 A 
ATOM      3  C   UNL d   1      -0.264  -0.283  -2.149  0.00  0.00     0.013 A 
ATOM      4  C   UNL d   1       0.695   1.827  -1.598  0.00  0.00     0.013 A 
ATOM      5  C   UNL d   1      -0.638   0.220  -3.405  0.00  0.00     0.030 A 
ATOM      6  C   UNL d   1       0.339   2.315  -2.866  0.00  0.00     0.030 A 
ENDROOT
BRANCH   2   7
ATOM      7  N   UNL d   1      -0.606   1.976  -5.182  0.00  0.00    -0.304 N 
ATOM      8  C   UNL d   1      -0.399   3.321  -5.583  0.00  0.00     0.327 C 
ATOM      9  N   UNL d   1      -0.707   3.604  -6.906  0.00  0.00    -0.309 N 
ATOM     10  O   UNL d   1       0.013   4.203  -4.834  0.00  0.00    -0.246 OA
ATOM     11  H   UNL d   1      -1.295   2.955  -7.395  0.00  0.00     0.170 HD
ATOM     12  C   UNL d   1      -1.114   0.945  -6.099  0.00  0.00     0.161 C 
BRANCH   9  13
ATOM     13  C   UNL d   1      -0.541   4.845  -7.574  0.00  0.00     0.037 A 
ATOM     14  C   UNL d   1       0.111   5.955  -7.030  0.00  0.00     0.053 A 
ATOM     15  C   UNL d   1       0.128   7.168  -7.720  0.00  0.00     0.036 A 
ATOM     16 CL   UNL d   1       0.871   8.548  -7.005  0.00  0.00    -0.084 Cl
ATOM     17  C   UNL d   1      -0.468   7.282  -8.972  0.00  0.00     0.024 A 
ATOM     18  C   UNL d   1      -1.065   6.165  -9.551  0.00  0.00     0.004 A 
ATOM     19  C   UNL d   1      -1.097   4.953  -8.857  0.00  0.00     0.029 A 
ENDBRANCH   9  13
ENDBRANCH   2   7
BRANCH   1  20
ATOM     20  C   UNL d   1       0.851  -0.042   0.146  0.00  0.00     0.271 C 
BRANCH  20  21
ATOM     21  C   UNL d   1       1.798  -1.263   0.052  0.00  0.00     0.432 C 
ATOM     22  F   UNL d   1       1.280  -2.393   0.595  0.00  0.00    -0.167 F 
ATOM     23  F   UNL d   1       2.172  -1.575  -1.209  0.00  0.00    -0.167 F 
ATOM     24  F   UNL d   1       2.947  -1.018   0.744  0.00  0.00    -0.167 F 
ENDBRANCH  20  21
BRANCH  20  25
ATOM     25  C   UNL d   1      -0.358  -0.543   0.953  0.00  0.00     0.307 C 
ATOM     26  O   UNL d   1      -1.369  -1.052   0.485  0.00  0.00    -0.261 OA
BRANCH  25  27
ATOM     27  O   UNL d   1      -0.154  -0.361   2.299  0.00  0.00    -0.324 OA
ATOM     28  C   UNL d   1      -1.274  -0.752   3.097  0.00  0.00     0.213 C 
ENDBRANCH  25  27
ENDBRANCH  20  25
BRANCH  20  29
ATOM     29  O   UNL d   1       1.478   1.046   0.887  0.00  0.00    -0.368 OA
ATOM     30  H   UNL d   1       1.827   0.656   1.712  0.00  0.00     0.212 HD
ENDBRANCH  20  29
ENDBRANCH   1  20
TORSDOF 7
