REMARK  5 active torsions:
REMARK  status: ('A' for Active; 'I' for Inactive)
REMARK    1  A    between atoms: S_12  and  C_3 
REMARK    2  A    between atoms: C_8  and  C_4 
REMARK    3  A    between atoms: O_15  and  C_8 
REMARK    4  A    between atoms: C_14  and  C_9 
REMARK    5  A    between atoms: C_19  and  O_15 
ROOT
ATOM      1  C   UNL d   1       0.136  -0.765  -0.107  0.00  0.00     0.041 A 
ATOM      2  C   UNL d   1       0.521   0.634  -0.102  0.00  0.00    -0.018 A 
ATOM      3  C   UNL d   1       1.240  -1.597  -0.102  0.00  0.00     0.056 A 
ATOM      4  C   UNL d   1       1.896   0.809  -0.142  0.00  0.00     0.088 A 
ATOM      5  S   UNL d   1       2.699  -0.700  -0.075  0.00  0.00    -0.076 SA
ATOM      6  C   UNL d   1      -1.279  -1.159  -0.147  0.00  0.00     0.162 C 
ATOM      7  C   UNL d   1      -0.516   1.735  -0.091  0.00  0.00     0.051 C 
ATOM      8  C   UNL d   1      -1.882   1.232   0.436  0.00  0.00     0.030 C 
ATOM      9  C   UNL d   1      -2.276  -0.030  -0.355  0.00  0.00     0.093 C 
ATOM     10  O   UNL d   1      -1.669  -2.322  -0.093  0.00  0.00    -0.292 OA
ENDROOT
BRANCH   8  11
ATOM     11  C   UNL d   1      -1.978   1.019   1.949  0.00  0.00    -0.053 A 
ATOM     12  C   UNL d   1      -0.885   1.168   2.818  0.00  0.00     0.007 A 
ATOM     13  C   UNL d   1      -1.017   0.953   4.192  0.00  0.00     0.001 A 
ATOM     14  C   UNL d   1      -2.248   0.595   4.728  0.00  0.00     0.000 A 
ATOM     15  C   UNL d   1      -3.349   0.454   3.889  0.00  0.00     0.001 A 
ATOM     16  C   UNL d   1      -3.216   0.668   2.514  0.00  0.00     0.007 A 
ENDBRANCH   8  11
BRANCH   4  17
ATOM     17  C   UNL d   1       2.626   2.063  -0.274  0.00  0.00     0.300 C 
ATOM     18  O   UNL d   1       2.097   3.168  -0.380  0.00  0.00    -0.259 OA
BRANCH  17  19
ATOM     19  O   UNL d   1       3.970   1.855  -0.361  0.00  0.00    -0.317 OA
BRANCH  19  20
ATOM     20  C   UNL d   1       4.733   2.941  -0.902  0.00  0.00     0.174 C 
ATOM     21  C   UNL d   1       4.741   2.810  -2.415  0.00  0.00     0.034 C 
ENDBRANCH  19  20
ENDBRANCH  17  19
ENDBRANCH   4  17
BRANCH   3  22
ATOM     22  S   UNL d   1       1.327  -3.352  -0.220  0.00  0.00    -0.126 SA
ATOM     23  C   UNL d   1       0.722  -3.864   1.402  0.00  0.00     0.096 C 
ENDBRANCH   3  22
TORSDOF 5
