REMARK  7 active torsions:
REMARK  status: ('A' for Active; 'I' for Inactive)
REMARK    1  A    between atoms: C_10  and  C_1 
REMARK    2  A    between atoms: C_17  and  C_6 
REMARK    3  A    between atoms: S_15  and  C_9 
REMARK    4  A    between atoms: C_11  and  C_21 
REMARK       I    between atoms: N_14  and  C_11 
REMARK    5  A    between atoms: C_22  and  N_14 
REMARK    6  A    between atoms: C_21  and  S_15 
REMARK    7  A    between atoms: C_25  and  C_16 
ROOT
ATOM      1  N   UNL d   1       1.073   7.651  -1.476  0.00  0.00    -0.334 N 
ATOM      2  HN  UNL d   1       1.525   6.951  -2.065  1.00  0.00     0.168 HD
ATOM      3  C   UNL d   1      -0.131   7.444  -0.927  0.00  0.00     0.145 A 
ATOM      4  C   UNL d   1       1.654   8.837  -1.205  0.00  0.00     0.071 A 
ATOM      5  N   UNL d   1      -0.788   8.311  -0.145  0.00  0.00    -0.347 N 
ATOM      6  HN  UNL d   1      -1.702   8.092   0.252  1.00  0.00     0.167 HD
ATOM      7  C   UNL d   1       1.052   9.808  -0.431  0.00  0.00     0.049 A 
ATOM      8  C   UNL d   1      -0.176   9.484   0.086  0.00  0.00     0.092 A 
ENDROOT
BRANCH   3   9
ATOM      9  S   UNL d   1      -0.976   5.982  -1.463  0.00  0.00    -0.085 SA
BRANCH   9  10
ATOM     10  C   UNL d   1      -2.557   6.742  -1.917  0.00  0.00     0.185 C 
BRANCH  10  11
ATOM     11  C   UNL d   1      -2.516   7.758  -3.056  0.00  0.00     0.231 C 
ATOM     12  N   UNL d   1      -1.324   7.896  -3.743  0.00  0.00    -0.327 N 
ATOM     13  H   UNL d   1      -0.591   7.229  -3.525  0.00  0.00     0.169 HD
ATOM     14  O   UNL d   1      -3.552   8.375  -3.314  0.00  0.00    -0.272 OA
BRANCH  12  15
ATOM     15  C   UNL d   1      -0.989   8.910  -4.672  0.00  0.00     0.034 A 
ATOM     16  C   UNL d   1      -1.825   9.981  -4.974  0.00  0.00     0.030 A 
ATOM     17  C   UNL d   1      -1.411  10.994  -5.843  0.00  0.00     0.010 A 
ATOM     18  C   UNL d   1      -0.142  10.961  -6.435  0.00  0.00    -0.055 A 
ATOM     19  C   UNL d   1       0.691   9.870  -6.153  0.00  0.00     0.010 A 
ATOM     20  C   UNL d   1       0.274   8.857  -5.276  0.00  0.00     0.030 A 
BRANCH  18  21
ATOM     21  C   UNL d   1       0.338  12.099  -7.319  0.00  0.00     0.010 C 
ATOM     22  C   UNL d   1      -0.561  12.303  -8.541  0.00  0.00     0.015 C 
ATOM     23  C   UNL d   1       0.450  13.398  -6.513  0.00  0.00     0.015 C 
ENDBRANCH  18  21
ENDBRANCH  12  15
ENDBRANCH  10  11
ENDBRANCH   9  10
ENDBRANCH   3   9
BRANCH   4  24
ATOM     24  C   UNL d   1       2.974   9.001  -1.783  0.00  0.00     0.127 A 
ATOM     25  C   UNL d   1       3.804   8.203  -2.534  0.00  0.00     0.074 A 
ATOM     26  C   UNL d   1       4.989   8.966  -2.711  0.00  0.00     0.068 A 
ATOM     27  N   UNL d   1       4.851  10.170  -2.132  0.00  0.00    -0.260 N 
ATOM     28  O   UNL d   1       3.602  10.184  -1.552  0.00  0.00    -0.235 OA
ATOM     29  HN  UNL d   1       5.537  10.925  -2.123  1.00  0.00     0.195 HD
BRANCH  26  30
ATOM     30  C   UNL d   1       6.221   8.580  -3.397  0.00  0.00    -0.007 A 
ATOM     31  C   UNL d   1       7.083   9.558  -3.914  0.00  0.00     0.014 A 
ATOM     32  C   UNL d   1       8.261   9.195  -4.570  0.00  0.00     0.001 A 
ATOM     33  C   UNL d   1       8.594   7.850  -4.712  0.00  0.00     0.000 A 
ATOM     34  C   UNL d   1       7.752   6.868  -4.197  0.00  0.00     0.001 A 
ATOM     35  C   UNL d   1       6.571   7.229  -3.543  0.00  0.00     0.014 A 
ENDBRANCH  26  30
ENDBRANCH   4  24
TORSDOF 7
