REMARK  7 active torsions:
REMARK  status: ('A' for Active; 'I' for Inactive)
REMARK    1  A    between atoms: C_7  and  C_2 
REMARK    2  A    between atoms: C_10  and  N_3 
REMARK    3  A    between atoms: O_19  and  C_7 
REMARK    4  A    between atoms: C_8  and  N_14 
REMARK    5  A    between atoms: N_16  and  C_8 
REMARK    6  A    between atoms: N_11  and  C_9 
REMARK    7  A    between atoms: N_14  and  N_11 
ROOT
ATOM      1  C   UNL d   1       0.988  -0.885   0.030  0.00  0.00     0.091 A 
ATOM      2  C   UNL d   1      -0.354  -1.246   0.111  0.00  0.00     0.086 A 
ATOM      3  N   UNL d   1       1.016   0.500   0.063  0.00  0.00    -0.255 N 
ATOM      4  N   UNL d   1      -0.229   1.024   0.209  0.00  0.00    -0.303 N 
ATOM      5  HN  UNL d   1      -0.482   2.004   0.336  1.00  0.00     0.186 HD
ATOM      6  C   UNL d   1      -1.046  -0.025   0.149  0.00  0.00     0.127 A 
ATOM      7  C   UNL d   1       2.132  -1.753   0.009  0.00  0.00     0.139 C 
ENDROOT
BRANCH   2   8
ATOM      8  C   UNL d   1      -0.906  -2.580   0.252  0.00  0.00     0.296 C 
ATOM      9  O   UNL d   1      -0.332  -3.482   0.850  0.00  0.00    -0.259 OA
BRANCH   8  10
ATOM     10  O   UNL d   1      -2.161  -2.679  -0.271  0.00  0.00    -0.322 OA
ATOM     11  C   UNL d   1      -2.732  -3.981  -0.130  0.00  0.00     0.213 C 
ENDBRANCH   8  10
ENDBRANCH   2   8
BRANCH   3  12
ATOM     12  C   UNL d   1       2.132   1.381  -0.033  0.00  0.00     0.057 A 
ATOM     13  C   UNL d   1       3.275   1.040  -0.762  0.00  0.00     0.033 A 
ATOM     14  C   UNL d   1       4.351   1.933  -0.833  0.00  0.00     0.026 A 
ATOM     15  C   UNL d   1       4.285   3.159  -0.174  0.00  0.00     0.034 A 
ATOM     16  C   UNL d   1       3.146   3.512   0.545  0.00  0.00     0.026 A 
ATOM     17 CL   UNL d   1       5.613   4.249  -0.263  0.00  0.00    -0.084 Cl
ATOM     18  C   UNL d   1       2.062   2.632   0.603  0.00  0.00     0.033 A 
ENDBRANCH   3  12
BRANCH   7  19
ATOM     19  N   UNL d   1       2.084  -2.866  -0.644  0.00  0.00    -0.307 N 
ATOM     20  HN  UNL d   1       1.268  -3.136  -1.193  1.00  0.00     0.186 HD
BRANCH  19  21
ATOM     21  N   UNL d   1       3.193  -3.662  -0.558  0.00  0.00    -0.277 N 
ATOM     22  H   UNL d   1       3.898  -3.415   0.122  0.00  0.00     0.189 HD
BRANCH  21  23
ATOM     23  C   UNL d   1       3.193  -4.938  -1.068  0.00  0.00     0.186 C 
ATOM     24  S   UNL d   1       1.946  -5.661  -1.921  0.00  0.00    -0.040 SA
BRANCH  23  25
ATOM     25  N   UNL d   1       4.326  -5.675  -0.881  0.00  0.00    -0.370 N 
ATOM     26  C   UNL d   1       5.596  -5.319  -0.285  0.00  0.00     0.148 C 
ATOM     27  H   UNL d   1       4.254  -6.610  -1.269  0.00  0.00     0.161 HD
ENDBRANCH  23  25
ENDBRANCH  21  23
ENDBRANCH  19  21
ENDBRANCH   7  19
TORSDOF 7
