REMARK  3 active torsions:
REMARK  status: ('A' for Active; 'I' for Inactive)
REMARK    1  A    between atoms: C_2  and  C_1 
REMARK    2  A    between atoms: O_4  and  C_2 
REMARK    3  A    between atoms: C_3  and  O_4 
ROOT
ATOM      1  C   UNL d   1      -2.958   0.384   0.131  0.00  0.00     0.273 C 
ATOM      2  O   UNL d   1      -3.701  -0.584   0.191  0.00  0.00    -0.264 OA
ENDROOT
BRANCH   1   3
ATOM      3  C   UNL d   1      -1.435   0.284   0.017  0.00  0.00     0.049 C 
ATOM      4  C   UNL d   1      -0.726   1.035   1.165  0.00  0.00     0.024 C 
ATOM      5  C   UNL d   1       0.803   0.894   1.033  0.00  0.00    -0.013 C 
ATOM      6  C   UNL d   1       1.188  -0.593   1.094  0.00  0.00     0.009 C 
ATOM      7  C   UNL d   1       1.252   1.475  -0.321  0.00  0.00     0.009 C 
ATOM      8  C   UNL d   1       0.508  -1.359  -0.052  0.00  0.00    -0.013 C 
ATOM      9  C   UNL d   1      -1.015  -1.210   0.081  0.00  0.00     0.024 C 
ATOM     10  C   UNL d   1       0.956  -0.767  -1.398  0.00  0.00     0.009 C 
ATOM     11  C   UNL d   1       0.569   0.719  -1.473  0.00  0.00    -0.013 C 
ATOM     12  C   UNL d   1      -0.959   0.857  -1.337  0.00  0.00     0.024 C 
ENDBRANCH   1   3
BRANCH   1  13
ATOM     13  O   UNL d   1      -3.373   1.725   0.115  0.00  0.00    -0.278 OA
BRANCH  13  14
ATOM     14  C   UNL d   1      -4.720   2.171   0.022  0.00  0.00     0.082 A 
ATOM     15  C   UNL d   1      -5.837   1.339   0.090  0.00  0.00     0.061 A 
ATOM     16  C   UNL d   1      -7.108   1.881  -0.114  0.00  0.00     0.038 A 
ATOM     17 CL   UNL d   1      -8.487   0.849  -0.085  0.00  0.00    -0.084 Cl
ATOM     18  C   UNL d   1      -7.276   3.240  -0.364  0.00  0.00     0.048 A 
ATOM     19  C   UNL d   1      -6.154   4.068  -0.388  0.00  0.00     0.038 A 
ATOM     20  C   UNL d   1      -4.877   3.543  -0.195  0.00  0.00     0.061 A 
ATOM     21 CL   UNL d   1      -6.354   5.751  -0.682  0.00  0.00    -0.084 Cl
ENDBRANCH  13  14
ENDBRANCH   1  13
TORSDOF 3
