REMARK  4 active torsions:
REMARK  status: ('A' for Active; 'I' for Inactive)
REMARK    1  A    between atoms: C_2  and  S_1 
REMARK    2  A    between atoms: N_4  and  S_1 
REMARK    3  A    between atoms: C_17  and  N_4 
REMARK    4  A    between atoms: C_18  and  C_17 
ROOT
ATOM      1  S   UNL d   1       0.928  -0.029  -0.075  0.00  0.00     0.244 S 
ATOM      2  O   UNL d   1       0.300   0.943  -0.943  0.00  0.00    -0.206 OA
ATOM      3  O   UNL d   1       2.371  -0.078   0.054  0.00  0.00    -0.206 OA
ENDROOT
BRANCH   1   4
ATOM      4  C   UNL d   1       0.385  -1.639  -0.584  0.00  0.00     0.102 A 
ATOM      5  C   UNL d   1      -0.985  -1.903  -0.657  0.00  0.00     0.065 A 
ATOM      6  N   UNL d   1      -1.920  -1.026  -0.225  0.00  0.00    -0.364 N 
ATOM      7  C   UNL d   1      -1.364  -3.151  -1.206  0.00  0.00    -0.008 A 
ATOM      8  C   UNL d   1      -3.228  -1.322  -0.408  0.00  0.00     0.088 A 
ATOM      9  HN  UNL d   1      -1.644  -0.156   0.231  1.00  0.00     0.165 HD
ATOM     10  C   UNL d   1      -3.678  -2.500  -0.965  0.00  0.00     0.018 A 
ATOM     11  C   UNL d   1      -2.729  -3.433  -1.355  0.00  0.00     0.015 A 
ATOM     12  C   UNL d   1      -0.400  -4.089  -1.611  0.00  0.00     0.014 A 
ATOM     13  C   UNL d   1       0.956  -3.806  -1.493  0.00  0.00     0.003 A 
ATOM     14  C   UNL d   1       1.353  -2.575  -0.988  0.00  0.00     0.027 A 
ENDBRANCH   1   4
BRANCH   1  15
ATOM     15  N   UNL d   1       0.297   0.159   1.484  0.00  0.00    -0.211 NA
ATOM     16  H   UNL d   1      -0.700  -0.083   1.477  0.00  0.00     0.140 HD
BRANCH  15  17
ATOM     17  C   UNL d   1       1.070  -0.477   2.559  0.00  0.00     0.143 C 
BRANCH  17  18
ATOM     18  C   UNL d   1       0.428  -0.301   3.917  0.00  0.00    -0.042 A 
ATOM     19  C   UNL d   1       0.151  -1.422   4.716  0.00  0.00     0.048 A 
ATOM     20  C   UNL d   1      -0.377  -1.213   5.973  0.00  0.00     0.105 A 
ATOM     21  O   UNL d   1      -0.687  -2.185   6.872  0.00  0.00    -0.323 OA
ATOM     22  C   UNL d   1      -0.636   0.049   6.453  0.00  0.00     0.105 A 
ATOM     23  C   UNL d   1      -1.145  -1.388   7.984  0.00  0.00     0.352 A 
ATOM     24  O   UNL d   1      -1.143   0.029   7.714  0.00  0.00    -0.323 OA
ATOM     25  C   UNL d   1      -0.381   1.175   5.702  0.00  0.00     0.040 A 
ATOM     26  C   UNL d   1       0.161   0.995   4.423  0.00  0.00     0.011 A 
ENDBRANCH  17  18
ENDBRANCH  15  17
ENDBRANCH   1  15
TORSDOF 4
