REMARK  3 active torsions:
REMARK  status: ('A' for Active; 'I' for Inactive)
REMARK       I    between atoms: N_3  and  C_1 
REMARK       I    between atoms: N_4  and  C_1 
REMARK    1  A    between atoms: C_2  and  C_7 
REMARK    2  A    between atoms: C_11  and  N_3 
REMARK    3  A    between atoms: C_12  and  N_4 
ROOT
ATOM      1  C   UNL d   1      -0.939   0.381   1.158  0.00  0.00     0.325 C 
ATOM      2  N   UNL d   1       0.318   0.948   0.993  0.00  0.00    -0.309 N 
ATOM      3  N   UNL d   1      -1.349  -0.296   0.022  0.00  0.00    -0.309 N 
ATOM      4  O   UNL d   1      -1.612   0.485   2.178  0.00  0.00    -0.247 OA
ATOM      5  H   UNL d   1       0.686   0.979   0.056  0.00  0.00     0.170 HD
ATOM      6  H   UNL d   1      -0.653  -0.474  -0.684  0.00  0.00     0.170 HD
ENDROOT
BRANCH   2   7
ATOM      7  C   UNL d   1       1.007   1.709   1.967  0.00  0.00     0.036 A 
ATOM      8  C   UNL d   1       0.625   1.759   3.309  0.00  0.00     0.030 A 
ATOM      9  C   UNL d   1       1.309   2.560   4.225  0.00  0.00     0.011 A 
ATOM     10  C   UNL d   1       2.411   3.325   3.829  0.00  0.00    -0.035 A 
ATOM     11  C   UNL d   1       2.814   3.252   2.484  0.00  0.00     0.011 A 
ATOM     12  C   UNL d   1       2.122   2.449   1.565  0.00  0.00     0.030 A 
BRANCH  10  13
ATOM     13  C   UNL d   1       3.130   4.163   4.864  0.00  0.00     0.141 C 
ATOM     14  S   UNL d   1       3.187   5.931   4.433  0.00  0.00    -0.148 SA
ATOM     15  C   UNL d   1       4.871   6.222   5.024  0.00  0.00     0.085 C 
ATOM     16  C   UNL d   1       5.696   5.014   4.631  0.00  0.00     0.085 C 
ATOM     17  S   UNL d   1       4.813   3.539   5.192  0.00  0.00    -0.148 SA
ENDBRANCH  10  13
ENDBRANCH   2   7
BRANCH   3  18
ATOM     18  C   UNL d   1      -2.630  -0.862  -0.196  0.00  0.00     0.036 A 
ATOM     19  C   UNL d   1      -3.698  -0.738   0.698  0.00  0.00     0.029 A 
ATOM     20  C   UNL d   1      -4.946  -1.300   0.412  0.00  0.00     0.002 A 
ATOM     21  C   UNL d   1      -5.142  -1.990  -0.778  0.00  0.00     0.000 A 
ATOM     22  C   UNL d   1      -4.088  -2.122  -1.679  0.00  0.00     0.002 A 
ATOM     23  C   UNL d   1      -2.838  -1.564  -1.389  0.00  0.00     0.029 A 
ENDBRANCH   3  18
TORSDOF 3
