REMARK  8 active torsions:
REMARK  status: ('A' for Active; 'I' for Inactive)
REMARK    1  A    between atoms: N_2  and  C_15 
REMARK    2  A    between atoms: S_18  and  C_5 
REMARK    3  A    between atoms: S_21  and  C_6 
REMARK    4  A    between atoms: C_17  and  C_11 
REMARK    5  A    between atoms: C_12  and  C_28 
REMARK    6  A    between atoms: C_28  and  S_18 
REMARK    7  A    between atoms: C_19  and  C_29 
REMARK    8  A    between atoms: C_29  and  S_21 
ROOT
ATOM      1  N   UNL d   1       2.989   5.328  -1.087  0.00  0.00    -0.352 N 
ATOM      2  HN  UNL d   1       3.367   4.854  -1.908  1.00  0.00     0.166 HD
ATOM      3  C   UNL d   1       3.201   6.663  -0.779  0.00  0.00     0.049 A 
ATOM      4  C   UNL d   1       2.232   4.756  -0.170  0.00  0.00     0.060 A 
ATOM      5  S   UNL d   1       1.746   5.795   1.118  0.00  0.00    -0.086 SA
ATOM      6  C   UNL d   1       2.561   7.098   0.365  0.00  0.00     0.081 A 
ENDROOT
BRANCH   4   7
ATOM      7  C   UNL d   1       1.865   3.300  -0.164  0.00  0.00     0.146 C 
BRANCH   7   8
ATOM      8  S   UNL d   1       0.075   2.982  -0.114  0.00  0.00    -0.097 SA
BRANCH   8   9
ATOM      9  C   UNL d   1      -0.420   3.538  -1.694  0.00  0.00     0.129 A 
ATOM     10  S   UNL d   1      -2.006   4.106  -2.022  0.00  0.00    -0.038 SA
ATOM     11  C   UNL d   1      -1.512   4.298  -3.651  0.00  0.00     0.129 A 
ATOM     12  N   UNL d   1      -0.262   3.961  -3.880  0.00  0.00    -0.287 N 
ATOM     13  N   UNL d   1       0.375   3.512  -2.739  0.00  0.00    -0.287 N 
ATOM     14  HN  UNL d   1       0.186   4.024  -4.795  1.00  0.00     0.188 HD
ATOM     15  HN  UNL d   1       1.345   3.198  -2.712  1.00  0.00     0.188 HD
BRANCH  11  16
ATOM     16  S   UNL d   1      -2.571   4.892  -4.915  0.00  0.00    -0.103 SA
BRANCH  16  17
ATOM     17  C   UNL d   1      -1.814   4.077  -6.344  0.00  0.00     0.086 C 
BRANCH  17  18
ATOM     18  C   UNL d   1      -2.453   4.527  -7.621  0.00  0.00    -0.005 A 
ATOM     19  C   UNL d   1      -3.852   4.134  -8.035  0.00  0.00     0.006 A 
ATOM     20  C   UNL d   1      -2.669   3.511  -8.718  0.00  0.00     0.006 A 
ENDBRANCH  17  18
ENDBRANCH  16  17
ENDBRANCH  11  16
ENDBRANCH   8   9
ENDBRANCH   7   8
ENDBRANCH   4   7
BRANCH   3  21
ATOM     21  C   UNL d   1       4.038   7.514  -1.617  0.00  0.00    -0.009 A 
ATOM     22  C   UNL d   1       4.137   7.261  -2.994  0.00  0.00     0.016 A 
ATOM     23  C   UNL d   1       4.950   8.056  -3.813  0.00  0.00     0.037 A 
ATOM     24  C   UNL d   1       5.678   9.110  -3.247  0.00  0.00     0.102 A 
ATOM     25  C   UNL d   1       5.595   9.373  -1.875  0.00  0.00     0.037 A 
ATOM     26  C   UNL d   1       4.778   8.575  -1.067  0.00  0.00     0.016 A 
BRANCH  24  27
ATOM     27  N   UNL d   1       6.543   9.941  -4.094  0.00  0.00    -0.116 N 
ATOM     28  O   UNL d   1       6.590   9.684  -5.303  0.00  0.00    -0.532 OA
ATOM     29  O   UNL d   1       7.178  10.857  -3.545  0.00  0.00    -0.532 OA
ENDBRANCH  24  27
ENDBRANCH   3  21
TORSDOF 8
