REMARK  6 active torsions:
REMARK  status: ('A' for Active; 'I' for Inactive)
REMARK    1  A    between atoms: S_6  and  C_1 
REMARK    2  A    between atoms: C_10  and  C_3 
REMARK    3  A    between atoms: N_7  and  S_6 
REMARK       I    between atoms: C_9  and  N_7 
REMARK    4  A    between atoms: C_12  and  C_9 
REMARK    5  A    between atoms: O_19  and  C_10 
REMARK    6  A    between atoms: C_26  and  O_19 
ROOT
ATOM      1  C   UNL d   1      -0.880   4.585  -0.954  0.00  0.00     0.061 A 
ATOM      2  S   UNL d   1       0.335   5.665  -0.417  0.00  0.00    -0.075 SA
ATOM      3  C   UNL d   1       0.299   6.582  -1.858  0.00  0.00     0.088 A 
ATOM      4  C   UNL d   1      -1.285   4.889  -2.244  0.00  0.00    -0.004 A 
ATOM      5  C   UNL d   1      -0.582   6.032  -2.780  0.00  0.00    -0.022 A 
ATOM      6  C   UNL d   1      -2.227   4.203  -3.077  0.00  0.00     0.010 C 
ATOM      7  C   UNL d   1      -2.438   4.541  -4.360  0.00  0.00    -0.025 C 
ATOM      8  C   UNL d   1      -0.807   6.539  -4.178  0.00  0.00     0.045 C 
ATOM      9  C   UNL d   1      -1.707   5.651  -5.055  0.00  0.00     0.032 C 
ENDROOT
BRANCH   1  10
ATOM     10  S   UNL d   1      -1.350   3.328   0.194  0.00  0.00    -0.086 SA
ATOM     11  C   UNL d   1      -0.642   1.920  -0.723  0.00  0.00     0.108 C 
BRANCH  10  12
ATOM     12  N   UNL d   1      -2.751   3.154  -0.303  0.00  0.00    -0.302 N 
ATOM     13  C   UNL d   1      -3.611   2.501   0.485  0.00  0.00     0.261 C 
ATOM     14  O   UNL d   1      -3.429   1.575   1.276  0.00  0.00    -0.267 OA
ATOM     15  HN  UNL d   1      -3.039   3.520  -1.210  1.00  0.00     0.176 HD
BRANCH  13  16
ATOM     16  C   UNL d   1      -5.020   2.923   0.212  0.00  0.00     0.032 A 
ATOM     17  C   UNL d   1      -5.318   4.260  -0.097  0.00  0.00     0.018 A 
ATOM     18  C   UNL d   1      -6.598   4.614  -0.513  0.00  0.00     0.025 A 
ATOM     19  C   UNL d   1      -7.580   3.630  -0.611  0.00  0.00     0.034 A 
ATOM     20  C   UNL d   1      -7.308   2.307  -0.252  0.00  0.00     0.025 A 
ATOM     21 CL   UNL d   1      -9.139   4.045  -1.217  0.00  0.00    -0.084 Cl
ATOM     22  C   UNL d   1      -6.025   1.954   0.171  0.00  0.00     0.018 A 
ENDBRANCH  13  16
ENDBRANCH  10  12
ENDBRANCH   1  10
BRANCH   3  23
ATOM     23  C   UNL d   1       1.168   7.732  -2.041  0.00  0.00     0.300 C 
ATOM     24  O   UNL d   1       1.262   8.393  -3.073  0.00  0.00    -0.259 OA
BRANCH  23  25
ATOM     25  O   UNL d   1       1.948   7.947  -0.941  0.00  0.00    -0.317 OA
BRANCH  25  26
ATOM     26  C   UNL d   1       3.149   8.689  -1.168  0.00  0.00     0.174 C 
ATOM     27  C   UNL d   1       4.225   7.711  -1.606  0.00  0.00     0.034 C 
ENDBRANCH  25  26
ENDBRANCH  23  25
ENDBRANCH   3  23
TORSDOF 6
