REMARK  4 active torsions:
REMARK  status: ('A' for Active; 'I' for Inactive)
REMARK    1  A    between atoms: N_7  and  C_1 
REMARK    2  A    between atoms: C_10  and  C_4 
REMARK    3  A    between atoms: C_11  and  C_6 
REMARK       I    between atoms: C_8  and  N_7 
REMARK    4  A    between atoms: C_9  and  C_8 
ROOT
ATOM      1  C   UNL d   1       1.343  -0.721  -0.017  0.00  0.00     0.085 A 
ATOM      2  N   UNL d   1       0.348   1.308  -0.232  0.00  0.00    -0.300 N 
ATOM      3  HN  UNL d   1       0.184   2.306  -0.363  1.00  0.00     0.187 HD
ATOM      4  C   UNL d   1       1.531   0.694  -0.138  0.00  0.00     0.062 A 
ATOM      5  N   UNL d   1      -0.581   0.344  -0.118  0.00  0.00    -0.297 N 
ATOM      6  C   UNL d   1      -0.056  -0.928   0.006  0.00  0.00     0.064 A 
ATOM      7  C   UNL d   1      -1.926   0.870  -0.154  0.00  0.00     0.177 C 
ENDROOT
BRANCH   1   8
ATOM      8  N   UNL d   1       2.286  -1.732   0.136  0.00  0.00    -0.319 N 
ATOM      9  C   UNL d   1       3.380  -1.952  -0.685  0.00  0.00     0.257 C 
ATOM     10  O   UNL d   1       3.614  -1.352  -1.732  0.00  0.00    -0.267 OA
ATOM     11  H   UNL d   1       1.993  -2.501   0.702  0.00  0.00     0.169 HD
BRANCH   9  12
ATOM     12  C   UNL d   1       4.314  -3.042  -0.244  0.00  0.00     0.047 A 
ATOM     13  C   UNL d   1       5.378  -3.389  -1.078  0.00  0.00     0.104 A 
ATOM     14  N   UNL d   1       6.349  -4.290  -0.755  0.00  0.00    -0.374 N 
ATOM     15  C   UNL d   1       6.258  -4.881   0.456  0.00  0.00     0.087 A 
ATOM     16  HN  UNL d   1       7.110  -4.508  -1.399  1.00  0.00     0.164 HD
ATOM     17  C   UNL d   1       5.226  -4.626   1.348  0.00  0.00     0.018 A 
ATOM     18  C   UNL d   1       4.244  -3.697   0.990  0.00  0.00     0.020 A 
ENDBRANCH   9  12
ENDBRANCH   1   8
BRANCH   4  19
ATOM     19  C   UNL d   1       2.763   1.608  -0.098  0.00  0.00    -0.005 C 
ATOM     20  C   UNL d   1       2.406   2.955   0.596  0.00  0.00     0.021 C 
ATOM     21  C   UNL d   1       3.929   1.024   0.713  0.00  0.00     0.021 C 
ATOM     22  C   UNL d   1       3.223   1.938  -1.529  0.00  0.00     0.021 C 
ENDBRANCH   4  19
BRANCH   6  23
ATOM     23  C   UNL d   1      -0.844  -2.259  -0.070  0.00  0.00    -0.005 C 
ATOM     24  C   UNL d   1      -0.640  -2.818  -1.494  0.00  0.00     0.021 C 
ATOM     25  C   UNL d   1      -0.370  -3.276   0.995  0.00  0.00     0.021 C 
ATOM     26  C   UNL d   1      -2.367  -2.190   0.161  0.00  0.00     0.021 C 
ENDBRANCH   6  23
TORSDOF 4
