REMARK  3 active torsions:
REMARK  status: ('A' for Active; 'I' for Inactive)
REMARK    1  A    between atoms: C_4  and  C_1 
REMARK       I    between atoms: N_5  and  C_1 
REMARK    2  A    between atoms: O_3  and  C_4 
REMARK    3  A    between atoms: C_6  and  O_3 
ROOT
ATOM      1  O   UNL d   1      -1.153  -0.807   0.813  0.00  0.00    -0.342 OA
ENDROOT
BRANCH   1   2
ATOM      2  C   UNL d   1       0.235  -0.756   1.134  0.00  0.00     0.278 C 
BRANCH   2   3
ATOM      3  C   UNL d   1       1.042  -0.288  -0.076  0.00  0.00     0.239 C 
ATOM      4  O   UNL d   1       2.269  -0.208  -0.074  0.00  0.00    -0.271 OA
ATOM      5  N   UNL d   1       0.317   0.067  -1.175  0.00  0.00    -0.368 N 
ATOM      6  H   UNL d   1       0.797   0.396  -2.001  0.00  0.00     0.159 HD
ATOM      7  H   UNL d   1      -0.695  -0.000  -1.166  0.00  0.00     0.159 HD
ENDBRANCH   2   3
ENDBRANCH   1   2
BRANCH   1   8
ATOM      8  C   UNL d   1      -1.996  -1.224   1.806  0.00  0.00     0.069 A 
ATOM      9  C   UNL d   1      -1.746  -1.138   3.176  0.00  0.00     0.037 A 
ATOM     10  C   UNL d   1      -2.715  -1.564   4.090  0.00  0.00     0.003 A 
ATOM     11  C   UNL d   1      -3.930  -2.078   3.640  0.00  0.00     0.000 A 
ATOM     12  C   UNL d   1      -4.183  -2.162   2.273  0.00  0.00     0.003 A 
ATOM     13  C   UNL d   1      -3.220  -1.729   1.361  0.00  0.00     0.037 A 
ENDBRANCH   1   8
TORSDOF 3
