REMARK  5 active torsions:
REMARK  status: ('A' for Active; 'I' for Inactive)
REMARK    1  A    between atoms: C_3  and  C_1 
REMARK    2  A    between atoms: C_12  and  C_2 
REMARK    3  A    between atoms: C_4  and  C_9 
REMARK       I    between atoms: N_22  and  C_12 
REMARK    4  A    between atoms: N_20  and  N_22 
REMARK    5  A    between atoms: C_25  and  C_24 
ROOT
ATOM      1  C   UNL d   1      -0.127  -1.324  -0.002  0.00  0.00     0.057 A 
ATOM      2  C   UNL d   1      -1.447  -0.795  -0.022  0.00  0.00     0.139 A 
ATOM      3  N   UNL d   1      -1.415   0.550  -0.100  0.00  0.00    -0.255 N 
ATOM      4  HN  UNL d   1      -2.213   1.180  -0.186  1.00  0.00     0.195 HD
ATOM      5  O   UNL d   1      -0.077   0.903  -0.038  0.00  0.00    -0.241 OA
ATOM      6  C   UNL d   1       0.691  -0.218   0.025  0.00  0.00     0.087 A 
ATOM      7  C   UNL d   1       2.153  -0.021   0.059  0.00  0.00     0.080 C 
ENDROOT
BRANCH   2   8
ATOM      8  C   UNL d   1      -2.716  -1.519   0.032  0.00  0.00     0.289 C 
ATOM      9  N   UNL d   1      -3.786  -0.840  -0.538  0.00  0.00    -0.265 N 
ATOM     10  H   UNL d   1      -3.649   0.096  -0.910  0.00  0.00     0.190 HD
ATOM     11  O   UNL d   1      -2.802  -2.650   0.510  0.00  0.00    -0.264 OA
BRANCH   9  12
ATOM     12  N   UNL d   1      -4.986  -1.473  -0.632  0.00  0.00    -0.308 N 
ATOM     13  C   UNL d   1      -5.941  -0.856  -1.244  0.00  0.00     0.118 C 
ATOM     14  HN  UNL d   1      -5.126  -2.402  -0.234  1.00  0.00     0.186 HD
BRANCH  13  15
ATOM     15  C   UNL d   1      -7.274  -1.486  -1.363  0.00  0.00    -0.019 A 
ATOM     16  C   UNL d   1      -7.506  -2.757  -0.822  0.00  0.00     0.014 A 
ATOM     17  C   UNL d   1      -8.772  -3.337  -0.916  0.00  0.00     0.024 A 
ATOM     18  C   UNL d   1      -9.802  -2.646  -1.551  0.00  0.00     0.034 A 
ATOM     19  C   UNL d   1      -9.573  -1.382  -2.099  0.00  0.00     0.024 A 
ATOM     20 CL   UNL d   1     -11.367  -3.353  -1.655  0.00  0.00    -0.084 Cl
ATOM     21  C   UNL d   1      -8.306  -0.798  -2.008  0.00  0.00     0.014 A 
ENDBRANCH  13  15
ENDBRANCH   9  12
ENDBRANCH   2   8
BRANCH   1  22
ATOM     22  C   UNL d   1       0.274  -2.728  -0.066  0.00  0.00     0.055 A 
ATOM     23  N   UNL d   1       1.457  -3.109   0.546  0.00  0.00    -0.347 N 
ATOM     24  C   UNL d   1       1.674  -4.394   0.326  0.00  0.00     0.102 A 
ATOM     25  HN  UNL d   1       2.067  -2.493   1.083  1.00  0.00     0.167 HD
ATOM     26  S   UNL d   1       0.491  -5.193  -0.633  0.00  0.00    -0.080 SA
ATOM     27  C   UNL d   1      -0.375  -3.727  -0.761  0.00  0.00     0.082 A 
BRANCH  24  28
ATOM     28  C   UNL d   1       2.884  -5.119   0.845  0.00  0.00     0.073 A 
ATOM     29  N   UNL d   1       3.161  -6.433   0.494  0.00  0.00    -0.352 N 
ATOM     30  C   UNL d   1       4.293  -6.816   1.041  0.00  0.00     0.047 A 
ATOM     31  HN  UNL d   1       2.573  -7.016  -0.101  1.00  0.00     0.166 HD
ATOM     32  C   UNL d   1       4.911  -8.153   0.834  0.00  0.00     0.076 C 
ATOM     33  S   UNL d   1       5.064  -5.646   2.038  0.00  0.00    -0.087 SA
ATOM     34  C   UNL d   1       3.808  -4.532   1.684  0.00  0.00     0.083 A 
ENDBRANCH  24  28
ENDBRANCH   1  22
TORSDOF 5
