REMARK  7 active torsions:
REMARK  status: ('A' for Active; 'I' for Inactive)
REMARK    1  A    between atoms: C_2  and  C_1 
REMARK    2  A    between atoms: C_3  and  C_13 
REMARK    3  A    between atoms: C_4  and  C_14 
REMARK    4  A    between atoms: O_11  and  C_8 
REMARK    5  A    between atoms: C_13  and  O_11 
REMARK    6  A    between atoms: C_14  and  O_23 
REMARK    7  A    between atoms: O_23  and  C_22 
ROOT
ATOM      1  C   UNL d   1       1.365  -0.189  -0.038  0.00  0.00     0.028 A 
ATOM      2  C   UNL d   1       0.483  -1.283  -0.198  0.00  0.00     0.081 A 
ATOM      3  C   UNL d   1       0.809   1.086   0.161  0.00  0.00     0.053 A 
ATOM      4  C   UNL d   1      -0.903  -1.071  -0.091  0.00  0.00     0.040 A 
ATOM      5  C   UNL d   1      -0.567   1.290   0.253  0.00  0.00     0.070 A 
ATOM      6  C   UNL d   1      -1.425   0.210   0.123  0.00  0.00     0.039 A 
ENDROOT
BRANCH   1   7
ATOM      7  C   UNL d   1       2.832  -0.302  -0.050  0.00  0.00     0.062 A 
ATOM      8  N   UNL d   1       3.530  -1.407  -0.476  0.00  0.00    -0.300 N 
ATOM      9  N   UNL d   1       4.862  -1.285  -0.413  0.00  0.00    -0.311 N 
ATOM     10  H   UNL d   1       3.137  -2.278  -0.819  0.00  0.00     0.187 HD
ATOM     11  C   UNL d   1       5.041  -0.068   0.098  0.00  0.00     0.109 A 
ATOM     12  HN  UNL d   1       5.571  -1.964  -0.691  1.00  0.00     0.186 HD
ATOM     13  C   UNL d   1       3.826   0.582   0.348  0.00  0.00     0.050 A 
ENDBRANCH   1   7
BRANCH   2  14
ATOM     14  O   UNL d   1       1.039  -2.511  -0.471  0.00  0.00    -0.342 OA
BRANCH  14  15
ATOM     15  C   UNL d   1       0.151  -3.627  -0.635  0.00  0.00     0.293 C 
BRANCH  15  16
ATOM     16  C   UNL d   1       0.903  -4.862  -1.113  0.00  0.00     0.408 C 
ATOM     17  F   UNL d   1       2.149  -4.931  -0.598  0.00  0.00    -0.169 F 
ATOM     18  F   UNL d   1       0.246  -5.988  -0.749  0.00  0.00    -0.169 F 
ATOM     19  F   UNL d   1       1.010  -4.874  -2.461  0.00  0.00    -0.169 F 
ENDBRANCH  15  16
ENDBRANCH  14  15
ENDBRANCH   2  14
BRANCH   5  20
ATOM     20  O   UNL d   1      -0.927   2.588   0.460  0.00  0.00    -0.342 OA
BRANCH  20  21
ATOM     21  C   UNL d   1      -2.248   2.840   0.950  0.00  0.00     0.293 C 
BRANCH  21  22
ATOM     22  C   UNL d   1      -2.327   4.228   1.579  0.00  0.00     0.408 C 
ATOM     23  F   UNL d   1      -1.272   5.010   1.264  0.00  0.00    -0.169 F 
ATOM     24  F   UNL d   1      -3.444   4.874   1.172  0.00  0.00    -0.169 F 
ATOM     25  F   UNL d   1      -2.382   4.142   2.929  0.00  0.00    -0.169 F 
ENDBRANCH  21  22
ENDBRANCH  20  21
ENDBRANCH   5  20
TORSDOF 7
