REMARK  8 active torsions:
REMARK  status: ('A' for Active; 'I' for Inactive)
REMARK    1  A    between atoms: O_2  and  C_1 
REMARK    2  A    between atoms: C_5  and  C_1 
REMARK    3  A    between atoms: C_3  and  O_2 
REMARK    4  A    between atoms: O_19  and  C_4 
REMARK    5  A    between atoms: C_6  and  C_7 
REMARK    6  A    between atoms: C_16  and  C_20 
REMARK    7  A    between atoms: C_21  and  C_17 
REMARK    8  A    between atoms: C_20  and  C_21 
ROOT
ATOM      1  C   UNL d   1      -0.943   1.156  -0.614  0.00  0.00     0.112 A 
ATOM      2  C   UNL d   1      -1.587   0.940   0.614  0.00  0.00     0.102 A 
ATOM      3  C   UNL d   1      -2.987   1.054   0.682  0.00  0.00     0.046 A 
ATOM      4  C   UNL d   1      -1.698   1.514  -1.736  0.00  0.00     0.041 A 
ATOM      5  C   UNL d   1      -3.751   1.407  -0.440  0.00  0.00    -0.055 A 
ATOM      6  C   UNL d   1      -3.086   1.654  -1.644  0.00  0.00     0.010 A 
ENDROOT
BRANCH   1   7
ATOM      7  O   UNL d   1       0.450   0.885  -0.721  0.00  0.00    -0.272 OA
BRANCH   7   8
ATOM      8  C   UNL d   1       1.286   1.425  -1.694  0.00  0.00     0.298 C 
ATOM      9  O   UNL d   1       0.980   2.230  -2.559  0.00  0.00    -0.259 OA
BRANCH   8  10
ATOM     10  C   UNL d   1       2.686   0.944  -1.511  0.00  0.00     0.040 A 
ATOM     11  C   UNL d   1       3.692   1.543  -2.275  0.00  0.00     0.018 A 
ATOM     12  C   UNL d   1       5.034   1.186  -2.093  0.00  0.00     0.009 A 
ATOM     13  C   UNL d   1       5.415   0.216  -1.148  0.00  0.00    -0.051 A 
ATOM     14  C   UNL d   1       4.387  -0.400  -0.415  0.00  0.00     0.009 A 
ATOM     15  C   UNL d   1       3.040  -0.052  -0.600  0.00  0.00     0.018 A 
BRANCH  13  16
ATOM     16  C   UNL d   1       6.902  -0.146  -0.963  0.00  0.00    -0.024 C 
ATOM     17  C   UNL d   1       7.144  -1.244   0.098  0.00  0.00     0.019 C 
ATOM     18  C   UNL d   1       7.479  -0.663  -2.298  0.00  0.00     0.019 C 
ATOM     19  C   UNL d   1       7.704   1.097  -0.517  0.00  0.00     0.019 C 
ENDBRANCH  13  16
ENDBRANCH   8  10
ENDBRANCH   7   8
ENDBRANCH   1   7
BRANCH   2  20
ATOM     20  O   UNL d   1      -1.024   0.546   1.798  0.00  0.00    -0.353 OA
ATOM     21  C   UNL d   1       0.304   0.973   2.059  0.00  0.00     0.210 C 
ENDBRANCH   2  20
BRANCH   5  22
ATOM     22  C   UNL d   1      -5.260   1.426  -0.389  0.00  0.00     0.046 C 
BRANCH  22  23
ATOM     23  C   UNL d   1      -5.847   2.458   0.573  0.00  0.00     0.082 C 
BRANCH  23  24
ATOM     24  C   UNL d   1      -7.365   2.447   0.538  0.00  0.00     0.123 C 
ATOM     25  O   UNL d   1      -8.009   1.690  -0.191  0.00  0.00    -0.298 OA
ATOM     26  C   UNL d   1      -8.067   3.416   1.453  0.00  0.00     0.091 C 
ENDBRANCH  23  24
ENDBRANCH  22  23
ENDBRANCH   5  22
TORSDOF 8
