REMARK  7 active torsions:
REMARK  status: ('A' for Active; 'I' for Inactive)
REMARK    1  A    between atoms: C_2  and  C_1 
REMARK    2  A    between atoms: O_6  and  C_1 
REMARK    3  A    between atoms: C_10  and  C_9 
REMARK    4  A    between atoms: C_11  and  C_10 
REMARK    5  A    between atoms: C_14  and  C_11 
REMARK    6  A    between atoms: C_12  and  C_13 
REMARK    7  A    between atoms: C_13  and  C_14 
ROOT
ATOM      1  C   UNL d   1       0.465  -1.098  -0.696  0.00  0.00     0.037 A 
ATOM      2  C   UNL d   1      -0.880  -1.405  -0.460  0.00  0.00     0.019 A 
ATOM      3  C   UNL d   1       1.152  -1.738  -1.733  0.00  0.00     0.019 A 
ATOM      4  C   UNL d   1      -1.539  -2.338  -1.266  0.00  0.00     0.008 A 
ATOM      5  C   UNL d   1       0.487  -2.658  -2.545  0.00  0.00     0.008 A 
ATOM      6  C   UNL d   1      -0.858  -2.979  -2.309  0.00  0.00    -0.058 A 
ENDROOT
BRANCH   6   7
ATOM      7  C   UNL d   1      -1.560  -4.017  -3.154  0.00  0.00     0.038 C 
BRANCH   7   8
ATOM      8  C   UNL d   1      -0.882  -5.393  -3.143  0.00  0.00     0.005 C 
BRANCH   8   9
ATOM      9  C   UNL d   1      -0.847  -6.044  -1.756  0.00  0.00     0.000 C 
BRANCH   9  10
ATOM     10  C   UNL d   1      -0.151  -7.405  -1.819  0.00  0.00    -0.000 C 
BRANCH  10  11
ATOM     11  C   UNL d   1      -0.090  -8.076  -0.448  0.00  0.00    -0.005 C 
ATOM     12  C   UNL d   1       0.606  -9.425  -0.531  0.00  0.00     0.005 C 
ENDBRANCH  10  11
ENDBRANCH   9  10
ENDBRANCH   8   9
ENDBRANCH   7   8
ENDBRANCH   6   7
BRANCH   1  13
ATOM     13  C   UNL d   1       1.135  -0.129   0.205  0.00  0.00     0.176 C 
ATOM     14  O   UNL d   1       0.835   0.005   1.378  0.00  0.00    -0.646 OA
BRANCH  13  15
ATOM     15  O   UNL d   1       2.079   0.618  -0.408  0.00  0.00    -0.773 OA
ATOM     16  H   UNL d   1       2.091   0.543  -1.379  0.00  0.00     0.167 HD
ENDBRANCH  13  15
ENDBRANCH   1  13
TORSDOF 7
