REMARK  3 active torsions:
REMARK  status: ('A' for Active; 'I' for Inactive)
REMARK    1  A    between atoms: N_2  and  S_1 
REMARK    2  A    between atoms: C_8  and  S_1 
REMARK       I    between atoms: C_6  and  N_2 
REMARK       I    between atoms: C_4  and  N_5 
REMARK    3  A    between atoms: C_7  and  C_4 
REMARK       I    between atoms: N_5  and  C_6 
ROOT
ATOM      1  N   UNL d   1       0.561  -1.031  -1.323  0.00  0.00    -0.269 N 
ATOM      2  HN  UNL d   1      -0.360  -1.419  -1.120  1.00  0.00     0.180 HD
ATOM      3  C   UNL d   1       1.159   0.596  -4.268  0.00  0.00     0.243 C 
ATOM      4  N   UNL d   1       0.460  -0.303  -3.502  0.00  0.00    -0.174 NA
ATOM      5  C   UNL d   1       1.112  -1.078  -2.597  0.00  0.00     0.312 C 
ATOM      6  O   UNL d   1       0.817   1.774  -4.303  0.00  0.00    -0.273 OA
ATOM      7  O   UNL d   1       2.056  -1.806  -2.878  0.00  0.00    -0.253 OA
ATOM      8  H   UNL d   1      -0.289   0.171  -3.015  0.00  0.00     0.141 HD
ENDROOT
BRANCH   1   9
ATOM      9  S   UNL d   1       1.419  -0.360  -0.231  0.00  0.00     0.056 S 
ATOM     10  O   UNL d   1       2.085   0.911  -0.448  0.00  0.00    -0.245 OA
ATOM     11  C   UNL d   1       2.655  -1.513   0.318  0.00  0.00     0.142 C 
BRANCH   9  12
ATOM     12  C   UNL d   1       0.413  -0.169   1.228  0.00  0.00     0.038 A 
ATOM     13  C   UNL d   1      -0.644  -1.040   1.486  0.00  0.00     0.022 A 
ATOM     14  C   UNL d   1      -1.372  -0.902   2.675  0.00  0.00     0.008 A 
ATOM     15  C   UNL d   1      -1.039   0.095   3.604  0.00  0.00    -0.062 A 
ATOM     16  C   UNL d   1       0.002   0.984   3.310  0.00  0.00     0.008 A 
ATOM     17  C   UNL d   1      -1.819   0.237   4.878  0.00  0.00     0.048 C 
ATOM     18  C   UNL d   1       0.728   0.854   2.126  0.00  0.00     0.022 A 
ENDBRANCH   9  12
ENDBRANCH   1   9
BRANCH   3  19
ATOM     19  C   UNL d   1       2.314   0.143  -5.071  0.00  0.00     0.087 A 
ATOM     20  C   UNL d   1       2.146  -0.937  -5.938  0.00  0.00     0.133 A 
ATOM     21  F   UNL d   1       0.984  -1.605  -5.981  0.00  0.00    -0.205 F 
ATOM     22  C   UNL d   1       3.166  -1.335  -6.803  0.00  0.00     0.043 A 
ATOM     23  C   UNL d   1       4.372  -0.639  -6.817  0.00  0.00     0.005 A 
ATOM     24  C   UNL d   1       4.557   0.440  -5.950  0.00  0.00     0.025 A 
ATOM     25  C   UNL d   1       3.534   0.831  -5.075  0.00  0.00     0.052 A 
ATOM     26 CL   UNL d   1       3.876   2.139  -3.999  0.00  0.00    -0.083 Cl
ENDBRANCH   3  19
TORSDOF 3
