REMARK  5 active torsions:
REMARK  status: ('A' for Active; 'I' for Inactive)
REMARK    1  A    between atoms: C_16  and  C_3 
REMARK    2  A    between atoms: C_17  and  C_3 
REMARK    3  A    between atoms: C_7  and  N_4 
REMARK    4  A    between atoms: O_18  and  C_16 
REMARK    5  A    between atoms: O_19  and  C_17 
ROOT
ATOM      1  C   UNL d   1       0.768   0.282  -0.096  0.00  0.00     0.141 C 
ATOM      2  N   UNL d   1      -0.009  -0.842  -0.217  0.00  0.00    -0.356 N 
ATOM      3  C   UNL d   1      -1.464  -0.631  -0.183  0.00  0.00     0.083 C 
ATOM      4  N   UNL d   1       2.057   0.225   0.007  0.00  0.00    -0.337 N 
ATOM      5  HN  UNL d   1       2.498  -0.694   0.010  1.00  0.00     0.168 HD
ATOM      6  S   UNL d   1      -0.249   1.723  -0.084  0.00  0.00    -0.091 SA
ATOM      7  C   UNL d   1      -1.685   0.799  -0.695  0.00  0.00     0.117 C 
ATOM      8  H   UNL d   1       0.344  -1.628   0.328  0.00  0.00     0.162 HD
ENDROOT
BRANCH   4   9
ATOM      9  C   UNL d   1       2.884   1.359   0.113  0.00  0.00     0.037 A 
ATOM     10  C   UNL d   1       3.913   1.334   1.059  0.00  0.00     0.053 A 
ATOM     11  C   UNL d   1       4.774   2.423   1.200  0.00  0.00     0.037 A 
ATOM     12 CL   UNL d   1       6.049   2.362   2.355  0.00  0.00    -0.084 Cl
ATOM     13  C   UNL d   1       4.619   3.558   0.412  0.00  0.00     0.048 A 
ATOM     14  C   UNL d   1       3.624   3.571  -0.559  0.00  0.00     0.037 A 
ATOM     15  C   UNL d   1       2.793   2.465  -0.738  0.00  0.00     0.053 A 
ATOM     16 CL   UNL d   1       3.405   4.967  -1.542  0.00  0.00    -0.084 Cl
ENDBRANCH   4   9
BRANCH   3  17
ATOM     17  C   UNL d   1      -2.142  -1.632  -1.148  0.00  0.00     0.198 C 
BRANCH  17  18
ATOM     18  O   UNL d   1      -1.975  -2.982  -0.707  0.00  0.00    -0.398 OA
ATOM     19  H   UNL d   1      -1.040  -3.211  -0.875  0.00  0.00     0.209 HD
ENDBRANCH  17  18
ENDBRANCH   3  17
BRANCH   3  20
ATOM     20  C   UNL d   1      -1.997  -0.800   1.264  0.00  0.00     0.198 C 
BRANCH  20  21
ATOM     21  O   UNL d   1      -1.740  -2.105   1.783  0.00  0.00    -0.398 OA
ATOM     22  H   UNL d   1      -2.127  -2.746   1.149  0.00  0.00     0.209 HD
ENDBRANCH  20  21
ENDBRANCH   3  20
TORSDOF 5
