REMARK  7 active torsions:
REMARK  status: ('A' for Active; 'I' for Inactive)
REMARK    1  A    between atoms: C_4  and  S_1 
REMARK    2  A    between atoms: O_10  and  S_1 
REMARK    3  A    between atoms: C_3  and  C_11 
REMARK    4  A    between atoms: C_26  and  C_3 
REMARK    5  A    between atoms: C_5  and  C_7 
REMARK    6  A    between atoms: C_6  and  C_8 
REMARK    7  A    between atoms: C_19  and  O_10 
ROOT
ATOM      1  O   UNL d   1       0.630   0.233   1.751  0.00  0.00    -0.229 OA
ENDROOT
BRANCH   1   2
ATOM      2  S   UNL d   1      -0.786   1.034   1.905  0.00  0.00     0.303 S 
ATOM      3  O   UNL d   1      -1.764   0.437   1.012  0.00  0.00    -0.193 OA
ATOM      4  O   UNL d   1      -1.074   1.247   3.307  0.00  0.00    -0.193 OA
BRANCH   2   5
ATOM      5  C   UNL d   1      -0.465   2.662   1.256  0.00  0.00     0.088 A 
ATOM      6  C   UNL d   1      -1.549   3.438   0.836  0.00  0.00     0.042 A 
ATOM      7  C   UNL d   1      -1.335   4.743   0.370  0.00  0.00     0.050 A 
ATOM      8  C   UNL d   1      -0.020   5.238   0.327  0.00  0.00     0.032 A 
ATOM      9  C   UNL d   1       1.074   4.460   0.750  0.00  0.00     0.050 A 
ATOM     10  C   UNL d   1       0.842   3.157   1.212  0.00  0.00     0.042 A 
BRANCH   7  11
ATOM     11  C   UNL d   1      -2.493   5.616  -0.061  0.00  0.00     0.417 C 
ATOM     12  F   UNL d   1      -3.709   5.030   0.106  0.00  0.00    -0.166 F 
ATOM     13  F   UNL d   1      -2.541   6.787   0.631  0.00  0.00    -0.166 F 
ATOM     14  F   UNL d   1      -2.416   5.961  -1.377  0.00  0.00    -0.166 F 
ENDBRANCH   7  11
BRANCH   9  15
ATOM     15  C   UNL d   1       2.472   5.036   0.726  0.00  0.00     0.417 C 
ATOM     16  F   UNL d   1       3.416   4.185   1.215  0.00  0.00    -0.166 F 
ATOM     17  F   UNL d   1       2.876   5.365  -0.531  0.00  0.00    -0.166 F 
ATOM     18  F   UNL d   1       2.572   6.173   1.466  0.00  0.00    -0.166 F 
ENDBRANCH   9  15
ENDBRANCH   2   5
ENDBRANCH   1   2
BRANCH   1  19
ATOM     19  C   UNL d   1       0.835  -0.981   2.363  0.00  0.00     0.090 A 
ATOM     20  C   UNL d   1       2.157  -1.462   2.370  0.00  0.00     0.046 A 
ATOM     21  C   UNL d   1       2.492  -2.713   2.940  0.00  0.00    -0.038 A 
ATOM     22  C   UNL d   1       1.427  -3.452   3.491  0.00  0.00     0.008 A 
ATOM     23  C   UNL d   1       0.120  -2.966   3.513  0.00  0.00     0.003 A 
ATOM     24  C   UNL d   1      -0.180  -1.742   2.937  0.00  0.00     0.038 A 
BRANCH  21  25
ATOM     25  C   UNL d   1       3.966  -3.287   2.849  0.00  0.00     0.068 C 
ATOM     26  C   UNL d   1       4.262  -3.580   1.327  0.00  0.00     0.232 C 
ATOM     27  N   UNL d   1       5.492  -4.073   0.902  0.00  0.00    -0.356 N 
ATOM     28  O   UNL d   1       3.379  -3.385   0.482  0.00  0.00    -0.272 OA
ATOM     29  C   UNL d   1       5.561  -4.598  -0.460  0.00  0.00     0.152 C 
ATOM     30  C   UNL d   1       6.713  -4.241   1.684  0.00  0.00     0.125 C 
ATOM     31  C   UNL d   1       7.193  -2.989   2.397  0.00  0.00     0.020 C 
ATOM     32  C   UNL d   1       6.396  -2.615   3.637  0.00  0.00     0.003 C 
ATOM     33  C   UNL d   1       4.948  -2.200   3.372  0.00  0.00     0.024 C 
BRANCH  25  34
ATOM     34  C   UNL d   1       4.085  -4.634   3.639  0.00  0.00     0.020 C 
ATOM     35  C   UNL d   1       3.920  -4.582   5.161  0.00  0.00     0.006 C 
ENDBRANCH  25  34
ENDBRANCH  21  25
ENDBRANCH   1  19
TORSDOF 7
