REMARK  3 active torsions:
REMARK  status: ('A' for Active; 'I' for Inactive)
REMARK    1  A    between atoms: C_2  and  C_1 
REMARK       I    between atoms: N_3  and  C_2 
REMARK    2  A    between atoms: C_19  and  N_6 
REMARK    3  A    between atoms: C_18  and  C_19 
ROOT
ATOM      1  C   UNL d   1      -0.098   2.598   0.140  0.00  0.00     0.262 C 
ATOM      2  N   UNL d   1       1.049   3.404   0.136  0.00  0.00    -0.344 N 
ATOM      3  N   UNL d   1       3.710   4.712   0.186  0.00  0.00     0.095 N 
ATOM      4  O   UNL d   1      -0.230   1.704  -0.699  0.00  0.00    -0.267 OA
ATOM      5  C   UNL d   1       1.984   3.259  -0.987  0.00  0.00     0.156 C 
ATOM      6  C   UNL d   1       1.301   4.553   1.014  0.00  0.00     0.156 C 
ATOM      7  C   UNL d   1       3.447   3.460  -0.556  0.00  0.00     0.292 C 
ATOM      8  C   UNL d   1       2.794   4.765   1.342  0.00  0.00     0.292 C 
ENDROOT
BRANCH   3   9
ATOM      9  C   UNL d   1       3.580   5.920  -0.644  0.00  0.00     0.311 C 
BRANCH   9  10
ATOM     10  C   UNL d   1       4.576   5.988  -1.783  0.00  0.00    -0.027 A 
ATOM     11  C   UNL d   1       4.124   6.072  -3.111  0.00  0.00     0.048 A 
ATOM     12  C   UNL d   1       5.065   6.144  -4.114  0.00  0.00     0.105 A 
ATOM     13  O   UNL d   1       4.795   6.233  -5.446  0.00  0.00    -0.323 OA
ATOM     14  C   UNL d   1       6.412   6.132  -3.852  0.00  0.00     0.105 A 
ATOM     15  C   UNL d   1       6.132   6.282  -5.987  0.00  0.00     0.352 A 
ATOM     16  O   UNL d   1       7.164   6.213  -4.982  0.00  0.00    -0.323 OA
ATOM     17  C   UNL d   1       6.899   6.046  -2.563  0.00  0.00     0.040 A 
ATOM     18  C   UNL d   1       5.967   5.974  -1.524  0.00  0.00     0.012 A 
ENDBRANCH   9  10
ENDBRANCH   3   9
BRANCH   1  19
ATOM     19  C   UNL d   1      -1.108   2.783   1.177  0.00  0.00     0.094 C 
ATOM     20  C   UNL d   1      -1.679   1.811   1.979  0.00  0.00     0.057 C 
ATOM     21  C   UNL d   1      -2.612   2.352   2.911  0.00  0.00     0.032 C 
ATOM     22 CL   UNL d   1      -1.319   0.136   1.959  0.00  0.00    -0.083 Cl
ATOM     23  C   UNL d   1      -2.771   3.710   2.755  0.00  0.00     0.052 C 
ATOM     24  S   UNL d   1      -1.894   4.296   1.411  0.00  0.00    -0.095 SA
ENDBRANCH   1  19
TORSDOF 3
