REMARK  12 active torsions:
REMARK  status: ('A' for Active; 'I' for Inactive)
REMARK    1  A    between atoms: N_3  and  C_1 
REMARK    2  A    between atoms: N_4  and  C_2 
REMARK    3  A    between atoms: C_5  and  O_21 
REMARK    4  A    between atoms: O_20  and  C_6 
REMARK    5  A    between atoms: C_7  and  C_23 
REMARK    6  A    between atoms: C_8  and  C_22 
REMARK    7  A    between atoms: C_30  and  C_9 
REMARK    8  A    between atoms: C_31  and  C_10 
REMARK    9  A    between atoms: C_11  and  O_20 
REMARK   10  A    between atoms: O_21  and  C_12 
REMARK   11  A    between atoms: C_13  and  S_17 
REMARK   12  A    between atoms: S_17  and  C_14 
ROOT
ATOM      1  S   UNL d   1       6.875  -3.703   0.071  0.00  0.00    -0.089 SA
ENDROOT
BRANCH   1   2
ATOM      2  C   UNL d   1       7.446  -2.881   1.557  0.00  0.00     0.012 C 
ATOM      3  C   UNL d   1       7.862  -1.544   1.413  0.00  0.00     0.030 C 
ATOM      4  C   UNL d   1       8.473  -0.802   2.453  0.00  0.00    -0.015 C 
ATOM      5  C   UNL d   1       8.549  -1.432   3.713  0.00  0.00     0.083 C 
ATOM      6  C   UNL d   1       8.056  -2.735   3.882  0.00  0.00     0.046 C 
ATOM      7  C   UNL d   1       7.641  -3.511   2.792  0.00  0.00    -0.042 C 
ATOM      8  C   UNL d   1       7.494  -4.984   3.038  0.00  0.00     0.049 C 
BRANCH   4   9
ATOM      9  C   UNL d   1       9.054   0.604   2.168  0.00  0.00    -0.021 C 
ATOM     10  C   UNL d   1       8.895   1.046   0.688  0.00  0.00     0.019 C 
ATOM     11  C   UNL d   1       8.346   1.673   3.022  0.00  0.00     0.019 C 
ATOM     12  C   UNL d   1      10.573   0.636   2.452  0.00  0.00     0.019 C 
ENDBRANCH   4   9
BRANCH   5  13
ATOM     13  O   UNL d   1       9.102  -0.759   4.788  0.00  0.00    -0.308 OA
BRANCH  13  14
ATOM     14  C   UNL d   1       9.891  -1.434   5.702  0.00  0.00     0.109 A 
ATOM     15  C   UNL d   1       9.960  -1.009   7.038  0.00  0.00     0.137 A 
ATOM     16  C   UNL d   1      10.815  -1.671   7.954  0.00  0.00     0.055 A 
ATOM     17  C   UNL d   1      11.598  -2.764   7.548  0.00  0.00     0.050 A 
ATOM     18  C   UNL d   1      11.511  -3.194   6.221  0.00  0.00     0.019 A 
ATOM     19  C   UNL d   1      10.702  -2.515   5.306  0.00  0.00     0.040 A 
BRANCH  15  20
ATOM     20  N   UNL d   1       9.167   0.119   7.554  0.00  0.00    -0.113 N 
ATOM     21  O   UNL d   1       8.423   0.738   6.780  0.00  0.00    -0.532 OA
ATOM     22  O   UNL d   1       9.287   0.400   8.751  0.00  0.00    -0.532 OA
ENDBRANCH  15  20
BRANCH  17  23
ATOM     23  C   UNL d   1      12.558  -3.450   8.493  0.00  0.00     0.417 C 
ATOM     24  F   UNL d   1      12.627  -2.864   9.718  0.00  0.00    -0.166 F 
ATOM     25  F   UNL d   1      12.231  -4.753   8.713  0.00  0.00    -0.166 F 
ATOM     26  F   UNL d   1      13.831  -3.458   8.009  0.00  0.00    -0.166 F 
ENDBRANCH  17  23
ENDBRANCH  13  14
ENDBRANCH   5  13
ENDBRANCH   1   2
BRANCH   1  27
ATOM     27  C   UNL d   1       5.092  -3.487   0.118  0.00  0.00     0.012 A 
ATOM     28  C   UNL d   1       4.253  -4.498   0.582  0.00  0.00    -0.042 A 
ATOM     29  C   UNL d   1       2.872  -4.339   0.441  0.00  0.00     0.046 A 
ATOM     30  C   UNL d   1       4.694  -5.750   1.284  0.00  0.00     0.049 C 
ATOM     31  C   UNL d   1       2.275  -3.152  -0.026  0.00  0.00     0.083 A 
ATOM     32  C   UNL d   1       3.092  -2.099  -0.495  0.00  0.00    -0.015 A 
ATOM     33  C   UNL d   1       4.503  -2.334  -0.457  0.00  0.00     0.030 A 
BRANCH  31  34
ATOM     34  O   UNL d   1       0.890  -3.026  -0.019  0.00  0.00    -0.308 OA
BRANCH  34  35
ATOM     35  C   UNL d   1       0.151  -3.923   0.729  0.00  0.00     0.109 A 
ATOM     36  C   UNL d   1       0.262  -4.086   2.120  0.00  0.00     0.137 A 
ATOM     37  C   UNL d   1      -0.351  -5.163   2.776  0.00  0.00     0.055 A 
ATOM     38  C   UNL d   1      -1.139  -6.073   2.057  0.00  0.00     0.050 A 
ATOM     39  C   UNL d   1      -1.343  -5.843   0.683  0.00  0.00     0.019 A 
ATOM     40  C   UNL d   1      -0.705  -4.778   0.026  0.00  0.00     0.040 A 
BRANCH  36  41
ATOM     41  N   UNL d   1       1.096  -3.196   2.909  0.00  0.00    -0.113 N 
ATOM     42  O   UNL d   1       0.861  -1.993   2.839  0.00  0.00    -0.532 OA
ATOM     43  O   UNL d   1       1.943  -3.734   3.646  0.00  0.00    -0.532 OA
ENDBRANCH  36  41
BRANCH  38  44
ATOM     44  C   UNL d   1      -1.731  -7.291   2.731  0.00  0.00     0.417 C 
ATOM     45  F   UNL d   1      -1.333  -7.432   4.026  0.00  0.00    -0.166 F 
ATOM     46  F   UNL d   1      -3.089  -7.269   2.752  0.00  0.00    -0.166 F 
ATOM     47  F   UNL d   1      -1.378  -8.447   2.106  0.00  0.00    -0.166 F 
ENDBRANCH  38  44
ENDBRANCH  34  35
ENDBRANCH  31  34
BRANCH  32  48
ATOM     48  C   UNL d   1       2.559  -0.738  -1.035  0.00  0.00    -0.021 C 
ATOM     49  C   UNL d   1       1.223  -0.281  -0.402  0.00  0.00     0.019 C 
ATOM     50  C   UNL d   1       3.553   0.422  -0.751  0.00  0.00     0.019 C 
ATOM     51  C   UNL d   1       2.353  -0.803  -2.564  0.00  0.00     0.019 C 
ENDBRANCH  32  48
ENDBRANCH   1  27
TORSDOF 12
