REMARK  4 active torsions:
REMARK  status: ('A' for Active; 'I' for Inactive)
REMARK    1  A    between atoms: C_4  and  C_1 
REMARK    2  A    between atoms: N_7  and  N_2 
REMARK    3  A    between atoms: C_8  and  C_4 
REMARK    4  A    between atoms: C_12  and  N_7 
ROOT
ATOM      1  C   UNL d   1       1.024  -0.100   0.018  0.00  0.00     0.179 C 
ATOM      2  N   UNL d   1       0.397   0.212   1.117  0.00  0.00    -0.287 N 
ATOM      3  HN  UNL d   1      -0.609   0.057   1.184  1.00  0.00     0.188 HD
ATOM      4  C   UNL d   1       2.458   0.062  -0.045  0.00  0.00     0.123 C 
ATOM      5  N   UNL d   1       3.604   0.250  -0.061  0.00  0.00    -0.190 NA
ENDROOT
BRANCH   1   6
ATOM      6  C   UNL d   1       0.231  -0.623  -1.145  0.00  0.00     0.220 C 
ATOM      7  O   UNL d   1       0.722  -1.513  -1.829  0.00  0.00    -0.284 OA
BRANCH   6   8
ATOM      8  C   UNL d   1      -1.121  -0.081  -1.441  0.00  0.00     0.017 A 
ATOM      9  C   UNL d   1      -1.502   1.213  -1.061  0.00  0.00     0.017 A 
ATOM     10  C   UNL d   1      -2.788   1.679  -1.349  0.00  0.00     0.025 A 
ATOM     11  C   UNL d   1      -3.692   0.857  -2.021  0.00  0.00     0.034 A 
ATOM     12  C   UNL d   1      -3.320  -0.427  -2.413  0.00  0.00     0.025 A 
ATOM     13 CL   UNL d   1      -5.275   1.434  -2.367  0.00  0.00    -0.084 Cl
ATOM     14  C   UNL d   1      -2.033  -0.895  -2.130  0.00  0.00     0.017 A 
ENDBRANCH   6   8
ENDBRANCH   1   6
BRANCH   2  15
ATOM     15  N   UNL d   1       1.069   0.745   2.179  0.00  0.00    -0.300 N 
ATOM     16  H   UNL d   1       1.855   1.381   2.025  0.00  0.00     0.187 HD
BRANCH  15  17
ATOM     17  C   UNL d   1       0.283   1.099   3.300  0.00  0.00     0.048 A 
ATOM     18  C   UNL d   1      -0.909   0.424   3.604  0.00  0.00     0.032 A 
ATOM     19  C   UNL d   1      -1.661   0.761   4.733  0.00  0.00     0.026 A 
ATOM     20  C   UNL d   1      -1.223   1.780   5.572  0.00  0.00     0.034 A 
ATOM     21  C   UNL d   1      -0.036   2.455   5.297  0.00  0.00     0.026 A 
ATOM     22 CL   UNL d   1      -2.150   2.205   6.957  0.00  0.00    -0.084 Cl
ATOM     23  C   UNL d   1       0.720   2.106   4.172  0.00  0.00     0.032 A 
ENDBRANCH  15  17
ENDBRANCH   2  15
TORSDOF 4
