REMARK  4 active torsions:
REMARK  status: ('A' for Active; 'I' for Inactive)
REMARK    1  A    between atoms: N_2  and  C_1 
REMARK    2  A    between atoms: N_13  and  C_7 
REMARK    3  A    between atoms: N_10  and  C_12 
REMARK    4  A    between atoms: O_18  and  N_10 
ROOT
ATOM      1  C   UNL d   1       0.771  -1.233   0.016  0.00  0.00     0.061 A 
ATOM      2  C   UNL d   1      -0.632  -1.286  -0.089  0.00  0.00     0.058 A 
ATOM      3  C   UNL d   1       1.387   0.026   0.087  0.00  0.00     0.063 A 
ATOM      4  C   UNL d   1       0.602   1.193   0.109  0.00  0.00     0.057 A 
ATOM      5  C   UNL d   1      -1.398  -0.113  -0.080  0.00  0.00     0.063 A 
ATOM      6  C   UNL d   1      -0.797   1.151   0.030  0.00  0.00     0.056 A 
ATOM      7 CL   UNL d   1       3.093   0.303  -0.010  0.00  0.00    -0.082 Cl
ATOM      8 CL   UNL d   1      -3.119  -0.264  -0.183  0.00  0.00    -0.082 Cl
ENDROOT
BRANCH   6   9
ATOM      9  N   UNL d   1      -1.584   2.313   0.120  0.00  0.00    -0.350 N 
ATOM     10  C   UNL d   1      -1.230   3.529   0.614  0.00  0.00     0.204 C 
ATOM     11  H   UNL d   1      -2.543   2.227  -0.201  0.00  0.00     0.166 HD
BRANCH  10  12
ATOM     12  N   UNL d   1      -1.992   4.574   0.604  0.00  0.00    -0.265 N 
ATOM     13  HN  UNL d   1      -2.936   4.619   0.220  1.00  0.00     0.194 HD
BRANCH  12  14
ATOM     14  O   UNL d   1      -1.305   5.634   1.210  0.00  0.00    -0.289 OA
ATOM     15  H   UNL d   1      -1.949   6.365   1.148  0.00  0.00     0.244 HD
ENDBRANCH  12  14
ENDBRANCH  10  12
ENDBRANCH   6   9
BRANCH   1  16
ATOM     16  N   UNL d   1       1.486  -2.468   0.065  0.00  0.00    -0.331 N 
ATOM     17  C   UNL d   1       2.677  -2.729   0.714  0.00  0.00     0.096 A 
ATOM     18  C   UNL d   1       3.023  -4.049   0.529  0.00  0.00     0.019 A 
ATOM     19  C   UNL d   1       1.999  -4.645  -0.229  0.00  0.00     0.019 A 
ATOM     20  C   UNL d   1       1.062  -3.669  -0.484  0.00  0.00     0.096 A 
ENDBRANCH   1  16
TORSDOF 4
