REMARK  7 active torsions:
REMARK  status: ('A' for Active; 'I' for Inactive)
REMARK    1  A    between atoms: C_8  and  N_1 
REMARK    2  A    between atoms: C_9  and  C_2 
REMARK    3  A    between atoms: S_13  and  C_5 
REMARK    4  A    between atoms: C_10  and  C_11 
REMARK    5  A    between atoms: C_24  and  C_12 
REMARK    6  A    between atoms: C_25  and  S_13 
REMARK    7  A    between atoms: C_22  and  C_25 
ROOT
ATOM      1  N   UNL d   1      -0.345  -1.269  -0.049  0.00  0.00    -0.275 N 
ATOM      2  C   UNL d   1       0.904  -0.628  -0.055  0.00  0.00     0.139 A 
ATOM      3  N   UNL d   1       0.712   0.682  -0.050  0.00  0.00    -0.282 N 
ATOM      4  HN  UNL d   1       1.444   1.389   0.007  1.00  0.00     0.188 HD
ATOM      5  C   UNL d   1      -1.253  -0.222  -0.151  0.00  0.00     0.168 A 
ATOM      6  N   UNL d   1      -0.626   0.931  -0.134  0.00  0.00    -0.278 N 
ATOM      7  HN  UNL d   1      -1.063   1.852  -0.175  1.00  0.00     0.189 HD
ENDROOT
BRANCH   2   8
ATOM      8  C   UNL d   1       2.240  -1.242  -0.125  0.00  0.00     0.010 A 
ATOM      9  C   UNL d   1       2.516  -2.353  -0.927  0.00  0.00     0.016 A 
ATOM     10  C   UNL d   1       3.780  -2.956  -0.910  0.00  0.00     0.009 A 
ATOM     11  C   UNL d   1       4.835  -2.439  -0.137  0.00  0.00    -0.051 A 
ATOM     12  C   UNL d   1       4.567  -1.280   0.609  0.00  0.00     0.009 A 
ATOM     13  C   UNL d   1       3.292  -0.693   0.615  0.00  0.00     0.016 A 
BRANCH  11  14
ATOM     14  C   UNL d   1       6.205  -3.140  -0.131  0.00  0.00    -0.024 C 
ATOM     15  C   UNL d   1       7.278  -2.403   0.701  0.00  0.00     0.019 C 
ATOM     16  C   UNL d   1       6.055  -4.557   0.465  0.00  0.00     0.019 C 
ATOM     17  C   UNL d   1       6.748  -3.257  -1.573  0.00  0.00     0.019 C 
ENDBRANCH  11  14
ENDBRANCH   2   8
BRANCH   1  18
ATOM     18  C   UNL d   1      -0.597  -2.674   0.033  0.00  0.00     0.043 A 
ATOM     19  C   UNL d   1       0.227  -3.489   0.827  0.00  0.00     0.031 A 
ATOM     20  C   UNL d   1       0.075  -4.878   0.816  0.00  0.00     0.010 A 
ATOM     21  C   UNL d   1      -0.931  -5.487   0.056  0.00  0.00    -0.055 A 
ATOM     22  C   UNL d   1      -1.776  -4.663  -0.701  0.00  0.00     0.010 A 
ATOM     23  C   UNL d   1      -1.609  -3.273  -0.719  0.00  0.00     0.031 A 
BRANCH  21  24
ATOM     24  C   UNL d   1      -1.111  -6.995  -0.008  0.00  0.00     0.010 C 
ATOM     25  C   UNL d   1      -0.342  -7.577  -1.197  0.00  0.00     0.015 C 
ATOM     26  C   UNL d   1      -0.725  -7.729   1.281  0.00  0.00     0.015 C 
ENDBRANCH  21  24
ENDBRANCH   1  18
BRANCH   5  27
ATOM     27  S   UNL d   1      -2.985  -0.357  -0.098  0.00  0.00    -0.088 SA
BRANCH  27  28
ATOM     28  C   UNL d   1      -3.462   1.174  -0.953  0.00  0.00     0.108 C 
BRANCH  28  29
ATOM     29  C   UNL d   1      -4.960   1.230  -1.060  0.00  0.00    -0.026 C 
ATOM     30  C   UNL d   1      -5.646   1.228  -2.210  0.00  0.00     0.007 C 
ENDBRANCH  28  29
ENDBRANCH  27  28
ENDBRANCH   5  27
TORSDOF 7
