REMARK  3 active torsions:
REMARK  status: ('A' for Active; 'I' for Inactive)
REMARK    1  A    between atoms: C_10  and  N_2 
REMARK    2  A    between atoms: C_12  and  C_16 
REMARK    3  A    between atoms: C_13  and  C_15 
ROOT
ATOM      1  C   UNL d   1      -0.423   0.413   0.069  0.00  0.00     0.122 A 
ATOM      2  N   UNL d   1       1.923   1.006  -0.045  0.00  0.00    -0.218 N 
ATOM      3  C   UNL d   1       0.580   1.477   0.078  0.00  0.00     0.295 A 
ATOM      4  C   UNL d   1      -0.025  -0.897  -0.004  0.00  0.00     0.062 A 
ATOM      5  N   UNL d   1       2.276  -0.353  -0.130  0.00  0.00    -0.294 N 
ATOM      6  HN  UNL d   1       3.255  -0.622  -0.231  1.00  0.00     0.187 HD
ATOM      7  N   UNL d   1      -1.805   0.589   0.106  0.00  0.00    -0.349 N 
ATOM      8  HN  UNL d   1      -2.281   1.489   0.168  1.00  0.00     0.166 HD
ATOM      9  C   UNL d   1       1.351  -1.266  -0.080  0.00  0.00     0.042 A 
ATOM     10  S   UNL d   1      -1.351  -1.946  -0.017  0.00  0.00    -0.073 SA
ATOM     11  C   UNL d   1      -2.403  -0.585   0.048  0.00  0.00     0.048 A 
ATOM     12  O   UNL d   1       0.246   2.661   0.146  0.00  0.00    -0.264 OA
ATOM     13  C   UNL d   1       1.743  -2.719  -0.090  0.00  0.00     0.071 C 
ATOM     14  C   UNL d   1      -3.874  -0.804   0.026  0.00  0.00     0.076 C 
ENDROOT
BRANCH   2  15
ATOM     15  C   UNL d   1       3.061   1.884  -0.043  0.00  0.00     0.061 A 
ATOM     16  C   UNL d   1       3.033   3.134   0.592  0.00  0.00     0.048 A 
ATOM     17  C   UNL d   1       4.156   3.980   0.613  0.00  0.00     0.051 A 
ATOM     18  C   UNL d   1       5.322   3.580  -0.057  0.00  0.00     0.032 A 
ATOM     19  C   UNL d   1       5.382   2.343  -0.715  0.00  0.00     0.051 A 
ATOM     20  C   UNL d   1       4.258   1.496  -0.674  0.00  0.00     0.048 A 
BRANCH  17  21
ATOM     21  C   UNL d   1       4.123   5.293   1.359  0.00  0.00     0.417 C 
ATOM     22  F   UNL d   1       2.934   5.551   1.968  0.00  0.00    -0.166 F 
ATOM     23  F   UNL d   1       5.063   5.345   2.344  0.00  0.00    -0.166 F 
ATOM     24  F   UNL d   1       4.372   6.359   0.550  0.00  0.00    -0.166 F 
ENDBRANCH  17  21
BRANCH  19  25
ATOM     25  C   UNL d   1       6.634   1.955  -1.467  0.00  0.00     0.417 C 
ATOM     26  F   UNL d   1       6.556   0.739  -2.075  0.00  0.00    -0.166 F 
ATOM     27  F   UNL d   1       6.938   2.845  -2.453  0.00  0.00    -0.166 F 
ATOM     28  F   UNL d   1       7.730   1.903  -0.662  0.00  0.00    -0.166 F 
ENDBRANCH  19  25
ENDBRANCH   2  15
TORSDOF 3
