REMARK  3 active torsions:
REMARK  status: ('A' for Active; 'I' for Inactive)
REMARK    1  A    between atoms: C_3  and  N_1 
REMARK    2  A    between atoms: C_2  and  C_4 
REMARK    3  A    between atoms: N_11  and  C_2 
ROOT
ATOM      1  C   UNL d   1      -0.699  -2.475   0.007  0.00  0.00     0.039 A 
ATOM      2  C   UNL d   1      -1.842  -4.330  -1.109  0.00  0.00     0.004 A 
ATOM      3  C   UNL d   1      -1.522  -2.963  -1.023  0.00  0.00     0.044 A 
ATOM      4  C   UNL d   1      -0.226  -3.374   0.975  0.00  0.00     0.030 A 
ATOM      5  C   UNL d   1      -1.350  -5.209  -0.137  0.00  0.00     0.014 A 
ATOM      6  C   UNL d   1      -0.555  -4.730   0.904  0.00  0.00     0.003 A 
ENDROOT
BRANCH   1   7
ATOM      7  N   UNL d   1      -0.323  -1.094   0.048  0.00  0.00    -0.333 N 
ATOM      8  C   UNL d   1      -0.741  -0.096  -0.815  0.00  0.00     0.096 A 
ATOM      9  C   UNL d   1      -0.123   1.091  -0.482  0.00  0.00     0.019 A 
ATOM     10  C   UNL d   1       0.698   0.833   0.630  0.00  0.00     0.019 A 
ATOM     11  C   UNL d   1       0.550  -0.500   0.943  0.00  0.00     0.096 A 
ENDBRANCH   1   7
BRANCH   2  12
ATOM     12  C   UNL d   1      -2.659  -4.856  -2.244  0.00  0.00     0.104 C 
ATOM     13  S   UNL d   1      -2.674  -4.238  -3.798  0.00  0.00    -0.060 SA
BRANCH  12  14
ATOM     14  N   UNL d   1      -3.457  -5.941  -1.984  0.00  0.00    -0.390 N 
ATOM     15  H   UNL d   1      -3.597  -6.333  -1.063  0.00  0.00     0.157 HD
ATOM     16  H   UNL d   1      -4.034  -6.301  -2.736  0.00  0.00     0.157 HD
ENDBRANCH  12  14
ENDBRANCH   2  12
TORSDOF 3
