REMARK  2 active torsions:
REMARK  status: ('A' for Active; 'I' for Inactive)
REMARK    1  A    between atoms: C_3  and  C_1 
REMARK    2  A    between atoms: C_13  and  N_2 
ROOT
ATOM      1  C   UNL d   1      -0.174  -1.340  -0.121  0.00  0.00     0.150 C 
ATOM      2  N   UNL d   1      -1.041  -0.396  -0.677  0.00  0.00    -0.224 N 
ATOM      3  N   UNL d   1      -0.355   0.759  -0.840  0.00  0.00     0.001 NA
ATOM      4  N   UNL d   1       0.812   0.579  -0.247  0.00  0.00    -0.007 NA
ATOM      5  N   UNL d   1       0.944  -0.706   0.195  0.00  0.00    -0.269 N 
ATOM      6  HN  UNL d   1       1.751  -1.103   0.677  1.00  0.00     0.185 HD
ENDROOT
BRANCH   1   7
ATOM      7  C   UNL d   1      -0.363  -2.795  -0.060  0.00  0.00     0.033 A 
ATOM      8  C   UNL d   1       0.050  -3.601   1.020  0.00  0.00    -0.034 A 
ATOM      9  C   UNL d   1      -0.127  -5.020   0.933  0.00  0.00    -0.003 A 
ATOM     10  C   UNL d   1       0.699  -3.013   2.252  0.00  0.00     0.050 C 
ATOM     11  C   UNL d   1       0.307  -5.940   1.923  0.00  0.00     0.014 A 
ATOM     12  C   UNL d   1      -0.763  -5.541  -0.215  0.00  0.00     0.042 A 
ATOM     13  C   UNL d   1       0.098  -7.314   1.785  0.00  0.00     0.001 A 
ATOM     14  C   UNL d   1      -0.555  -7.799   0.663  0.00  0.00     0.002 A 
ATOM     15  C   UNL d   1      -0.981  -6.908  -0.322  0.00  0.00     0.030 A 
ATOM     16  N   UNL d   1      -1.162  -4.776  -1.233  0.00  0.00    -0.364 N 
ATOM     17  C   UNL d   1      -0.923  -3.450  -1.156  0.00  0.00     0.104 A 
ATOM     18  HN  UNL d   1      -1.632  -5.180  -2.043  1.00  0.00     0.165 HD
ENDBRANCH   1   7
BRANCH   2  19
ATOM     19  C   UNL d   1      -2.400  -0.496  -1.071  0.00  0.00     0.056 A 
ATOM     20  C   UNL d   1      -3.268  -1.410  -0.457  0.00  0.00     0.032 A 
ATOM     21  C   UNL d   1      -4.587  -1.529  -0.904  0.00  0.00     0.021 A 
ATOM     22  C   UNL d   1      -5.039  -0.735  -1.956  0.00  0.00     0.011 A 
ATOM     23  C   UNL d   1      -4.191   0.195  -2.555  0.00  0.00     0.021 A 
ATOM     24 BR   UNL d   1      -6.817  -0.917  -2.569  0.00  0.00    -0.051 Br
ATOM     25  C   UNL d   1      -2.876   0.328  -2.102  0.00  0.00     0.032 A 
ENDBRANCH   2  19
TORSDOF 2
