REMARK  1 active torsions:
REMARK  status: ('A' for Active; 'I' for Inactive)
REMARK    1  A    between atoms: N_11  and  C_2 
ROOT
ATOM      1  C   UNL d   1       0.093  -0.795  -0.187  0.00  0.00     0.076 A 
ATOM      2  C   UNL d   1       1.342  -1.455  -0.201  0.00  0.00     0.123 A 
ATOM      3  S   UNL d   1      -1.506  -1.422  -0.366  0.00  0.00    -0.095 SA
ATOM      4  C   UNL d   1       0.047   0.593  -0.045  0.00  0.00     0.060 A 
ATOM      5  C   UNL d   1      -1.289   1.123  -0.068  0.00  0.00    -0.027 A 
ATOM      6  C   UNL d   1      -2.220   0.116  -0.218  0.00  0.00     0.059 A 
ATOM      7  N   UNL d   1       2.443  -0.667  -0.091  0.00  0.00    -0.338 N 
ATOM      8  HN  UNL d   1       3.375  -1.081  -0.116  1.00  0.00     0.168 HD
ATOM      9  N   UNL d   1       1.164   1.350   0.089  0.00  0.00    -0.351 N 
ATOM     10  HN  UNL d   1       1.137   2.363   0.210  1.00  0.00     0.166 HD
ATOM     11  C   UNL d   1       2.299   0.657   0.050  0.00  0.00     0.182 A 
ATOM     12  C   UNL d   1      -1.636   2.570   0.042  0.00  0.00     0.051 C 
ENDROOT
BRANCH   2  13
ATOM     13  N   UNL d   1       1.512  -2.835  -0.380  0.00  0.00    -0.375 N 
ATOM     14  C   UNL d   1       2.881  -3.249  -0.670  0.00  0.00     0.150 C 
ATOM     15  C   UNL d   1       0.779  -3.693   0.548  0.00  0.00     0.150 C 
ENDBRANCH   2  13
TORSDOF 1
