REMARK  5 active torsions:
REMARK  status: ('A' for Active; 'I' for Inactive)
REMARK    1  A    between atoms: C_2  and  S_1 
REMARK    2  A    between atoms: N_7  and  S_1 
REMARK    3  A    between atoms: C_5  and  C_11 
REMARK    4  A    between atoms: C_16  and  N_7 
REMARK    5  A    between atoms: C_11  and  N_10 
ROOT
ATOM      1  N   UNL d   1       2.389  -2.836  -0.279  0.00  0.00     0.092 N 
ATOM      2  C   UNL d   1       1.140  -1.364   1.995  0.00  0.00     0.074 C 
ATOM      3  C   UNL d   1       2.555  -1.062   1.524  0.00  0.00     0.050 C 
ATOM      4  C   UNL d   1       0.870  -2.847   1.743  0.00  0.00     0.050 C 
ATOM      5  C   UNL d   1       2.759  -1.448   0.065  0.00  0.00     0.274 C 
ATOM      6  C   UNL d   1       1.088  -3.243   0.276  0.00  0.00     0.274 C 
ENDROOT
BRANCH   2   7
ATOM      7  N   UNL d   1       0.088  -0.552   1.325  0.00  0.00    -0.210 NA
ATOM      8  H   UNL d   1      -0.021  -0.711   0.321  0.00  0.00     0.140 HD
BRANCH   7   9
ATOM      9  S   UNL d   1      -0.017   1.111   1.624  0.00  0.00     0.259 S 
ATOM     10  O   UNL d   1      -1.298   1.564   1.129  0.00  0.00    -0.204 OA
ATOM     11  O   UNL d   1       0.442   1.381   2.972  0.00  0.00    -0.204 OA
BRANCH   9  12
ATOM     12  C   UNL d   1       1.138   1.911   0.582  0.00  0.00     0.160 A 
ATOM     13  N   UNL d   1       1.301   1.572  -0.756  0.00  0.00    -0.341 N 
ATOM     14  C   UNL d   1       2.282   2.332  -1.186  0.00  0.00     0.183 A 
ATOM     15  HN  UNL d   1       0.772   0.882  -1.289  1.00  0.00     0.167 HD
ATOM     16  N   UNL d   1       2.790   3.110  -0.182  0.00  0.00    -0.354 N 
ATOM     17  C   UNL d   1       2.061   2.872   0.947  0.00  0.00     0.134 A 
ATOM     18  C   UNL d   1       3.928   3.986  -0.295  0.00  0.00     0.156 C 
ENDBRANCH   9  12
ENDBRANCH   7   9
ENDBRANCH   2   7
BRANCH   1  19
ATOM     19  C   UNL d   1       2.393  -2.910  -1.763  0.00  0.00     0.315 C 
BRANCH  19  20
ATOM     20  C   UNL d   1       2.162  -4.252  -2.410  0.00  0.00     0.030 A 
ATOM     21  C   UNL d   1       0.997  -4.439  -3.170  0.00  0.00     0.126 A 
ATOM     22  F   UNL d   1       0.064  -3.477  -3.211  0.00  0.00    -0.205 F 
ATOM     23  C   UNL d   1       0.786  -5.585  -3.935  0.00  0.00     0.043 A 
ATOM     24  C   UNL d   1       1.747  -6.588  -3.946  0.00  0.00     0.005 A 
ATOM     25  C   UNL d   1       2.903  -6.441  -3.179  0.00  0.00     0.024 A 
ATOM     26  C   UNL d   1       3.111  -5.282  -2.416  0.00  0.00     0.045 A 
ATOM     27 CL   UNL d   1       4.600  -5.158  -1.550  0.00  0.00    -0.084 Cl
ENDBRANCH  19  20
ENDBRANCH   1  19
TORSDOF 5
