REMARK  5 active torsions:
REMARK  status: ('A' for Active; 'I' for Inactive)
REMARK    1  A    between atoms: C_8  and  N_1 
REMARK    2  A    between atoms: C_2  and  C_3 
REMARK    3  A    between atoms: C_4  and  C_5 
REMARK       I    between atoms: C_5  and  N_14 
REMARK    4  A    between atoms: N_14  and  N_10 
REMARK    5  A    between atoms: C_18  and  C_19 
ROOT
ATOM      1  C   UNL d   1      -1.477   6.021  -0.264  0.00  0.00     0.271 C 
ATOM      2  N   UNL d   1      -1.460   7.332   0.206  0.00  0.00    -0.266 N 
ATOM      3  O   UNL d   1      -1.984   5.656  -1.323  0.00  0.00    -0.266 OA
ATOM      4  H   UNL d   1      -1.313   7.483   1.202  0.00  0.00     0.190 HD
ENDROOT
BRANCH   1   5
ATOM      5  C   UNL d   1      -0.796   4.995   0.570  0.00  0.00     0.047 A 
ATOM      6  C   UNL d   1      -0.838   4.913   1.970  0.00  0.00     0.023 A 
ATOM      7  C   UNL d   1      -0.095   3.911   2.620  0.00  0.00     0.016 A 
ATOM      8  C   UNL d   1       0.653   2.982   1.893  0.00  0.00     0.001 A 
ATOM      9  C   UNL d   1       0.667   3.040   0.505  0.00  0.00     0.001 A 
ATOM     10  C   UNL d   1      -0.050   4.040  -0.152  0.00  0.00     0.018 A 
BRANCH   6  11
ATOM     11  C   UNL d   1      -1.671   5.803   2.843  0.00  0.00     0.108 C 
ATOM     12  N   UNL d   1      -1.181   6.120   3.996  0.00  0.00    -0.376 N 
ATOM     13  C   UNL d   1      -1.985   6.956   4.892  0.00  0.00     0.123 C 
ATOM     14  HN  UNL d   1      -0.256   5.795   4.277  1.00  0.00     0.161 HD
ATOM     15  C   UNL d   1      -2.927   7.882   4.143  0.00  0.00     0.039 C 
ATOM     16  C   UNL d   1      -3.764   7.053   3.191  0.00  0.00     0.123 C 
ATOM     17  N   UNL d   1      -2.881   6.251   2.379  0.00  0.00    -0.376 N 
ATOM     18  H   UNL d   1      -3.312   5.809   1.571  0.00  0.00     0.161 HD
ENDBRANCH   6  11
ENDBRANCH   1   5
BRANCH   2  19
ATOM     19  N   UNL d   1      -2.121   8.370  -0.407  0.00  0.00    -0.308 N 
ATOM     20  C   UNL d   1      -2.015   8.425  -1.700  0.00  0.00     0.118 C 
ATOM     21  HN  UNL d   1      -2.661   9.056   0.122  1.00  0.00     0.186 HD
BRANCH  20  22
ATOM     22  C   UNL d   1      -2.674   9.475  -2.499  0.00  0.00    -0.019 A 
ATOM     23  C   UNL d   1      -3.546  10.401  -1.915  0.00  0.00     0.015 A 
ATOM     24  C   UNL d   1      -4.083  11.432  -2.692  0.00  0.00     0.037 A 
ATOM     25  C   UNL d   1      -3.741  11.526  -4.049  0.00  0.00     0.102 A 
ATOM     26  C   UNL d   1      -2.894  10.578  -4.641  0.00  0.00     0.037 A 
ATOM     27  C   UNL d   1      -2.365   9.548  -3.862  0.00  0.00     0.015 A 
BRANCH  25  28
ATOM     28  N   UNL d   1      -4.252  12.642  -4.854  0.00  0.00    -0.116 N 
ATOM     29  O   UNL d   1      -3.886  12.714  -6.037  0.00  0.00    -0.532 OA
ATOM     30  O   UNL d   1      -5.008  13.453  -4.303  0.00  0.00    -0.532 OA
ENDBRANCH  25  28
ENDBRANCH  20  22
ENDBRANCH   2  19
TORSDOF 5
