REMARK  9 active torsions:
REMARK  status: ('A' for Active; 'I' for Inactive)
REMARK    1  A    between atoms: C_4  and  C_1 
REMARK    2  A    between atoms: O_8  and  C_1 
REMARK    3  A    between atoms: N_2  and  C_9 
REMARK    4  A    between atoms: C_10  and  C_5 
REMARK    5  A    between atoms: C_11  and  C_6 
REMARK    6  A    between atoms: C_13  and  O_8 
REMARK    7  A    between atoms: O_22  and  C_12 
REMARK    8  A    between atoms: C_23  and  C_13 
REMARK    9  A    between atoms: C_25  and  C_23 
ROOT
ATOM      1  C   UNL d   1      -1.287  -2.181   5.737  0.00  0.00     0.031 A 
ATOM      2  C   UNL d   1       0.165  -1.301   3.475  0.00  0.00    -0.036 A 
ATOM      3  C   UNL d   1      -1.654  -2.581   4.446  0.00  0.00     0.030 A 
ATOM      4  C   UNL d   1      -0.185  -1.335   5.879  0.00  0.00     0.030 A 
ATOM      5  C   UNL d   1       0.536  -0.897   4.762  0.00  0.00     0.013 A 
ATOM      6  C   UNL d   1      -0.930  -2.155   3.322  0.00  0.00     0.013 A 
ENDROOT
BRANCH   1   7
ATOM      7  N   UNL d   1      -2.029  -2.489   6.891  0.00  0.00    -0.365 N 
ATOM      8  C   UNL d   1      -2.542  -3.669   7.035  0.00  0.00     0.099 C 
ATOM      9  HN  UNL d   1      -2.162  -1.784   7.615  1.00  0.00     0.165 HD
BRANCH   8  10
ATOM     10  C   UNL d   1      -3.388  -4.007   8.200  0.00  0.00    -0.021 A 
ATOM     11  C   UNL d   1      -3.508  -3.132   9.283  0.00  0.00     0.015 A 
ATOM     12  C   UNL d   1      -4.343  -3.454  10.360  0.00  0.00     0.037 A 
ATOM     13  C   UNL d   1      -5.062  -4.651  10.353  0.00  0.00     0.068 A 
ATOM     14  C   UNL d   1      -4.949  -5.516   9.261  0.00  0.00     0.037 A 
ATOM     15  C   UNL d   1      -4.106  -5.204   8.193  0.00  0.00     0.015 A 
BRANCH  13  16
ATOM     16  O   UNL d   1      -5.930  -5.061  11.327  0.00  0.00    -0.356 OA
ATOM     17  C   UNL d   1      -5.717  -4.519  12.626  0.00  0.00     0.210 C 
ENDBRANCH  13  16
ENDBRANCH   8  10
ENDBRANCH   1   7
BRANCH   2  18
ATOM     18  C   UNL d   1       0.938  -0.817   2.326  0.00  0.00     0.017 C 
ATOM     19  C   UNL d   1       1.904  -1.571   1.782  0.00  0.00     0.083 C 
BRANCH  19  20
ATOM     20  C   UNL d   1       2.914  -1.083   0.817  0.00  0.00     0.282 C 
ATOM     21  O   UNL d   1       3.951  -1.699   0.629  0.00  0.00    -0.260 OA
BRANCH  20  22
ATOM     22  O   UNL d   1       2.608   0.137   0.314  0.00  0.00    -0.318 OA
BRANCH  22  23
ATOM     23  C   UNL d   1       3.701   1.066   0.236  0.00  0.00     0.183 C 
BRANCH  23  24
ATOM     24  C   UNL d   1       4.783   0.812  -0.834  0.00  0.00     0.005 C 
ATOM     25  C   UNL d   1       5.887   1.862  -0.648  0.00  0.00     0.012 C 
BRANCH  24  26
ATOM     26  C   UNL d   1       4.205   0.834  -2.260  0.00  0.00     0.002 C 
ATOM     27  C   UNL d   1       5.244   0.531  -3.337  0.00  0.00     0.005 C 
ENDBRANCH  24  26
ENDBRANCH  23  24
ENDBRANCH  22  23
ENDBRANCH  20  22
ENDBRANCH  19  20
ENDBRANCH   2  18
TORSDOF 9
