REMARK  3 active torsions:
REMARK  status: ('A' for Active; 'I' for Inactive)
REMARK    1  A    between atoms: C_4  and  C_1 
REMARK    2  A    between atoms: N_5  and  C_2 
REMARK       I    between atoms: N_11  and  C_4 
REMARK    3  A    between atoms: N_14  and  N_11 
ROOT
ATOM      1  C   UNL d   1      -0.811   1.383   0.046  0.00  0.00     0.101 A 
ATOM      2  C   UNL d   1       0.582   1.359   0.001  0.00  0.00     0.067 A 
ATOM      3  S   UNL d   1      -1.463  -0.207   0.058  0.00  0.00    -0.094 SA
ATOM      4  C   UNL d   1       1.106   0.004  -0.028  0.00  0.00    -0.027 A 
ATOM      5  C   UNL d   1       0.076  -0.918  -0.025  0.00  0.00     0.059 A 
ATOM      6  C   UNL d   1       2.537  -0.441   0.018  0.00  0.00     0.051 C 
ENDROOT
BRANCH   1   7
ATOM      7  C   UNL d   1      -1.732   2.515  -0.009  0.00  0.00     0.274 C 
ATOM      8  O   UNL d   1      -1.492   3.577  -0.587  0.00  0.00    -0.266 OA
ATOM      9  N   UNL d   1      -2.938   2.339   0.669  0.00  0.00    -0.289 N 
ATOM     10  H   UNL d   1      -3.174   1.419   1.040  0.00  0.00     0.183 HD
BRANCH   9  11
ATOM     11  N   UNL d   1      -3.906   3.368   0.684  0.00  0.00    -0.247 NA
ATOM     12  H   UNL d   1      -3.619   4.052  -0.031  0.00  0.00     0.143 HD
ATOM     13  H   UNL d   1      -3.806   3.880   1.564  0.00  0.00     0.143 HD
ENDBRANCH   9  11
ENDBRANCH   1   7
BRANCH   2  14
ATOM     14  N   UNL d   1       1.401   2.541   0.021  0.00  0.00    -0.331 N 
ATOM     15  C   UNL d   1       1.146   3.706   0.718  0.00  0.00     0.096 A 
ATOM     16  C   UNL d   1       2.179   4.597   0.518  0.00  0.00     0.019 A 
ATOM     17  C   UNL d   1       3.110   3.966  -0.332  0.00  0.00     0.019 A 
ATOM     18  C   UNL d   1       2.613   2.713  -0.621  0.00  0.00     0.096 A 
ENDBRANCH   2  14
TORSDOF 3
