REMARK  4 active torsions:
REMARK  status: ('A' for Active; 'I' for Inactive)
REMARK    1  A    between atoms: C_12  and  C_4 
REMARK    2  A    between atoms: O_13  and  C_7 
REMARK    3  A    between atoms: O_14  and  C_10 
REMARK    4  A    between atoms: C_17  and  O_14 
ROOT
ATOM      1  C   UNL d   1       0.069   0.228   0.026  0.00  0.00     0.081 A 
ATOM      2  C   UNL d   1      -1.131   1.072   0.036  0.00  0.00     0.190 A 
ATOM      3  C   UNL d   1      -2.430   0.388   0.039  0.00  0.00     0.094 A 
ATOM      4  C   UNL d   1      -2.443  -0.952   0.041  0.00  0.00     0.090 A 
ATOM      5  C   UNL d   1      -0.087  -1.156   0.026  0.00  0.00     0.095 A 
ATOM      6  O   UNL d   1      -1.320  -1.762   0.041  0.00  0.00    -0.309 OA
ATOM      7  C   UNL d   1       1.349   0.783   0.013  0.00  0.00     0.085 A 
ATOM      8  C   UNL d   1       1.039  -1.985   0.009  0.00  0.00     0.075 A 
ATOM      9  C   UNL d   1       2.473  -0.041  -0.004  0.00  0.00     0.074 A 
ATOM     10  C   UNL d   1       2.327  -1.431  -0.009  0.00  0.00     0.074 A 
ATOM     11  O   UNL d   1      -1.048   2.296   0.036  0.00  0.00    -0.287 OA
ENDROOT
BRANCH   4  12
ATOM     12  C   UNL d   1      -3.714  -1.680   0.029  0.00  0.00    -0.002 A 
ATOM     13  C   UNL d   1      -4.307  -2.035  -1.189  0.00  0.00     0.014 A 
ATOM     14  C   UNL d   1      -5.517  -2.732  -1.206  0.00  0.00     0.001 A 
ATOM     15  C   UNL d   1      -6.140  -3.075  -0.007  0.00  0.00     0.000 A 
ATOM     16  C   UNL d   1      -5.560  -2.717   1.210  0.00  0.00     0.001 A 
ATOM     17  C   UNL d   1      -4.351  -2.018   1.229  0.00  0.00     0.014 A 
ENDBRANCH   4  12
BRANCH   7  18
ATOM     18  O   UNL d   1       1.579   2.132   0.013  0.00  0.00    -0.360 OA
ATOM     19  H   UNL d   1       0.709   2.592   0.022  0.00  0.00     0.217 HD
ENDBRANCH   7  18
BRANCH  10  20
ATOM     20  O   UNL d   1       3.355  -2.336  -0.033  0.00  0.00    -0.351 OA
BRANCH  20  21
ATOM     21  C   UNL d   1       4.677  -1.791  -0.068  0.00  0.00     0.171 C 
ATOM     22  C   UNL d   1       5.682  -2.928  -0.105  0.00  0.00     0.034 C 
ENDBRANCH  20  21
ENDBRANCH  10  20
TORSDOF 4
