REMARK  5 active torsions:
REMARK  status: ('A' for Active; 'I' for Inactive)
REMARK    1  A    between atoms: C_5  and  C_1 
REMARK    2  A    between atoms: C_9  and  C_4 
REMARK       I    between atoms: N_10  and  C_5 
REMARK    3  A    between atoms: C_6  and  C_9 
REMARK    4  A    between atoms: C_19  and  N_10 
REMARK    5  A    between atoms: C_12  and  C_19 
ROOT
ATOM      1  C   UNL d   1       1.254   0.812  -0.145  0.00  0.00     0.107 A 
ATOM      2  N   UNL d   1       1.423  -0.574  -0.259  0.00  0.00    -0.349 N 
ATOM      3  HN  UNL d   1       2.311  -1.043  -0.441  1.00  0.00     0.166 HD
ATOM      4  C   UNL d   1       0.260  -1.182  -0.096  0.00  0.00     0.055 A 
ATOM      5  C   UNL d   1      -0.056   1.214   0.027  0.00  0.00     0.086 A 
ATOM      6  S   UNL d   1      -1.094  -0.135   0.095  0.00  0.00    -0.086 SA
ENDROOT
BRANCH   1   7
ATOM      7  C   UNL d   1       2.370   1.761  -0.166  0.00  0.00     0.269 C 
ATOM      8  N   UNL d   1       3.533   1.281  -0.725  0.00  0.00    -0.351 N 
ATOM      9  H   UNL d   1       3.543   0.335  -1.084  0.00  0.00     0.163 HD
ATOM     10  O   UNL d   1       2.266   2.901   0.276  0.00  0.00    -0.266 OA
BRANCH   8  11
ATOM     11  C   UNL d   1       4.701   2.126  -0.751  0.00  0.00     0.169 C 
BRANCH  11  12
ATOM     12  C   UNL d   1       5.827   1.469  -1.478  0.00  0.00     0.000 A 
ATOM     13  S   UNL d   1       6.524   2.237  -2.846  0.00  0.00    -0.105 SA
ATOM     14  C   UNL d   1       7.720   1.026  -3.002  0.00  0.00     0.050 A 
ATOM     15  C   UNL d   1       7.583   0.041  -2.050  0.00  0.00     0.008 A 
ATOM     16  C   UNL d   1       6.490   0.295  -1.171  0.00  0.00     0.017 A 
ENDBRANCH  11  12
ENDBRANCH   8  11
ENDBRANCH   1   7
BRANCH   4  17
ATOM     17  C   UNL d   1       0.067  -2.675  -0.010  0.00  0.00     0.107 C 
BRANCH  17  18
ATOM     18  C   UNL d   1      -0.064  -3.341  -1.366  0.00  0.00    -0.009 A 
ATOM     19  C   UNL d   1       1.072  -3.783  -2.071  0.00  0.00     0.042 A 
ATOM     20 CL   UNL d   1       2.669  -3.682  -1.410  0.00  0.00    -0.084 Cl
ATOM     21  C   UNL d   1       0.959  -4.346  -3.348  0.00  0.00     0.024 A 
ATOM     22  C   UNL d   1      -0.287  -4.476  -3.952  0.00  0.00     0.003 A 
ATOM     23  C   UNL d   1      -1.425  -4.060  -3.269  0.00  0.00     0.024 A 
ATOM     24  C   UNL d   1      -1.318  -3.505  -1.989  0.00  0.00     0.042 A 
ATOM     25 CL   UNL d   1      -2.804  -3.063  -1.219  0.00  0.00    -0.084 Cl
ENDBRANCH  17  18
ENDBRANCH   4  17
TORSDOF 5
