REMARK  1 active torsions:
REMARK  status: ('A' for Active; 'I' for Inactive)
REMARK    1  A    between atoms: N_7  and  C_1 
REMARK       I    between atoms: C_9  and  N_7 
ROOT
ATOM      1  C   UNL d   1       2.455  -0.564  -0.050  0.00  0.00     0.155 C 
ATOM      2  S   UNL d   1       2.638   1.129  -0.351  0.00  0.00    -0.011 SA
ATOM      3  C   UNL d   1       1.069   1.687   0.169  0.00  0.00     0.228 C 
ATOM      4  N   UNL d   1       1.360  -1.212   0.110  0.00  0.00    -0.336 N 
ATOM      5  HN  UNL d   1       1.404  -2.215   0.288  1.00  0.00     0.168 HD
ATOM      6  C   UNL d   1      -0.084   0.784   0.074  0.00  0.00     0.048 A 
ATOM      7  C   UNL d   1       0.112  -0.594   0.049  0.00  0.00     0.048 A 
ATOM      8  O   UNL d   1       0.922   2.845   0.541  0.00  0.00    -0.279 OA
ATOM      9  C   UNL d   1      -1.380   1.325   0.023  0.00  0.00     0.018 A 
ATOM     10  C   UNL d   1      -1.010  -1.427  -0.018  0.00  0.00     0.030 A 
ATOM     11  C   UNL d   1      -2.486   0.481  -0.066  0.00  0.00     0.001 A 
ATOM     12  C   UNL d   1      -2.301  -0.898  -0.082  0.00  0.00     0.002 A 
ENDROOT
BRANCH   1  13
ATOM     13  N   UNL d   1       3.688  -1.171  -0.035  0.00  0.00    -0.307 N 
ATOM     14  C   UNL d   1       3.951  -2.519   0.141  0.00  0.00     0.219 C 
ATOM     15  O   UNL d   1       3.128  -3.394   0.392  0.00  0.00    -0.274 OA
ATOM     16  C   UNL d   1       5.413  -2.866   0.010  0.00  0.00     0.117 C 
ATOM     17  H   UNL d   1       4.462  -0.550  -0.213  0.00  0.00     0.171 HD
ENDBRANCH   1  13
TORSDOF 1
