REMARK  2 active torsions:
REMARK  status: ('A' for Active; 'I' for Inactive)
REMARK    1  A    between atoms: S_2  and  C_1 
REMARK    2  A    between atoms: N_9  and  S_2 
ROOT
ATOM      1  C   UNL d   1       0.747  -1.581  -0.003  0.00  0.00     0.105 A 
ATOM      2  C   UNL d   1       1.236  -0.299  -0.004  0.00  0.00     0.099 A 
ATOM      3  C   UNL d   1      -0.689  -1.592  -0.007  0.00  0.00     0.058 A 
ATOM      4  S   UNL d   1       0.004   0.878  -0.008  0.00  0.00    -0.064 SA
ATOM      5  C   UNL d   1      -1.192  -0.317  -0.008  0.00  0.00     0.077 A 
ATOM      6 CL   UNL d   1       2.860   0.267  -0.001  0.00  0.00    -0.075 Cl
ATOM      7 CL   UNL d   1      -2.848   0.133  -0.009  0.00  0.00    -0.076 Cl
ENDROOT
BRANCH   1   8
ATOM      8  S   UNL d   1       1.650  -3.047   0.004  0.00  0.00     0.241 S 
ATOM      9  O   UNL d   1       1.309  -3.641   1.274  0.00  0.00    -0.206 OA
ATOM     10  O   UNL d   1       1.319  -3.646  -1.267  0.00  0.00    -0.206 OA
BRANCH   8  11
ATOM     11  N   UNL d   1       3.291  -2.758   0.010  0.00  0.00    -0.225 NA
ATOM     12  H   UNL d   1       3.621  -2.327   0.871  0.00  0.00     0.136 HD
ATOM     13  H   UNL d   1       3.628  -2.330  -0.851  0.00  0.00     0.136 HD
ENDBRANCH   8  11
ENDBRANCH   1   8
TORSDOF 2
