REMARK  8 active torsions:
REMARK  status: ('A' for Active; 'I' for Inactive)
REMARK    1  A    between atoms: N_6  and  C_1 
REMARK    2  A    between atoms: C_2  and  S_10 
REMARK    3  A    between atoms: C_19  and  N_3 
REMARK    4  A    between atoms: S_10  and  C_5 
REMARK    5  A    between atoms: O_18  and  C_9 
REMARK    6  A    between atoms: C_20  and  C_19 
REMARK    7  A    between atoms: C_22  and  C_20 
REMARK    8  A    between atoms: C_21  and  C_22 
ROOT
ATOM      1  C   UNL d   1       1.771  -3.564  -0.283  0.00  0.00     0.171 A 
ATOM      2  N   UNL d   1       2.550  -3.562   0.855  0.00  0.00    -0.291 N 
ATOM      3  N   UNL d   1       2.331  -4.307  -1.206  0.00  0.00    -0.276 N 
ATOM      4  HN  UNL d   1       1.960  -4.488  -2.139  1.00  0.00     0.189 HD
ATOM      5  C   UNL d   1       3.638  -4.335   0.528  0.00  0.00     0.240 A 
ATOM      6  N   UNL d   1       3.509  -4.800  -0.694  0.00  0.00    -0.263 N 
ATOM      7  HN  UNL d   1       4.164  -5.415  -1.176  1.00  0.00     0.190 HD
ENDROOT
BRANCH   1   8
ATOM      8  S   UNL d   1       0.195  -2.865  -0.393  0.00  0.00    -0.027 SA
BRANCH   8   9
ATOM      9  C   UNL d   1       0.432  -1.849  -1.798  0.00  0.00     0.121 A 
ATOM     10  S   UNL d   1      -0.382  -2.132  -3.290  0.00  0.00    -0.039 SA
ATOM     11  C   UNL d   1       0.119  -0.599  -3.826  0.00  0.00     0.161 A 
ATOM     12  C   UNL d   1       0.903   0.017  -2.880  0.00  0.00     0.133 A 
ATOM     13  N   UNL d   1       1.082  -0.705  -1.709  0.00  0.00    -0.352 N 
ATOM     14  HN  UNL d   1       1.631  -0.400  -0.906  1.00  0.00     0.166 HD
BRANCH  11  15
ATOM     15  N   UNL d   1      -0.290  -0.057  -5.084  0.00  0.00    -0.107 N 
ATOM     16  O   UNL d   1       0.082   1.098  -5.328  0.00  0.00    -0.531 OA
ATOM     17  O   UNL d   1      -0.991  -0.757  -5.825  0.00  0.00    -0.531 OA
ENDBRANCH  11  15
ENDBRANCH   8   9
ENDBRANCH   1   8
BRANCH   2  18
ATOM     18  C   UNL d   1       2.361  -2.816   2.078  0.00  0.00     0.135 C 
BRANCH  18  19
ATOM     19  C   UNL d   1       1.139  -3.145   2.939  0.00  0.00     0.020 C 
BRANCH  19  20
ATOM     20  C   UNL d   1       1.006  -4.607   3.373  0.00  0.00     0.001 C 
BRANCH  20  21
ATOM     21  C   UNL d   1      -0.261  -4.773   4.221  0.00  0.00    -0.004 C 
ATOM     22  C   UNL d   1      -0.481  -6.202   4.685  0.00  0.00     0.005 C 
ENDBRANCH  20  21
ENDBRANCH  19  20
ENDBRANCH  18  19
ENDBRANCH   2  18
BRANCH   5  23
ATOM     23  O   UNL d   1       4.691  -4.608   1.284  0.00  0.00    -0.331 OA
ATOM     24  H   UNL d   1       4.749  -3.987   2.023  0.00  0.00     0.221 HD
ENDBRANCH   5  23
TORSDOF 8
