REMARK  6 active torsions:
REMARK  status: ('A' for Active; 'I' for Inactive)
REMARK    1  A    between atoms: C_18  and  C_3 
REMARK    2  A    between atoms: N_5  and  C_4 
REMARK    3  A    between atoms: C_12  and  C_14 
REMARK    4  A    between atoms: N_28  and  C_14 
REMARK    5  A    between atoms: O_24  and  C_18 
REMARK    6  A    between atoms: N_20  and  O_24 
ROOT
ATOM      1  C   UNL d   1      -1.482  -1.232   0.171  0.00  0.00     0.320 C 
ATOM      2  O   UNL d   1      -2.217  -2.147   0.520  0.00  0.00    -0.257 OA
ENDROOT
BRANCH   1   3
ATOM      3  C   UNL d   1      -0.038  -1.386   0.048  0.00  0.00     0.102 A 
ATOM      4  C   UNL d   1       0.659  -2.586  -0.114  0.00  0.00     0.137 A 
ATOM      5  C   UNL d   1       0.258  -3.948  -0.348  0.00  0.00     0.083 A 
ATOM      6  O   UNL d   1       1.997  -2.294  -0.075  0.00  0.00    -0.235 OA
ATOM      7  C   UNL d   1       0.938  -5.127  -0.047  0.00  0.00     0.043 A 
ATOM      8  S   UNL d   1      -1.122  -4.403  -1.266  0.00  0.00     0.006 SA
ATOM      9  N   UNL d   1       0.329  -6.288  -0.518  0.00  0.00    -0.298 N 
ATOM     10  C   UNL d   1       2.229  -5.296   0.671  0.00  0.00     0.071 C 
ATOM     11  N   UNL d   1      -0.782  -6.031  -1.181  0.00  0.00    -0.269 N 
ATOM     12  HN  UNL d   1       0.699  -7.227  -0.368  1.00  0.00     0.187 HD
ATOM     13  HN  UNL d   1      -1.370  -6.753  -1.598  1.00  0.00     0.195 HD
ATOM     14  N   UNL d   1       2.203  -0.948   0.024  0.00  0.00    -0.264 N 
ATOM     15  C   UNL d   1       0.992  -0.391   0.068  0.00  0.00     0.048 A 
ATOM     16  HN  UNL d   1       3.101  -0.466   0.058  1.00  0.00     0.194 HD
ATOM     17  C   UNL d   1       0.939   1.089   0.140  0.00  0.00     0.071 C 
ENDBRANCH   1   3
BRANCH   1  18
ATOM     18  O   UNL d   1      -1.909   0.046  -0.132  0.00  0.00    -0.193 OA
BRANCH  18  19
ATOM     19  N   UNL d   1      -3.324   0.121  -0.120  0.00  0.00    -0.244 N 
ATOM     20  C   UNL d   1      -3.743   1.304  -0.477  0.00  0.00     0.133 C 
ATOM     21  HN  UNL d   1      -3.938  -0.652   0.134  1.00  0.00     0.196 HD
BRANCH  20  22
ATOM     22  C   UNL d   1      -5.181   1.490  -0.591  0.00  0.00     0.117 A 
ATOM     23  O   UNL d   1      -5.626   2.730  -0.988  0.00  0.00    -0.285 OA
ATOM     24  C   UNL d   1      -6.978   2.644  -1.081  0.00  0.00     0.215 A 
ATOM     25  C   UNL d   1      -7.434   1.397  -0.732  0.00  0.00     0.066 A 
ATOM     26  C   UNL d   1      -6.268   0.652  -0.400  0.00  0.00     0.045 A 
BRANCH  24  27
ATOM     27  N   UNL d   1      -7.656   3.820  -1.532  0.00  0.00    -0.090 N 
ATOM     28  O   UNL d   1      -8.875   3.711  -1.729  0.00  0.00    -0.530 OA
ATOM     29  O   UNL d   1      -6.985   4.848  -1.685  0.00  0.00    -0.530 OA
ENDBRANCH  24  27
ENDBRANCH  20  22
BRANCH  20  30
ATOM     30  N   UNL d   1      -2.893   2.353  -0.741  0.00  0.00    -0.285 NA
ATOM     31  H   UNL d   1      -3.331   3.269  -0.701  0.00  0.00     0.125 HD
ATOM     32  H   UNL d   1      -2.011   2.303  -0.253  0.00  0.00     0.125 HD
ENDBRANCH  20  30
ENDBRANCH  18  19
ENDBRANCH   1  18
TORSDOF 6
