REMARK  6 active torsions:
REMARK  status: ('A' for Active; 'I' for Inactive)
REMARK    1  A    between atoms: C_2  and  C_1 
REMARK       I    between atoms: C_7  and  N_3 
REMARK    2  A    between atoms: C_17  and  C_4 
REMARK    3  A    between atoms: C_8  and  C_7 
REMARK    4  A    between atoms: C_9  and  C_15 
REMARK    5  A    between atoms: C_10  and  C_16 
REMARK    6  A    between atoms: O_31  and  C_17 
ROOT
ATOM      1  C   UNL d   1       0.428  -2.617  -0.018  0.00  0.00     0.076 A 
ATOM      2  N   UNL d   1       0.093  -3.579  -0.959  0.00  0.00    -0.219 N 
ATOM      3  C   UNL d   1      -0.522  -3.414  -2.216  0.00  0.00     0.277 C 
ATOM      4  N   UNL d   1       0.544  -4.816  -0.598  0.00  0.00    -0.302 N 
ATOM      5  HN  UNL d   1       0.364  -5.707  -1.060  1.00  0.00     0.186 HD
ATOM      6  C   UNL d   1       1.253  -3.247   0.891  0.00  0.00     0.051 A 
ATOM      7  C   UNL d   1       1.273  -4.594   0.494  0.00  0.00     0.110 A 
ATOM      8  O   UNL d   1      -0.413  -2.318  -2.767  0.00  0.00    -0.265 OA
ENDROOT
BRANCH   1   9
ATOM      9  C   UNL d   1      -0.049  -1.205   0.045  0.00  0.00     0.059 A 
ATOM     10  C   UNL d   1      -1.279  -0.622  -0.398  0.00  0.00     0.144 A 
ATOM     11  N   UNL d   1      -1.276   0.704  -0.173  0.00  0.00    -0.254 N 
ATOM     12  O   UNL d   1      -0.068   0.991   0.425  0.00  0.00    -0.241 OA
ATOM     13  HN  UNL d   1      -2.019   1.364  -0.400  1.00  0.00     0.195 HD
ATOM     14  C   UNL d   1       0.664  -0.145   0.557  0.00  0.00     0.087 A 
ATOM     15  C   UNL d   1       2.022   0.029   1.107  0.00  0.00     0.080 C 
BRANCH  10  16
ATOM     16  C   UNL d   1      -2.461  -1.288  -0.952  0.00  0.00     0.312 C 
ATOM     17  O   UNL d   1      -2.740  -2.460  -0.717  0.00  0.00    -0.258 OA
BRANCH  16  18
ATOM     18  O   UNL d   1      -3.186  -0.489  -1.792  0.00  0.00    -0.321 OA
ATOM     19  C   UNL d   1      -4.241  -1.161  -2.479  0.00  0.00     0.213 C 
ENDBRANCH  16  18
ENDBRANCH  10  16
ENDBRANCH   1   9
BRANCH   3  20
ATOM     20  C   UNL d   1      -1.339  -4.462  -2.874  0.00  0.00     0.035 A 
ATOM     21  C   UNL d   1      -2.048  -5.390  -2.102  0.00  0.00     0.033 A 
ATOM     22  C   UNL d   1      -2.905  -6.317  -2.705  0.00  0.00     0.049 A 
ATOM     23  C   UNL d   1      -3.047  -6.294  -4.102  0.00  0.00     0.032 A 
ATOM     24  C   UNL d   1      -2.366  -5.345  -4.890  0.00  0.00     0.049 A 
ATOM     25  C   UNL d   1      -1.513  -4.427  -4.261  0.00  0.00     0.033 A 
BRANCH  22  26
ATOM     26  C   UNL d   1      -3.680  -7.303  -1.862  0.00  0.00     0.417 C 
ATOM     27  F   UNL d   1      -3.487  -7.148  -0.523  0.00  0.00    -0.166 F 
ATOM     28  F   UNL d   1      -5.023  -7.205  -2.059  0.00  0.00    -0.166 F 
ATOM     29  F   UNL d   1      -3.351  -8.593  -2.142  0.00  0.00    -0.166 F 
ENDBRANCH  22  26
BRANCH  24  30
ATOM     30  C   UNL d   1      -2.574  -5.309  -6.385  0.00  0.00     0.417 C 
ATOM     31  F   UNL d   1      -1.910  -4.295  -7.004  0.00  0.00    -0.166 F 
ATOM     32  F   UNL d   1      -2.162  -6.455  -6.992  0.00  0.00    -0.166 F 
ATOM     33  F   UNL d   1      -3.885  -5.156  -6.718  0.00  0.00    -0.166 F 
ENDBRANCH  24  30
ENDBRANCH   3  20
TORSDOF 6
