REMARK  7 active torsions:
REMARK  status: ('A' for Active; 'I' for Inactive)
REMARK    1  A    between atoms: N_2  and  C_1 
REMARK       I    between atoms: N_3  and  C_5 
REMARK    2  A    between atoms: C_4  and  N_3 
REMARK    3  A    between atoms: N_10  and  C_4 
REMARK    4  A    between atoms: C_5  and  C_8 
REMARK    5  A    between atoms: O_12  and  C_7 
REMARK    6  A    between atoms: N_9  and  N_10 
REMARK    7  A    between atoms: C_19  and  O_12 
ROOT
ATOM      1  C   UNL d   1       1.878  -0.750   0.792  0.00  0.00     0.137 A 
ATOM      2  C   UNL d   1       0.862  -1.698   0.977  0.00  0.00     0.056 A 
ATOM      3  C   UNL d   1       1.594   0.565   0.414  0.00  0.00     0.109 A 
ATOM      4  C   UNL d   1      -0.475  -1.312   0.804  0.00  0.00     0.035 A 
ATOM      5  C   UNL d   1       0.261   0.917   0.182  0.00  0.00     0.041 A 
ATOM      6  C   UNL d   1      -0.765  -0.016   0.358  0.00  0.00     0.020 A 
ENDROOT
BRANCH   4   7
ATOM      7  C   UNL d   1      -1.565  -2.297   1.074  0.00  0.00     0.257 C 
ATOM      8  N   UNL d   1      -2.777  -1.749   1.498  0.00  0.00    -0.299 N 
ATOM      9  H   UNL d   1      -2.797  -0.791   1.819  0.00  0.00     0.171 HD
ATOM     10  O   UNL d   1      -1.302  -3.488   0.998  0.00  0.00    -0.267 OA
BRANCH   8  11
ATOM     11  C   UNL d   1      -4.055  -2.280   1.447  0.00  0.00     0.189 C 
ATOM     12  S   UNL d   1      -4.518  -3.792   0.921  0.00  0.00    -0.039 SA
BRANCH  11  13
ATOM     13  N   UNL d   1      -5.051  -1.401   1.839  0.00  0.00    -0.295 N 
ATOM     14  H   UNL d   1      -5.997  -1.783   1.839  0.00  0.00     0.183 HD
BRANCH  13  15
ATOM     15  N   UNL d   1      -4.795  -0.110   2.359  0.00  0.00    -0.225 NA
ATOM     16  C   UNL d   1      -5.759   0.229   3.444  0.00  0.00     0.140 C 
ATOM     17  C   UNL d   1      -7.170   0.614   2.955  0.00  0.00     0.183 C 
ATOM     18  O   UNL d   1      -7.123   1.645   1.964  0.00  0.00    -0.389 OA
ATOM     19  C   UNL d   1      -6.321   1.233   0.854  0.00  0.00     0.183 C 
ATOM     20  C   UNL d   1      -4.889   0.933   1.308  0.00  0.00     0.140 C 
ENDBRANCH  13  15
ENDBRANCH  11  13
ENDBRANCH   8  11
ENDBRANCH   4   7
BRANCH   1  21
ATOM     21  N   UNL d   1       3.245  -1.173   1.028  0.00  0.00    -0.113 N 
ATOM     22  O   UNL d   1       3.684  -2.067   0.296  0.00  0.00    -0.532 OA
ATOM     23  O   UNL d   1       3.858  -0.627   1.956  0.00  0.00    -0.532 OA
ENDBRANCH   1  21
BRANCH   3  24
ATOM     24  O   UNL d   1       2.475   1.612   0.441  0.00  0.00    -0.308 OA
BRANCH  24  25
ATOM     25  C   UNL d   1       3.504   1.712  -0.462  0.00  0.00     0.076 A 
ATOM     26  C   UNL d   1       3.727   0.887  -1.564  0.00  0.00     0.039 A 
ATOM     27  C   UNL d   1       4.863   1.086  -2.359  0.00  0.00     0.026 A 
ATOM     28  C   UNL d   1       5.750   2.123  -2.070  0.00  0.00     0.034 A 
ATOM     29  C   UNL d   1       5.506   2.980  -1.002  0.00  0.00     0.026 A 
ATOM     30 CL   UNL d   1       7.158   2.344  -3.034  0.00  0.00    -0.084 Cl
ATOM     31  C   UNL d   1       4.383   2.771  -0.201  0.00  0.00     0.039 A 
ENDBRANCH  24  25
ENDBRANCH   3  24
TORSDOF 7
