REMARK  10 active torsions:
REMARK  status: ('A' for Active; 'I' for Inactive)
REMARK    1  A    between atoms: C_2  and  S_1 
REMARK    2  A    between atoms: N_3  and  S_1 
REMARK    3  A    between atoms: C_13  and  N_3 
REMARK    4  A    between atoms: C_4  and  C_14 
REMARK    5  A    between atoms: C_5  and  C_16 
REMARK    6  A    between atoms: O_10  and  C_7 
REMARK    7  A    between atoms: C_14  and  O_10 
REMARK    8  A    between atoms: C_24  and  C_13 
REMARK    9  A    between atoms: O_25  and  C_15 
REMARK   10  A    between atoms: C_16  and  O_25 
ROOT
ATOM      1  C   UNL d   1       0.421  -0.290   1.728  0.00  0.00     0.110 A 
ATOM      2  C   UNL d   1       0.453  -1.657   2.076  0.00  0.00     0.064 A 
ATOM      3  C   UNL d   1       0.098   0.685   2.686  0.00  0.00     0.092 A 
ATOM      4  C   UNL d   1       0.167  -2.049   3.380  0.00  0.00     0.070 A 
ATOM      5  C   UNL d   1      -0.239   0.253   3.979  0.00  0.00     0.041 A 
ATOM      6  C   UNL d   1      -0.178  -1.096   4.327  0.00  0.00     0.039 A 
ENDROOT
BRANCH   1   7
ATOM      7  S   UNL d   1       0.971   0.155   0.092  0.00  0.00     0.244 S 
ATOM      8  O   UNL d   1       1.313  -1.078  -0.596  0.00  0.00    -0.206 OA
ATOM      9  O   UNL d   1       1.938   1.218   0.213  0.00  0.00    -0.206 OA
BRANCH   7  10
ATOM     10  N   UNL d   1      -0.396   0.783  -0.644  0.00  0.00    -0.210 NA
ATOM     11  H   UNL d   1      -0.295   1.781  -0.850  0.00  0.00     0.140 HD
BRANCH  10  12
ATOM     12  C   UNL d   1      -0.956   0.036  -1.791  0.00  0.00     0.161 C 
BRANCH  12  13
ATOM     13  C   UNL d   1      -1.915   0.862  -2.637  0.00  0.00     0.022 A 
ATOM     14  N   UNL d   1      -2.218   2.122  -2.221  0.00  0.00    -0.368 N 
ATOM     15  C   UNL d   1      -3.102   2.825  -2.965  0.00  0.00     0.088 A 
ATOM     16  HN  UNL d   1      -1.796   2.519  -1.382  1.00  0.00     0.165 HD
ATOM     17  C   UNL d   1      -3.698   2.345  -4.119  0.00  0.00     0.017 A 
ATOM     18  C   UNL d   1      -3.358   1.068  -4.549  0.00  0.00     0.003 A 
ATOM     19  C   UNL d   1      -2.455   0.315  -3.802  0.00  0.00     0.026 A 
ENDBRANCH  12  13
ENDBRANCH  10  12
ENDBRANCH   7  10
ENDBRANCH   1   7
BRANCH   3  20
ATOM     20  O   UNL d   1       0.149   2.011   2.336  0.00  0.00    -0.341 OA
BRANCH  20  21
ATOM     21  C   UNL d   1      -0.021   2.961   3.402  0.00  0.00     0.293 C 
BRANCH  21  22
ATOM     22  C   UNL d   1       0.269   4.397   2.988  0.00  0.00     0.408 C 
ATOM     23  F   UNL d   1      -0.043   4.650   1.701  0.00  0.00    -0.169 F 
ATOM     24  F   UNL d   1      -0.463   5.248   3.753  0.00  0.00    -0.169 F 
ATOM     25  F   UNL d   1       1.568   4.715   3.182  0.00  0.00    -0.169 F 
ENDBRANCH  21  22
ENDBRANCH  20  21
ENDBRANCH   3  20
BRANCH   4  26
ATOM     26  O   UNL d   1       0.307  -3.322   3.852  0.00  0.00    -0.342 OA
BRANCH  26  27
ATOM     27  C   UNL d   1      -0.268  -4.341   3.026  0.00  0.00     0.293 C 
BRANCH  27  28
ATOM     28  C   UNL d   1      -0.374  -5.656   3.796  0.00  0.00     0.408 C 
ATOM     29  F   UNL d   1      -0.133  -5.514   5.118  0.00  0.00    -0.169 F 
ATOM     30  F   UNL d   1      -1.616  -6.183   3.671  0.00  0.00    -0.169 F 
ATOM     31  F   UNL d   1       0.500  -6.572   3.318  0.00  0.00    -0.169 F 
ENDBRANCH  27  28
ENDBRANCH  26  27
ENDBRANCH   4  26
TORSDOF 10
