REMARK  6 active torsions:
REMARK  status: ('A' for Active; 'I' for Inactive)
REMARK    1  A    between atoms: C_2  and  C_1 
REMARK    2  A    between atoms: C_3  and  O_10 
REMARK    3  A    between atoms: C_5  and  C_4 
REMARK       I    between atoms: N_7  and  C_5 
REMARK       I    between atoms: C_6  and  N_8 
REMARK    4  A    between atoms: C_9  and  C_6 
REMARK    5  A    between atoms: N_8  and  N_7 
REMARK    6  A    between atoms: O_10  and  C_21 
ROOT
ATOM      1  C   UNL d   1       4.245  -5.623   0.427  0.00  0.00     0.270 C 
ATOM      2  N   UNL d   1       3.335  -4.703  -0.057  0.00  0.00    -0.263 N 
ATOM      3  O   UNL d   1       5.318  -5.272   0.921  0.00  0.00    -0.266 OA
ATOM      4  H   UNL d   1       2.519  -4.932  -0.620  0.00  0.00     0.190 HD
ENDROOT
BRANCH   2   5
ATOM      5  N   UNL d   1       3.673  -3.342   0.013  0.00  0.00    -0.263 N 
ATOM      6  C   UNL d   1       2.871  -2.432  -0.647  0.00  0.00     0.271 C 
ATOM      7  O   UNL d   1       1.872  -2.744  -1.281  0.00  0.00    -0.266 OA
ATOM      8  H   UNL d   1       4.539  -3.116   0.498  0.00  0.00     0.190 HD
BRANCH   6   9
ATOM      9  C   UNL d   1       3.254  -1.001  -0.523  0.00  0.00     0.048 A 
ATOM     10  C   UNL d   1       3.213  -0.128  -1.625  0.00  0.00     0.063 A 
ATOM     11  C   UNL d   1       3.407   1.252  -1.394  0.00  0.00     0.017 A 
ATOM     12  C   UNL d   1       3.675   1.741  -0.117  0.00  0.00     0.001 A 
ATOM     13  C   UNL d   1       3.760   0.862   0.957  0.00  0.00     0.001 A 
ATOM     14  C   UNL d   1       3.545  -0.503   0.758  0.00  0.00     0.018 A 
BRANCH  10  15
ATOM     15  C   UNL d   1       2.978  -0.573  -3.049  0.00  0.00     0.418 C 
ATOM     16  F   UNL d   1       3.193  -1.889  -3.302  0.00  0.00    -0.166 F 
ATOM     17  F   UNL d   1       3.824   0.079  -3.908  0.00  0.00    -0.166 F 
ATOM     18  F   UNL d   1       1.727  -0.277  -3.494  0.00  0.00    -0.166 F 
ENDBRANCH  10  15
ENDBRANCH   6   9
ENDBRANCH   2   5
BRANCH   1  19
ATOM     19  C   UNL d   1       3.889  -7.074   0.341  0.00  0.00     0.033 A 
ATOM     20  C   UNL d   1       2.588  -7.538   0.120  0.00  0.00     0.020 A 
ATOM     21  C   UNL d   1       2.311  -8.918   0.103  0.00  0.00     0.038 A 
ATOM     22  C   UNL d   1       3.337  -9.844   0.284  0.00  0.00     0.078 A 
ATOM     23  C   UNL d   1       4.632  -9.379   0.531  0.00  0.00     0.038 A 
ATOM     24  C   UNL d   1       4.909  -8.006   0.555  0.00  0.00     0.020 A 
BRANCH  22  25
ATOM     25  O   UNL d   1       3.230 -11.201   0.284  0.00  0.00    -0.255 OA
BRANCH  25  26
ATOM     26  C   UNL d   1       2.137 -11.828  -0.365  0.00  0.00     0.530 C 
ATOM     27  F   UNL d   1       1.593 -11.077  -1.345  0.00  0.00    -0.144 F 
ATOM     28  F   UNL d   1       2.582 -12.976  -0.926  0.00  0.00    -0.144 F 
ATOM     29  F   UNL d   1       1.184 -12.142   0.537  0.00  0.00    -0.144 F 
ENDBRANCH  25  26
ENDBRANCH  22  25
ENDBRANCH   1  19
TORSDOF 6
