REMARK  7 active torsions:
REMARK  status: ('A' for Active; 'I' for Inactive)
REMARK    1  A    between atoms: C_4  and  C_1 
REMARK    2  A    between atoms: C_5  and  C_1 
REMARK    3  A    between atoms: O_13  and  N_2 
REMARK    4  A    between atoms: O_10  and  C_11 
REMARK    5  A    between atoms: C_18  and  O_10 
REMARK    6  A    between atoms: O_19  and  C_12 
REMARK    7  A    between atoms: C_20  and  C_18 
ROOT
ATOM      1  C   UNL d   1       0.900  -0.062   0.022  0.00  0.00     0.074 C 
ATOM      2  N   UNL d   1       0.176  -0.883  -0.690  0.00  0.00    -0.268 N 
ATOM      3  HN  UNL d   1      -0.843  -0.862  -0.700  1.00  0.00     0.194 HD
ENDROOT
BRANCH   1   4
ATOM      4  C   UNL d   1       0.151   1.002   0.773  0.00  0.00    -0.007 A 
ATOM      5  C   UNL d   1       0.585   1.490   2.009  0.00  0.00     0.016 A 
ATOM      6  C   UNL d   1      -0.155   2.475   2.680  0.00  0.00     0.037 A 
ATOM      7  C   UNL d   1      -1.337   2.968   2.123  0.00  0.00     0.068 A 
ATOM      8  C   UNL d   1      -1.766   2.483   0.888  0.00  0.00     0.037 A 
ATOM      9  C   UNL d   1      -1.034   1.500   0.220  0.00  0.00     0.016 A 
BRANCH   7  10
ATOM     10  O   UNL d   1      -2.142   3.927   2.673  0.00  0.00    -0.356 OA
ATOM     11  C   UNL d   1      -1.988   4.157   4.067  0.00  0.00     0.210 C 
ENDBRANCH   7  10
ENDBRANCH   1   4
BRANCH   1  12
ATOM     12  C   UNL d   1       2.393  -0.103   0.130  0.00  0.00    -0.007 A 
ATOM     13  C   UNL d   1       3.150   1.070   0.018  0.00  0.00     0.016 A 
ATOM     14  C   UNL d   1       4.547   1.014   0.123  0.00  0.00     0.037 A 
ATOM     15  C   UNL d   1       5.200  -0.205   0.316  0.00  0.00     0.068 A 
ATOM     16  C   UNL d   1       4.443  -1.372   0.425  0.00  0.00     0.037 A 
ATOM     17  C   UNL d   1       3.048  -1.318   0.349  0.00  0.00     0.016 A 
BRANCH  15  18
ATOM     18  O   UNL d   1       6.566  -0.130   0.386  0.00  0.00    -0.351 OA
BRANCH  18  19
ATOM     19  C   UNL d   1       7.268  -1.375   0.427  0.00  0.00     0.179 C 
BRANCH  19  20
ATOM     20  C   UNL d   1       8.781  -1.121   0.492  0.00  0.00     0.002 C 
ATOM     21  C   UNL d   1       9.167  -0.379   1.773  0.00  0.00     0.011 C 
ATOM     22  C   UNL d   1       9.535  -2.448   0.402  0.00  0.00     0.011 C 
ENDBRANCH  19  20
ENDBRANCH  18  19
ENDBRANCH  15  18
ENDBRANCH   1  12
BRANCH   2  23
ATOM     23  O   UNL d   1       0.927  -1.793  -1.438  0.00  0.00    -0.289 OA
ATOM     24  H   UNL d   1       0.235  -2.319  -1.878  0.00  0.00     0.244 HD
ENDBRANCH   2  23
TORSDOF 7
