REMARK  4 active torsions:
REMARK  status: ('A' for Active; 'I' for Inactive)
REMARK    1  A    between atoms: C_2  and  N_1 
REMARK    2  A    between atoms: O_8  and  C_3 
REMARK    3  A    between atoms: C_5  and  C_13 
REMARK    4  A    between atoms: C_18  and  O_8 
ROOT
ATOM      1  C   UNL d   1      -3.480  -0.897   1.363  0.00  0.00     0.138 A 
ATOM      2  C   UNL d   1      -2.612  -1.796   0.737  0.00  0.00     0.109 A 
ATOM      3  N   UNL d   1      -7.944  -2.708   0.836  0.00  0.00    -0.191 NA
ATOM      4  C   UNL d   1      -6.799  -2.521   0.846  0.00  0.00     0.099 C 
ATOM      5  C   UNL d   1      -4.862  -1.126   1.421  0.00  0.00     0.061 A 
ATOM      6  C   UNL d   1      -3.146  -2.989   0.226  0.00  0.00     0.041 A 
ATOM      7  C   UNL d   1      -5.385  -2.285   0.843  0.00  0.00     0.047 A 
ATOM      8  C   UNL d   1      -4.523  -3.219   0.256  0.00  0.00     0.025 A 
ENDROOT
BRANCH   1   9
ATOM      9  N   UNL d   1      -2.966   0.311   1.975  0.00  0.00    -0.113 N 
ATOM     10  O   UNL d   1      -2.362   1.108   1.246  0.00  0.00    -0.532 OA
ATOM     11  O   UNL d   1      -3.227   0.482   3.172  0.00  0.00    -0.532 OA
ENDBRANCH   1   9
BRANCH   2  12
ATOM     12  O   UNL d   1      -1.264  -1.525   0.682  0.00  0.00    -0.308 OA
BRANCH  12  13
ATOM     13  C   UNL d   1      -0.589  -1.838  -0.480  0.00  0.00     0.076 A 
ATOM     14  C   UNL d   1      -1.136  -1.676  -1.755  0.00  0.00     0.038 A 
ATOM     15  C   UNL d   1      -0.412  -2.068  -2.882  0.00  0.00     0.012 A 
ATOM     16  C   UNL d   1       0.888  -2.585  -2.761  0.00  0.00    -0.035 A 
ATOM     17  C   UNL d   1       1.449  -2.678  -1.474  0.00  0.00     0.012 A 
ATOM     18  C   UNL d   1       0.716  -2.308  -0.342  0.00  0.00     0.038 A 
BRANCH  16  19
ATOM     19  C   UNL d   1       1.653  -2.960  -4.014  0.00  0.00     0.141 C 
ATOM     20  S   UNL d   1       2.361  -4.637  -3.961  0.00  0.00    -0.148 SA
ATOM     21  C   UNL d   1       3.895  -4.224  -4.829  0.00  0.00     0.085 C 
ATOM     22  C   UNL d   1       4.356  -2.881  -4.303  0.00  0.00     0.085 C 
ATOM     23  S   UNL d   1       2.954  -1.740  -4.397  0.00  0.00    -0.148 SA
ENDBRANCH  16  19
ENDBRANCH  12  13
ENDBRANCH   2  12
TORSDOF 4
