REMARK  6 active torsions:
REMARK  status: ('A' for Active; 'I' for Inactive)
REMARK    1  A    between atoms: C_5  and  C_13 
REMARK    2  A    between atoms: C_13  and  C_6 
REMARK    3  A    between atoms: C_7  and  C_14 
REMARK    4  A    between atoms: C_8  and  C_15 
REMARK    5  A    between atoms: C_9  and  C_16 
REMARK    6  A    between atoms: C_10  and  C_17 
ROOT
ATOM      1  C   UNL d   1       0.077  -2.502  -0.046  0.00  0.00     0.167 C 
ENDROOT
BRANCH   1   2
ATOM      2  C   UNL d   1      -1.270  -3.131   0.073  0.00  0.00     0.122 C 
ATOM      3  N   UNL d   1      -1.619  -3.934   1.030  0.00  0.00    -0.362 N 
ATOM      4  C   UNL d   1      -2.942  -4.433   0.569  0.00  0.00     0.150 C 
ATOM      5  HN  UNL d   1      -1.112  -4.165   1.885  1.00  0.00     0.162 HD
ATOM      6  C   UNL d   1      -3.389  -3.358  -0.444  0.00  0.00     0.190 C 
ATOM      7  O   UNL d   1      -2.137  -2.869  -0.935  0.00  0.00    -0.327 OA
BRANCH   4   8
ATOM      8  C   UNL d   1      -2.791  -5.867   0.066  0.00  0.00    -0.033 A 
ATOM      9  C   UNL d   1      -3.477  -6.912   0.705  0.00  0.00     0.009 A 
ATOM     10  C   UNL d   1      -3.269  -8.241   0.321  0.00  0.00     0.001 A 
ATOM     11  C   UNL d   1      -2.380  -8.542  -0.709  0.00  0.00     0.000 A 
ATOM     12  C   UNL d   1      -1.718  -7.516  -1.374  0.00  0.00     0.001 A 
ATOM     13  C   UNL d   1      -1.925  -6.190  -0.994  0.00  0.00     0.009 A 
ENDBRANCH   4   8
BRANCH   6  14
ATOM     14  C   UNL d   1      -4.335  -3.810  -1.535  0.00  0.00    -0.027 A 
ATOM     15  C   UNL d   1      -3.994  -3.706  -2.890  0.00  0.00     0.010 A 
ATOM     16  C   UNL d   1      -4.810  -4.268  -3.872  0.00  0.00     0.001 A 
ATOM     17  C   UNL d   1      -5.995  -4.907  -3.515  0.00  0.00     0.000 A 
ATOM     18  C   UNL d   1      -6.389  -4.944  -2.180  0.00  0.00     0.001 A 
ATOM     19  C   UNL d   1      -5.570  -4.389  -1.195  0.00  0.00     0.010 A 
ENDBRANCH   6  14
ENDBRANCH   1   2
BRANCH   1  20
ATOM     20  C   UNL d   1       0.052  -1.023  -0.053  0.00  0.00     0.122 C 
ATOM     21  N   UNL d   1      -1.003  -0.283   0.096  0.00  0.00    -0.362 N 
ATOM     22  C   UNL d   1      -0.509   1.069  -0.228  0.00  0.00     0.150 C 
ATOM     23  HN  UNL d   1      -1.944  -0.566   0.370  1.00  0.00     0.162 HD
ATOM     24  C   UNL d   1       1.006   0.957   0.010  0.00  0.00     0.190 C 
ATOM     25  O   UNL d   1       1.260  -0.428  -0.254  0.00  0.00    -0.327 OA
BRANCH  22  26
ATOM     26  C   UNL d   1      -0.954   1.466  -1.634  0.00  0.00    -0.033 A 
ATOM     27  C   UNL d   1      -1.772   2.590  -1.823  0.00  0.00     0.009 A 
ATOM     28  C   UNL d   1      -2.171   2.971  -3.106  0.00  0.00     0.001 A 
ATOM     29  C   UNL d   1      -1.762   2.236  -4.216  0.00  0.00     0.000 A 
ATOM     30  C   UNL d   1      -0.955   1.115  -4.045  0.00  0.00     0.001 A 
ATOM     31  C   UNL d   1      -0.556   0.733  -2.766  0.00  0.00     0.009 A 
ENDBRANCH  22  26
BRANCH  24  32
ATOM     32  C   UNL d   1       1.877   1.922  -0.760  0.00  0.00    -0.027 A 
ATOM     33  C   UNL d   1       1.696   3.305  -0.580  0.00  0.00     0.010 A 
ATOM     34  C   UNL d   1       2.420   4.227  -1.335  0.00  0.00     0.001 A 
ATOM     35  C   UNL d   1       3.352   3.780  -2.267  0.00  0.00     0.000 A 
ATOM     36  C   UNL d   1       3.569   2.414  -2.434  0.00  0.00     0.001 A 
ATOM     37  C   UNL d   1       2.840   1.488  -1.682  0.00  0.00     0.010 A 
ENDBRANCH  24  32
ENDBRANCH   1  20
TORSDOF 6
