REMARK  5 active torsions:
REMARK  status: ('A' for Active; 'I' for Inactive)
REMARK    1  A    between atoms: C_6  and  C_1 
REMARK    2  A    between atoms: N_2  and  C_5 
REMARK    3  A    between atoms: O_7  and  C_4 
REMARK    4  A    between atoms: O_18  and  C_6 
REMARK    5  A    between atoms: C_12  and  O_7 
ROOT
ATOM      1  C   UNL d   1       1.373  -0.333   0.264  0.00  0.00     0.073 A 
ATOM      2  C   UNL d   1       0.441  -1.391   0.273  0.00  0.00     0.057 A 
ATOM      3  C   UNL d   1       0.909   0.982   0.053  0.00  0.00     0.093 A 
ATOM      4  C   UNL d   1      -0.926  -1.136   0.111  0.00  0.00     0.104 A 
ATOM      5  C   UNL d   1      -0.474   1.228  -0.011  0.00  0.00     0.041 A 
ATOM      6  C   UNL d   1      -1.390   0.175  -0.007  0.00  0.00     0.039 A 
ENDROOT
BRANCH   3   7
ATOM      7  O   UNL d   1       1.820   2.019  -0.038  0.00  0.00    -0.308 OA
BRANCH   7   8
ATOM      8  C   UNL d   1       1.542   3.090  -0.861  0.00  0.00     0.093 A 
ATOM      9  C   UNL d   1       0.916   2.994  -2.107  0.00  0.00     0.064 A 
ATOM     10  C   UNL d   1       0.665   4.155  -2.833  0.00  0.00     0.052 A 
ATOM     11 CL   UNL d   1      -0.177   4.082  -4.328  0.00  0.00    -0.083 Cl
ATOM     12  C   UNL d   1       1.090   5.369  -2.316  0.00  0.00     0.111 A 
ATOM     13  N   UNL d   1       1.739   5.491  -1.132  0.00  0.00    -0.371 N 
ATOM     14  C   UNL d   1       1.952   4.349  -0.436  0.00  0.00     0.124 A 
ATOM     15  HN  UNL d   1       2.051   6.397  -0.783  1.00  0.00     0.164 HD
ENDBRANCH   7   8
ENDBRANCH   3   7
BRANCH   1  16
ATOM     16  C   UNL d   1       2.796  -0.726   0.513  0.00  0.00     0.179 C 
ATOM     17  O   UNL d   1       3.112  -1.881   0.746  0.00  0.00    -0.646 OA
BRANCH  16  18
ATOM     18  O   UNL d   1       3.705   0.266   0.491  0.00  0.00    -0.773 OA
ATOM     19  H   UNL d   1       3.356   1.159   0.308  0.00  0.00     0.167 HD
ENDBRANCH  16  18
ENDBRANCH   1  16
BRANCH   4  20
ATOM     20  N   UNL d   1      -1.884  -2.249   0.071  0.00  0.00    -0.116 N 
ATOM     21  O   UNL d   1      -1.437  -3.399   0.168  0.00  0.00    -0.532 OA
ATOM     22  O   UNL d   1      -3.082  -1.967  -0.072  0.00  0.00    -0.532 OA
ENDBRANCH   4  20
TORSDOF 5
