REMARK  7 active torsions:
REMARK  status: ('A' for Active; 'I' for Inactive)
REMARK    1  A    between atoms: S_8  and  C_1 
REMARK    2  A    between atoms: C_15  and  N_4 
REMARK    3  A    between atoms: C_7  and  C_9 
REMARK    4  A    between atoms: C_21  and  S_8 
REMARK    5  A    between atoms: C_12  and  C_21 
REMARK       I    between atoms: N_13  and  C_12 
REMARK    6  A    between atoms: C_24  and  N_13 
REMARK    7  A    between atoms: C_25  and  C_16 
ROOT
ATOM      1  C   UNL d   1       4.388   0.592   3.018  0.00  0.00     0.148 C 
ATOM      2  N   UNL d   1       5.266   1.477   3.428  0.00  0.00    -0.335 N 
ATOM      3  HN  UNL d   1       5.944   1.988   2.862  1.00  0.00     0.168 HD
ATOM      4  N   UNL d   1       3.716  -0.002   4.063  0.00  0.00    -0.321 N 
ATOM      5  C   UNL d   1       5.073   1.568   4.778  0.00  0.00     0.062 A 
ATOM      6  C   UNL d   1       4.085   0.685   5.209  0.00  0.00     0.063 A 
ATOM      7  C   UNL d   1       5.326   2.376   7.047  0.00  0.00     0.050 A 
ATOM      8  C   UNL d   1       5.714   2.411   5.697  0.00  0.00     0.048 A 
ATOM      9  C   UNL d   1       3.679   0.629   6.548  0.00  0.00     0.033 A 
ATOM     10  C   UNL d   1       4.311   1.495   7.451  0.00  0.00     0.018 A 
ENDROOT
BRANCH   1  11
ATOM     11  S   UNL d   1       4.106   0.244   1.344  0.00  0.00    -0.084 SA
BRANCH  11  12
ATOM     12  C   UNL d   1       4.812   1.729   0.561  0.00  0.00     0.185 C 
BRANCH  12  13
ATOM     13  C   UNL d   1       6.278   1.522   0.220  0.00  0.00     0.231 C 
ATOM     14  N   UNL d   1       7.116   1.501   1.327  0.00  0.00    -0.327 N 
ATOM     15  H   UNL d   1       6.649   1.477   2.234  0.00  0.00     0.169 HD
ATOM     16  O   UNL d   1       6.622   1.381  -0.951  0.00  0.00    -0.272 OA
BRANCH  14  17
ATOM     17  C   UNL d   1       8.484   1.162   1.308  0.00  0.00     0.034 A 
ATOM     18  C   UNL d   1       9.271   1.244   0.163  0.00  0.00     0.030 A 
ATOM     19  C   UNL d   1      10.569   0.729   0.158  0.00  0.00     0.010 A 
ATOM     20  C   UNL d   1      11.098   0.108   1.296  0.00  0.00    -0.055 A 
ATOM     21  C   UNL d   1      10.344   0.130   2.477  0.00  0.00     0.010 A 
ATOM     22  C   UNL d   1       9.051   0.667   2.487  0.00  0.00     0.030 A 
BRANCH  20  23
ATOM     23  C   UNL d   1      12.408  -0.656   1.233  0.00  0.00     0.010 C 
ATOM     24  C   UNL d   1      12.315  -1.782   0.192  0.00  0.00     0.015 C 
ATOM     25  C   UNL d   1      13.604   0.252   0.947  0.00  0.00     0.015 C 
ENDBRANCH  20  23
ENDBRANCH  14  17
ENDBRANCH  12  13
ENDBRANCH  11  12
ENDBRANCH   1  11
BRANCH   4  26
ATOM     26  C   UNL d   1       2.831  -1.162   3.988  0.00  0.00     0.084 C 
ATOM     27  C   UNL d   1       3.340  -2.333   4.834  0.00  0.00     0.032 C 
ATOM     28  C   UNL d   1       1.377  -0.819   4.308  0.00  0.00     0.032 C 
ENDBRANCH   4  26
BRANCH   7  29
ATOM     29  C   UNL d   1       5.979   3.289   8.055  0.00  0.00     0.417 C 
ATOM     30  F   UNL d   1       7.002   4.029   7.543  0.00  0.00    -0.166 F 
ATOM     31  F   UNL d   1       5.102   4.183   8.588  0.00  0.00    -0.166 F 
ATOM     32  F   UNL d   1       6.505   2.607   9.110  0.00  0.00    -0.166 F 
ENDBRANCH   7  29
TORSDOF 7
