REMARK  4 active torsions:
REMARK  status: ('A' for Active; 'I' for Inactive)
REMARK    1  A    between atoms: C_7  and  N_1 
REMARK    2  A    between atoms: S_13  and  C_6 
REMARK    3  A    between atoms: S_9  and  C_7 
REMARK    4  A    between atoms: C_8  and  S_9 
ROOT
ATOM      1  C   UNL d   1      -0.105  -2.531  -0.042  0.00  0.00     0.230 C 
ENDROOT
BRANCH   1   2
ATOM      2  N   UNL d   1       0.384  -1.143  -0.116  0.00  0.00    -0.265 N 
ATOM      3  C   UNL d   1      -0.054  -0.079   0.659  0.00  0.00     0.162 A 
ATOM      4  S   UNL d   1       0.853   1.357   0.214  0.00  0.00    -0.033 SA
ATOM      5  S   UNL d   1      -1.245  -0.061   1.824  0.00  0.00    -0.051 SA
ATOM      6  C   UNL d   1       1.655   0.414  -0.996  0.00  0.00     0.129 A 
ATOM      7  N   UNL d   1       1.324  -0.832  -1.085  0.00  0.00    -0.284 N 
ATOM      8  HN  UNL d   1       1.700  -1.490  -1.769  1.00  0.00     0.188 HD
BRANCH   6   9
ATOM      9  S   UNL d   1       2.829   1.187  -2.008  0.00  0.00    -0.108 SA
ATOM     10  C   UNL d   1       3.343  -0.211  -3.028  0.00  0.00     0.097 C 
ENDBRANCH   6   9
ENDBRANCH   1   2
BRANCH   1  11
ATOM     11  S   UNL d   1       1.284  -3.710   0.114  0.00  0.00    -0.105 SA
BRANCH  11  12
ATOM     12  C   UNL d   1       0.674  -5.348  -0.374  0.00  0.00     0.045 A 
ATOM     13  C   UNL d   1      -0.618  -5.866  -0.146  0.00  0.00     0.052 A 
ATOM     14 CL   UNL d   1      -1.923  -4.977   0.554  0.00  0.00    -0.083 Cl
ATOM     15  C   UNL d   1      -0.931  -7.209  -0.439  0.00  0.00     0.025 A 
ATOM     16  C   UNL d   1       0.027  -8.075  -0.951  0.00  0.00     0.003 A 
ATOM     17  C   UNL d   1       1.303  -7.595  -1.198  0.00  0.00     0.025 A 
ATOM     18  C   UNL d   1       1.624  -6.256  -0.922  0.00  0.00     0.052 A 
ATOM     19 CL   UNL d   1       3.266  -5.807  -1.290  0.00  0.00    -0.083 Cl
ENDBRANCH  11  12
ENDBRANCH   1  11
TORSDOF 4
