REMARK  6 active torsions:
REMARK  status: ('A' for Active; 'I' for Inactive)
REMARK    1  A    between atoms: S_16  and  C_4 
REMARK    2  A    between atoms: O_17  and  C_6 
REMARK    3  A    between atoms: C_8  and  C_7 
REMARK    4  A    between atoms: O_18  and  C_9 
REMARK    5  A    between atoms: O_20  and  C_11 
REMARK    6  A    between atoms: O_19  and  C_12 
ROOT
ATOM      1  N   UNL d   1      -0.860   0.579  -0.050  0.00  0.00    -0.352 N 
ATOM      2  HN  UNL d   1      -1.602   1.277  -0.000  1.00  0.00     0.163 HD
ATOM      3  C   UNL d   1       1.595   0.118  -0.135  0.00  0.00     0.118 C 
ATOM      4  C   UNL d   1       1.518  -1.194  -0.435  0.00  0.00     0.064 C 
ATOM      5  S   UNL d   1       0.020  -2.002  -0.785  0.00  0.00    -0.091 SA
ATOM      6  C   UNL d   1       0.360   0.939  -0.055  0.00  0.00     0.160 C 
ATOM      7  C   UNL d   1      -1.188  -0.835  -0.115  0.00  0.00     0.185 C 
ATOM      8  C   UNL d   1       2.833   0.774   0.088  0.00  0.00     0.105 C 
ATOM      9  N   UNL d   1       3.788   1.395   0.286  0.00  0.00    -0.191 NA
ENDROOT
BRANCH   6  10
ATOM     10  O   UNL d   1       0.543   2.274   0.057  0.00  0.00    -0.345 OA
ATOM     11  H   UNL d   1       1.454   2.610   0.077  0.00  0.00     0.219 HD
ENDBRANCH   6  10
BRANCH   4  12
ATOM     12  S   UNL d   1       2.981  -2.155  -0.654  0.00  0.00    -0.126 SA
ATOM     13  C   UNL d   1       2.756  -3.461   0.577  0.00  0.00     0.096 C 
ENDBRANCH   4  12
BRANCH   7  14
ATOM     14  C   UNL d   1      -1.747  -1.325   1.212  0.00  0.00    -0.020 A 
ATOM     15  C   UNL d   1      -1.128  -1.033   2.438  0.00  0.00     0.050 A 
ATOM     16  C   UNL d   1      -1.704  -1.410   3.662  0.00  0.00     0.104 A 
ATOM     17  C   UNL d   1      -2.910  -2.140   3.658  0.00  0.00     0.135 A 
ATOM     18  C   UNL d   1      -3.513  -2.481   2.426  0.00  0.00     0.104 A 
ATOM     19  C   UNL d   1      -2.937  -2.060   1.225  0.00  0.00     0.050 A 
BRANCH  16  20
ATOM     20  O   UNL d   1      -1.162  -1.060   4.871  0.00  0.00    -0.353 OA
ATOM     21  C   UNL d   1       0.045  -0.309   4.886  0.00  0.00     0.210 C 
ENDBRANCH  16  20
BRANCH  17  22
ATOM     22  O   UNL d   1      -3.633  -2.503   4.772  0.00  0.00    -0.351 OA
ATOM     23  C   UNL d   1      -2.911  -2.855   5.944  0.00  0.00     0.210 C 
ENDBRANCH  17  22
BRANCH  18  24
ATOM     24  O   UNL d   1      -4.683  -3.205   2.472  0.00  0.00    -0.353 OA
ATOM     25  C   UNL d   1      -5.017  -3.927   1.290  0.00  0.00     0.210 C 
ENDBRANCH  18  24
ENDBRANCH   7  14
TORSDOF 6
