REMARK  5 active torsions:
REMARK  status: ('A' for Active; 'I' for Inactive)
REMARK    1  A    between atoms: C_6  and  N_2 
REMARK    2  A    between atoms: C_10  and  C_6 
REMARK    3  A    between atoms: S_7  and  C_8 
REMARK    4  A    between atoms: C_9  and  S_7 
REMARK    5  A    between atoms: C_8  and  C_10 
ROOT
ATOM      1  C   UNL d   1       3.742  -2.315   0.017  0.00  0.00     0.111 C 
ENDROOT
BRANCH   1   2
ATOM      2  C   UNL d   1       3.945  -3.815  -0.122  0.00  0.00     0.192 C 
ATOM      3  O   UNL d   1       3.027  -4.622  -0.167  0.00  0.00    -0.285 OA
BRANCH   2   4
ATOM      4  S   UNL d   1       5.617  -4.342  -0.239  0.00  0.00    -0.051 SA
BRANCH   4   5
ATOM      5  C   UNL d   1       5.800  -4.929  -1.934  0.00  0.00     0.030 A 
ATOM      6  C   UNL d   1       6.995  -5.551  -2.364  0.00  0.00     0.052 A 
ATOM      7  C   UNL d   1       7.206  -5.865  -3.715  0.00  0.00     0.049 A 
ATOM      8 CL   UNL d   1       8.281  -5.957  -1.274  0.00  0.00    -0.083 Cl
ATOM      9  C   UNL d   1       6.225  -5.568  -4.653  0.00  0.00     0.035 A 
ATOM     10  C   UNL d   1       5.018  -5.011  -4.248  0.00  0.00     0.025 A 
ATOM     11 CL   UNL d   1       6.509  -5.871  -6.322  0.00  0.00    -0.084 Cl
ATOM     12  C   UNL d   1       4.803  -4.705  -2.899  0.00  0.00     0.022 A 
ENDBRANCH   4   5
ENDBRANCH   2   4
ENDBRANCH   1   2
BRANCH   1  13
ATOM     13  C   UNL d   1       2.246  -2.021   0.160  0.00  0.00     0.143 C 
BRANCH  13  14
ATOM     14  N   UNL d   1       1.826  -0.631   0.207  0.00  0.00    -0.290 N 
ATOM     15  C   UNL d   1       2.443   0.467  -0.380  0.00  0.00     0.372 A 
ATOM     16  O   UNL d   1       1.579   1.570  -0.438  0.00  0.00    -0.259 OA
ATOM     17  O   UNL d   1       3.582   0.504  -0.825  0.00  0.00    -0.237 OA
ATOM     18  C   UNL d   1       0.388   1.050   0.038  0.00  0.00     0.107 A 
ATOM     19  C   UNL d   1      -0.824   1.709   0.057  0.00  0.00     0.040 A 
ATOM     20  C   UNL d   1       0.511  -0.262   0.445  0.00  0.00     0.073 A 
ATOM     21  C   UNL d   1      -1.937   1.001   0.518  0.00  0.00     0.003 A 
ATOM     22  C   UNL d   1      -1.809  -0.331   0.953  0.00  0.00     0.002 A 
ATOM     23  C   UNL d   1      -0.570  -0.980   0.918  0.00  0.00     0.033 A 
ENDBRANCH  13  14
ENDBRANCH   1  13
TORSDOF 5
