REMARK  3 active torsions:
REMARK  status: ('A' for Active; 'I' for Inactive)
REMARK    1  A    between atoms: C_2  and  N_1 
REMARK    2  A    between atoms: S_4  and  C_3 
REMARK    3  A    between atoms: C_5  and  S_4 
ROOT
ATOM      1  C   UNL d   1      -2.836  -3.489  -2.498  0.00  0.00     0.136 A 
ATOM      2  C   UNL d   1      -2.275  -2.230  -2.681  0.00  0.00     0.108 A 
ATOM      3  N   UNL d   1      -2.359  -1.610  -3.890  0.00  0.00    -0.358 N 
ATOM      4  HN  UNL d   1      -1.964  -0.680  -4.028  1.00  0.00     0.166 HD
ATOM      5  C   UNL d   1      -3.457  -4.158  -3.559  0.00  0.00     0.040 A 
ATOM      6  C   UNL d   1      -2.981  -2.257  -4.904  0.00  0.00     0.089 A 
ATOM      7  C   UNL d   1      -3.530  -3.522  -4.792  0.00  0.00     0.020 A 
ENDROOT
BRANCH   2   8
ATOM      8  S   UNL d   1      -1.427  -1.324  -1.396  0.00  0.00    -0.068 SA
BRANCH   8   9
ATOM      9  C   UNL d   1      -0.332  -0.241  -2.311  0.00  0.00     0.029 A 
ATOM     10  C   UNL d   1       0.999  -0.562  -2.609  0.00  0.00     0.052 A 
ATOM     11  C   UNL d   1       1.831   0.374  -3.231  0.00  0.00     0.049 A 
ATOM     12 CL   UNL d   1       1.688  -2.103  -2.225  0.00  0.00    -0.083 Cl
ATOM     13  C   UNL d   1       1.343   1.637  -3.576  0.00  0.00     0.041 A 
ATOM     14  C   UNL d   1       0.008   1.977  -3.320  0.00  0.00    -0.039 A 
ATOM     15 CL   UNL d   1       2.451   2.741  -4.308  0.00  0.00    -0.084 Cl
ATOM     16  C   UNL d   1      -0.813   1.027  -2.678  0.00  0.00     0.029 A 
ATOM     17  C   UNL d   1      -0.606   3.300  -3.686  0.00  0.00     0.050 C 
ENDBRANCH   8   9
ENDBRANCH   2   8
BRANCH   1  18
ATOM     18  N   UNL d   1      -2.828  -4.136  -1.210  0.00  0.00    -0.113 N 
ATOM     19  O   UNL d   1      -3.468  -3.593  -0.298  0.00  0.00    -0.532 OA
ATOM     20  O   UNL d   1      -2.255  -5.229  -1.136  0.00  0.00    -0.532 OA
ENDBRANCH   1  18
TORSDOF 3
