REMARK  4 active torsions:
REMARK  status: ('A' for Active; 'I' for Inactive)
REMARK    1  A    between atoms: S_12  and  C_1 
REMARK    2  A    between atoms: C_2  and  S_12 
REMARK    3  A    between atoms: N_15  and  C_7 
REMARK    4  A    between atoms: N_22  and  C_18 
ROOT
ATOM      1  C   UNL d   1       4.539   1.792  -0.055  0.00  0.00     0.136 A 
ATOM      2  S   UNL d   1       4.306   2.487   1.491  0.00  0.00    -0.026 SA
ATOM      3  C   UNL d   1       4.906   3.975   0.843  0.00  0.00     0.166 A 
ATOM      4  N   UNL d   1       5.075   2.603  -0.940  0.00  0.00    -0.286 N 
ATOM      5  HN  UNL d   1       5.314   2.332  -1.894  1.00  0.00     0.188 HD
ATOM      6  N   UNL d   1       5.277   3.868  -0.422  0.00  0.00    -0.278 N 
ATOM      7  HN  UNL d   1       5.671   4.640  -0.959  1.00  0.00     0.189 HD
ENDROOT
BRANCH   1   8
ATOM      8  S   UNL d   1       4.262   0.108  -0.425  0.00  0.00    -0.038 SA
BRANCH   8   9
ATOM      9  C   UNL d   1       2.511   0.122  -0.505  0.00  0.00     0.120 A 
ATOM     10  N   UNL d   1       1.770   1.123  -0.095  0.00  0.00    -0.342 N 
ATOM     11  C   UNL d   1       0.420   0.834  -0.257  0.00  0.00     0.072 A 
ATOM     12  HN  UNL d   1       2.134   1.995   0.290  1.00  0.00     0.167 HD
ATOM     13  C   UNL d   1      -0.693   1.643   0.062  0.00  0.00     0.063 A 
ATOM     14  C   UNL d   1       0.156  -0.427  -0.802  0.00  0.00     0.037 A 
ATOM     15  C   UNL d   1      -2.002   1.221  -0.161  0.00  0.00     0.050 A 
ATOM     16 CL   UNL d   1      -0.349   3.175   0.738  0.00  0.00    -0.082 Cl
ATOM     17  C   UNL d   1      -2.219  -0.037  -0.707  0.00  0.00     0.037 A 
ATOM     18  C   UNL d   1      -1.155  -0.884  -1.034  0.00  0.00     0.045 A 
ATOM     19 CL   UNL d   1      -3.831  -0.570  -0.991  0.00  0.00    -0.084 Cl
ATOM     20  S   UNL d   1       1.647  -1.236  -1.099  0.00  0.00    -0.063 SA
ENDBRANCH   8   9
ENDBRANCH   1   8
BRANCH   3  21
ATOM     21  N   UNL d   1       4.945   5.053   1.669  0.00  0.00    -0.332 N 
ATOM     22  C   UNL d   1       5.489   6.116   1.178  0.00  0.00     0.179 C 
ATOM     23  HN  UNL d   1       4.569   5.025   2.616  1.00  0.00     0.168 HD
BRANCH  22  24
ATOM     24  N   UNL d   1       5.634   7.322   1.829  0.00  0.00    -0.386 N 
ATOM     25  C   UNL d   1       6.241   8.475   1.188  0.00  0.00     0.149 C 
ATOM     26  C   UNL d   1       5.078   7.549   3.154  0.00  0.00     0.149 C 
ENDBRANCH  22  24
ENDBRANCH   3  21
TORSDOF 4
