REMARK  6 active torsions:
REMARK  status: ('A' for Active; 'I' for Inactive)
REMARK    1  A    between atoms: C_8  and  S_1 
REMARK    2  A    between atoms: C_14  and  S_1 
REMARK    3  A    between atoms: N_2  and  C_4 
REMARK    4  A    between atoms: C_3  and  C_7 
REMARK    5  A    between atoms: O_11  and  C_5 
REMARK    6  A    between atoms: C_7  and  O_11 
ROOT
ATOM      1  C   UNL d   1      -0.199   4.244   0.980  0.00  0.00     0.136 A 
ATOM      2  C   UNL d   1      -1.206   3.319   0.656  0.00  0.00     0.114 A 
ATOM      3  C   UNL d   1       0.505   1.686   0.147  0.00  0.00     0.067 A 
ATOM      4  C   UNL d   1      -0.851   2.021   0.273  0.00  0.00     0.063 A 
ATOM      5  C   UNL d   1       1.155   3.918   0.794  0.00  0.00     0.040 A 
ATOM      6  C   UNL d   1       1.508   2.637   0.368  0.00  0.00     0.026 A 
ENDROOT
BRANCH   2   7
ATOM      7  O   UNL d   1      -2.559   3.746   0.731  0.00  0.00    -0.272 OA
BRANCH   7   8
ATOM      8  C   UNL d   1      -3.695   3.143   0.169  0.00  0.00     0.305 C 
ATOM      9  O   UNL d   1      -3.679   2.081  -0.446  0.00  0.00    -0.258 OA
BRANCH   8  10
ATOM     10  C   UNL d   1      -4.889   3.933   0.418  0.00  0.00     0.082 A 
ATOM     11  S   UNL d   1      -4.819   5.559   0.937  0.00  0.00    -0.084 SA
ATOM     12  C   UNL d   1      -6.529   5.696   1.051  0.00  0.00     0.016 A 
ATOM     13  C   UNL d   1      -7.263   6.813   1.495  0.00  0.00     0.019 A 
ATOM     14  C   UNL d   1      -7.160   4.519   0.646  0.00  0.00    -0.018 A 
ATOM     15  C   UNL d   1      -8.655   6.726   1.553  0.00  0.00     0.001 A 
ATOM     16  C   UNL d   1      -9.306   5.565   1.159  0.00  0.00     0.001 A 
ATOM     17  C   UNL d   1      -8.574   4.468   0.695  0.00  0.00     0.013 A 
ATOM     18  C   UNL d   1      -6.200   3.529   0.247  0.00  0.00     0.038 A 
ENDBRANCH   8  10
ENDBRANCH   7   8
ENDBRANCH   2   7
BRANCH   1  19
ATOM     19  N   UNL d   1      -0.511   5.532   1.604  0.00  0.00    -0.113 N 
ATOM     20  O   UNL d   1      -1.529   5.613   2.302  0.00  0.00    -0.532 OA
ATOM     21  O   UNL d   1       0.307   6.451   1.446  0.00  0.00    -0.532 OA
ENDBRANCH   1  19
BRANCH   3  22
ATOM     22  S   UNL d   1       0.971  -0.021  -0.096  0.00  0.00     0.206 S 
ATOM     23  O   UNL d   1      -0.061  -0.828   0.524  0.00  0.00    -0.217 OA
ATOM     24  O   UNL d   1       2.350  -0.148   0.342  0.00  0.00    -0.217 OA
BRANCH  22  25
ATOM     25  C   UNL d   1       0.944  -0.357  -1.838  0.00  0.00     0.064 A 
ATOM     26  C   UNL d   1       2.109  -0.183  -2.592  0.00  0.00     0.025 A 
ATOM     27  C   UNL d   1       2.114  -0.540  -3.943  0.00  0.00     0.025 A 
ATOM     28  C   UNL d   1       0.964  -1.075  -4.524  0.00  0.00     0.034 A 
ATOM     29  C   UNL d   1      -0.195  -1.257  -3.768  0.00  0.00     0.025 A 
ATOM     30 CL   UNL d   1       0.981  -1.533  -6.182  0.00  0.00    -0.084 Cl
ATOM     31  C   UNL d   1      -0.207  -0.902  -2.417  0.00  0.00     0.025 A 
ENDBRANCH  22  25
ENDBRANCH   3  22
TORSDOF 6
