REMARK  5 active torsions:
REMARK  status: ('A' for Active; 'I' for Inactive)
REMARK    1  A    between atoms: C_8  and  C_1 
REMARK    2  A    between atoms: C_9  and  C_2 
REMARK    3  A    between atoms: N_7  and  C_3 
REMARK       I    between atoms: C_10  and  N_7 
REMARK       I    between atoms: N_14  and  C_10 
REMARK    4  A    between atoms: C_11  and  C_12 
REMARK    5  A    between atoms: C_22  and  N_14 
ROOT
ATOM      1  C   UNL d   1       1.728   0.592   0.421  0.00  0.00     0.147 C 
ATOM      2  C   UNL d   1       1.691  -0.834   0.257  0.00  0.00     0.053 C 
ATOM      3  C   UNL d   1       0.376  -1.173   0.555  0.00  0.00     0.139 C 
ATOM      4  N   UNL d   1       0.585   1.035   0.985  0.00  0.00    -0.292 N 
ATOM      5  HN  UNL d   1       0.359   1.991   1.260  1.00  0.00     0.187 HD
ATOM      6  N   UNL d   1      -0.193  -0.053   1.105  0.00  0.00    -0.280 N 
ATOM      7  C   UNL d   1      -1.532   0.126   1.616  0.00  0.00     0.179 C 
ENDROOT
BRANCH   3   8
ATOM      8  N   UNL d   1      -0.238  -2.326   0.109  0.00  0.00    -0.292 N 
ATOM      9  C   UNL d   1      -1.098  -3.254   0.718  0.00  0.00     0.326 C 
ATOM     10  N   UNL d   1      -1.214  -3.191   2.072  0.00  0.00    -0.309 N 
ATOM     11  O   UNL d   1      -1.616  -4.022  -0.074  0.00  0.00    -0.247 OA
ATOM     12  H   UNL d   1      -0.695  -2.486   2.573  0.00  0.00     0.170 HD
ATOM     13  H   UNL d   1      -0.122  -2.532  -0.876  0.00  0.00     0.172 HD
BRANCH  10  14
ATOM     14  C   UNL d   1      -2.112  -3.985   2.822  0.00  0.00     0.036 A 
ATOM     15  C   UNL d   1      -2.706  -5.153   2.319  0.00  0.00     0.032 A 
ATOM     16  C   UNL d   1      -3.692  -5.823   3.049  0.00  0.00     0.044 A 
ATOM     17  C   UNL d   1      -4.077  -5.329   4.285  0.00  0.00     0.116 A 
ATOM     18  C   UNL d   1      -3.458  -4.209   4.826  0.00  0.00     0.044 A 
ATOM     19  F   UNL d   1      -5.060  -5.937   4.962  0.00  0.00    -0.206 F 
ATOM     20  C   UNL d   1      -2.459  -3.548   4.104  0.00  0.00     0.032 A 
ENDBRANCH  10  14
ENDBRANCH   3   8
BRANCH   2  21
ATOM     21  C   UNL d   1       2.765  -1.793  -0.031  0.00  0.00    -0.019 A 
ATOM     22  C   UNL d   1       4.028  -1.592   0.554  0.00  0.00     0.028 A 
ATOM     23  C   UNL d   1       5.066  -2.533   0.417  0.00  0.00     0.048 A 
ATOM     24  C   UNL d   1       4.817  -3.723  -0.275  0.00  0.00     0.016 A 
ATOM     25  C   UNL d   1       3.578  -3.938  -0.866  0.00  0.00     0.002 A 
ATOM     26  C   UNL d   1       2.574  -2.970  -0.768  0.00  0.00     0.012 A 
BRANCH  23  27
ATOM     27  C   UNL d   1       6.431  -2.285   1.015  0.00  0.00     0.417 C 
ATOM     28  F   UNL d   1       6.555  -1.053   1.581  0.00  0.00    -0.166 F 
ATOM     29  F   UNL d   1       6.734  -3.181   1.994  0.00  0.00    -0.166 F 
ATOM     30  F   UNL d   1       7.426  -2.379   0.092  0.00  0.00    -0.166 F 
ENDBRANCH  23  27
ENDBRANCH   2  21
BRANCH   1  31
ATOM     31  C   UNL d   1       2.823   1.561   0.027  0.00  0.00     0.434 C 
ATOM     32  F   UNL d   1       3.807   0.969  -0.701  0.00  0.00    -0.165 F 
ATOM     33  F   UNL d   1       2.349   2.577  -0.742  0.00  0.00    -0.165 F 
ATOM     34  F   UNL d   1       3.423   2.120   1.109  0.00  0.00    -0.165 F 
ENDBRANCH   1  31
TORSDOF 5
