REMARK  2 active torsions:
REMARK  status: ('A' for Active; 'I' for Inactive)
REMARK       I    between atoms: C_15  and  N_1 
REMARK    1  A    between atoms: C_11  and  C_3 
REMARK    2  A    between atoms: C_12  and  C_7 
ROOT
ATOM      1  N   UNL d   1       0.759   0.933  -0.159  0.00  0.00    -0.225 N 
ATOM      2  C   UNL d   1       0.134  -1.059  -0.074  0.00  0.00     0.175 C 
ATOM      3  C   UNL d   1      -0.690   0.963  -0.194  0.00  0.00     0.293 C 
ATOM      4  N   UNL d   1       1.211  -0.351  -0.006  0.00  0.00    -0.272 N 
ATOM      5  HN  UNL d   1       2.170  -0.671   0.129  1.00  0.00     0.189 HD
ATOM      6  C   UNL d   1       0.087  -2.480   0.075  0.00  0.00     0.077 A 
ATOM      7  C   UNL d   1       0.869  -3.351   0.900  0.00  0.00     0.085 A 
ATOM      8  O   UNL d   1      -1.055  -0.414  -0.244  0.00  0.00    -0.301 OA
ATOM      9  N   UNL d   1       0.440  -4.616   0.762  0.00  0.00    -0.259 N 
ATOM     10  HN  UNL d   1       0.800  -5.436   1.250  1.00  0.00     0.195 HD
ATOM     11  O   UNL d   1      -0.578  -4.595  -0.162  0.00  0.00    -0.241 OA
ATOM     12  C   UNL d   1      -0.803  -3.322  -0.559  0.00  0.00     0.089 A 
ATOM     13  C   UNL d   1       1.534   2.044   0.078  0.00  0.00     0.236 C 
ATOM     14  O   UNL d   1       1.058   3.178   0.142  0.00  0.00    -0.272 OA
ATOM     15  C   UNL d   1      -1.898  -3.131  -1.533  0.00  0.00     0.080 C 
ATOM     16  C   UNL d   1       3.013   1.818   0.277  0.00  0.00     0.119 C 
ENDROOT
BRANCH   7  17
ATOM     17  C   UNL d   1       1.941  -3.047   1.864  0.00  0.00     0.037 A 
ATOM     18  C   UNL d   1       1.796  -2.048   2.852  0.00  0.00     0.048 A 
ATOM     19 CL   UNL d   1       0.338  -1.139   3.093  0.00  0.00    -0.083 Cl
ATOM     20  C   UNL d   1       2.821  -1.784   3.774  0.00  0.00     0.025 A 
ATOM     21  C   UNL d   1       3.977  -2.554   3.785  0.00  0.00     0.003 A 
ATOM     22  C   UNL d   1       4.127  -3.570   2.850  0.00  0.00     0.025 A 
ATOM     23  C   UNL d   1       3.137  -3.801   1.882  0.00  0.00     0.048 A 
ATOM     24 CL   UNL d   1       3.504  -5.041   0.724  0.00  0.00    -0.083 Cl
ENDBRANCH   7  17
BRANCH   3  25
ATOM     25  C   UNL d   1      -1.346   1.693  -1.343  0.00  0.00     0.036 A 
ATOM     26  C   UNL d   1      -1.087   1.378  -2.692  0.00  0.00     0.046 A 
ATOM     27 CL   UNL d   1       0.075   0.193  -3.184  0.00  0.00    -0.084 Cl
ATOM     28  C   UNL d   1      -1.786   2.004  -3.735  0.00  0.00     0.024 A 
ATOM     29  C   UNL d   1      -2.752   2.964  -3.461  0.00  0.00     0.003 A 
ATOM     30  C   UNL d   1      -3.013   3.309  -2.142  0.00  0.00     0.024 A 
ATOM     31  C   UNL d   1      -2.322   2.684  -1.095  0.00  0.00     0.046 A 
ATOM     32 CL   UNL d   1      -2.767   3.185   0.503  0.00  0.00    -0.084 Cl
ENDBRANCH   3  25
TORSDOF 2
