REMARK  6 active torsions:
REMARK  status: ('A' for Active; 'I' for Inactive)
REMARK    1  A    between atoms: C_3  and  C_1 
REMARK    2  A    between atoms: C_2  and  O_5 
REMARK    3  A    between atoms: C_4  and  C_2 
REMARK    4  A    between atoms: O_5  and  C_18 
REMARK    5  A    between atoms: C_6  and  C_7 
REMARK    6  A    between atoms: C_18  and  C_19 
ROOT
ATOM      1  C   UNL d   1      -0.496  -5.013   5.657  0.00  0.00     0.293 C 
ATOM      2  O   UNL d   1      -0.965  -4.572   4.624  0.00  0.00    -0.259 OA
ENDROOT
BRANCH   1   3
ATOM      3  O   UNL d   1       0.517  -5.914   5.752  0.00  0.00    -0.313 OA
BRANCH   3   4
ATOM      4  C   UNL d   1       1.064  -6.400   4.514  0.00  0.00     0.217 C 
BRANCH   4   5
ATOM      5  C   UNL d   1       2.547  -6.114   4.465  0.00  0.00    -0.034 A 
ATOM      6  C   UNL d   1       3.403  -6.646   5.439  0.00  0.00     0.010 A 
ATOM      7  C   UNL d   1       4.778  -6.399   5.391  0.00  0.00     0.017 A 
ATOM      8  C   UNL d   1       5.329  -5.620   4.363  0.00  0.00     0.047 A 
ATOM      9  C   UNL d   1       4.473  -5.086   3.390  0.00  0.00     0.017 A 
ATOM     10  C   UNL d   1       3.096  -5.331   3.441  0.00  0.00     0.010 A 
BRANCH   8  11
ATOM     11  C   UNL d   1       6.818  -5.375   4.320  0.00  0.00     0.417 C 
ATOM     12  F   UNL d   1       7.223  -4.648   3.241  0.00  0.00    -0.166 F 
ATOM     13  F   UNL d   1       7.534  -6.534   4.275  0.00  0.00    -0.166 F 
ATOM     14  F   UNL d   1       7.269  -4.702   5.414  0.00  0.00    -0.166 F 
ENDBRANCH   8  11
ENDBRANCH   4   5
ENDBRANCH   3   4
ENDBRANCH   1   3
BRANCH   1  15
ATOM     15  C   UNL d   1      -0.984  -4.615   7.011  0.00  0.00     0.039 A 
ATOM     16  C   UNL d   1      -1.962  -3.620   7.112  0.00  0.00     0.018 A 
ATOM     17  C   UNL d   1      -2.436  -3.205   8.368  0.00  0.00     0.009 A 
ATOM     18  C   UNL d   1      -1.956  -3.777   9.561  0.00  0.00    -0.051 A 
ATOM     19  C   UNL d   1      -0.987  -4.791   9.432  0.00  0.00     0.009 A 
ATOM     20  C   UNL d   1      -0.504  -5.203   8.181  0.00  0.00     0.018 A 
BRANCH  18  21
ATOM     21  C   UNL d   1      -2.460  -3.290  10.935  0.00  0.00    -0.024 C 
ATOM     22  C   UNL d   1      -1.833  -4.066  12.117  0.00  0.00     0.019 C 
ATOM     23  C   UNL d   1      -2.111  -1.798  11.127  0.00  0.00     0.019 C 
ATOM     24  C   UNL d   1      -3.991  -3.449  11.053  0.00  0.00     0.019 C 
ENDBRANCH  18  21
ENDBRANCH   1  15
TORSDOF 6
