REMARK  0 active torsions:
REMARK  status: ('A' for Active; 'I' for Inactive)
ROOT
ATOM      1  N   UNL d   1       0.905   0.549  -0.000  0.00  0.00    -0.116 N 
ATOM      2  C   UNL d   1       1.629  -0.606  -0.001  0.00  0.00     0.720 A 
ATOM      3  C   UNL d   1       1.838   1.557   0.000  0.00  0.00     0.213 A 
ATOM      4  N   UNL d   1       1.053  -1.848  -0.001  0.00  0.00    -0.130 N 
ATOM      5  HN  UNL d   1       1.643  -2.680  -0.002  1.00  0.00     0.205 HD
ATOM      6  N   UNL d   1       2.921  -0.439  -0.001  0.00  0.00    -0.128 N 
ATOM      7  HN  UNL d   1       3.647  -1.156  -0.002  1.00  0.00     0.205 HD
ATOM      8  N   UNL d   1      -0.198  -1.969   0.000  0.00  0.00    -0.284 N 
ATOM      9  HN  UNL d   1      -0.620  -2.897   0.000  1.00  0.00     0.187 HD
ATOM     10  C   UNL d   1      -0.489   0.483   0.000  0.00  0.00     0.087 A 
ATOM     11  C   UNL d   1      -1.017  -0.820   0.001  0.00  0.00     0.078 A 
ATOM     12  N   UNL d   1       3.079   0.919  -0.001  0.00  0.00    -0.261 N 
ATOM     13  C   UNL d   1      -2.404  -1.007   0.001  0.00  0.00     0.057 A 
ATOM     14  C   UNL d   1      -1.352   1.581   0.001  0.00  0.00     0.035 A 
ATOM     15  S   UNL d   1       1.713   3.209   0.001  0.00  0.00    -0.038 SA
ATOM     16  C   UNL d   1      -3.257   0.092   0.002  0.00  0.00     0.036 A 
ATOM     17  C   UNL d   1      -2.737   1.383   0.001  0.00  0.00     0.026 A 
ATOM     18 CL   UNL d   1      -4.960  -0.144   0.002  0.00  0.00    -0.084 Cl
ATOM     19  H   UNL d   1       3.993   1.358  -0.001  0.00  0.00     0.190 HD
ENDROOT
TORSDOF 0
