REMARK  3 active torsions:
REMARK  status: ('A' for Active; 'I' for Inactive)
REMARK    1  A    between atoms: C_3  and  C_1 
REMARK    2  A    between atoms: C_11  and  C_2 
REMARK    3  A    between atoms: O_15  and  C_11 
ROOT
ATOM      1  C   UNL d   1      -1.357   0.834   0.021  0.00  0.00     0.095 A 
ATOM      2  C   UNL d   1      -0.065   1.328  -0.038  0.00  0.00     0.093 A 
ATOM      3  N   UNL d   1      -1.247  -0.510   0.220  0.00  0.00    -0.297 N 
ATOM      4  N   UNL d   1       0.016  -0.958   0.171  0.00  0.00    -0.304 N 
ATOM      5  HN  UNL d   1       0.343  -1.923   0.228  1.00  0.00     0.186 HD
ATOM      6  C   UNL d   1       0.751   0.155   0.028  0.00  0.00     0.040 A 
ATOM      7  C   UNL d   1       2.231   0.020   0.003  0.00  0.00     0.071 C 
ATOM      8  H   UNL d   1      -2.004  -1.176   0.338  0.00  0.00     0.187 HD
ENDROOT
BRANCH   1   9
ATOM      9  C   UNL d   1      -2.670   1.516  -0.108  0.00  0.00     0.086 A 
ATOM     10  N   UNL d   1      -3.798   0.902   0.271  0.00  0.00    -0.259 N 
ATOM     11  O   UNL d   1      -4.817   1.812   0.034  0.00  0.00    -0.242 OA
ATOM     12  HN  UNL d   1      -3.890  -0.039   0.654  1.00  0.00     0.195 HD
ATOM     13  C   UNL d   1      -4.296   2.931  -0.538  0.00  0.00     0.074 A 
ATOM     14  C   UNL d   1      -2.939   2.782  -0.664  0.00  0.00     0.068 A 
ATOM     15  C   UNL d   1      -5.238   4.008  -0.885  0.00  0.00     0.079 C 
ENDBRANCH   1   9
BRANCH   2  16
ATOM     16  C   UNL d   1       0.335   2.724  -0.085  0.00  0.00     0.297 C 
ATOM     17  O   UNL d   1      -0.331   3.632   0.402  0.00  0.00    -0.259 OA
BRANCH  16  18
ATOM     18  O   UNL d   1       1.516   2.925  -0.734  0.00  0.00    -0.322 OA
ATOM     19  C   UNL d   1       1.907   4.299  -0.786  0.00  0.00     0.213 C 
ENDBRANCH  16  18
ENDBRANCH   2  16
TORSDOF 3
