REMARK  4 active torsions:
REMARK  status: ('A' for Active; 'I' for Inactive)
REMARK    1  A    between atoms: N_4  and  N_1 
REMARK    2  A    between atoms: O_17  and  C_8 
REMARK    3  A    between atoms: C_15  and  C_11 
REMARK    4  A    between atoms: O_20  and  C_12 
ROOT
ATOM      1  N   UNL d   1       3.439   1.917   0.701  0.00  0.00    -0.299 N 
ATOM      2  HN  UNL d   1       4.010   2.558   1.253  1.00  0.00     0.186 HD
ATOM      3  C   UNL d   1       4.004   1.101  -0.126  0.00  0.00     0.119 C 
ENDROOT
BRANCH   1   4
ATOM      4  N   UNL d   1       2.078   1.927   0.838  0.00  0.00    -0.182 N 
ATOM      5  C   UNL d   1       1.488   2.820   1.713  0.00  0.00     0.280 A 
ATOM      6  C   UNL d   1       0.056   2.538   1.674  0.00  0.00     0.050 A 
ATOM      7  O   UNL d   1       1.970   3.688   2.419  0.00  0.00    -0.265 OA
ATOM      8  C   UNL d   1      -0.990   3.121   2.362  0.00  0.00     0.018 A 
ATOM      9  C   UNL d   1      -0.147   1.494   0.788  0.00  0.00     0.050 A 
ATOM     10  C   UNL d   1      -2.273   2.611   2.133  0.00  0.00     0.001 A 
ATOM     11  C   UNL d   1      -2.478   1.548   1.230  0.00  0.00     0.001 A 
ATOM     12  C   UNL d   1      -1.404   0.977   0.542  0.00  0.00     0.018 A 
ATOM     13  C   UNL d   1       1.149   1.095   0.248  0.00  0.00     0.280 A 
ATOM     14  O   UNL d   1       1.259   0.183  -0.551  0.00  0.00    -0.265 OA
ENDBRANCH   1   4
BRANCH   3  15
ATOM     15  C   UNL d   1       5.476   1.055  -0.261  0.00  0.00    -0.017 A 
ATOM     16  C   UNL d   1       6.044   0.156  -1.172  0.00  0.00     0.052 A 
ATOM     17  C   UNL d   1       7.438   0.072  -1.315  0.00  0.00     0.102 A 
ATOM     18  C   UNL d   1       8.252   0.920  -0.540  0.00  0.00     0.101 A 
ATOM     19  C   UNL d   1       7.668   1.802   0.380  0.00  0.00     0.040 A 
ATOM     20  C   UNL d   1       6.285   1.877   0.519  0.00  0.00     0.016 A 
BRANCH  17  21
ATOM     21  O   UNL d   1       8.055  -0.824  -2.146  0.00  0.00    -0.353 OA
ATOM     22  C   UNL d   1       7.242  -1.700  -2.918  0.00  0.00     0.210 C 
ENDBRANCH  17  21
BRANCH  18  23
ATOM     23  O   UNL d   1       9.623   0.961  -0.516  0.00  0.00    -0.353 OA
ATOM     24  C   UNL d   1      10.297   0.700  -1.741  0.00  0.00     0.210 C 
ENDBRANCH  18  23
ENDBRANCH   3  15
TORSDOF 4
