REMARK  4 active torsions:
REMARK  status: ('A' for Active; 'I' for Inactive)
REMARK    1  A    between atoms: C_6  and  C_1 
REMARK    2  A    between atoms: N_5  and  C_2 
REMARK    3  A    between atoms: C_3  and  C_4 
REMARK       I    between atoms: C_4  and  N_5 
REMARK    4  A    between atoms: O_15  and  C_6 
ROOT
ATOM      1  C   UNL d   1      -0.046   1.247  -0.121  0.00  0.00     0.106 A 
ATOM      2  C   UNL d   1       1.213   0.678  -0.273  0.00  0.00     0.058 A 
ATOM      3  S   UNL d   1      -1.282   0.040  -0.083  0.00  0.00    -0.094 SA
ATOM      4  C   UNL d   1       1.109  -0.740  -0.490  0.00  0.00     0.038 A 
ATOM      5  C   UNL d   1      -0.178  -1.212  -0.402  0.00  0.00     0.053 A 
ENDROOT
BRANCH   2   6
ATOM      6  N   UNL d   1       2.479   1.262  -0.251  0.00  0.00    -0.322 N 
ATOM      7  C   UNL d   1       2.839   2.477   0.331  0.00  0.00     0.277 C 
ATOM      8  O   UNL d   1       2.035   3.239   0.870  0.00  0.00    -0.268 OA
ATOM      9  H   UNL d   1       3.244   0.634  -0.483  0.00  0.00     0.169 HD
BRANCH   7  10
ATOM     10  C   UNL d   1       4.355   2.810   0.230  0.00  0.00     0.269 C 
ATOM     11 CL   UNL d   1       5.325   1.299   0.140  0.00  0.00    -0.073 Cl
ATOM     12 CL   UNL d   1       4.613   3.756  -1.256  0.00  0.00    -0.073 Cl
ATOM     13 CL   UNL d   1       4.879   3.729   1.660  0.00  0.00    -0.073 Cl
ENDBRANCH   7  10
ENDBRANCH   2   6
BRANCH   1  14
ATOM     14  C   UNL d   1      -0.517   2.615  -0.045  0.00  0.00     0.302 C 
ATOM     15  O   UNL d   1      -1.406   3.026   0.693  0.00  0.00    -0.259 OA
BRANCH  14  16
ATOM     16  O   UNL d   1       0.057   3.349  -1.047  0.00  0.00    -0.322 OA
ATOM     17  C   UNL d   1      -0.412   4.696  -1.150  0.00  0.00     0.213 C 
ENDBRANCH  14  16
ENDBRANCH   1  14
TORSDOF 4
