REMARK  4 active torsions:
REMARK  status: ('A' for Active; 'I' for Inactive)
REMARK    1  A    between atoms: C_2  and  S_1 
REMARK    2  A    between atoms: N_3  and  S_1 
REMARK       I    between atoms: C_4  and  N_6 
REMARK    3  A    between atoms: C_13  and  C_4 
REMARK    4  A    between atoms: N_6  and  C_14 
ROOT
ATOM      1  N   UNL d   1       0.495   1.580   0.342  0.00  0.00    -0.206 NA
ATOM      2  C   UNL d   1      -0.804   1.836  -0.361  0.00  0.00     0.109 C 
ATOM      3  C   UNL d   1       1.505   2.649   0.095  0.00  0.00     0.109 C 
ATOM      4  C   UNL d   1      -0.333   4.329  -0.281  0.00  0.00     0.086 C 
ATOM      5  C   UNL d   1       0.950   4.012   0.482  0.00  0.00     0.041 C 
ATOM      6  C   UNL d   1      -1.358   3.220  -0.032  0.00  0.00     0.041 C 
ENDROOT
BRANCH   1   7
ATOM      7  S   UNL d   1       1.148   0.008   0.059  0.00  0.00     0.245 S 
ATOM      8  O   UNL d   1       0.633  -0.439  -1.217  0.00  0.00    -0.206 OA
ATOM      9  O   UNL d   1       2.577   0.034   0.288  0.00  0.00    -0.206 OA
BRANCH   7  10
ATOM     10  C   UNL d   1       0.456  -1.025   1.323  0.00  0.00     0.098 A 
ATOM     11  C   UNL d   1      -0.305  -2.130   0.907  0.00  0.00     0.050 A 
ATOM     12  C   UNL d   1      -0.697  -3.095   1.832  0.00  0.00     0.035 A 
ATOM     13 CL   UNL d   1      -1.576  -4.473   1.301  0.00  0.00    -0.084 Cl
ATOM     14  C   UNL d   1      -0.349  -2.969   3.173  0.00  0.00     0.025 A 
ATOM     15  C   UNL d   1       0.392  -1.860   3.593  0.00  0.00     0.027 A 
ATOM     16  C   UNL d   1       0.808  -0.885   2.668  0.00  0.00     0.057 A 
ATOM     17 CL   UNL d   1       1.742   0.420   3.299  0.00  0.00    -0.083 Cl
ENDBRANCH   7  10
ENDBRANCH   1   7
BRANCH   4  18
ATOM     18  N   UNL d   1      -0.062   4.535  -1.704  0.00  0.00    -0.356 N 
ATOM     19  C   UNL d   1      -0.837   5.350  -2.504  0.00  0.00     0.222 C 
ATOM     20  O   UNL d   1      -1.835   5.927  -2.086  0.00  0.00    -0.273 OA
ATOM     21  H   UNL d   1       0.618   3.947  -2.167  0.00  0.00     0.162 HD
BRANCH  19  22
ATOM     22  C   UNL d   1      -0.324   5.455  -3.950  0.00  0.00     0.078 C 
ATOM     23  C   UNL d   1       1.114   5.995  -4.002  0.00  0.00     0.014 C 
ATOM     24  C   UNL d   1       1.177   7.464  -3.586  0.00  0.00     0.001 C 
ATOM     25  C   UNL d   1       0.258   8.334  -4.439  0.00  0.00     0.000 C 
ATOM     26  C   UNL d   1      -1.172   7.804  -4.483  0.00  0.00     0.001 C 
ATOM     27  C   UNL d   1      -1.225   6.318  -4.845  0.00  0.00     0.014 C 
ENDBRANCH  19  22
ENDBRANCH   4  18
TORSDOF 4
