REMARK  5 active torsions:
REMARK  status: ('A' for Active; 'I' for Inactive)
REMARK    1  A    between atoms: C_8  and  C_2 
REMARK    2  A    between atoms: S_9  and  C_3 
REMARK    3  A    between atoms: C_10  and  N_6 
REMARK    4  A    between atoms: O_16  and  C_11 
REMARK    5  A    between atoms: C_20  and  O_16 
ROOT
ATOM      1  C   UNL d   1       1.136  -0.281   0.122  0.00  0.00     0.094 C 
ATOM      2  C   UNL d   1       0.167   0.869   0.115  0.00  0.00     0.033 C 
ATOM      3  C   UNL d   1      -1.135   0.508   0.178  0.00  0.00     0.061 C 
ATOM      4  S   UNL d   1       0.379  -1.695   0.832  0.00  0.00    -0.033 SA
ATOM      5  S   UNL d   1      -1.484  -1.209   0.185  0.00  0.00    -0.043 SA
ATOM      6  N   UNL d   1       2.356  -0.170  -0.304  0.00  0.00    -0.349 N 
ATOM      7  HN  UNL d   1       2.664   0.733  -0.666  1.00  0.00     0.166 HD
ENDROOT
BRANCH   2   8
ATOM      8  C   UNL d   1       0.703   2.239   0.124  0.00  0.00    -0.021 A 
ATOM      9  C   UNL d   1       0.760   2.958   1.324  0.00  0.00     0.012 A 
ATOM     10  C   UNL d   1       1.307   4.241   1.343  0.00  0.00     0.001 A 
ATOM     11  C   UNL d   1       1.792   4.812   0.168  0.00  0.00     0.000 A 
ATOM     12  C   UNL d   1       1.736   4.101  -1.030  0.00  0.00     0.001 A 
ATOM     13  C   UNL d   1       1.196   2.814  -1.052  0.00  0.00     0.012 A 
ENDBRANCH   2   8
BRANCH   6  14
ATOM     14  C   UNL d   1       3.271  -1.231  -0.289  0.00  0.00     0.033 A 
ATOM     15  C   UNL d   1       3.024  -2.443  -0.934  0.00  0.00     0.032 A 
ATOM     16  C   UNL d   1       3.968  -3.475  -0.919  0.00  0.00     0.039 A 
ATOM     17  C   UNL d   1       5.205  -3.287  -0.305  0.00  0.00     0.068 A 
ATOM     18  C   UNL d   1       5.483  -2.056   0.294  0.00  0.00     0.039 A 
ATOM     19  C   UNL d   1       4.521  -1.037   0.303  0.00  0.00     0.032 A 
BRANCH  17  20
ATOM     20  O   UNL d   1       6.214  -4.210  -0.249  0.00  0.00    -0.352 OA
BRANCH  20  21
ATOM     21  C   UNL d   1       5.913  -5.509  -0.761  0.00  0.00     0.171 C 
ATOM     22  C   UNL d   1       7.148  -6.383  -0.634  0.00  0.00     0.034 C 
ENDBRANCH  20  21
ENDBRANCH  17  20
ENDBRANCH   6  14
BRANCH   3  23
ATOM     23  S   UNL d   1      -2.509   1.571   0.320  0.00  0.00    -0.126 SA
ATOM     24  C   UNL d   1      -2.266   2.785  -0.989  0.00  0.00     0.096 C 
ENDBRANCH   3  23
TORSDOF 5
