REMARK  5 active torsions:
REMARK  status: ('A' for Active; 'I' for Inactive)
REMARK    1  A    between atoms: C_4  and  C_1 
REMARK    2  A    between atoms: N_16  and  C_4 
REMARK    3  A    between atoms: C_5  and  C_9 
REMARK    4  A    between atoms: O_12  and  N_7 
REMARK    5  A    between atoms: C_9  and  O_12 
ROOT
ATOM      1  C   UNL d   1       2.200  -2.416  -0.162  0.00  0.00     0.126 C 
ATOM      2  N   UNL d   1       3.485  -2.309  -0.070  0.00  0.00    -0.244 N 
ATOM      3  HN  UNL d   1       4.116  -3.095   0.084  1.00  0.00     0.196 HD
ENDROOT
BRANCH   2   4
ATOM      4  O   UNL d   1       3.905  -0.973  -0.207  0.00  0.00    -0.193 OA
BRANCH   4   5
ATOM      5  C   UNL d   1       5.211  -0.869   0.180  0.00  0.00     0.320 C 
ATOM      6  O   UNL d   1       5.926  -1.748   0.637  0.00  0.00    -0.257 OA
BRANCH   5   7
ATOM      7  C   UNL d   1       5.707   0.499  -0.066  0.00  0.00     0.101 A 
ATOM      8  C   UNL d   1       6.996   0.621  -0.596  0.00  0.00     0.134 A 
ATOM      9  F   UNL d   1       7.708  -0.463  -0.940  0.00  0.00    -0.205 F 
ATOM     10  C   UNL d   1       7.582   1.869  -0.801  0.00  0.00     0.043 A 
ATOM     11  C   UNL d   1       6.876   3.024  -0.483  0.00  0.00     0.005 A 
ATOM     12  C   UNL d   1       5.586   2.921   0.040  0.00  0.00     0.025 A 
ATOM     13  C   UNL d   1       5.001   1.663   0.257  0.00  0.00     0.053 A 
ATOM     14 CL   UNL d   1       3.429   1.658   0.980  0.00  0.00    -0.083 Cl
ENDBRANCH   5   7
ENDBRANCH   4   5
ENDBRANCH   2   4
BRANCH   1  15
ATOM     15  C   UNL d   1       1.607  -3.753  -0.078  0.00  0.00     0.079 A 
ATOM     16  N   UNL d   1       0.218  -3.937  -0.132  0.00  0.00    -0.351 N 
ATOM     17  C   UNL d   1      -0.063  -5.223  -0.076  0.00  0.00     0.047 A 
ATOM     18  HN  UNL d   1      -0.470  -3.188  -0.204  1.00  0.00     0.166 HD
ATOM     19  C   UNL d   1      -1.435  -5.796  -0.162  0.00  0.00     0.076 C 
ATOM     20  S   UNL d   1       1.284  -6.275   0.102  0.00  0.00    -0.087 SA
ATOM     21  C   UNL d   1       2.330  -4.924   0.070  0.00  0.00     0.084 A 
ENDBRANCH   1  15
BRANCH   1  22
ATOM     22  N   UNL d   1       1.263  -1.430  -0.306  0.00  0.00    -0.285 NA
ATOM     23  H   UNL d   1       0.322  -1.730  -0.057  0.00  0.00     0.125 HD
ATOM     24  H   UNL d   1       1.536  -0.540   0.090  0.00  0.00     0.125 HD
ENDBRANCH   1  22
TORSDOF 5
