REMARK  7 active torsions:
REMARK  status: ('A' for Active; 'I' for Inactive)
REMARK    1  A    between atoms: C_8  and  C_1 
REMARK    2  A    between atoms: C_13  and  C_7 
REMARK    3  A    between atoms: N_10  and  C_9 
REMARK       I    between atoms: C_11  and  N_10 
REMARK    4  A    between atoms: C_12  and  C_11 
REMARK    5  A    between atoms: C_14  and  C_15 
REMARK    6  A    between atoms: O_24  and  C_14 
REMARK    7  A    between atoms: C_16  and  C_17 
ROOT
ATOM      1  C   UNL d   1      -0.533  -0.456   0.390  0.00  0.00     0.177 A 
ATOM      2  O   UNL d   1      -0.245  -0.503  -0.954  0.00  0.00    -0.273 OA
ATOM      3  N   UNL d   1      -1.776  -0.818   0.659  0.00  0.00    -0.277 N 
ATOM      4  HN  UNL d   1      -2.217  -0.850   1.578  1.00  0.00     0.189 HD
ATOM      5  N   UNL d   1      -2.355  -1.142  -0.537  0.00  0.00    -0.277 N 
ATOM      6  HN  UNL d   1      -3.313  -1.460  -0.682  1.00  0.00     0.189 HD
ATOM      7  C   UNL d   1      -1.437  -0.964  -1.468  0.00  0.00     0.174 A 
ENDROOT
BRANCH   1   8
ATOM      8  C   UNL d   1       0.528  -0.163   1.346  0.00  0.00     0.043 A 
ATOM      9  C   UNL d   1       0.540  -0.798   2.618  0.00  0.00     0.049 A 
ATOM     10  C   UNL d   1       1.564  -0.500   3.524  0.00  0.00     0.030 A 
ATOM     11  C   UNL d   1       2.557   0.426   3.191  0.00  0.00     0.002 A 
ATOM     12  C   UNL d   1       2.551   1.046   1.943  0.00  0.00     0.001 A 
ATOM     13  C   UNL d   1       1.547   0.747   1.020  0.00  0.00     0.018 A 
BRANCH   9  14
ATOM     14  N   UNL d   1      -0.517  -1.684   2.959  0.00  0.00    -0.323 N 
ATOM     15  C   UNL d   1      -0.551  -2.643   3.953  0.00  0.00     0.245 C 
ATOM     16  O   UNL d   1       0.369  -3.007   4.668  0.00  0.00    -0.268 OA
ATOM     17  H   UNL d   1      -1.328  -1.647   2.344  0.00  0.00     0.169 HD
BRANCH  15  18
ATOM     18  C   UNL d   1      -1.937  -3.168   4.104  0.00  0.00     0.081 C 
ATOM     19  C   UNL d   1      -2.357  -4.411   4.376  0.00  0.00     0.086 C 
BRANCH  19  20
ATOM     20  C   UNL d   1      -1.621  -5.669   4.532  0.00  0.00     0.165 C 
ATOM     21  O   UNL d   1      -2.106  -6.671   5.024  0.00  0.00    -0.647 OA
BRANCH  20  22
ATOM     22  O   UNL d   1      -0.400  -5.672   3.991  0.00  0.00    -0.773 OA
ATOM     23  H   UNL d   1      -0.053  -6.565   4.197  0.00  0.00     0.167 HD
ENDBRANCH  20  22
ENDBRANCH  19  20
ENDBRANCH  15  18
ENDBRANCH   9  14
ENDBRANCH   1   8
BRANCH   7  24
ATOM     24  C   UNL d   1      -1.549  -1.233  -2.899  0.00  0.00     0.017 A 
ATOM     25  C   UNL d   1      -0.569  -0.914  -3.839  0.00  0.00     0.016 A 
ATOM     26  C   UNL d   1      -0.776  -1.181  -5.206  0.00  0.00     0.009 A 
ATOM     27  C   UNL d   1      -1.968  -1.775  -5.674  0.00  0.00    -0.051 A 
ATOM     28  C   UNL d   1      -2.928  -2.115  -4.714  0.00  0.00     0.009 A 
ATOM     29  C   UNL d   1      -2.723  -1.847  -3.358  0.00  0.00     0.016 A 
BRANCH  27  30
ATOM     30  C   UNL d   1      -2.205  -2.010  -7.178  0.00  0.00    -0.024 C 
ATOM     31  C   UNL d   1      -3.580  -2.644  -7.499  0.00  0.00     0.019 C 
ATOM     32  C   UNL d   1      -2.147  -0.662  -7.927  0.00  0.00     0.019 C 
ATOM     33  C   UNL d   1      -1.127  -2.955  -7.748  0.00  0.00     0.019 C 
ENDBRANCH  27  30
ENDBRANCH   7  24
TORSDOF 7
