REMARK  6 active torsions:
REMARK  status: ('A' for Active; 'I' for Inactive)
REMARK    1  A    between atoms: C_7  and  C_1 
REMARK    2  A    between atoms: C_10  and  C_6 
REMARK    3  A    between atoms: O_14  and  C_7 
REMARK    4  A    between atoms: O_11  and  C_10 
REMARK    5  A    between atoms: C_12  and  O_11 
REMARK    6  A    between atoms: C_20  and  O_14 
ROOT
ATOM      1  C   UNL d   1      -0.177  -1.060  -0.077  0.00  0.00     0.104 A 
ATOM      2  C   UNL d   1      -1.156  -0.080   0.038  0.00  0.00     0.029 A 
ATOM      3  N   UNL d   1      -0.667   1.217   0.146  0.00  0.00    -0.354 N 
ATOM      4  HN  UNL d   1      -1.249   2.048   0.252  1.00  0.00     0.166 HD
ATOM      5  S   UNL d   1       1.379  -0.313  -0.042  0.00  0.00    -0.067 SA
ATOM      6  C   UNL d   1       0.646   1.228   0.095  0.00  0.00     0.076 A 
ATOM      7  C   UNL d   1      -2.641  -0.205   0.035  0.00  0.00     0.070 C 
ENDROOT
BRANCH   6   8
ATOM      8  C   UNL d   1       1.489   2.464   0.188  0.00  0.00     0.240 C 
BRANCH   8   9
ATOM      9  O   UNL d   1       1.867   2.829  -1.141  0.00  0.00    -0.345 OA
BRANCH   9  10
ATOM     10  C   UNL d   1       2.598   3.977  -1.279  0.00  0.00     0.070 A 
ATOM     11  C   UNL d   1       3.038   4.798  -0.239  0.00  0.00     0.060 A 
ATOM     12  C   UNL d   1       3.782   5.944  -0.526  0.00  0.00     0.036 A 
ATOM     13 CL   UNL d   1       4.323   6.950   0.761  0.00  0.00    -0.084 Cl
ATOM     14  C   UNL d   1       4.095   6.281  -1.842  0.00  0.00     0.024 A 
ATOM     15  C   UNL d   1       3.657   5.465  -2.882  0.00  0.00     0.004 A 
ATOM     16  C   UNL d   1       2.913   4.317  -2.599  0.00  0.00     0.037 A 
ENDBRANCH   9  10
ENDBRANCH   8   9
ENDBRANCH   6   8
BRANCH   1  17
ATOM     17  C   UNL d   1      -0.233  -2.499  -0.241  0.00  0.00     0.302 C 
ATOM     18  O   UNL d   1       0.728  -3.248  -0.372  0.00  0.00    -0.259 OA
BRANCH  17  19
ATOM     19  O   UNL d   1      -1.527  -2.921  -0.280  0.00  0.00    -0.317 OA
BRANCH  19  20
ATOM     20  C   UNL d   1      -1.740  -4.284  -0.674  0.00  0.00     0.174 C 
ATOM     21  C   UNL d   1      -1.861  -4.334  -2.185  0.00  0.00     0.034 C 
ENDBRANCH  19  20
ENDBRANCH  17  19
ENDBRANCH   1  17
TORSDOF 6
