REMARK  8 active torsions:
REMARK  status: ('A' for Active; 'I' for Inactive)
REMARK    1  A    between atoms: S_10  and  C_3 
REMARK    2  A    between atoms: C_8  and  C_4 
REMARK    3  A    between atoms: O_16  and  C_6 
REMARK    4  A    between atoms: O_18  and  C_8 
REMARK    5  A    between atoms: C_12  and  C_9 
REMARK    6  A    between atoms: C_17  and  S_10 
REMARK    7  A    between atoms: C_22  and  C_17 
REMARK    8  A    between atoms: C_23  and  O_18 
ROOT
ATOM      1  C   UNL d   1       0.149  -0.481  -0.372  0.00  0.00     0.002 C 
ATOM      2  C   UNL d   1       0.613   0.871  -0.211  0.00  0.00    -0.024 C 
ATOM      3  C   UNL d   1       1.158  -1.401  -0.128  0.00  0.00     0.051 C 
ATOM      4  C   UNL d   1       1.992   0.941  -0.100  0.00  0.00     0.088 C 
ATOM      5  S   UNL d   1       2.667  -0.625   0.056  0.00  0.00    -0.076 SA
ATOM      6  C   UNL d   1      -1.290  -0.787  -0.702  0.00  0.00     0.154 C 
ATOM      7  C   UNL d   1      -0.343   2.033  -0.228  0.00  0.00     0.050 C 
ATOM      8  C   UNL d   1      -1.745   1.608   0.276  0.00  0.00     0.025 C 
ATOM      9  C   UNL d   1      -2.237   0.424  -0.582  0.00  0.00     0.046 C 
ENDROOT
BRANCH   3  10
ATOM     10  S   UNL d   1       0.904  -3.147  -0.109  0.00  0.00    -0.117 SA
BRANCH  10  11
ATOM     11  C   UNL d   1       2.325  -3.878   0.729  0.00  0.00     0.118 C 
BRANCH  11  12
ATOM     12  C   UNL d   1       2.288  -3.951   2.240  0.00  0.00    -0.049 A 
ATOM     13  C   UNL d   1       1.200  -4.522   2.922  0.00  0.00     0.008 A 
ATOM     14  C   UNL d   1       1.299  -4.849   4.278  0.00  0.00     0.001 A 
ATOM     15  C   UNL d   1       2.479  -4.597   4.975  0.00  0.00     0.000 A 
ATOM     16  C   UNL d   1       3.543  -3.972   4.330  0.00  0.00     0.001 A 
ATOM     17  C   UNL d   1       3.447  -3.648   2.974  0.00  0.00     0.008 A 
ENDBRANCH  11  12
ENDBRANCH  10  11
ENDBRANCH   3  10
BRANCH   6  18
ATOM     18  O   UNL d   1      -1.402  -1.268  -2.049  0.00  0.00    -0.391 OA
ATOM     19  H   UNL d   1      -0.760  -1.994  -2.140  0.00  0.00     0.210 HD
ENDBRANCH   6  18
BRANCH   4  20
ATOM     20  C   UNL d   1       2.797   2.155  -0.153  0.00  0.00     0.300 C 
ATOM     21  O   UNL d   1       2.352   3.287  -0.258  0.00  0.00    -0.259 OA
BRANCH  20  22
ATOM     22  O   UNL d   1       4.134   1.864  -0.211  0.00  0.00    -0.317 OA
BRANCH  22  23
ATOM     23  C   UNL d   1       4.944   2.916  -0.756  0.00  0.00     0.174 C 
ATOM     24  C   UNL d   1       4.973   2.755  -2.266  0.00  0.00     0.034 C 
ENDBRANCH  22  23
ENDBRANCH  20  22
ENDBRANCH   4  20
BRANCH   8  25
ATOM     25  C   UNL d   1      -1.737   1.495   1.801  0.00  0.00    -0.054 A 
ATOM     26  C   UNL d   1      -1.623   0.294   2.509  0.00  0.00     0.008 A 
ATOM     27  C   UNL d   1      -1.384   0.297   3.892  0.00  0.00     0.007 A 
ATOM     28  C   UNL d   1      -1.258   1.498   4.598  0.00  0.00    -0.062 A 
ATOM     29  C   UNL d   1      -1.478   2.696   3.919  0.00  0.00     0.007 A 
ATOM     30  C   UNL d   1      -0.898   1.499   6.053  0.00  0.00     0.048 C 
ATOM     31  C   UNL d   1      -1.712   2.693   2.542  0.00  0.00     0.008 A 
ENDBRANCH   8  25
TORSDOF 8
