REMARK  3 active torsions:
REMARK  status: ('A' for Active; 'I' for Inactive)
REMARK    1  A    between atoms: N_3  and  S_1 
REMARK    2  A    between atoms: C_8  and  S_1 
REMARK    3  A    between atoms: C_2  and  N_3 
ROOT
ATOM      1  N   UNL d   1       0.585  -1.611  -0.452  0.00  0.00    -0.164 NA
ATOM      2  H   UNL d   1      -0.431  -1.632  -0.372  0.00  0.00     0.147 HD
ENDROOT
BRANCH   1   3
ATOM      3  C   UNL d   1       1.058  -2.118  -1.659  0.00  0.00     0.121 A 
ATOM      4  N   UNL d   1       2.195  -2.812  -1.699  0.00  0.00    -0.288 N 
ATOM      5  N   UNL d   1       2.309  -3.158  -2.993  0.00  0.00    -0.299 N 
ATOM      6  HN  UNL d   1       2.829  -3.029  -0.930  1.00  0.00     0.188 HD
ATOM      7  C   UNL d   1       1.275  -2.733  -3.784  0.00  0.00     0.061 A 
ATOM      8  H   UNL d   1       3.120  -3.694  -3.279  0.00  0.00     0.187 HD
ATOM      9  C   UNL d   1       0.415  -2.053  -2.927  0.00  0.00     0.033 A 
ATOM     10  C   UNL d   1       1.035  -2.885  -5.154  0.00  0.00     0.032 A 
ATOM     11  C   UNL d   1      -0.762  -1.490  -3.457  0.00  0.00     0.017 A 
ATOM     12  C   UNL d   1      -1.020  -1.627  -4.829  0.00  0.00     0.001 A 
ATOM     13  C   UNL d   1      -0.134  -2.311  -5.661  0.00  0.00     0.002 A 
ENDBRANCH   1   3
BRANCH   1  14
ATOM     14  S   UNL d   1       1.047  -0.029  -0.053  0.00  0.00     0.247 S 
ATOM     15  O   UNL d   1      -0.191   0.633   0.314  0.00  0.00    -0.205 OA
ATOM     16  O   UNL d   1       1.933   0.533  -1.042  0.00  0.00    -0.205 OA
BRANCH  14  17
ATOM     17  C   UNL d   1       1.990  -0.262   1.435  0.00  0.00     0.076 A 
ATOM     18  C   UNL d   1       1.627   0.403   2.612  0.00  0.00     0.050 A 
ATOM     19  C   UNL d   1       2.378   0.202   3.776  0.00  0.00     0.057 A 
ATOM     20 CL   UNL d   1       1.884   1.039   5.206  0.00  0.00    -0.083 Cl
ATOM     21  C   UNL d   1       3.486  -0.656   3.759  0.00  0.00     0.055 A 
ATOM     22  C   UNL d   1       3.849  -1.302   2.572  0.00  0.00     0.027 A 
ATOM     23 CL   UNL d   1       4.441  -0.967   5.164  0.00  0.00    -0.083 Cl
ATOM     24  C   UNL d   1       3.105  -1.103   1.408  0.00  0.00     0.026 A 
ENDBRANCH  14  17
ENDBRANCH   1  14
TORSDOF 3
