REMARK  6 active torsions:
REMARK  status: ('A' for Active; 'I' for Inactive)
REMARK    1  A    between atoms: N_3  and  C_1 
REMARK    2  A    between atoms: O_6  and  C_2 
REMARK    3  A    between atoms: C_15  and  O_6 
REMARK    4  A    between atoms: C_7  and  C_11 
REMARK    5  A    between atoms: O_16  and  C_7 
REMARK    6  A    between atoms: C_19  and  O_16 
ROOT
ATOM      1  C   UNL d   1       2.789   5.654  -0.204  0.00  0.00     0.039 A 
ATOM      2  C   UNL d   1       2.628   4.750  -1.261  0.00  0.00     0.020 A 
ATOM      3  C   UNL d   1       1.948   5.563   0.913  0.00  0.00     0.020 A 
ATOM      4  C   UNL d   1       0.779   3.703  -0.093  0.00  0.00     0.076 A 
ATOM      5  C   UNL d   1       0.975   4.569   0.984  0.00  0.00     0.038 A 
ATOM      6  C   UNL d   1       1.621   3.780  -1.206  0.00  0.00     0.038 A 
ENDROOT
BRANCH   4   7
ATOM      7  O   UNL d   1      -0.179   2.717  -0.115  0.00  0.00    -0.301 OA
BRANCH   7   8
ATOM      8  C   UNL d   1      -1.290   2.772   0.633  0.00  0.00     0.149 A 
ATOM      9  C   UNL d   1      -2.182   3.795   0.925  0.00  0.00     0.144 A 
ATOM     10  C   UNL d   1      -3.203   3.402   1.848  0.00  0.00     0.046 A 
ATOM     11  C   UNL d   1      -3.112   2.070   2.175  0.00  0.00     0.055 A 
ATOM     12  S   UNL d   1      -1.803   1.307   1.387  0.00  0.00    -0.074 SA
BRANCH   9  13
ATOM     13  N   UNL d   1      -2.082   5.123   0.385  0.00  0.00    -0.112 N 
ATOM     14  O   UNL d   1      -2.020   5.227  -0.840  0.00  0.00    -0.532 OA
ATOM     15  O   UNL d   1      -2.090   6.046   1.210  0.00  0.00    -0.532 OA
ENDBRANCH   9  13
ENDBRANCH   7   8
ENDBRANCH   4   7
BRANCH   1  16
ATOM     16  C   UNL d   1       3.927   6.611  -0.237  0.00  0.00     0.293 C 
ATOM     17  O   UNL d   1       4.797   6.609  -1.091  0.00  0.00    -0.259 OA
BRANCH  16  18
ATOM     18  O   UNL d   1       3.903   7.365   0.890  0.00  0.00    -0.318 OA
BRANCH  18  19
ATOM     19  C   UNL d   1       5.157   7.921   1.300  0.00  0.00     0.174 C 
ATOM     20  C   UNL d   1       5.868   6.886   2.155  0.00  0.00     0.034 C 
ENDBRANCH  18  19
ENDBRANCH  16  18
ENDBRANCH   1  16
TORSDOF 6
