REMARK  6 active torsions:
REMARK  status: ('A' for Active; 'I' for Inactive)
REMARK    1  A    between atoms: C_6  and  S_1 
REMARK    2  A    between atoms: C_10  and  S_1 
REMARK    3  A    between atoms: C_9  and  C_2 
REMARK    4  A    between atoms: C_5  and  C_6 
REMARK    5  A    between atoms: O_16  and  C_9 
REMARK    6  A    between atoms: C_21  and  O_16 
ROOT
ATOM      1  C   UNL d   1       0.771  -1.258   4.312  0.00  0.00     0.115 A 
ATOM      2  N   UNL d   1       0.126  -0.794   3.163  0.00  0.00    -0.348 N 
ATOM      3  HN  UNL d   1      -0.737  -1.183   2.784  1.00  0.00     0.166 HD
ATOM      4  C   UNL d   1       0.787   0.215   2.638  0.00  0.00     0.065 A 
ATOM      5  C   UNL d   1       1.888  -0.521   4.664  0.00  0.00     0.087 A 
ATOM      6  S   UNL d   1       2.156   0.737   3.536  0.00  0.00    -0.085 SA
ENDROOT
BRANCH   4   7
ATOM      7  C   UNL d   1       0.383   0.911   1.394  0.00  0.00     0.210 C 
BRANCH   7   8
ATOM      8  S   UNL d   1       0.999   0.008  -0.005  0.00  0.00     0.181 S 
ATOM      9  O   UNL d   1       2.439  -0.124   0.116  0.00  0.00    -0.222 OA
ATOM     10  O   UNL d   1       0.432   0.614  -1.199  0.00  0.00    -0.222 OA
BRANCH   8  11
ATOM     11  C   UNL d   1       0.292  -1.623   0.092  0.00  0.00     0.059 A 
ATOM     12  C   UNL d   1      -1.093  -1.774  -0.041  0.00  0.00     0.025 A 
ATOM     13  C   UNL d   1      -1.652  -3.052   0.006  0.00  0.00     0.025 A 
ATOM     14  C   UNL d   1      -0.827  -4.166   0.163  0.00  0.00     0.034 A 
ATOM     15  C   UNL d   1       0.556  -4.014   0.286  0.00  0.00     0.025 A 
ATOM     16 CL   UNL d   1      -1.521  -5.740   0.192  0.00  0.00    -0.084 Cl
ATOM     17  C   UNL d   1       1.122  -2.738   0.250  0.00  0.00     0.025 A 
ENDBRANCH   8  11
ENDBRANCH   7   8
ENDBRANCH   4   7
BRANCH   1  18
ATOM     18  C   UNL d   1       0.331  -2.451   5.037  0.00  0.00     0.310 C 
ATOM     19  O   UNL d   1       0.933  -2.908   6.002  0.00  0.00    -0.258 OA
BRANCH  18  20
ATOM     20  O   UNL d   1      -0.765  -3.024   4.463  0.00  0.00    -0.317 OA
BRANCH  20  21
ATOM     21  C   UNL d   1      -1.054  -4.364   4.878  0.00  0.00     0.175 C 
ATOM     22  C   UNL d   1      -0.249  -5.319   4.017  0.00  0.00     0.034 C 
ENDBRANCH  20  21
ENDBRANCH  18  20
ENDBRANCH   1  18
TORSDOF 6
