REMARK  2 active torsions:
REMARK  status: ('A' for Active; 'I' for Inactive)
REMARK    1  A    between atoms: S_11  and  C_3 
REMARK    2  A    between atoms: C_8  and  C_5 
ROOT
ATOM      1  N   UNL d   1       1.236   0.645   0.037  0.00  0.00    -0.347 N 
ATOM      2  HN  UNL d   1       2.118   1.157   0.048  1.00  0.00     0.167 HD
ATOM      3  C   UNL d   1       1.207  -0.714   0.102  0.00  0.00     0.088 A 
ATOM      4  C   UNL d   1       0.024  -1.453   0.080  0.00  0.00     0.077 A 
ATOM      5  C   UNL d   1       0.048   1.295  -0.043  0.00  0.00     0.079 A 
ATOM      6  C   UNL d   1       0.003  -2.885   0.119  0.00  0.00     0.102 C 
ATOM      7  N   UNL d   1      -0.057  -4.042   0.144  0.00  0.00    -0.191 NA
ATOM      8  C   UNL d   1      -1.185  -0.755   0.011  0.00  0.00     0.028 A 
ATOM      9  C   UNL d   1      -1.176   0.637  -0.045  0.00  0.00     0.035 A 
ENDROOT
BRANCH   3  10
ATOM     10  S   UNL d   1       2.814  -1.468   0.226  0.00  0.00    -0.124 SA
ATOM     11  H   UNL d   1       3.478  -0.307   0.305  0.00  0.00     0.108 HD
ENDBRANCH   3  10
BRANCH   5  12
ATOM     12  C   UNL d   1       0.067   2.784  -0.153  0.00  0.00     0.172 C 
ATOM     13  O   UNL d   1      -0.996   3.403  -0.215  0.00  0.00    -0.291 OA
ATOM     14  C   UNL d   1       1.385   3.510  -0.210  0.00  0.00     0.098 C 
ENDBRANCH   5  12
TORSDOF 2
