REMARK  3 active torsions:
REMARK  status: ('A' for Active; 'I' for Inactive)
REMARK    1  A    between atoms: C_11  and  C_7 
REMARK    2  A    between atoms: C_13  and  C_10 
REMARK    3  A    between atoms: O_14  and  C_13 
ROOT
ATOM      1  N   UNL d   1      -0.302  -0.599  -0.018  0.00  0.00    -0.204 N 
ATOM      2  C   UNL d   1      -0.258   0.784  -0.023  0.00  0.00     0.133 A 
ATOM      3  N   UNL d   1      -1.577  -1.065  -0.025  0.00  0.00    -0.293 N 
ATOM      4  HN  UNL d   1      -1.884  -2.038  -0.033  1.00  0.00     0.187 HD
ATOM      5  C   UNL d   1      -1.554   1.221  -0.017  0.00  0.00     0.077 A 
ATOM      6  C   UNL d   1       0.832  -1.429  -0.006  0.00  0.00     0.270 A 
ATOM      7  C   UNL d   1      -2.344   0.036  -0.017  0.00  0.00     0.037 A 
ATOM      8  C   UNL d   1       2.125  -0.681   0.005  0.00  0.00     0.103 A 
ATOM      9  N   UNL d   1       0.946   1.394  -0.025  0.00  0.00    -0.342 N 
ATOM     10  C   UNL d   1       2.134   0.668  -0.002  0.00  0.00     0.040 A 
ATOM     11  O   UNL d   1       0.763  -2.651  -0.006  0.00  0.00    -0.266 OA
ATOM     12  H   UNL d   1       1.049   2.405   0.077  0.00  0.00     0.167 HD
ENDROOT
BRANCH   7  13
ATOM     13  C   UNL d   1      -3.865  -0.060   0.011  0.00  0.00    -0.007 C 
ATOM     14  C   UNL d   1      -4.348  -1.527   0.008  0.00  0.00     0.021 C 
ATOM     15  C   UNL d   1      -4.409   0.624   1.282  0.00  0.00     0.021 C 
ATOM     16  C   UNL d   1      -4.474   0.641  -1.220  0.00  0.00     0.021 C 
ENDBRANCH   7  13
BRANCH  10  17
ATOM     17  C   UNL d   1       3.433   1.445  -0.006  0.00  0.00     0.224 C 
BRANCH  17  18
ATOM     18  O   UNL d   1       3.467   2.294   1.142  0.00  0.00    -0.390 OA
ATOM     19  C   UNL d   1       4.676   3.042   1.198  0.00  0.00     0.201 C 
ENDBRANCH  17  18
ENDBRANCH  10  17
TORSDOF 3
