REMARK  4 active torsions:
REMARK  status: ('A' for Active; 'I' for Inactive)
REMARK    1  A    between atoms: C_2  and  C_1 
REMARK       I    between atoms: N_4  and  C_2 
REMARK    2  A    between atoms: N_7  and  N_4 
REMARK    3  A    between atoms: C_14  and  N_7 
REMARK    4  A    between atoms: C_16  and  C_9 
ROOT
ATOM      1  C   UNL d   1       1.043  -2.304   1.411  0.00  0.00     0.269 C 
ATOM      2  N   UNL d   1       1.773  -3.418   1.030  0.00  0.00    -0.283 N 
ATOM      3  O   UNL d   1       0.035  -1.932   0.816  0.00  0.00    -0.266 OA
ATOM      4  H   UNL d   1       2.713  -3.591   1.368  0.00  0.00     0.184 HD
ENDROOT
BRANCH   2   5
ATOM      5  N   UNL d   1       1.389  -4.078  -0.147  0.00  0.00    -0.203 NA
ATOM      6  H   UNL d   1       0.488  -3.714  -0.482  0.00  0.00     0.153 HD
BRANCH   5   7
ATOM      7  C   UNL d   1       1.358  -5.494  -0.048  0.00  0.00     0.027 A 
ATOM      8  C   UNL d   1       0.549  -6.204  -0.945  0.00  0.00     0.026 A 
ATOM      9  C   UNL d   1       0.536  -7.604  -0.962  0.00  0.00     0.009 A 
ATOM     10  C   UNL d   1       1.355  -8.341  -0.099  0.00  0.00    -0.055 A 
ATOM     11  C   UNL d   1       2.199  -7.638   0.769  0.00  0.00     0.009 A 
ATOM     12  C   UNL d   1       2.209  -6.235   0.783  0.00  0.00     0.026 A 
BRANCH  10  13
ATOM     13  C   UNL d   1       1.344  -9.861  -0.101  0.00  0.00     0.010 C 
ATOM     14  C   UNL d   1      -0.030 -10.407   0.301  0.00  0.00     0.015 C 
ATOM     15  C   UNL d   1       1.774 -10.428  -1.457  0.00  0.00     0.015 C 
ENDBRANCH  10  13
ENDBRANCH   5   7
ENDBRANCH   2   5
BRANCH   1  16
ATOM     16  C   UNL d   1       1.530  -1.565   2.611  0.00  0.00     0.072 A 
ATOM     17  C   UNL d   1       2.589  -2.024   3.401  0.00  0.00     0.135 A 
ATOM     18  C   UNL d   1       2.972  -1.352   4.558  0.00  0.00     0.085 A 
ATOM     19  F   UNL d   1       3.268  -3.134   3.071  0.00  0.00    -0.205 F 
ATOM     20  C   UNL d   1       2.295  -0.198   4.925  0.00  0.00     0.119 A 
ATOM     21  C   UNL d   1       1.252   0.297   4.149  0.00  0.00     0.043 A 
ATOM     22  F   UNL d   1       2.647   0.444   6.045  0.00  0.00    -0.206 F 
ATOM     23  C   UNL d   1       0.868  -0.385   2.990  0.00  0.00     0.023 A 
ENDBRANCH   1  16
TORSDOF 4
