REMARK  10 active torsions:
REMARK  status: ('A' for Active; 'I' for Inactive)
REMARK    1  A    between atoms: N_3  and  C_1 
REMARK    2  A    between atoms: N_5  and  C_1 
REMARK    3  A    between atoms: C_2  and  N_3 
REMARK    4  A    between atoms: C_14  and  C_2 
REMARK    5  A    between atoms: C_15  and  C_2 
REMARK    6  A    between atoms: C_16  and  C_2 
REMARK    7  A    between atoms: C_4  and  N_5 
REMARK    8  A    between atoms: O_18  and  C_14 
REMARK    9  A    between atoms: O_19  and  C_15 
REMARK   10  A    between atoms: O_17  and  C_16 
ROOT
ATOM      1  C   UNL d   1       1.046   0.039   0.112  0.00  0.00     0.173 C 
ATOM      2  S   UNL d   1       2.448   0.430   0.927  0.00  0.00    -0.041 SA
ENDROOT
BRANCH   1   3
ATOM      3  N   UNL d   1       0.593   0.647  -1.043  0.00  0.00    -0.351 N 
ATOM      4  H   UNL d   1      -0.408   0.555  -1.180  0.00  0.00     0.163 HD
BRANCH   3   5
ATOM      5  C   UNL d   1       1.200   1.699  -1.927  0.00  0.00     0.095 C 
BRANCH   5   6
ATOM      6  C   UNL d   1       2.592   1.258  -2.449  0.00  0.00     0.199 C 
BRANCH   6   7
ATOM      7  O   UNL d   1       2.534  -0.076  -2.967  0.00  0.00    -0.398 OA
ATOM      8  H   UNL d   1       2.490  -0.656  -2.181  0.00  0.00     0.209 HD
ENDBRANCH   6   7
ENDBRANCH   5   6
BRANCH   5   9
ATOM      9  C   UNL d   1       0.253   1.834  -3.161  0.00  0.00     0.199 C 
BRANCH   9  10
ATOM     10  O   UNL d   1      -0.053   0.561  -3.737  0.00  0.00    -0.398 OA
ATOM     11  H   UNL d   1       0.788   0.055  -3.756  0.00  0.00     0.209 HD
ENDBRANCH   9  10
ENDBRANCH   5   9
BRANCH   5  12
ATOM     12  C   UNL d   1       1.311   3.079  -1.235  0.00  0.00     0.199 C 
BRANCH  12  13
ATOM     13  O   UNL d   1       0.040   3.547  -0.780  0.00  0.00    -0.398 OA
ATOM     14  H   UNL d   1      -0.334   4.132  -1.461  0.00  0.00     0.209 HD
ENDBRANCH  12  13
ENDBRANCH   5  12
ENDBRANCH   3   5
ENDBRANCH   1   3
BRANCH   1  15
ATOM     15  N   UNL d   1       0.221  -1.053   0.384  0.00  0.00    -0.333 N 
ATOM     16  H   UNL d   1      -0.145  -1.484  -0.457  0.00  0.00     0.168 HD
BRANCH  15  17
ATOM     17  C   UNL d   1       0.189  -1.853   1.546  0.00  0.00     0.037 A 
ATOM     18  C   UNL d   1       0.310  -1.315   2.828  0.00  0.00     0.053 A 
ATOM     19  C   UNL d   1       0.260  -2.151   3.943  0.00  0.00     0.037 A 
ATOM     20 CL   UNL d   1       0.396  -1.476   5.520  0.00  0.00    -0.084 Cl
ATOM     21  C   UNL d   1       0.089  -3.524   3.794  0.00  0.00     0.048 A 
ATOM     22  C   UNL d   1      -0.057  -4.054   2.516  0.00  0.00     0.037 A 
ATOM     23  C   UNL d   1      -0.032  -3.226   1.393  0.00  0.00     0.053 A 
ATOM     24 CL   UNL d   1      -0.258  -5.752   2.315  0.00  0.00    -0.084 Cl
ENDBRANCH  15  17
ENDBRANCH   1  15
TORSDOF 10
