REMARK  1 active torsions:
REMARK  status: ('A' for Active; 'I' for Inactive)
REMARK    1  A    between atoms: N_9  and  C_5 
ROOT
ATOM      1  N   UNL d   1      -0.723   1.185   0.024  0.00  0.00    -0.360 N 
ATOM      2  HN  UNL d   1      -1.215   2.078   0.065  1.00  0.00     0.165 HD
ATOM      3  N   UNL d   1       0.632  -1.291  -0.059  0.00  0.00    -0.354 N 
ATOM      4  HN  UNL d   1       1.131  -2.180  -0.084  1.00  0.00     0.166 HD
ATOM      5  C   UNL d   1      -0.714  -1.229  -0.076  0.00  0.00     0.100 A 
ATOM      6  C   UNL d   1      -1.392  -0.001  -0.033  0.00  0.00     0.044 A 
ATOM      7  C   UNL d   1       0.628   1.117   0.025  0.00  0.00     0.021 A 
ATOM      8  C   UNL d   1       1.282  -0.105  -0.006  0.00  0.00     0.114 A 
ATOM      9  C   UNL d   1      -2.885   0.103  -0.062  0.00  0.00     0.071 C 
ATOM     10  C   UNL d   1       1.397   2.399   0.043  0.00  0.00     0.069 C 
ENDROOT
BRANCH   5  11
ATOM     11  N   UNL d   1      -1.357  -2.461  -0.179  0.00  0.00    -0.287 NA
ATOM     12  H   UNL d   1      -2.035  -2.596   0.563  0.00  0.00     0.125 HD
ATOM     13  H   UNL d   1      -0.628  -3.170  -0.153  0.00  0.00     0.125 HD
ENDBRANCH   5  11
TORSDOF 1
