REMARK  4 active torsions:
REMARK  status: ('A' for Active; 'I' for Inactive)
REMARK    1  A    between atoms: C_2  and  S_1 
REMARK    2  A    between atoms: C_7  and  S_1 
REMARK    3  A    between atoms: N_10  and  N_3 
REMARK    4  A    between atoms: C_13  and  N_10 
ROOT
ATOM      1  C   UNL d   1       0.501   1.632  -0.379  0.00  0.00     0.229 C 
ATOM      2  N   UNL d   1      -0.145   1.789  -1.498  0.00  0.00    -0.281 N 
ATOM      3  HN  UNL d   1      -0.408   2.725  -1.807  1.00  0.00     0.188 HD
ATOM      4  C   UNL d   1       0.902   0.321   0.049  0.00  0.00     0.132 C 
ATOM      5  N   UNL d   1       1.181  -0.763   0.364  0.00  0.00    -0.189 NA
ENDROOT
BRANCH   1   6
ATOM      6  S   UNL d   1       0.898   2.965   0.676  0.00  0.00     0.233 S 
ATOM      7  O   UNL d   1       2.347   3.062   0.672  0.00  0.00    -0.215 OA
ATOM      8  O   UNL d   1       0.162   2.751   1.909  0.00  0.00    -0.215 OA
BRANCH   6   9
ATOM      9  C   UNL d   1       0.253   4.458  -0.046  0.00  0.00     0.066 A 
ATOM     10  C   UNL d   1      -1.127   4.595  -0.233  0.00  0.00     0.025 A 
ATOM     11  C   UNL d   1      -1.640   5.789  -0.748  0.00  0.00     0.025 A 
ATOM     12  C   UNL d   1      -0.777   6.843  -1.055  0.00  0.00     0.034 A 
ATOM     13  C   UNL d   1       0.597   6.714  -0.850  0.00  0.00     0.025 A 
ATOM     14 CL   UNL d   1      -1.415   8.313  -1.680  0.00  0.00    -0.084 Cl
ATOM     15  C   UNL d   1       1.117   5.520  -0.343  0.00  0.00     0.025 A 
ENDBRANCH   6   9
ENDBRANCH   1   6
BRANCH   2  16
ATOM     16  N   UNL d   1      -0.474   0.697  -2.262  0.00  0.00    -0.299 N 
ATOM     17  H   UNL d   1      -0.781  -0.171  -1.813  0.00  0.00     0.187 HD
BRANCH  16  18
ATOM     18  C   UNL d   1      -1.180   0.968  -3.459  0.00  0.00     0.048 A 
ATOM     19  C   UNL d   1      -0.974   2.162  -4.169  0.00  0.00     0.034 A 
ATOM     20  C   UNL d   1      -1.668   2.422  -5.352  0.00  0.00     0.044 A 
ATOM     21  C   UNL d   1      -2.570   1.484  -5.834  0.00  0.00     0.116 A 
ATOM     22  C   UNL d   1      -2.775   0.284  -5.165  0.00  0.00     0.044 A 
ATOM     23  F   UNL d   1      -3.247   1.738  -6.961  0.00  0.00    -0.206 F 
ATOM     24  C   UNL d   1      -2.070   0.019  -3.985  0.00  0.00     0.034 A 
ENDBRANCH  16  18
ENDBRANCH   2  16
TORSDOF 4
