REMARK  11 active torsions:
REMARK  status: ('A' for Active; 'I' for Inactive)
REMARK    1  A    between atoms: O_5  and  C_1 
REMARK    2  A    between atoms: C_7  and  C_1 
REMARK    3  A    between atoms: C_2  and  S_9 
REMARK    4  A    between atoms: N_12  and  C_2 
REMARK    5  A    between atoms: N_3  and  C_4 
REMARK    6  A    between atoms: C_10  and  O_5 
REMARK    7  A    between atoms: S_9  and  C_16 
REMARK    8  A    between atoms: C_27  and  N_12 
REMARK    9  A    between atoms: C_16  and  C_18 
REMARK   10  A    between atoms: C_21  and  C_35 
REMARK   11  A    between atoms: C_35  and  C_27 
ROOT
ATOM      1  C   UNL d   1       0.203   1.084  -0.543  0.00  0.00     0.040 A 
ATOM      2  C   UNL d   1       0.569   1.520  -1.823  0.00  0.00     0.018 A 
ATOM      3  C   UNL d   1      -0.831   1.745   0.126  0.00  0.00     0.018 A 
ATOM      4  C   UNL d   1      -1.109   3.291  -1.749  0.00  0.00    -0.049 A 
ATOM      5  C   UNL d   1      -1.491   2.829  -0.479  0.00  0.00     0.009 A 
ATOM      6  C   UNL d   1      -0.082   2.607  -2.419  0.00  0.00     0.009 A 
ENDROOT
BRANCH   1   7
ATOM      7  C   UNL d   1       0.954  -0.062   0.047  0.00  0.00     0.298 C 
ATOM      8  O   UNL d   1       1.826  -0.661  -0.567  0.00  0.00    -0.259 OA
BRANCH   7   9
ATOM      9  O   UNL d   1       0.550  -0.288   1.357  0.00  0.00    -0.275 OA
BRANCH   9  10
ATOM     10  C   UNL d   1       1.343  -1.153   2.138  0.00  0.00     0.081 A 
ATOM     11  C   UNL d   1       2.732  -1.006   2.192  0.00  0.00     0.066 A 
ATOM     12  C   UNL d   1       3.525  -1.835   2.994  0.00  0.00     0.033 A 
ATOM     13  C   UNL d   1       2.854  -2.777   3.791  0.00  0.00     0.029 A 
ATOM     14  C   UNL d   1       1.456  -2.906   3.764  0.00  0.00     0.005 A 
ATOM     15  C   UNL d   1       0.692  -2.089   2.936  0.00  0.00     0.037 A 
BRANCH  12  16
ATOM     16  N   UNL d   1       4.904  -1.775   2.974  0.00  0.00    -0.377 N 
ATOM     17  C   UNL d   1       5.649  -1.313   1.790  0.00  0.00     0.149 C 
ATOM     18  C   UNL d   1       6.319   0.038   2.068  0.00  0.00     0.187 C 
ATOM     19  O   UNL d   1       7.160  -0.030   3.233  0.00  0.00    -0.388 OA
ATOM     20  C   UNL d   1       6.379  -0.386   4.387  0.00  0.00     0.187 C 
ATOM     21  C   UNL d   1       5.685  -1.752   4.221  0.00  0.00     0.149 C 
ENDBRANCH  12  16
ENDBRANCH   9  10
ENDBRANCH   7   9
ENDBRANCH   1   7
BRANCH   4  22
ATOM     22  C   UNL d   1      -1.839   4.417  -2.465  0.00  0.00     0.120 C 
BRANCH  22  23
ATOM     23  S   UNL d   1      -2.277   5.833  -1.412  0.00  0.00    -0.096 SA
BRANCH  23  24
ATOM     24  C   UNL d   1      -3.338   6.801  -2.428  0.00  0.00     0.134 C 
ATOM     25  S   UNL d   1      -3.593   6.639  -4.067  0.00  0.00    -0.053 SA
BRANCH  24  26
ATOM     26  N   UNL d   1      -3.935   7.743  -1.620  0.00  0.00    -0.375 N 
ATOM     27  H   UNL d   1      -3.686   7.664  -0.641  0.00  0.00     0.161 HD
BRANCH  26  28
ATOM     28  C   UNL d   1      -5.104   8.549  -1.965  0.00  0.00     0.126 C 
BRANCH  28  29
ATOM     29  C   UNL d   1      -5.452   9.572  -0.882  0.00  0.00     0.058 C 
BRANCH  29  30
ATOM     30  C   UNL d   1      -6.706  10.340  -1.224  0.00  0.00    -0.057 A 
ATOM     31  C   UNL d   1      -7.965   9.856  -0.835  0.00  0.00     0.009 A 
ATOM     32  C   UNL d   1      -9.127  10.552  -1.176  0.00  0.00     0.024 A 
ATOM     33  C   UNL d   1      -9.038  11.731  -1.911  0.00  0.00     0.034 A 
ATOM     34  C   UNL d   1      -7.796  12.220  -2.310  0.00  0.00     0.024 A 
ATOM     35 CL   UNL d   1     -10.470  12.585  -2.335  0.00  0.00    -0.084 Cl
ATOM     36  C   UNL d   1      -6.633  11.526  -1.968  0.00  0.00     0.009 A 
ENDBRANCH  29  30
ENDBRANCH  28  29
ENDBRANCH  26  28
ENDBRANCH  24  26
ENDBRANCH  23  24
ENDBRANCH  22  23
ENDBRANCH   4  22
TORSDOF 11
