REMARK  5 active torsions:
REMARK  status: ('A' for Active; 'I' for Inactive)
REMARK    1  A    between atoms: S_10  and  C_1 
REMARK    2  A    between atoms: N_14  and  C_6 
REMARK    3  A    between atoms: C_13  and  C_7 
REMARK    4  A    between atoms: C_17  and  S_10 
REMARK    5  A    between atoms: O_27  and  C_19 
ROOT
ATOM      1  C   UNL d   1      -1.228   1.274  -0.219  0.00  0.00     0.097 A 
ATOM      2  C   UNL d   1      -1.421  -0.109  -0.155  0.00  0.00     0.091 A 
ATOM      3  N   UNL d   1       0.001   1.837  -0.194  0.00  0.00    -0.339 N 
ATOM      4  HN  UNL d   1       0.107   2.851  -0.201  1.00  0.00     0.167 HD
ATOM      5  C   UNL d   1       0.986  -0.357  -0.204  0.00  0.00     0.095 A 
ATOM      6  C   UNL d   1       1.076   1.039  -0.158  0.00  0.00     0.100 A 
ATOM      7  C   UNL d   1      -0.292  -0.979  -0.178  0.00  0.00     0.022 A 
ATOM      8  C   UNL d   1      -2.763  -0.606  -0.025  0.00  0.00     0.103 C 
ATOM      9  C   UNL d   1       2.213  -1.097  -0.281  0.00  0.00     0.103 C 
ATOM     10  N   UNL d   1      -3.847  -1.006   0.069  0.00  0.00    -0.191 NA
ATOM     11  N   UNL d   1       3.219  -1.677  -0.291  0.00  0.00    -0.191 NA
ENDROOT
BRANCH   1  12
ATOM     12  S   UNL d   1      -2.556   2.465  -0.335  0.00  0.00    -0.071 SA
BRANCH  12  13
ATOM     13  C   UNL d   1      -2.714   2.752  -2.096  0.00  0.00     0.007 A 
ATOM     14  C   UNL d   1      -3.979   3.101  -2.591  0.00  0.00     0.020 A 
ATOM     15  C   UNL d   1      -4.171   3.359  -3.954  0.00  0.00     0.025 A 
ATOM     16  C   UNL d   1      -3.096   3.270  -4.833  0.00  0.00     0.034 A 
ATOM     17  C   UNL d   1      -1.830   2.943  -4.358  0.00  0.00     0.025 A 
ATOM     18 CL   UNL d   1      -3.331   3.575  -6.509  0.00  0.00    -0.084 Cl
ATOM     19  C   UNL d   1      -1.638   2.694  -2.993  0.00  0.00     0.020 A 
ENDBRANCH  12  13
ENDBRANCH   1  12
BRANCH   7  20
ATOM     20  C   UNL d   1      -0.444  -2.474  -0.185  0.00  0.00    -0.023 A 
ATOM     21  C   UNL d   1      -1.391  -3.116  -1.007  0.00  0.00     0.015 A 
ATOM     22  C   UNL d   1      -1.585  -4.506  -0.983  0.00  0.00     0.037 A 
ATOM     23  C   UNL d   1      -0.784  -5.313  -0.185  0.00  0.00     0.068 A 
ATOM     24  C   UNL d   1       0.198  -4.712   0.597  0.00  0.00     0.037 A 
ATOM     25  C   UNL d   1       0.343  -3.316   0.623  0.00  0.00     0.015 A 
BRANCH  23  26
ATOM     26  O   UNL d   1      -0.855  -6.674  -0.087  0.00  0.00    -0.356 OA
ATOM     27  C   UNL d   1      -1.946  -7.307  -0.745  0.00  0.00     0.210 C 
ENDBRANCH  23  26
ENDBRANCH   7  20
BRANCH   6  28
ATOM     28  N   UNL d   1       2.285   1.726  -0.142  0.00  0.00    -0.287 NA
ATOM     29  H   UNL d   1       2.933   1.411   0.574  0.00  0.00     0.125 HD
ATOM     30  H   UNL d   1       2.086   2.721  -0.051  0.00  0.00     0.125 HD
ENDBRANCH   6  28
TORSDOF 5
