REMARK  4 active torsions:
REMARK  status: ('A' for Active; 'I' for Inactive)
REMARK    1  A    between atoms: C_2  and  C_1 
REMARK       I    between atoms: N_3  and  C_2 
REMARK       I    between atoms: C_4  and  N_3 
REMARK       I    between atoms: N_11  and  C_4 
REMARK    2  A    between atoms: O_22  and  C_5 
REMARK    3  A    between atoms: O_21  and  C_6 
REMARK    4  A    between atoms: C_10  and  N_11 
ROOT
ATOM      1  C   UNL d   1       1.025  -3.910   0.271  0.00  0.00     0.244 C 
ATOM      2  N   UNL d   1       0.247  -4.289   1.365  0.00  0.00    -0.175 NA
ATOM      3  C   UNL d   1      -0.609  -5.371   1.322  0.00  0.00     0.305 C 
ATOM      4  N   UNL d   1      -0.054  -6.481   1.927  0.00  0.00    -0.313 N 
ATOM      5  O   UNL d   1       1.655  -4.715  -0.398  0.00  0.00    -0.273 OA
ATOM      6  O   UNL d   1      -1.798  -5.210   1.081  0.00  0.00    -0.253 OA
ATOM      7  H   UNL d   1      -0.336  -3.510   1.656  0.00  0.00     0.141 HD
ATOM      8  H   UNL d   1       0.950  -6.551   1.818  0.00  0.00     0.170 HD
ENDROOT
BRANCH   1   9
ATOM      9  C   UNL d   1       1.159  -2.407   0.074  0.00  0.00     0.096 C 
ATOM     10  C   UNL d   1       0.106  -1.559   0.484  0.00  0.00     0.103 C 
ATOM     11  C   UNL d   1       0.265  -0.171   0.547  0.00  0.00     0.047 C 
ATOM     12 BR   UNL d   1      -1.074   0.957   1.280  0.00  0.00    -0.048 Br
ATOM     13  C   UNL d   1       1.444   0.408   0.106  0.00  0.00     0.048 C 
ATOM     14  C   UNL d   1       2.463  -0.400  -0.401  0.00  0.00     0.069 C 
ATOM     15  C   UNL d   1       2.326  -1.806  -0.451  0.00  0.00     0.108 C 
ATOM     16 CL   UNL d   1       3.912   0.428  -0.860  0.00  0.00    -0.081 Cl
BRANCH  10  17
ATOM     17  O   UNL d   1      -1.097  -2.099   0.873  0.00  0.00    -0.353 OA
ATOM     18  C   UNL d   1      -2.004  -2.145  -0.240  0.00  0.00     0.210 C 
ENDBRANCH  10  17
BRANCH  15  19
ATOM     19  O   UNL d   1       3.352  -2.598  -0.906  0.00  0.00    -0.353 OA
ATOM     20  C   UNL d   1       3.617  -2.418  -2.303  0.00  0.00     0.210 C 
ENDBRANCH  15  19
ENDBRANCH   1   9
BRANCH   4  21
ATOM     21  C   UNL d   1      -0.657  -7.202   2.987  0.00  0.00     0.039 A 
ATOM     22  C   UNL d   1      -2.004  -7.079   3.350  0.00  0.00     0.053 A 
ATOM     23  C   UNL d   1      -2.465  -7.648   4.542  0.00  0.00     0.037 A 
ATOM     24 CL   UNL d   1      -4.110  -7.438   5.011  0.00  0.00    -0.084 Cl
ATOM     25  C   UNL d   1      -1.603  -8.350   5.377  0.00  0.00     0.048 A 
ATOM     26  C   UNL d   1      -0.281  -8.522   4.985  0.00  0.00     0.037 A 
ATOM     27  C   UNL d   1       0.190  -7.972   3.790  0.00  0.00     0.053 A 
ATOM     28 CL   UNL d   1       0.807  -9.372   6.014  0.00  0.00    -0.084 Cl
ENDBRANCH   4  21
TORSDOF 4
