REMARK  8 active torsions:
REMARK  status: ('A' for Active; 'I' for Inactive)
REMARK    1  A    between atoms: C_9  and  N_1 
REMARK    2  A    between atoms: S_8  and  C_2 
REMARK    3  A    between atoms: O_13  and  C_3 
REMARK    4  A    between atoms: C_12  and  S_8 
REMARK    5  A    between atoms: C_10  and  C_12 
REMARK    6  A    between atoms: O_14  and  C_10 
REMARK    7  A    between atoms: C_17  and  O_13 
REMARK    8  A    between atoms: C_18  and  O_14 
ROOT
ATOM      1  N   UNL d   1      -0.199  -1.426  -0.083  0.00  0.00    -0.255 N 
ATOM      2  C   UNL d   1       1.059  -0.840  -0.143  0.00  0.00     0.169 A 
ATOM      3  C   UNL d   1      -1.056  -0.332  -0.150  0.00  0.00     0.247 A 
ATOM      4  N   UNL d   1       0.958   0.468  -0.251  0.00  0.00    -0.276 N 
ATOM      5  HN  UNL d   1       1.733   1.127  -0.315  1.00  0.00     0.189 HD
ATOM      6  N   UNL d   1      -0.373   0.787  -0.263  0.00  0.00    -0.263 N 
ATOM      7  HN  UNL d   1      -0.765   1.725  -0.345  1.00  0.00     0.190 HD
ENDROOT
BRANCH   2   8
ATOM      8  S   UNL d   1       2.577  -1.669   0.031  0.00  0.00    -0.082 SA
BRANCH   8   9
ATOM      9  C   UNL d   1       3.603  -0.395   0.805  0.00  0.00     0.193 C 
BRANCH   9  10
ATOM     10  C   UNL d   1       3.210  -0.124   2.241  0.00  0.00     0.268 C 
ATOM     11  O   UNL d   1       2.214  -0.532   2.821  0.00  0.00    -0.264 OA
BRANCH  10  12
ATOM     12  O   UNL d   1       4.158   0.691   2.799  0.00  0.00    -0.321 OA
BRANCH  12  13
ATOM     13  C   UNL d   1       3.850   1.211   4.099  0.00  0.00     0.174 C 
ATOM     14  C   UNL d   1       3.125   2.531   3.927  0.00  0.00     0.034 C 
ENDBRANCH  12  13
ENDBRANCH  10  12
ENDBRANCH   9  10
ENDBRANCH   8   9
ENDBRANCH   2   8
BRANCH   1  15
ATOM     15  C   UNL d   1      -0.575  -2.801  -0.004  0.00  0.00     0.045 A 
ATOM     16  C   UNL d   1      -1.759  -3.174   0.648  0.00  0.00     0.030 A 
ATOM     17  C   UNL d   1      -2.118  -4.522   0.749  0.00  0.00     0.002 A 
ATOM     18  C   UNL d   1      -1.307  -5.508   0.196  0.00  0.00     0.000 A 
ATOM     19  C   UNL d   1      -0.141  -5.149  -0.473  0.00  0.00     0.002 A 
ATOM     20  C   UNL d   1       0.219  -3.804  -0.580  0.00  0.00     0.030 A 
ENDBRANCH   1  15
BRANCH   3  21
ATOM     21  O   UNL d   1      -2.387  -0.427  -0.195  0.00  0.00    -0.321 OA
BRANCH  21  22
ATOM     22  C   UNL d   1      -3.056   0.752  -0.642  0.00  0.00     0.174 C 
ATOM     23  C   UNL d   1      -4.553   0.514  -0.546  0.00  0.00     0.034 C 
ENDBRANCH  21  22
ENDBRANCH   3  21
TORSDOF 8
