REMARK  4 active torsions:
REMARK  status: ('A' for Active; 'I' for Inactive)
REMARK    1  A    between atoms: N_3  and  S_1 
REMARK    2  A    between atoms: C_14  and  S_1 
REMARK    3  A    between atoms: C_2  and  N_7 
REMARK    4  A    between atoms: C_6  and  C_8 
ROOT
ATOM      1  N   UNL d   1       0.533  -0.840  -1.540  0.00  0.00    -0.205 NA
ATOM      2  N   UNL d   1       0.828  -1.924  -4.359  0.00  0.00    -0.216 N 
ATOM      3  C   UNL d   1       1.083  -0.063  -2.716  0.00  0.00     0.128 C 
ATOM      4  C   UNL d   1       0.505  -0.532  -4.059  0.00  0.00     0.157 C 
ATOM      5  C   UNL d   1       0.079  -3.174  -2.332  0.00  0.00     0.036 C 
ATOM      6  C   UNL d   1       1.020  -2.260  -1.555  0.00  0.00     0.109 C 
ATOM      7  C   UNL d   1      -0.051  -2.952  -3.838  0.00  0.00     0.142 C 
ENDROOT
BRANCH   2   8
ATOM      8  C   UNL d   1       1.990  -2.246  -5.013  0.00  0.00     0.680 A 
ATOM      9  N   UNL d   1       2.805  -1.255  -5.404  0.00  0.00    -0.186 N 
ATOM     10  C   UNL d   1       3.925  -1.566  -6.110  0.00  0.00     0.133 A 
ATOM     11  HN  UNL d   1       2.587  -0.285  -5.177  1.00  0.00     0.184 HD
ATOM     12  C   UNL d   1       4.247  -2.869  -6.431  0.00  0.00     0.052 A 
ATOM     13  C   UNL d   1       3.377  -3.821  -5.971  0.00  0.00     0.108 A 
ATOM     14  N   UNL d   1       2.267  -3.534  -5.266  0.00  0.00    -0.202 N 
ATOM     15  HN  UNL d   1       1.652  -4.277  -4.934  1.00  0.00     0.183 HD
BRANCH  10  16
ATOM     16  C   UNL d   1       4.851  -0.449  -6.559  0.00  0.00     0.433 C 
ATOM     17  F   UNL d   1       4.443   0.799  -6.194  0.00  0.00    -0.165 F 
ATOM     18  F   UNL d   1       6.112  -0.590  -6.056  0.00  0.00    -0.165 F 
ATOM     19  F   UNL d   1       5.004  -0.409  -7.915  0.00  0.00    -0.165 F 
ENDBRANCH  10  16
ENDBRANCH   2   8
BRANCH   1  20
ATOM     20  S   UNL d   1       0.844  -0.059  -0.030  0.00  0.00     0.243 S 
ATOM     21  O   UNL d   1       2.227   0.383  -0.047  0.00  0.00    -0.206 OA
ATOM     22  O   UNL d   1       0.340  -0.899   1.034  0.00  0.00    -0.206 OA
BRANCH  20  23
ATOM     23  C   UNL d   1      -0.208   1.372  -0.080  0.00  0.00     0.074 A 
ATOM     24  C   UNL d   1      -1.592   1.185  -0.154  0.00  0.00     0.025 A 
ATOM     25  C   UNL d   1      -2.436   2.295  -0.161  0.00  0.00     0.002 A 
ATOM     26  C   UNL d   1      -1.898   3.581  -0.087  0.00  0.00     0.000 A 
ATOM     27  C   UNL d   1      -0.516   3.762   0.001  0.00  0.00     0.002 A 
ATOM     28  C   UNL d   1       0.336   2.657   0.009  0.00  0.00     0.025 A 
ENDBRANCH  20  23
ENDBRANCH   1  20
TORSDOF 4
