REMARK  6 active torsions:
REMARK  status: ('A' for Active; 'I' for Inactive)
REMARK    1  A    between atoms: C_7  and  C_1 
REMARK    2  A    between atoms: C_10  and  N_2 
REMARK    3  A    between atoms: C_11  and  C_6 
REMARK       I    between atoms: N_9  and  C_7 
REMARK       I    between atoms: C_8  and  N_12 
REMARK       I    between atoms: N_13  and  C_8 
REMARK    4  A    between atoms: N_12  and  N_9 
REMARK    5  A    between atoms: C_19  and  C_10 
REMARK    6  A    between atoms: C_16  and  N_13 
ROOT
ATOM      1  C   UNL d   1       0.151  -1.116  -0.288  0.00  0.00     0.122 C 
ATOM      2  N   UNL d   1       1.264  -0.336  -0.094  0.00  0.00    -0.282 N 
ATOM      3  N   UNL d   1       1.014   0.984  -0.185  0.00  0.00    -0.301 N 
ATOM      4  HN  UNL d   1       1.692   1.743  -0.244  1.00  0.00     0.187 HD
ATOM      5  C   UNL d   1      -0.903  -0.214  -0.258  0.00  0.00     0.064 C 
ATOM      6  C   UNL d   1      -0.321   1.078  -0.181  0.00  0.00     0.036 C 
ENDROOT
BRANCH   1   7
ATOM      7  C   UNL d   1       0.117  -2.556  -0.355  0.00  0.00     0.288 C 
ATOM      8  N   UNL d   1       1.081  -3.107  -1.202  0.00  0.00    -0.261 N 
ATOM      9  H   UNL d   1       1.277  -2.562  -2.037  0.00  0.00     0.190 HD
ATOM     10  O   UNL d   1      -0.716  -3.251   0.220  0.00  0.00    -0.264 OA
BRANCH   8  11
ATOM     11  N   UNL d   1       1.030  -4.505  -1.389  0.00  0.00    -0.248 N 
ATOM     12  C   UNL d   1       2.058  -5.263  -1.915  0.00  0.00     0.339 C 
ATOM     13  N   UNL d   1       3.144  -4.524  -2.317  0.00  0.00    -0.308 N 
ATOM     14  O   UNL d   1       1.930  -6.478  -2.001  0.00  0.00    -0.245 OA
ATOM     15  H   UNL d   1       3.114  -3.558  -2.038  0.00  0.00     0.170 HD
ATOM     16  H   UNL d   1       0.233  -5.000  -0.986  0.00  0.00     0.192 HD
BRANCH  13  17
ATOM     17  C   UNL d   1       4.311  -4.965  -2.977  0.00  0.00     0.038 A 
ATOM     18  C   UNL d   1       4.548  -6.290  -3.351  0.00  0.00     0.053 A 
ATOM     19  C   UNL d   1       5.734  -6.629  -4.012  0.00  0.00     0.036 A 
ATOM     20 CL   UNL d   1       6.028  -8.265  -4.463  0.00  0.00    -0.084 Cl
ATOM     21  C   UNL d   1       6.687  -5.658  -4.314  0.00  0.00     0.024 A 
ATOM     22  C   UNL d   1       6.456  -4.336  -3.948  0.00  0.00     0.004 A 
ATOM     23  C   UNL d   1       5.277  -3.993  -3.281  0.00  0.00     0.029 A 
ENDBRANCH  13  17
ENDBRANCH   8  11
ENDBRANCH   1   7
BRANCH   2  24
ATOM     24  C   UNL d   1       2.602  -0.750   0.315  0.00  0.00     0.188 C 
BRANCH  24  25
ATOM     25  C   UNL d   1       2.648  -1.096   1.783  0.00  0.00    -0.038 A 
ATOM     26  C   UNL d   1       2.982  -2.390   2.205  0.00  0.00     0.009 A 
ATOM     27  C   UNL d   1       3.035  -2.695   3.567  0.00  0.00     0.001 A 
ATOM     28  C   UNL d   1       2.753  -1.715   4.518  0.00  0.00     0.000 A 
ATOM     29  C   UNL d   1       2.416  -0.427   4.110  0.00  0.00     0.001 A 
ATOM     30  C   UNL d   1       2.368  -0.117   2.752  0.00  0.00     0.009 A 
ENDBRANCH  24  25
ENDBRANCH   2  24
BRANCH   6  31
ATOM     31  C   UNL d   1      -0.960   2.456  -0.091  0.00  0.00    -0.007 C 
ATOM     32  C   UNL d   1      -2.499   2.396  -0.108  0.00  0.00     0.021 C 
ATOM     33  C   UNL d   1      -0.530   3.146   1.225  0.00  0.00     0.021 C 
ATOM     34  C   UNL d   1      -0.501   3.330  -1.278  0.00  0.00     0.021 C 
ENDBRANCH   6  31
TORSDOF 6
