REMARK  4 active torsions:
REMARK  status: ('A' for Active; 'I' for Inactive)
REMARK    1  A    between atoms: C_8  and  C_1 
REMARK    2  A    between atoms: C_2  and  C_3 
REMARK    3  A    between atoms: O_7  and  C_8 
REMARK    4  A    between atoms: C_10  and  O_7 
ROOT
ATOM      1  C   UNL d   1      -3.892   2.540   3.432  0.00  0.00    -0.050 A 
ATOM      2  C   UNL d   1      -4.130   1.189   3.114  0.00  0.00     0.011 A 
ATOM      3  C   UNL d   1      -2.755   3.138   2.866  0.00  0.00     0.011 A 
ATOM      4  C   UNL d   1      -2.201   1.106   1.658  0.00  0.00     0.069 A 
ATOM      5  C   UNL d   1      -3.293   0.479   2.247  0.00  0.00     0.037 A 
ATOM      6  C   UNL d   1      -1.918   2.428   1.995  0.00  0.00     0.037 A 
ENDROOT
BRANCH   4   7
ATOM      7  O   UNL d   1      -1.357   0.528   0.748  0.00  0.00    -0.344 OA
BRANCH   7   8
ATOM      8  C   UNL d   1      -1.914  -0.575   0.030  0.00  0.00     0.244 C 
BRANCH   8   9
ATOM      9  C   UNL d   1      -1.131  -0.852  -1.248  0.00  0.00     0.095 C 
ATOM     10  S   UNL d   1      -1.604  -2.022  -2.340  0.00  0.00    -0.064 SA
ATOM     11  N   UNL d   1      -0.016  -0.107  -1.481  0.00  0.00    -0.392 N 
ATOM     12  H   UNL d   1       0.525  -0.240  -2.328  0.00  0.00     0.156 HD
ATOM     13  H   UNL d   1       0.262   0.622  -0.831  0.00  0.00     0.156 HD
ENDBRANCH   8   9
ENDBRANCH   7   8
ENDBRANCH   4   7
BRANCH   1  14
ATOM     14  C   UNL d   1      -4.866   3.292   4.355  0.00  0.00    -0.024 C 
ATOM     15  C   UNL d   1      -4.452   4.753   4.641  0.00  0.00     0.019 C 
ATOM     16  C   UNL d   1      -6.265   3.333   3.700  0.00  0.00     0.019 C 
ATOM     17  C   UNL d   1      -4.964   2.569   5.715  0.00  0.00     0.019 C 
ENDBRANCH   1  14
TORSDOF 4
