REMARK  2 active torsions:
REMARK  status: ('A' for Active; 'I' for Inactive)
REMARK       I    between atoms: N_3  and  C_1 
REMARK       I    between atoms: N_4  and  C_1 
REMARK    1  A    between atoms: C_6  and  N_3 
REMARK    2  A    between atoms: C_8  and  N_4 
ROOT
ATOM      1  C   UNL d   1      -0.062   2.897  -2.012  0.00  0.00    -0.086 C 
ATOM      2  C   UNL d   1      -0.912   3.599  -2.489  0.00  0.00     0.015 C 
ATOM      3  C   UNL d   1       1.007   2.035  -1.423  0.00  0.00     0.090 C 
ATOM      4  C   UNL d   1       1.898   2.909  -0.523  0.00  0.00     0.053 C 
ATOM      5  C   UNL d   1       1.843   1.442  -2.570  0.00  0.00     0.053 C 
ENDROOT
BRANCH   3   6
ATOM      6  N   UNL d   1       0.346   0.975  -0.653  0.00  0.00    -0.324 N 
ATOM      7  C   UNL d   1       1.016  -0.004   0.038  0.00  0.00     0.318 C 
ATOM      8  N   UNL d   1       0.154  -0.871   0.661  0.00  0.00    -0.335 N 
ATOM      9  O   UNL d   1       2.233  -0.106   0.078  0.00  0.00    -0.247 OA
ATOM     10  H   UNL d   1      -0.832  -0.715   0.525  0.00  0.00     0.165 HD
ATOM     11  H   UNL d   1      -0.638   1.090  -0.475  0.00  0.00     0.166 HD
BRANCH   8  12
ATOM     12  C   UNL d   1       0.555  -2.047   1.455  0.00  0.00     0.023 C 
ATOM     13  C   UNL d   1       1.348  -1.627   2.703  0.00  0.00     0.037 C 
ATOM     14  C   UNL d   1      -0.724  -2.773   1.915  0.00  0.00     0.037 C 
ATOM     15  C   UNL d   1       1.387  -3.036   0.618  0.00  0.00     0.037 C 
ENDBRANCH   8  12
ENDBRANCH   3   6
TORSDOF 2
