REMARK  3 active torsions:
REMARK  status: ('A' for Active; 'I' for Inactive)
REMARK    1  A    between atoms: C_2  and  C_1 
REMARK       I    between atoms: N_5  and  C_1 
REMARK    2  A    between atoms: N_7  and  N_5 
REMARK    3  A    between atoms: O_8  and  C_6 
ROOT
ATOM      1  C   UNL d   1       0.353  -0.874  -0.814  0.00  0.00     0.035 A 
ATOM      2  C   UNL d   1       0.763  -2.215  -0.744  0.00  0.00     0.053 A 
ATOM      3  C   UNL d   1       0.125  -3.177  -1.529  0.00  0.00     0.069 A 
ATOM      4  C   UNL d   1      -0.716  -0.504  -1.637  0.00  0.00     0.017 A 
ATOM      5  C   UNL d   1      -1.360  -1.467  -2.411  0.00  0.00     0.004 A 
ATOM      6  C   UNL d   1      -0.935  -2.793  -2.357  0.00  0.00     0.037 A 
ENDROOT
BRANCH   1   7
ATOM      7  C   UNL d   1       1.053   0.134   0.025  0.00  0.00     0.265 C 
ATOM      8  O   UNL d   1       1.501  -0.164   1.129  0.00  0.00    -0.266 OA
ATOM      9  N   UNL d   1       1.177   1.400  -0.539  0.00  0.00    -0.290 N 
ATOM     10  H   UNL d   1       1.029   1.523  -1.539  0.00  0.00     0.183 HD
BRANCH   9  11
ATOM     11  N   UNL d   1       1.886   2.401   0.160  0.00  0.00    -0.247 NA
ATOM     12  H   UNL d   1       2.296   1.948   0.989  0.00  0.00     0.143 HD
ATOM     13  H   UNL d   1       1.202   3.054   0.549  0.00  0.00     0.143 HD
ENDBRANCH   9  11
ENDBRANCH   1   7
BRANCH   3  14
ATOM     14  O   UNL d   1       0.432  -4.508  -1.581  0.00  0.00    -0.356 OA
ATOM     15  C   UNL d   1       1.516  -4.953  -0.777  0.00  0.00     0.210 C 
ENDBRANCH   3  14
TORSDOF 3
