REMARK  6 active torsions:
REMARK  status: ('A' for Active; 'I' for Inactive)
REMARK    1  A    between atoms: C_10  and  C_1 
REMARK    2  A    between atoms: N_6  and  C_2 
REMARK    3  A    between atoms: C_11  and  C_5 
REMARK    4  A    between atoms: N_7  and  N_6 
REMARK    5  A    between atoms: O_19  and  C_10 
REMARK    6  A    between atoms: C_18  and  C_11 
ROOT
ATOM      1  C   UNL d   1      -2.902   1.076  -0.102  0.00  0.00     0.109 A 
ATOM      2  C   UNL d   1      -2.215  -0.133  -0.135  0.00  0.00     0.092 A 
ATOM      3  C   UNL d   1      -0.795   0.067  -0.199  0.00  0.00     0.080 A 
ATOM      4  S   UNL d   1      -1.827   2.413  -0.077  0.00  0.00    -0.092 SA
ATOM      5  C   UNL d   1      -0.458   1.404  -0.157  0.00  0.00     0.075 A 
ATOM      6  C   UNL d   1       0.225  -0.932  -0.308  0.00  0.00     0.102 C 
ATOM      7  N   UNL d   1       1.105  -1.681  -0.422  0.00  0.00    -0.191 NA
ENDROOT
BRANCH   2   8
ATOM      8  N   UNL d   1      -2.868  -1.339  -0.122  0.00  0.00    -0.297 N 
ATOM      9  H   UNL d   1      -3.900  -1.312  -0.061  0.00  0.00     0.187 HD
BRANCH   8  10
ATOM     10  N   UNL d   1      -2.213  -2.540  -0.121  0.00  0.00    -0.287 N 
ATOM     11  C   UNL d   1      -2.858  -3.676  -0.116  0.00  0.00     0.179 C 
ATOM     12  C   UNL d   1      -4.301  -3.670  -0.081  0.00  0.00     0.123 C 
ATOM     13  N   UNL d   1      -5.461  -3.615  -0.068  0.00  0.00    -0.190 NA
ATOM     14  HN  UNL d   1      -1.193  -2.549  -0.126  1.00  0.00     0.188 HD
BRANCH  11  15
ATOM     15  C   UNL d   1      -2.096  -4.973  -0.142  0.00  0.00     0.220 C 
ATOM     16  O   UNL d   1      -2.544  -5.922   0.491  0.00  0.00    -0.284 OA
BRANCH  15  17
ATOM     17  C   UNL d   1      -0.841  -5.096  -0.920  0.00  0.00     0.017 A 
ATOM     18  C   UNL d   1       0.134  -6.010  -0.498  0.00  0.00     0.015 A 
ATOM     19  C   UNL d   1       1.338  -6.119  -1.196  0.00  0.00     0.001 A 
ATOM     20  C   UNL d   1       1.563  -5.331  -2.325  0.00  0.00     0.000 A 
ATOM     21  C   UNL d   1       0.583  -4.443  -2.764  0.00  0.00     0.001 A 
ATOM     22  C   UNL d   1      -0.621  -4.326  -2.067  0.00  0.00     0.015 A 
ENDBRANCH  15  17
ENDBRANCH  11  15
ENDBRANCH   8  10
ENDBRANCH   2   8
BRANCH   1  23
ATOM     23  C   UNL d   1      -4.344   1.259  -0.093  0.00  0.00     0.302 C 
ATOM     24  O   UNL d   1      -5.149   0.333  -0.098  0.00  0.00    -0.259 OA
BRANCH  23  25
ATOM     25  O   UNL d   1      -4.693   2.578  -0.096  0.00  0.00    -0.322 OA
ATOM     26  C   UNL d   1      -6.101   2.817  -0.117  0.00  0.00     0.213 C 
ENDBRANCH  23  25
ENDBRANCH   1  23
TORSDOF 6
