REMARK  5 active torsions:
REMARK  status: ('A' for Active; 'I' for Inactive)
REMARK    1  A    between atoms: N_5  and  C_1 
REMARK    2  A    between atoms: C_3  and  C_2 
REMARK       I    between atoms: N_7  and  C_3 
REMARK    3  A    between atoms: O_24  and  C_4 
REMARK    4  A    between atoms: C_6  and  N_10 
REMARK       I    between atoms: C_8  and  N_7 
REMARK       I    between atoms: N_10  and  C_8 
REMARK    5  A    between atoms: O_26  and  C_11 
ROOT
ATOM      1  C   UNL d   1       2.949  -2.718  -0.550  0.00  0.00     0.265 C 
ATOM      2  N   UNL d   1       4.086  -2.505  -1.316  0.00  0.00    -0.274 N 
ATOM      3  C   UNL d   1       4.548  -1.344  -1.881  0.00  0.00     0.341 C 
ATOM      4  N   UNL d   1       5.708  -1.397  -2.581  0.00  0.00    -0.141 N 
ATOM      5  O   UNL d   1       2.599  -3.847  -0.209  0.00  0.00    -0.267 OA
ATOM      6  O   UNL d   1       3.976  -0.257  -1.798  0.00  0.00    -0.246 OA
ATOM      7  H   UNL d   1       4.594  -3.348  -1.556  0.00  0.00     0.173 HD
ATOM      8  H   UNL d   1       6.027  -0.516  -2.955  0.00  0.00     0.189 HD
ENDROOT
BRANCH   1   9
ATOM      9  C   UNL d   1       2.144  -1.560  -0.108  0.00  0.00     0.102 C 
ATOM     10  C   UNL d   1       2.692  -0.640   0.801  0.00  0.00     0.119 C 
ATOM     11  C   UNL d   1       1.984   0.532   1.077  0.00  0.00     0.138 C 
ATOM     12  C   UNL d   1       0.700   0.746   0.560  0.00  0.00     0.061 C 
ATOM     13  C   UNL d   1       0.126  -0.220  -0.268  0.00  0.00     0.048 C 
ATOM     14  C   UNL d   1       0.837  -1.383  -0.596  0.00  0.00     0.104 C 
ATOM     15 BR   UNL d   1      -1.611   0.132  -0.948  0.00  0.00    -0.048 Br
BRANCH  10  16
ATOM     16  O   UNL d   1       3.916  -0.879   1.369  0.00  0.00    -0.352 OA
ATOM     17  C   UNL d   1       3.780  -1.625   2.581  0.00  0.00     0.210 C 
ENDBRANCH  10  16
BRANCH  11  18
ATOM     18  N   UNL d   1       2.559   1.569   1.922  0.00  0.00    -0.113 N 
ATOM     19  O   UNL d   1       3.737   1.894   1.736  0.00  0.00    -0.532 OA
ATOM     20  O   UNL d   1       1.805   2.077   2.765  0.00  0.00    -0.532 OA
ENDBRANCH  11  18
BRANCH  14  21
ATOM     21  O   UNL d   1       0.302  -2.314  -1.451  0.00  0.00    -0.353 OA
ATOM     22  C   UNL d   1      -0.589  -3.201  -0.764  0.00  0.00     0.210 C 
ENDBRANCH  14  21
ENDBRANCH   1   9
BRANCH   4  23
ATOM     23  C   UNL d   1       6.468  -2.476  -2.987  0.00  0.00     0.686 A 
ATOM     24  N   UNL d   1       7.474  -2.159  -3.815  0.00  0.00    -0.196 N 
ATOM     25  C   UNL d   1       8.191  -3.172  -4.337  0.00  0.00     0.024 A 
ATOM     26  HN  UNL d   1       7.688  -1.187  -4.041  1.00  0.00     0.184 HD
ATOM     27  C   UNL d   1       9.257  -2.820  -5.330  0.00  0.00     0.068 C 
ATOM     28  C   UNL d   1       7.923  -4.491  -4.030  0.00  0.00     0.050 A 
ATOM     29  C   UNL d   1       6.892  -4.721  -3.139  0.00  0.00     0.024 A 
ATOM     30  N   UNL d   1       6.143  -3.723  -2.617  0.00  0.00    -0.196 N 
ATOM     31  C   UNL d   1       6.525  -6.128  -2.770  0.00  0.00     0.068 C 
ATOM     32  HN  UNL d   1       5.371  -3.910  -1.977  1.00  0.00     0.184 HD
ENDBRANCH   4  23
TORSDOF 5
