REMARK  7 active torsions:
REMARK  status: ('A' for Active; 'I' for Inactive)
REMARK    1  A    between atoms: C_7  and  C_1 
REMARK    2  A    between atoms: C_15  and  C_5 
REMARK    3  A    between atoms: O_12  and  C_7 
REMARK    4  A    between atoms: C_8  and  C_13 
REMARK    5  A    between atoms: N_9  and  O_12 
REMARK    6  A    between atoms: C_14  and  C_11 
REMARK    7  A    between atoms: N_24  and  C_11 
ROOT
ATOM      1  N   UNL d   1       3.468  -1.094   0.076  0.00  0.00    -0.246 N 
ATOM      2  HN  UNL d   1       3.597  -0.082   0.082  1.00  0.00     0.196 HD
ATOM      3  C   UNL d   1       4.455  -1.939   0.063  0.00  0.00     0.109 C 
ENDROOT
BRANCH   1   4
ATOM      4  O   UNL d   1       2.189  -1.718   0.083  0.00  0.00    -0.193 OA
BRANCH   4   5
ATOM      5  C   UNL d   1       1.220  -0.727   0.070  0.00  0.00     0.324 C 
ATOM      6  O   UNL d   1       1.465   0.479   0.093  0.00  0.00    -0.257 OA
BRANCH   5   7
ATOM      7  C   UNL d   1      -0.137  -1.254   0.037  0.00  0.00     0.106 A 
ATOM      8  S   UNL d   1      -0.549  -2.920  -0.009  0.00  0.00    -0.064 SA
ATOM      9  C   UNL d   1      -2.231  -2.526  -0.003  0.00  0.00     0.085 A 
ATOM     10  N   UNL d   1      -2.478  -1.232  -0.008  0.00  0.00    -0.352 N 
ATOM     11  C   UNL d   1      -1.305  -0.502   0.043  0.00  0.00     0.029 A 
ATOM     12  HN  UNL d   1      -3.411  -0.822  -0.044  1.00  0.00     0.166 HD
ATOM     13  C   UNL d   1      -1.421   0.981   0.110  0.00  0.00     0.070 C 
BRANCH   9  14
ATOM     14  C   UNL d   1      -3.304  -3.541   0.001  0.00  0.00    -0.002 A 
ATOM     15  C   UNL d   1      -3.158  -4.810   0.581  0.00  0.00     0.014 A 
ATOM     16  C   UNL d   1      -4.234  -5.705   0.631  0.00  0.00     0.001 A 
ATOM     17  C   UNL d   1      -5.472  -5.351   0.099  0.00  0.00     0.000 A 
ATOM     18  C   UNL d   1      -5.637  -4.100  -0.487  0.00  0.00     0.001 A 
ATOM     19  C   UNL d   1      -4.564  -3.203  -0.531  0.00  0.00     0.014 A 
ENDBRANCH   9  14
ENDBRANCH   5   7
ENDBRANCH   4   5
ENDBRANCH   1   4
BRANCH   3  20
ATOM     20  C   UNL d   1       5.851  -1.375   0.023  0.00  0.00     0.004 A 
ATOM     21  C   UNL d   1       6.114  -0.103   0.548  0.00  0.00     0.015 A 
ATOM     22  C   UNL d   1       7.414   0.419   0.525  0.00  0.00     0.017 A 
ATOM     23  C   UNL d   1       8.470  -0.315  -0.036  0.00  0.00     0.048 A 
ATOM     24  C   UNL d   1       8.197  -1.582  -0.577  0.00  0.00     0.017 A 
ATOM     25  C   UNL d   1       6.899  -2.108  -0.547  0.00  0.00     0.015 A 
BRANCH  23  26
ATOM     26  C   UNL d   1       9.879   0.233  -0.070  0.00  0.00     0.417 C 
ATOM     27  F   UNL d   1      10.003   1.464   0.500  0.00  0.00    -0.166 F 
ATOM     28  F   UNL d   1      10.763  -0.571   0.587  0.00  0.00    -0.166 F 
ATOM     29  F   UNL d   1      10.362   0.357  -1.337  0.00  0.00    -0.166 F 
ENDBRANCH  23  26
ENDBRANCH   3  20
BRANCH   3  30
ATOM     30  N   UNL d   1       4.298  -3.303   0.102  0.00  0.00    -0.286 NA
ATOM     31  H   UNL d   1       3.371  -3.580   0.402  0.00  0.00     0.125 HD
ATOM     32  H   UNL d   1       5.027  -3.811   0.593  0.00  0.00     0.125 HD
ENDBRANCH   3  30
TORSDOF 7
