REMARK  4 active torsions:
REMARK  status: ('A' for Active; 'I' for Inactive)
REMARK    1  A    between atoms: C_2  and  C_1 
REMARK       I    between atoms: N_3  and  C_1 
REMARK    2  A    between atoms: C_7  and  N_3 
REMARK    3  A    between atoms: O_6  and  C_8 
REMARK    4  A    between atoms: C_9  and  O_6 
ROOT
ATOM      1  C   UNL d   1      -1.170   1.107  -0.739  0.00  0.00     0.035 A 
ATOM      2  C   UNL d   1      -3.976   1.265  -0.698  0.00  0.00     0.076 A 
ATOM      3  C   UNL d   1      -1.869   1.026   0.466  0.00  0.00     0.032 A 
ATOM      4  C   UNL d   1      -1.888   1.346  -1.919  0.00  0.00     0.032 A 
ATOM      5  C   UNL d   1      -3.260   1.136   0.492  0.00  0.00     0.039 A 
ATOM      6  C   UNL d   1      -3.287   1.423  -1.898  0.00  0.00     0.039 A 
ENDROOT
BRANCH   1   7
ATOM      7  N   UNL d   1       0.231   0.967  -0.836  0.00  0.00    -0.323 N 
ATOM      8  C   UNL d   1       1.102   0.610   0.180  0.00  0.00     0.259 C 
ATOM      9  O   UNL d   1       0.773   0.289   1.322  0.00  0.00    -0.267 OA
ATOM     10  H   UNL d   1       0.630   1.116  -1.758  0.00  0.00     0.169 HD
BRANCH   8  11
ATOM     11  C   UNL d   1       2.559   0.607  -0.138  0.00  0.00     0.070 A 
ATOM     12  C   UNL d   1       3.073   0.922  -1.396  0.00  0.00     0.132 A 
ATOM     13  F   UNL d   1       2.259   1.215  -2.423  0.00  0.00    -0.205 F 
ATOM     14  C   UNL d   1       4.449   0.946  -1.626  0.00  0.00     0.043 A 
ATOM     15  C   UNL d   1       5.334   0.649  -0.590  0.00  0.00     0.003 A 
ATOM     16  C   UNL d   1       4.840   0.320   0.670  0.00  0.00     0.001 A 
ATOM     17  C   UNL d   1       3.462   0.296   0.894  0.00  0.00     0.020 A 
ENDBRANCH   8  11
ENDBRANCH   1   7
BRANCH   2  18
ATOM     18  O   UNL d   1      -5.353   1.270  -0.753  0.00  0.00    -0.311 OA
BRANCH  18  19
ATOM     19  C   UNL d   1      -6.046   0.410   0.073  0.00  0.00     0.076 A 
ATOM     20  C   UNL d   1      -7.295   0.847   0.519  0.00  0.00     0.039 A 
ATOM     21  C   UNL d   1      -8.042   0.054   1.395  0.00  0.00     0.026 A 
ATOM     22  C   UNL d   1      -7.538  -1.175   1.821  0.00  0.00     0.034 A 
ATOM     23  C   UNL d   1      -6.312  -1.636   1.348  0.00  0.00     0.026 A 
ATOM     24 CL   UNL d   1      -8.433  -2.131   2.937  0.00  0.00    -0.084 Cl
ATOM     25  C   UNL d   1      -5.580  -0.856   0.451  0.00  0.00     0.039 A 
ENDBRANCH  18  19
ENDBRANCH   2  18
TORSDOF 4
