REMARK  3 active torsions:
REMARK  status: ('A' for Active; 'I' for Inactive)
REMARK    1  A    between atoms: S_15  and  C_4 
REMARK    2  A    between atoms: O_13  and  N_7 
REMARK    3  A    between atoms: C_9  and  O_13 
REMARK       I    between atoms: N_16  and  C_9 
ROOT
ATOM      1  C   UNL d   1       0.370   0.826   0.062  0.00  0.00     0.019 A 
ATOM      2  C   UNL d   1       0.358  -0.611   0.020  0.00  0.00    -0.037 A 
ATOM      3  C   UNL d   1      -0.875   1.586   0.045  0.00  0.00     0.046 C 
ATOM      4  C   UNL d   1       1.673   1.317   0.067  0.00  0.00     0.053 A 
ATOM      5  S   UNL d   1       2.835   0.054   0.080  0.00  0.00    -0.093 SA
ATOM      6  C   UNL d   1       1.631  -1.142   0.035  0.00  0.00     0.059 A 
ATOM      7  N   UNL d   1      -0.811   2.877   0.138  0.00  0.00    -0.260 N 
ATOM      8  HN  UNL d   1       0.058   3.385   0.303  1.00  0.00     0.194 HD
ATOM      9  C   UNL d   1      -0.874  -1.448  -0.073  0.00  0.00     0.049 C 
ATOM     10  C   UNL d   1      -2.229  -0.701   0.010  0.00  0.00    -0.038 C 
ATOM     11  C   UNL d   1      -2.196   0.847  -0.104  0.00  0.00     0.069 C 
ATOM     12  C   UNL d   1      -2.911  -1.085   1.345  0.00  0.00     0.015 C 
ATOM     13  C   UNL d   1      -3.126  -1.226  -1.137  0.00  0.00     0.015 C 
ENDROOT
BRANCH   7  14
ATOM     14  O   UNL d   1      -2.057   3.506  -0.009  0.00  0.00    -0.181 OA
BRANCH  14  15
ATOM     15  C   UNL d   1      -2.065   4.689   0.689  0.00  0.00     0.382 C 
ATOM     16  O   UNL d   1      -1.314   4.974   1.617  0.00  0.00    -0.236 OA
ATOM     17  N   UNL d   1      -3.047   5.513   0.210  0.00  0.00    -0.340 N 
ATOM     18  C   UNL d   1      -3.225   6.860   0.688  0.00  0.00     0.151 C 
ATOM     19  H   UNL d   1      -3.539   5.202  -0.615  0.00  0.00     0.164 HD
ENDBRANCH  14  15
ENDBRANCH   7  14
BRANCH   4  20
ATOM     20  S   UNL d   1       2.257   2.982  -0.025  0.00  0.00    -0.126 SA
ATOM     21  C   UNL d   1       2.317   3.416   1.728  0.00  0.00     0.096 C 
ENDBRANCH   4  20
TORSDOF 3
