REMARK  7 active torsions:
REMARK  status: ('A' for Active; 'I' for Inactive)
REMARK    1  A    between atoms: N_10  and  S_1 
REMARK    2  A    between atoms: C_11  and  S_1 
REMARK    3  A    between atoms: C_2  and  C_9 
REMARK    4  A    between atoms: C_17  and  C_8 
REMARK    5  A    between atoms: C_12  and  N_10 
REMARK    6  A    between atoms: O_24  and  C_16 
REMARK    7  A    between atoms: O_29  and  C_18 
ROOT
ATOM      1  C   UNL d   1       2.185   1.632   2.543  0.00  0.00     0.044 A 
ATOM      2  C   UNL d   1       0.905   1.856   1.999  0.00  0.00     0.057 A 
ATOM      3  C   UNL d   1       2.391   1.925   3.908  0.00  0.00     0.018 A 
ATOM      4  C   UNL d   1      -0.136   2.304   2.828  0.00  0.00     0.031 A 
ATOM      5  C   UNL d   1       1.351   2.375   4.722  0.00  0.00     0.001 A 
ATOM      6  C   UNL d   1       0.082   2.545   4.185  0.00  0.00     0.002 A 
ENDROOT
BRANCH   2   7
ATOM      7  N   UNL d   1       0.570   1.595   0.630  0.00  0.00    -0.280 N 
ATOM      8  H   UNL d   1      -0.037   2.273   0.169  0.00  0.00     0.179 HD
BRANCH   7   9
ATOM      9  S   UNL d   1       0.212   0.019   0.129  0.00  0.00     0.263 S 
ATOM     10  O   UNL d   1       1.301  -0.867   0.470  0.00  0.00    -0.200 OA
ATOM     11  O   UNL d   1      -0.269   0.135  -1.233  0.00  0.00    -0.200 OA
BRANCH   9  12
ATOM     12  C   UNL d   1      -1.170  -0.419   1.152  0.00  0.00     0.082 A 
ATOM     13  C   UNL d   1      -0.917  -0.991   2.402  0.00  0.00     0.065 A 
ATOM     14  C   UNL d   1      -1.964  -1.294   3.277  0.00  0.00     0.102 A 
ATOM     15  C   UNL d   1      -3.288  -1.059   2.857  0.00  0.00     0.101 A 
ATOM     16  C   UNL d   1      -3.523  -0.522   1.576  0.00  0.00     0.041 A 
ATOM     17  C   UNL d   1      -2.474  -0.196   0.720  0.00  0.00     0.028 A 
BRANCH  14  18
ATOM     18  O   UNL d   1      -1.743  -1.795   4.533  0.00  0.00    -0.353 OA
ATOM     19  C   UNL d   1      -0.397  -2.028   4.932  0.00  0.00     0.210 C 
ENDBRANCH  14  18
BRANCH  15  20
ATOM     20  O   UNL d   1      -4.450  -1.279   3.544  0.00  0.00    -0.353 OA
ATOM     21  C   UNL d   1      -4.383  -1.833   4.850  0.00  0.00     0.210 C 
ENDBRANCH  15  20
ENDBRANCH   9  12
ENDBRANCH   7   9
ENDBRANCH   2   7
BRANCH   1  22
ATOM     22  C   UNL d   1       3.318   1.084   1.807  0.00  0.00     0.177 A 
ATOM     23  O   UNL d   1       3.339   1.215   0.447  0.00  0.00    -0.273 OA
ATOM     24  C   UNL d   1       4.459   0.499   0.114  0.00  0.00     0.174 A 
ATOM     25  N   UNL d   1       5.106   0.049   1.170  0.00  0.00    -0.277 N 
ATOM     26  N   UNL d   1       4.374   0.443   2.271  0.00  0.00    -0.277 N 
ATOM     27  HN  UNL d   1       5.975  -0.484   1.173  1.00  0.00     0.189 HD
ATOM     28  HN  UNL d   1       4.604   0.272   3.250  1.00  0.00     0.189 HD
BRANCH  24  29
ATOM     29  C   UNL d   1       4.776   0.374  -1.302  0.00  0.00     0.017 A 
ATOM     30  C   UNL d   1       4.009   1.011  -2.290  0.00  0.00     0.017 A 
ATOM     31  C   UNL d   1       4.374   0.932  -3.637  0.00  0.00     0.025 A 
ATOM     32  C   UNL d   1       5.504   0.206  -4.007  0.00  0.00     0.034 A 
ATOM     33  C   UNL d   1       6.257  -0.463  -3.046  0.00  0.00     0.025 A 
ATOM     34 CL   UNL d   1       5.979   0.148  -5.659  0.00  0.00    -0.084 Cl
ATOM     35  C   UNL d   1       5.892  -0.380  -1.699  0.00  0.00     0.017 A 
ENDBRANCH  24  29
ENDBRANCH   1  22
TORSDOF 7
