REMARK  6 active torsions:
REMARK  status: ('A' for Active; 'I' for Inactive)
REMARK       I    between atoms: N_2  and  C_1 
REMARK       I    between atoms: N_3  and  C_1 
REMARK    1  A    between atoms: C_4  and  N_3 
REMARK    2  A    between atoms: C_18  and  N_5 
REMARK    3  A    between atoms: C_17  and  C_18 
REMARK    4  A    between atoms: C_27  and  C_23 
REMARK    5  A    between atoms: C_28  and  C_27 
REMARK    6  A    between atoms: C_29  and  C_28 
ROOT
ATOM      1  C   UNL d   1       1.339   0.384  -0.628  0.00  0.00     0.323 C 
ATOM      2  N   UNL d   1       0.761  -0.396  -1.657  0.00  0.00    -0.331 N 
ATOM      3  N   UNL d   1       0.981   1.709  -0.700  0.00  0.00    -0.308 N 
ATOM      4  N   UNL d   1      -0.582  -2.311  -3.517  0.00  0.00     0.095 N 
ATOM      5  O   UNL d   1       2.113  -0.098   0.187  0.00  0.00    -0.247 OA
ATOM      6  C   UNL d   1       1.073  -1.828  -1.639  0.00  0.00     0.158 C 
ATOM      7  C   UNL d   1      -0.538  -0.067  -2.269  0.00  0.00     0.158 C 
ATOM      8  C   UNL d   1       0.788  -2.517  -2.989  0.00  0.00     0.292 C 
ATOM      9  C   UNL d   1      -0.831  -0.855  -3.568  0.00  0.00     0.292 C 
ATOM     10  H   UNL d   1       0.838   2.001  -1.654  0.00  0.00     0.170 HD
ENDROOT
BRANCH   3  11
ATOM     11  C   UNL d   1       1.048   2.777   0.230  0.00  0.00     0.042 A 
ATOM     12  C   UNL d   1       1.209   2.715   1.625  0.00  0.00    -0.035 A 
ATOM     13  C   UNL d   1       1.108   3.915   2.382  0.00  0.00     0.016 A 
ATOM     14  C   UNL d   1       1.474   1.463   2.413  0.00  0.00     0.050 C 
ATOM     15  C   UNL d   1       0.815   5.154   1.795  0.00  0.00    -0.058 A 
ATOM     16  C   UNL d   1       0.698   5.206   0.410  0.00  0.00     0.009 A 
ATOM     17  C   UNL d   1       0.814   4.040  -0.352  0.00  0.00     0.031 A 
BRANCH  15  18
ATOM     18  C   UNL d   1       0.490   6.370   2.630  0.00  0.00     0.038 C 
BRANCH  18  19
ATOM     19  C   UNL d   1       1.614   6.942   3.497  0.00  0.00     0.004 C 
BRANCH  19  20
ATOM     20  C   UNL d   1       2.683   7.680   2.689  0.00  0.00    -0.004 C 
ATOM     21  C   UNL d   1       3.637   8.437   3.604  0.00  0.00     0.005 C 
ENDBRANCH  19  20
ENDBRANCH  18  19
ENDBRANCH  15  18
ENDBRANCH   3  11
BRANCH   4  22
ATOM     22  C   UNL d   1      -1.588  -3.032  -2.714  0.00  0.00     0.311 C 
BRANCH  22  23
ATOM     23  C   UNL d   1      -2.683  -3.724  -3.516  0.00  0.00    -0.027 A 
ATOM     24  C   UNL d   1      -3.231  -4.918  -2.998  0.00  0.00     0.048 A 
ATOM     25  C   UNL d   1      -4.258  -5.533  -3.681  0.00  0.00     0.105 A 
ATOM     26  O   UNL d   1      -4.877  -6.689  -3.313  0.00  0.00    -0.323 OA
ATOM     27  C   UNL d   1      -4.774  -5.008  -4.838  0.00  0.00     0.105 A 
ATOM     28  C   UNL d   1      -5.808  -6.854  -4.403  0.00  0.00     0.352 A 
ATOM     29  O   UNL d   1      -5.784  -5.763  -5.348  0.00  0.00    -0.323 OA
ATOM     30  C   UNL d   1      -4.283  -3.839  -5.376  0.00  0.00     0.040 A 
ATOM     31  C   UNL d   1      -3.229  -3.198  -4.710  0.00  0.00     0.012 A 
ENDBRANCH  22  23
ENDBRANCH   4  22
TORSDOF 6
