REMARK  7 active torsions:
REMARK  status: ('A' for Active; 'I' for Inactive)
REMARK       I    between atoms: N_2  and  C_1 
REMARK    1  A    between atoms: C_3  and  C_1 
REMARK       I    between atoms: C_4  and  N_2 
REMARK    2  A    between atoms: S_11  and  C_4 
REMARK    3  A    between atoms: O_6  and  C_5 
REMARK    4  A    between atoms: C_7  and  O_6 
REMARK    5  A    between atoms: C_10  and  C_17 
REMARK    6  A    between atoms: O_20  and  C_10 
REMARK    7  A    between atoms: C_17  and  S_11 
ROOT
ATOM      1  C   UNL d   1      -0.007  -1.276  -0.148  0.00  0.00     0.066 A 
ATOM      2  C   UNL d   1       0.447  -2.170   0.840  0.00  0.00     0.091 A 
ATOM      3  C   UNL d   1      -1.178  -1.586  -0.867  0.00  0.00     0.020 A 
ATOM      4  C   UNL d   1      -0.251  -3.380   1.033  0.00  0.00     0.038 A 
ATOM      5  C   UNL d   1      -1.915  -2.736  -0.583  0.00  0.00     0.001 A 
ATOM      6  C   UNL d   1      -1.441  -3.641   0.356  0.00  0.00     0.003 A 
ENDROOT
BRANCH   1   7
ATOM      7  C   UNL d   1       0.772  -0.075  -0.564  0.00  0.00     0.261 C 
ATOM      8  N   UNL d   1       0.108   1.071  -0.992  0.00  0.00    -0.284 N 
ATOM      9  C   UNL d   1      -1.102   1.576  -0.590  0.00  0.00     0.287 C 
ATOM     10  H   UNL d   1       0.718   1.751  -1.421  0.00  0.00     0.172 HD
ATOM     11  O   UNL d   1      -1.926   1.061   0.150  0.00  0.00    -0.260 OA
ATOM     12  O   UNL d   1       1.996  -0.110  -0.617  0.00  0.00    -0.267 OA
BRANCH   9  13
ATOM     13  S   UNL d   1      -1.406   3.098  -1.408  0.00  0.00    -0.059 SA
BRANCH  13  14
ATOM     14  C   UNL d   1      -2.853   3.651  -0.447  0.00  0.00     0.195 C 
BRANCH  14  15
ATOM     15  C   UNL d   1      -2.495   3.955   0.994  0.00  0.00     0.268 C 
ATOM     16  O   UNL d   1      -1.383   3.848   1.497  0.00  0.00    -0.264 OA
BRANCH  15  17
ATOM     17  O   UNL d   1      -3.602   4.401   1.656  0.00  0.00    -0.326 OA
ATOM     18  C   UNL d   1      -3.360   4.743   3.020  0.00  0.00     0.213 C 
ENDBRANCH  15  17
ENDBRANCH  14  15
ENDBRANCH  13  14
ENDBRANCH   9  13
ENDBRANCH   1   7
BRANCH   2  19
ATOM     19  O   UNL d   1       1.567  -1.862   1.601  0.00  0.00    -0.308 OA
BRANCH  19  20
ATOM     20  C   UNL d   1       1.623  -2.354   2.896  0.00  0.00     0.098 A 
ATOM     21  C   UNL d   1       2.786  -2.988   3.356  0.00  0.00     0.069 A 
ATOM     22  C   UNL d   1       2.815  -3.575   4.628  0.00  0.00     0.050 A 
ATOM     23 CL   UNL d   1       4.203  -3.099   2.379  0.00  0.00    -0.081 Cl
ATOM     24  C   UNL d   1       1.686  -3.516   5.442  0.00  0.00     0.035 A 
ATOM     25  C   UNL d   1       0.546  -2.837   5.020  0.00  0.00     0.026 A 
ATOM     26 CL   UNL d   1       1.692  -4.293   6.978  0.00  0.00    -0.084 Cl
ATOM     27  C   UNL d   1       0.524  -2.232   3.761  0.00  0.00     0.041 A 
ENDBRANCH  19  20
ENDBRANCH   2  19
TORSDOF 7
