REMARK  4 active torsions:
REMARK  status: ('A' for Active; 'I' for Inactive)
REMARK    1  A    between atoms: C_5  and  S_1 
REMARK    2  A    between atoms: C_9  and  S_1 
REMARK    3  A    between atoms: C_2  and  C_4 
REMARK    4  A    between atoms: C_11  and  C_9 
ROOT
ATOM      1  N   UNL d   1      -0.291   0.866   1.966  0.00  0.00    -0.196 NA
ATOM      2  C   UNL d   1       2.207   0.716   2.720  0.00  0.00     0.264 C 
ATOM      3  C   UNL d   1       0.810   0.769   2.319  0.00  0.00     0.074 C 
ENDROOT
BRANCH   2   4
ATOM      4  S   UNL d   1       3.021  -0.472   1.676  0.00  0.00     0.160 S 
ATOM      5  O   UNL d   1       2.369  -1.754   1.881  0.00  0.00    -0.227 OA
ATOM      6  O   UNL d   1       4.447  -0.364   1.936  0.00  0.00    -0.227 OA
BRANCH   4   7
ATOM      7  C   UNL d   1       2.717   0.019  -0.027  0.00  0.00     0.179 C 
BRANCH   7   8
ATOM      8  C   UNL d   1       3.291   1.385  -0.305  0.00  0.00    -0.043 A 
ATOM      9  C   UNL d   1       4.626   1.525  -0.722  0.00  0.00     0.024 A 
ATOM     10  C   UNL d   1       5.174   2.791  -0.988  0.00  0.00     0.048 A 
ATOM     11  C   UNL d   1       4.375   3.928  -0.797  0.00  0.00     0.016 A 
ATOM     12  C   UNL d   1       3.049   3.800  -0.392  0.00  0.00     0.001 A 
ATOM     13  C   UNL d   1       2.503   2.536  -0.170  0.00  0.00     0.008 A 
BRANCH  10  14
ATOM     14  C   UNL d   1       6.590   2.950  -1.492  0.00  0.00     0.417 C 
ATOM     15  F   UNL d   1       7.243   1.769  -1.671  0.00  0.00    -0.166 F 
ATOM     16  F   UNL d   1       6.639   3.587  -2.696  0.00  0.00    -0.166 F 
ATOM     17  F   UNL d   1       7.365   3.685  -0.649  0.00  0.00    -0.166 F 
ENDBRANCH  10  14
ENDBRANCH   7   8
ENDBRANCH   4   7
ENDBRANCH   2   4
TORSDOF 4
