REMARK  2 active torsions:
REMARK  status: ('A' for Active; 'I' for Inactive)
REMARK    1  A    between atoms: N_8  and  C_7 
REMARK    2  A    between atoms: C_11  and  N_8 
ROOT
ATOM      1  C   UNL d   1      -1.236   0.117  -0.122  0.00  0.00     0.130 C 
ATOM      2  C   UNL d   1      -0.497   1.366   0.087  0.00  0.00     0.303 C 
ATOM      3  C   UNL d   1      -0.629  -1.173   0.211  0.00  0.00     0.303 C 
ATOM      4  O   UNL d   1       0.833   1.219   0.241  0.00  0.00    -0.279 OA
ATOM      5  O   UNL d   1       0.715  -1.158   0.331  0.00  0.00    -0.279 OA
ATOM      6  C   UNL d   1       1.423  -0.017  -0.154  0.00  0.00     0.175 C 
ATOM      7  C   UNL d   1      -2.475   0.116  -0.644  0.00  0.00     0.113 C 
ATOM      8  O   UNL d   1      -1.027   2.468   0.137  0.00  0.00    -0.259 OA
ATOM      9  O   UNL d   1      -1.274  -2.204   0.364  0.00  0.00    -0.259 OA
ATOM     10  C   UNL d   1       1.570  -0.079  -1.680  0.00  0.00     0.080 C 
ATOM     11  C   UNL d   1       2.809  -0.054   0.487  0.00  0.00     0.080 C 
ENDROOT
BRANCH   7  12
ATOM     12  N   UNL d   1      -3.217   1.166  -1.129  0.00  0.00    -0.351 N 
ATOM     13  H   UNL d   1      -2.727   2.026  -1.367  0.00  0.00     0.166 HD
BRANCH  12  14
ATOM     14  C   UNL d   1      -4.505   1.139  -1.666  0.00  0.00     0.104 A 
ATOM     15  N   UNL d   1      -4.794   2.092  -2.574  0.00  0.00    -0.352 N 
ATOM     16  C   UNL d   1      -6.028   2.081  -3.129  0.00  0.00     0.089 A 
ATOM     17  HN  UNL d   1      -4.105   2.799  -2.834  1.00  0.00     0.166 HD
ATOM     18  C   UNL d   1      -7.015   1.170  -2.801  0.00  0.00     0.017 A 
ATOM     19  C   UNL d   1      -6.716   0.207  -1.848  0.00  0.00     0.005 A 
ATOM     20  C   UNL d   1      -5.447   0.185  -1.283  0.00  0.00     0.048 A 
ENDBRANCH  12  14
ENDBRANCH   7  12
TORSDOF 2
