REMARK  4 active torsions:
REMARK  status: ('A' for Active; 'I' for Inactive)
REMARK       I    between atoms: N_3  and  C_1 
REMARK    1  A    between atoms: C_4  and  C_1 
REMARK    2  A    between atoms: N_2  and  C_4 
REMARK    3  A    between atoms: C_5  and  N_3 
REMARK    4  A    between atoms: S_10  and  C_9 
ROOT
ATOM      1  C   UNL d   1       1.337  -0.186   0.123  0.00  0.00     0.250 C 
ATOM      2  N   UNL d   1       0.879  -0.357  -1.169  0.00  0.00    -0.326 N 
ATOM      3  O   UNL d   1       2.463  -0.462   0.533  0.00  0.00    -0.271 OA
ATOM      4  H   UNL d   1      -0.117  -0.186  -1.281  0.00  0.00     0.169 HD
ENDROOT
BRANCH   2   5
ATOM      5  C   UNL d   1       1.606  -0.853  -2.268  0.00  0.00     0.036 A 
ATOM      6  C   UNL d   1       3.003  -0.924  -2.297  0.00  0.00     0.048 A 
ATOM      7  C   UNL d   1       3.679  -1.435  -3.412  0.00  0.00     0.002 A 
ATOM      8  C   UNL d   1       2.935  -1.871  -4.513  0.00  0.00     0.018 A 
ATOM      9  C   UNL d   1       1.542  -1.794  -4.501  0.00  0.00     0.004 A 
ATOM     10  C   UNL d   1       0.879  -1.276  -3.387  0.00  0.00     0.029 A 
BRANCH   7  11
ATOM     11  S   UNL d   1       5.463  -1.506  -3.541  0.00  0.00    -0.134 SA
ATOM     12  C   UNL d   1       5.963  -1.754  -1.815  0.00  0.00     0.095 C 
ENDBRANCH   7  11
ENDBRANCH   2   5
BRANCH   1  13
ATOM     13  C   UNL d   1       0.308   0.433   1.081  0.00  0.00     0.375 C 
BRANCH  13  14
ATOM     14  N   UNL d   1      -1.086   0.389   0.565  0.00  0.00     0.101 N 
ATOM     15  C   UNL d   1      -1.709  -0.952   0.721  0.00  0.00     0.299 C 
ATOM     16  C   UNL d   1      -2.091  -1.340   2.161  0.00  0.00     0.198 C 
ATOM     17  O   UNL d   1      -2.896  -0.336   2.787  0.00  0.00    -0.388 OA
ATOM     18  C   UNL d   1      -2.237   0.935   2.762  0.00  0.00     0.198 C 
ATOM     19  C   UNL d   1      -1.927   1.360   1.316  0.00  0.00     0.299 C 
ENDBRANCH  13  14
ENDBRANCH   1  13
TORSDOF 4
