REMARK  4 active torsions:
REMARK  status: ('A' for Active; 'I' for Inactive)
REMARK    1  A    between atoms: C_2  and  N_1 
REMARK    2  A    between atoms: N_11  and  C_7 
REMARK    3  A    between atoms: C_18  and  N_11 
REMARK    4  A    between atoms: C_15  and  C_18 
ROOT
ATOM      1  N   UNL d   1      -1.973  -3.268   3.683  0.00  0.00    -0.275 NA
ATOM      2  H   UNL d   1      -2.860  -2.859   3.406  0.00  0.00     0.129 HD
ENDROOT
BRANCH   1   3
ATOM      3  C   UNL d   1      -0.972  -2.940   2.771  0.00  0.00     0.080 A 
ATOM      4  C   UNL d   1      -1.117  -3.408   1.464  0.00  0.00     0.044 A 
ATOM      5  C   UNL d   1      -0.103  -3.194   0.531  0.00  0.00     0.041 A 
ATOM      6  C   UNL d   1       1.022  -2.480   0.931  0.00  0.00     0.118 A 
ATOM      7  C   UNL d   1       1.088  -2.014   2.234  0.00  0.00     0.125 A 
ATOM      8  N   UNL d   1       0.117  -2.244   3.158  0.00  0.00    -0.354 N 
ATOM      9  HN  UNL d   1       0.208  -1.899   4.114  1.00  0.00     0.166 HD
BRANCH   6  10
ATOM     10  N   UNL d   1       2.122  -2.240   0.010  0.00  0.00    -0.114 N 
ATOM     11  O   UNL d   1       3.076  -1.561   0.419  0.00  0.00    -0.532 OA
ATOM     12  O   UNL d   1       2.039  -2.724  -1.125  0.00  0.00    -0.532 OA
ENDBRANCH   6  10
ENDBRANCH   1   3
BRANCH   1  13
ATOM     13  C   UNL d   1      -1.669  -3.062   5.089  0.00  0.00     0.132 C 
BRANCH  13  14
ATOM     14  C   UNL d   1      -2.651  -3.882   5.904  0.00  0.00    -0.043 A 
ATOM     15  C   UNL d   1      -2.809  -5.255   5.635  0.00  0.00     0.034 A 
ATOM     16  C   UNL d   1      -3.698  -6.037   6.376  0.00  0.00     0.056 A 
ATOM     17 CL   UNL d   1      -3.838  -7.708   5.960  0.00  0.00    -0.083 Cl
ATOM     18  C   UNL d   1      -4.434  -5.455   7.410  0.00  0.00     0.055 A 
ATOM     19  C   UNL d   1      -4.277  -4.093   7.692  0.00  0.00     0.026 A 
ATOM     20 CL   UNL d   1      -5.546  -6.356   8.377  0.00  0.00    -0.083 Cl
ATOM     21  C   UNL d   1      -3.390  -3.311   6.945  0.00  0.00     0.010 A 
ENDBRANCH  13  14
ENDBRANCH   1  13
TORSDOF 4
