REMARK  3 active torsions:
REMARK  status: ('A' for Active; 'I' for Inactive)
REMARK    1  A    between atoms: O_5  and  C_1 
REMARK    2  A    between atoms: C_6  and  O_5 
REMARK    3  A    between atoms: N_15  and  C_12 
ROOT
ATOM      1  N   UNL d   1       4.449  -1.192  -1.077  0.00  0.00    -0.345 N 
ATOM      2  HN  UNL d   1       4.172  -1.724  -1.902  1.00  0.00     0.167 HD
ATOM      3  C   UNL d   1       3.675  -1.135   0.028  0.00  0.00     0.148 A 
ATOM      4  C   UNL d   1       5.613  -0.503  -1.026  0.00  0.00     0.113 A 
ATOM      5  C   UNL d   1       6.006   0.328   0.024  0.00  0.00     0.021 A 
ATOM      6  C   UNL d   1       3.977  -0.361   1.138  0.00  0.00     0.058 A 
ATOM      7  C   UNL d   1       5.169   0.362   1.137  0.00  0.00     0.029 A 
ENDROOT
BRANCH   3   8
ATOM      8  O   UNL d   1       2.490  -1.860   0.090  0.00  0.00    -0.291 OA
BRANCH   8   9
ATOM      9  C   UNL d   1       2.384  -2.990  -0.686  0.00  0.00     0.116 A 
ATOM     10  C   UNL d   1       3.393  -3.951  -0.823  0.00  0.00     0.153 A 
ATOM     11  C   UNL d   1       3.198  -5.085  -1.603  0.00  0.00     0.087 A 
ATOM     12  F   UNL d   1       4.558  -3.830  -0.168  0.00  0.00    -0.203 F 
ATOM     13  C   UNL d   1       1.966  -5.281  -2.214  0.00  0.00     0.119 A 
ATOM     14  C   UNL d   1       0.930  -4.364  -2.050  0.00  0.00     0.045 A 
ATOM     15  F   UNL d   1       1.763  -6.379  -2.952  0.00  0.00    -0.206 F 
ATOM     16  C   UNL d   1       1.139  -3.215  -1.285  0.00  0.00     0.043 A 
ENDBRANCH   8   9
ENDBRANCH   3   8
BRANCH   5  17
ATOM     17  N   UNL d   1       7.279   0.905   0.076  0.00  0.00    -0.302 NA
ATOM     18  H   UNL d   1       7.345   1.710   0.692  0.00  0.00     0.124 HD
ATOM     19  H   UNL d   1       7.698   1.079  -0.833  0.00  0.00     0.124 HD
ENDBRANCH   5  17
TORSDOF 3
