REMARK  2 active torsions:
REMARK  status: ('A' for Active; 'I' for Inactive)
REMARK    1  A    between atoms: C_9  and  N_4 
REMARK    2  A    between atoms: C_10  and  C_9 
ROOT
ATOM      1  S   UNL d   1       0.944   0.236  -0.170  0.00  0.00     0.147 S 
ATOM      2  C   UNL d   1       0.025  -1.238   0.179  0.00  0.00     0.170 C 
ATOM      3  C   UNL d   1      -0.116   1.540   0.402  0.00  0.00     0.170 C 
ATOM      4  N   UNL d   1      -2.147   0.037   0.329  0.00  0.00     0.094 N 
ATOM      5  O   UNL d   1       2.124   0.228   0.678  0.00  0.00    -0.228 OA
ATOM      6  O   UNL d   1       1.079   0.355  -1.609  0.00  0.00    -0.228 OA
ATOM      7  C   UNL d   1      -1.544   1.321  -0.064  0.00  0.00     0.287 C 
ATOM      8  C   UNL d   1      -1.418  -1.091  -0.275  0.00  0.00     0.287 C 
ENDROOT
BRANCH   4   9
ATOM      9  C   UNL d   1      -2.332  -0.142   1.780  0.00  0.00     0.311 C 
BRANCH   9  10
ATOM     10  C   UNL d   1      -3.235   0.873   2.445  0.00  0.00    -0.030 A 
ATOM     11  C   UNL d   1      -4.567   1.031   2.039  0.00  0.00     0.009 A 
ATOM     12  C   UNL d   1      -5.411   1.917   2.711  0.00  0.00     0.001 A 
ATOM     13  C   UNL d   1      -4.934   2.653   3.794  0.00  0.00     0.000 A 
ATOM     14  C   UNL d   1      -3.610   2.510   4.203  0.00  0.00     0.001 A 
ATOM     15  C   UNL d   1      -2.765   1.625   3.533  0.00  0.00     0.009 A 
ENDBRANCH   9  10
ENDBRANCH   4   9
TORSDOF 2
