REMARK  4 active torsions:
REMARK  status: ('A' for Active; 'I' for Inactive)
REMARK    1  A    between atoms: C_3  and  S_1 
REMARK    2  A    between atoms: C_5  and  S_1 
REMARK    3  A    between atoms: C_2  and  C_3 
REMARK    4  A    between atoms: C_4  and  C_6 
ROOT
ATOM      1  S   UNL d   1       0.988  -0.062  -0.084  0.00  0.00     0.195 S 
ATOM      2  O   UNL d   1       0.227  -0.975   0.753  0.00  0.00    -0.221 OA
ATOM      3  O   UNL d   1       2.438  -0.134  -0.119  0.00  0.00    -0.221 OA
ENDROOT
BRANCH   1   4
ATOM      4  C   UNL d   1       0.482   1.627   0.236  0.00  0.00     0.189 C 
BRANCH   4   5
ATOM      5  C   UNL d   1       0.790   2.011   1.665  0.00  0.00    -0.000 A 
ATOM      6  C   UNL d   1       2.004   2.637   2.013  0.00  0.00     0.043 A 
ATOM      7 CL   UNL d   1       3.218   3.014   0.841  0.00  0.00    -0.084 Cl
ATOM      8  C   UNL d   1       2.268   3.024   3.333  0.00  0.00     0.024 A 
ATOM      9  C   UNL d   1       1.334   2.787   4.337  0.00  0.00     0.003 A 
ATOM     10  C   UNL d   1       0.132   2.164   4.019  0.00  0.00     0.024 A 
ATOM     11  C   UNL d   1      -0.140   1.783   2.699  0.00  0.00     0.043 A 
ATOM     12 CL   UNL d   1      -1.693   1.077   2.407  0.00  0.00    -0.084 Cl
ENDBRANCH   4   5
ENDBRANCH   1   4
BRANCH   1  13
ATOM     13  C   UNL d   1       0.433  -0.351  -1.758  0.00  0.00     0.128 A 
ATOM     14  N   UNL d   1      -0.194   0.704  -2.340  0.00  0.00    -0.356 N 
ATOM     15  C   UNL d   1      -0.625   0.514  -3.607  0.00  0.00     0.105 A 
ATOM     16  HN  UNL d   1      -0.331   1.588  -1.849  1.00  0.00     0.166 HD
ATOM     17  C   UNL d   1      -0.458  -0.669  -4.316  0.00  0.00     0.063 A 
ATOM     18  C   UNL d   1       0.193  -1.732  -3.671  0.00  0.00     0.020 A 
ATOM     19  C   UNL d   1       0.651  -1.578  -2.364  0.00  0.00     0.042 A 
BRANCH  17  20
ATOM     20  C   UNL d   1      -0.958  -0.787  -5.725  0.00  0.00     0.418 C 
ATOM     21  F   UNL d   1      -1.575   0.339  -6.178  0.00  0.00    -0.166 F 
ATOM     22  F   UNL d   1       0.042  -1.045  -6.611  0.00  0.00    -0.166 F 
ATOM     23  F   UNL d   1      -1.862  -1.794  -5.875  0.00  0.00    -0.166 F 
ENDBRANCH  17  20
ENDBRANCH   1  13
TORSDOF 4
