REMARK  2 active torsions:
REMARK  status: ('A' for Active; 'I' for Inactive)
REMARK       I    between atoms: C_9  and  N_2 
REMARK    1  A    between atoms: S_17  and  C_7 
REMARK    2  A    between atoms: C_13  and  C_9 
ROOT
ATOM      1  C   UNL d   1      -0.733  -0.677   0.023  0.00  0.00     0.069 A 
ATOM      2  N   UNL d   1      -2.781  -1.249   0.095  0.00  0.00    -0.230 N 
ATOM      3  N   UNL d   1      -1.513  -1.745   0.114  0.00  0.00    -0.290 N 
ATOM      4  HN  UNL d   1      -1.227  -2.722   0.182  1.00  0.00     0.187 HD
ATOM      5  C   UNL d   1       0.734  -0.647   0.013  0.00  0.00     0.023 A 
ATOM      6  C   UNL d   1      -1.462   0.530  -0.065  0.00  0.00    -0.011 A 
ATOM      7  C   UNL d   1       1.637  -1.681  -0.130  0.00  0.00     0.053 A 
ATOM      8  C   UNL d   1      -2.780   0.135   0.001  0.00  0.00     0.129 A 
ATOM      9  C   UNL d   1      -3.878  -2.134   0.186  0.00  0.00     0.276 C 
ATOM     10  C   UNL d   1       1.367   0.646   0.143  0.00  0.00    -0.037 A 
ATOM     11  S   UNL d   1       3.249  -1.090  -0.111  0.00  0.00    -0.093 SA
ATOM     12  C   UNL d   1       2.740   0.532   0.079  0.00  0.00     0.059 A 
ATOM     13  C   UNL d   1      -0.833   1.870  -0.255  0.00  0.00     0.047 C 
ATOM     14  O   UNL d   1      -3.719  -3.310  -0.141  0.00  0.00    -0.265 OA
ATOM     15  C   UNL d   1       0.587   1.926   0.348  0.00  0.00     0.045 C 
ENDROOT
BRANCH   9  16
ATOM     16  C   UNL d   1      -5.221  -1.736   0.679  0.00  0.00     0.034 A 
ATOM     17  C   UNL d   1      -6.354  -2.371   0.149  0.00  0.00     0.019 A 
ATOM     18  C   UNL d   1      -7.618  -2.094   0.676  0.00  0.00     0.025 A 
ATOM     19  C   UNL d   1      -7.747  -1.195   1.733  0.00  0.00     0.034 A 
ATOM     20  C   UNL d   1      -6.623  -0.567   2.269  0.00  0.00     0.025 A 
ATOM     21 CL   UNL d   1      -9.298  -0.881   2.407  0.00  0.00    -0.084 Cl
ATOM     22  C   UNL d   1      -5.357  -0.841   1.746  0.00  0.00     0.019 A 
ENDBRANCH   9  16
BRANCH   7  23
ATOM     23  S   UNL d   1       1.330  -3.395  -0.393  0.00  0.00    -0.126 SA
ATOM     24  C   UNL d   1       1.174  -3.973   1.312  0.00  0.00     0.096 C 
ENDBRANCH   7  23
TORSDOF 2
