REMARK  4 active torsions:
REMARK  status: ('A' for Active; 'I' for Inactive)
REMARK    1  A    between atoms: C_2  and  S_1 
REMARK    2  A    between atoms: N_8  and  S_1 
REMARK    3  A    between atoms: C_6  and  C_3 
REMARK       I    between atoms: N_9  and  C_6 
REMARK    4  A    between atoms: C_14  and  N_9 
ROOT
ATOM      1  C   UNL d   1       0.629  -0.944   1.666  0.00  0.00     0.191 A 
ATOM      2  C   UNL d   1      -0.341  -1.058   3.738  0.00  0.00     0.065 A 
ATOM      3  C   UNL d   1      -0.208  -0.276   2.547  0.00  0.00     0.071 A 
ATOM      4  O   UNL d   1       0.927  -2.165   2.239  0.00  0.00    -0.301 OA
ATOM      5  C   UNL d   1       0.309  -2.246   3.452  0.00  0.00     0.066 A 
ATOM      6  C   UNL d   1       0.452  -3.553   4.131  0.00  0.00     0.078 C 
ENDROOT
BRANCH   2   7
ATOM      7  C   UNL d   1      -1.081  -0.649   4.934  0.00  0.00     0.258 C 
ATOM      8  N   UNL d   1      -0.701  -1.274   6.111  0.00  0.00    -0.323 N 
ATOM      9  H   UNL d   1       0.080  -1.912   6.063  0.00  0.00     0.169 HD
ATOM     10  O   UNL d   1      -1.928   0.228   4.840  0.00  0.00    -0.267 OA
BRANCH   8  11
ATOM     11  C   UNL d   1      -1.281  -1.113   7.390  0.00  0.00     0.035 A 
ATOM     12  C   UNL d   1      -2.325  -0.226   7.670  0.00  0.00     0.031 A 
ATOM     13  C   UNL d   1      -2.900  -0.175   8.945  0.00  0.00     0.026 A 
ATOM     14  C   UNL d   1      -2.430  -1.010   9.953  0.00  0.00     0.034 A 
ATOM     15  C   UNL d   1      -1.368  -1.873   9.704  0.00  0.00     0.026 A 
ATOM     16 CL   UNL d   1      -3.173  -0.983  11.504  0.00  0.00    -0.084 Cl
ATOM     17  C   UNL d   1      -0.791  -1.920   8.427  0.00  0.00     0.031 A 
ENDBRANCH   8  11
ENDBRANCH   2   7
BRANCH   1  18
ATOM     18  S   UNL d   1       1.323  -0.463   0.073  0.00  0.00     0.283 S 
ATOM     19  O   UNL d   1       0.479   0.624  -0.377  0.00  0.00    -0.198 OA
ATOM     20  O   UNL d   1       1.428  -1.705  -0.661  0.00  0.00    -0.198 OA
BRANCH  18  21
ATOM     21  N   UNL d   1       2.891   0.140   0.309  0.00  0.00    -0.301 N 
ATOM     22  C   UNL d   1       3.056   1.548   0.748  0.00  0.00     0.161 C 
ATOM     23  C   UNL d   1       2.978   1.636   2.268  0.00  0.00     0.188 C 
ATOM     24  O   UNL d   1       4.012   0.842   2.867  0.00  0.00    -0.388 OA
ATOM     25  C   UNL d   1       3.929  -0.538   2.481  0.00  0.00     0.188 C 
ATOM     26  C   UNL d   1       3.895  -0.745   0.957  0.00  0.00     0.161 C 
ENDBRANCH  18  21
ENDBRANCH   1  18
TORSDOF 4
