REMARK  5 active torsions:
REMARK  status: ('A' for Active; 'I' for Inactive)
REMARK    1  A    between atoms: S_8  and  C_1 
REMARK    2  A    between atoms: C_7  and  C_13 
REMARK       I    between atoms: N_10  and  C_7 
REMARK    3  A    between atoms: C_13  and  S_8 
REMARK    4  A    between atoms: C_9  and  C_14 
REMARK       I    between atoms: N_15  and  C_9 
REMARK    5  A    between atoms: C_14  and  N_10 
ROOT
ATOM      1  S   UNL d   1      -3.563  -1.504   0.228  0.00  0.00    -0.096 SA
ENDROOT
BRANCH   1   2
ATOM      2  C   UNL d   1      -3.505  -2.458  -1.239  0.00  0.00     0.113 A 
ATOM      3  N   UNL d   1      -4.372  -2.276  -2.207  0.00  0.00    -0.344 N 
ATOM      4  C   UNL d   1      -4.207  -3.254  -3.172  0.00  0.00     0.050 A 
ATOM      5  HN  UNL d   1      -5.064  -1.527  -2.243  1.00  0.00     0.167 HD
ATOM      6  C   UNL d   1      -5.026  -3.427  -4.306  0.00  0.00     0.031 A 
ATOM      7  C   UNL d   1      -3.153  -4.142  -2.952  0.00  0.00     0.034 A 
ATOM      8  C   UNL d   1      -4.773  -4.482  -5.184  0.00  0.00     0.002 A 
ATOM      9  C   UNL d   1      -3.709  -5.350  -4.955  0.00  0.00     0.002 A 
ATOM     10  C   UNL d   1      -2.877  -5.192  -3.841  0.00  0.00     0.021 A 
ATOM     11  S   UNL d   1      -2.366  -3.713  -1.479  0.00  0.00    -0.063 SA
ENDBRANCH   1   2
BRANCH   1  12
ATOM     12  C   UNL d   1      -4.878  -0.308  -0.135  0.00  0.00     0.184 C 
BRANCH  12  13
ATOM     13  C   UNL d   1      -6.267  -0.916  -0.007  0.00  0.00     0.227 C 
ATOM     14  N   UNL d   1      -6.703  -1.617  -1.102  0.00  0.00    -0.352 N 
ATOM     15  H   UNL d   1      -5.995  -1.875  -1.790  0.00  0.00     0.162 HD
ATOM     16  O   UNL d   1      -6.968  -0.742   0.990  0.00  0.00    -0.273 OA
BRANCH  14  17
ATOM     17  C   UNL d   1      -7.931  -2.402  -1.114  0.00  0.00     0.225 C 
BRANCH  17  18
ATOM     18  C   UNL d   1      -8.723  -2.203  -2.407  0.00  0.00     0.233 C 
ATOM     19  O   UNL d   1      -9.593  -2.978  -2.795  0.00  0.00    -0.272 OA
ATOM     20  N   UNL d   1      -8.485  -1.035  -3.077  0.00  0.00    -0.369 N 
ATOM     21  H   UNL d   1      -7.984  -0.291  -2.609  0.00  0.00     0.159 HD
ATOM     22  H   UNL d   1      -9.110  -0.802  -3.838  0.00  0.00     0.159 HD
ENDBRANCH  17  18
ENDBRANCH  14  17
ENDBRANCH  12  13
ENDBRANCH   1  12
TORSDOF 5
