REMARK  4 active torsions:
REMARK  status: ('A' for Active; 'I' for Inactive)
REMARK    1  A    between atoms: N_3  and  C_1 
REMARK    2  A    between atoms: S_2  and  O_5 
REMARK    3  A    between atoms: C_8  and  S_2 
REMARK    4  A    between atoms: O_5  and  C_4 
ROOT
ATOM      1  C   UNL d   1      -1.014   1.135  -0.148  0.00  0.00     0.209 A 
ATOM      2  C   UNL d   1      -1.812  -0.013  -0.045  0.00  0.00     0.140 A 
ATOM      3  N   UNL d   1       0.357   1.109  -0.133  0.00  0.00    -0.339 N 
ATOM      4  HN  UNL d   1       0.900   1.967  -0.224  1.00  0.00     0.167 HD
ATOM      5  C   UNL d   1      -1.148  -1.229   0.120  0.00  0.00     0.044 A 
ATOM      6  C   UNL d   1       0.965  -0.088   0.008  0.00  0.00     0.007 A 
ATOM      7  C   UNL d   1       0.247  -1.268   0.148  0.00  0.00     0.027 A 
ATOM      8  C   UNL d   1       2.464  -0.112  -0.001  0.00  0.00     0.068 C 
ENDROOT
BRANCH   2   9
ATOM      9  O   UNL d   1      -3.177   0.112  -0.142  0.00  0.00    -0.225 OA
BRANCH   9  10
ATOM     10  S   UNL d   1      -4.196  -1.154  -0.019  0.00  0.00     0.303 S 
ATOM     11  O   UNL d   1      -3.973  -2.019  -1.161  0.00  0.00    -0.193 OA
ATOM     12  O   UNL d   1      -4.141  -1.667   1.335  0.00  0.00    -0.193 OA
BRANCH  10  13
ATOM     13  C   UNL d   1      -5.817  -0.447  -0.221  0.00  0.00     0.087 A 
ATOM     14  C   UNL d   1      -6.825  -1.217  -0.819  0.00  0.00     0.029 A 
ATOM     15  C   UNL d   1      -8.095  -0.666  -0.995  0.00  0.00     0.044 A 
ATOM     16  C   UNL d   1      -8.339   0.639  -0.581  0.00  0.00     0.116 A 
ATOM     17  C   UNL d   1      -7.338   1.409   0.007  0.00  0.00     0.044 A 
ATOM     18  F   UNL d   1      -9.559   1.166  -0.751  0.00  0.00    -0.206 F 
ATOM     19  C   UNL d   1      -6.064   0.867   0.190  0.00  0.00     0.029 A 
ENDBRANCH  10  13
ENDBRANCH   9  10
ENDBRANCH   2   9
BRANCH   1  20
ATOM     20  N   UNL d   1      -1.720   2.420  -0.284  0.00  0.00    -0.095 N 
ATOM     21  O   UNL d   1      -2.530   2.727   0.607  0.00  0.00    -0.530 OA
ATOM     22  O   UNL d   1      -1.466   3.103  -1.286  0.00  0.00    -0.530 OA
ENDBRANCH   1  20
TORSDOF 4
