REMARK  10 active torsions:
REMARK  status: ('A' for Active; 'I' for Inactive)
REMARK    1  A    between atoms: C_12  and  C_1 
REMARK    2  A    between atoms: C_14  and  C_1 
REMARK    3  A    between atoms: C_11  and  C_2 
REMARK    4  A    between atoms: C_3  and  C_6 
REMARK    5  A    between atoms: C_4  and  C_7 
REMARK    6  A    between atoms: C_9  and  C_8 
REMARK       I    between atoms: N_27  and  C_12 
REMARK    7  A    between atoms: N_17  and  C_14 
REMARK    8  A    between atoms: C_16  and  C_35 
REMARK    9  A    between atoms: C_34  and  N_27 
REMARK   10  A    between atoms: C_35  and  C_34 
ROOT
ATOM      1  C   UNL d   1       0.951  -0.032   0.081  0.00  0.00     0.096 C 
ATOM      2  C   UNL d   1       0.295  -1.163  -0.264  0.00  0.00     0.064 C 
ENDROOT
BRANCH   1   3
ATOM      3  C   UNL d   1       0.278   1.299   0.293  0.00  0.00     0.261 C 
ATOM      4  O   UNL d   1       0.917   2.345   0.146  0.00  0.00    -0.267 OA
ATOM      5  N   UNL d   1      -1.038   1.285   0.679  0.00  0.00    -0.356 N 
ATOM      6  H   UNL d   1      -1.529   0.415   0.786  0.00  0.00     0.162 HD
BRANCH   5   7
ATOM      7  C   UNL d   1      -1.813   2.526   0.946  0.00  0.00     0.127 C 
BRANCH   7   8
ATOM      8  C   UNL d   1      -2.959   2.168   1.867  0.00  0.00     0.060 C 
BRANCH   8   9
ATOM      9  C   UNL d   1      -4.026   3.135   2.275  0.00  0.00    -0.029 C 
ATOM     10  C   UNL d   1      -4.581   3.102   3.545  0.00  0.00     0.096 C 
ATOM     11  N   UNL d   1      -5.935   3.072   3.326  0.00  0.00    -0.365 N 
ATOM     12  C   UNL d   1      -6.208   3.584   2.082  0.00  0.00     0.042 C 
ATOM     13  H   UNL d   1      -6.627   2.761   3.992  0.00  0.00     0.165 HD
ATOM     14  C   UNL d   1      -4.972   3.863   1.488  0.00  0.00    -0.002 C 
ATOM     15  C   UNL d   1      -7.434   3.820   1.456  0.00  0.00     0.030 C 
ATOM     16  C   UNL d   1      -4.974   4.615   0.296  0.00  0.00     0.014 C 
ATOM     17  C   UNL d   1      -6.203   5.026  -0.248  0.00  0.00     0.001 C 
ATOM     18  C   UNL d   1      -7.410   4.579   0.287  0.00  0.00     0.002 C 
ENDBRANCH   8   9
ENDBRANCH   7   8
ENDBRANCH   5   7
ENDBRANCH   1   3
BRANCH   1  19
ATOM     19  C   UNL d   1       2.471  -0.032   0.081  0.00  0.00    -0.031 C 
BRANCH  19  20
ATOM     20  N   UNL d   1       3.732  -0.032   0.081  0.00  0.00    -0.365 N 
ATOM     21  HN2 UNL d   1       2.712  -0.032   0.081  1.00  0.00     0.165 HD
ATOM     22  HN1 UNL d   1       4.752  -0.032   0.081  1.00  0.00     0.165 HD
ENDBRANCH  19  20
ENDBRANCH   1  19
BRANCH   2  23
ATOM     23  C   UNL d   1       0.969  -2.397  -0.550  0.00  0.00     0.077 A 
ATOM     24  O   UNL d   1       2.183  -2.772  -0.017  0.00  0.00    -0.310 OA
ATOM     25  C   UNL d   1       2.554  -3.979  -0.539  0.00  0.00     0.086 A 
ATOM     26  C   UNL d   1       1.565  -4.424  -1.385  0.00  0.00     0.041 A 
ATOM     27  C   UNL d   1       0.559  -3.418  -1.396  0.00  0.00     0.040 A 
BRANCH  25  28
ATOM     28  C   UNL d   1       3.858  -4.510  -0.143  0.00  0.00    -0.001 A 
ATOM     29  C   UNL d   1       4.060  -5.899  -0.073  0.00  0.00     0.030 A 
ATOM     30  C   UNL d   1       5.325  -6.444   0.218  0.00  0.00     0.049 A 
ATOM     31  C   UNL d   1       6.401  -5.574   0.445  0.00  0.00     0.032 A 
ATOM     32  C   UNL d   1       6.228  -4.182   0.383  0.00  0.00     0.049 A 
ATOM     33  C   UNL d   1       4.950  -3.665   0.105  0.00  0.00     0.030 A 
BRANCH  30  34
ATOM     34  C   UNL d   1       5.506  -7.942   0.268  0.00  0.00     0.417 C 
ATOM     35  F   UNL d   1       6.801  -8.329   0.442  0.00  0.00    -0.166 F 
ATOM     36  F   UNL d   1       4.804  -8.519   1.281  0.00  0.00    -0.166 F 
ATOM     37  F   UNL d   1       5.086  -8.553  -0.875  0.00  0.00    -0.166 F 
ENDBRANCH  30  34
BRANCH  32  38
ATOM     38  C   UNL d   1       7.400  -3.246   0.583  0.00  0.00     0.417 C 
ATOM     39  F   UNL d   1       8.580  -3.902   0.778  0.00  0.00    -0.166 F 
ATOM     40  F   UNL d   1       7.607  -2.434  -0.490  0.00  0.00    -0.166 F 
ATOM     41  F   UNL d   1       7.248  -2.432   1.660  0.00  0.00    -0.166 F 
ENDBRANCH  32  38
ENDBRANCH  25  28
ENDBRANCH   2  23
TORSDOF 10
