REMARK  12 active torsions:
REMARK  status: ('A' for Active; 'I' for Inactive)
REMARK    1  A    between atoms: C_5  and  C_1 
REMARK    2  A    between atoms: N_6  and  C_12 
REMARK    3  A    between atoms: S_18  and  C_7 
REMARK    4  A    between atoms: C_10  and  C_23 
REMARK    5  A    between atoms: C_11  and  C_25 
REMARK    6  A    between atoms: O_21  and  C_13 
REMARK    7  A    between atoms: C_15  and  C_17 
REMARK    8  A    between atoms: C_17  and  C_22 
REMARK    9  A    between atoms: C_22  and  S_18 
REMARK   10  A    between atoms: C_23  and  O_21 
REMARK   11  A    between atoms: C_25  and  O_34 
REMARK   12  A    between atoms: O_34  and  C_33 
ROOT
ATOM      1  C   UNL d   1      -0.284  -1.078   0.199  0.00  0.00     0.178 A 
ATOM      2  O   UNL d   1       0.842  -0.891   0.965  0.00  0.00    -0.267 OA
ATOM      3  N   UNL d   1      -0.760   0.065  -0.252  0.00  0.00    -0.277 N 
ATOM      4  HN  UNL d   1      -1.581   0.192  -0.844  1.00  0.00     0.189 HD
ATOM      5  C   UNL d   1       1.004   0.465   0.945  0.00  0.00     0.204 A 
ATOM      6  N   UNL d   1       0.073   1.065   0.234  0.00  0.00    -0.272 N 
ATOM      7  HN  UNL d   1      -0.018   2.068   0.071  1.00  0.00     0.189 HD
ENDROOT
BRANCH   1   8
ATOM      8  C   UNL d   1      -0.715  -2.470   0.035  0.00  0.00     0.053 A 
ATOM      9  C   UNL d   1      -1.588  -2.898  -0.986  0.00  0.00     0.083 A 
ATOM     10  C   UNL d   1      -1.862  -4.270  -1.121  0.00  0.00     0.040 A 
ATOM     11  C   UNL d   1      -1.369  -5.205  -0.209  0.00  0.00     0.039 A 
ATOM     12  C   UNL d   1      -0.573  -4.787   0.846  0.00  0.00     0.070 A 
ATOM     13  C   UNL d   1      -0.227  -3.438   0.942  0.00  0.00     0.055 A 
BRANCH   9  14
ATOM     14  O   UNL d   1      -2.134  -1.951  -1.821  0.00  0.00    -0.341 OA
BRANCH  14  15
ATOM     15  C   UNL d   1      -3.209  -2.385  -2.670  0.00  0.00     0.293 C 
BRANCH  15  16
ATOM     16  C   UNL d   1      -3.986  -1.236  -3.301  0.00  0.00     0.408 C 
ATOM     17  F   UNL d   1      -3.306  -0.074  -3.314  0.00  0.00    -0.169 F 
ATOM     18  F   UNL d   1      -4.297  -1.537  -4.587  0.00  0.00    -0.169 F 
ATOM     19  F   UNL d   1      -5.156  -1.031  -2.651  0.00  0.00    -0.169 F 
ENDBRANCH  15  16
ENDBRANCH  14  15
ENDBRANCH   9  14
BRANCH  12  20
ATOM     20  O   UNL d   1      -0.036  -5.599   1.804  0.00  0.00    -0.342 OA
BRANCH  20  21
ATOM     21  C   UNL d   1      -0.752  -6.810   2.086  0.00  0.00     0.293 C 
BRANCH  21  22
ATOM     22  C   UNL d   1      -0.063  -7.627   3.175  0.00  0.00     0.408 C 
ATOM     23  F   UNL d   1       1.102  -7.085   3.588  0.00  0.00    -0.169 F 
ATOM     24  F   UNL d   1      -0.861  -7.758   4.261  0.00  0.00    -0.169 F 
ATOM     25  F   UNL d   1       0.209  -8.877   2.728  0.00  0.00    -0.169 F 
ENDBRANCH  21  22
ENDBRANCH  20  21
ENDBRANCH  12  20
ENDBRANCH   1   8
BRANCH   5  26
ATOM     26  S   UNL d   1       2.302   1.242   1.798  0.00  0.00    -0.077 SA
BRANCH  26  27
ATOM     27  C   UNL d   1       2.289   2.898   1.058  0.00  0.00     0.166 C 
BRANCH  27  28
ATOM     28  C   UNL d   1       3.358   3.795   1.680  0.00  0.00     0.169 C 
ATOM     29  O   UNL d   1       3.962   3.520   2.712  0.00  0.00    -0.291 OA
BRANCH  28  30
ATOM     30  C   UNL d   1       3.677   5.100   1.008  0.00  0.00     0.013 A 
ATOM     31  C   UNL d   1       2.962   5.572  -0.098  0.00  0.00     0.051 A 
ATOM     32  C   UNL d   1       3.327   6.797  -0.687  0.00  0.00     0.103 A 
ATOM     33  C   UNL d   1       4.386   7.557  -0.176  0.00  0.00     0.036 A 
ATOM     34  C   UNL d   1       5.089   7.092   0.933  0.00  0.00     0.003 A 
ATOM     35  C   UNL d   1       4.736   5.869   1.519  0.00  0.00     0.015 A 
BRANCH  32  36
ATOM     36  N   UNL d   1       2.589   7.283  -1.861  0.00  0.00    -0.116 N 
ATOM     37  O   UNL d   1       1.658   6.584  -2.280  0.00  0.00    -0.532 OA
ATOM     38  O   UNL d   1       2.946   8.358  -2.363  0.00  0.00    -0.532 OA
ENDBRANCH  32  36
ENDBRANCH  28  30
ENDBRANCH  27  28
ENDBRANCH  26  27
ENDBRANCH   5  26
TORSDOF 12
