REMARK  2 active torsions:
REMARK  status: ('A' for Active; 'I' for Inactive)
REMARK    1  A    between atoms: C_11  and  N_4 
REMARK    2  A    between atoms: C_8  and  C_11 
ROOT
ATOM      1  S   UNL d   1       0.948   0.181  -0.144  0.00  0.00     0.147 S 
ATOM      2  C   UNL d   1       0.007  -1.274   0.232  0.00  0.00     0.170 C 
ATOM      3  C   UNL d   1      -0.100   1.504   0.405  0.00  0.00     0.170 C 
ATOM      4  N   UNL d   1      -2.152   0.030   0.325  0.00  0.00     0.095 N 
ATOM      5  O   UNL d   1       2.125   0.171   0.705  0.00  0.00    -0.228 OA
ATOM      6  O   UNL d   1       1.083   0.273  -1.585  0.00  0.00    -0.228 OA
ATOM      7  C   UNL d   1      -1.522   1.298  -0.082  0.00  0.00     0.287 C 
ATOM      8  C   UNL d   1      -1.429  -1.122  -0.240  0.00  0.00     0.287 C 
ENDROOT
BRANCH   4   9
ATOM      9  C   UNL d   1      -2.377  -0.113   1.776  0.00  0.00     0.318 C 
BRANCH   9  10
ATOM     10  C   UNL d   1      -3.293   0.935   2.344  0.00  0.00     0.010 A 
ATOM     11  S   UNL d   1      -2.713   2.029   3.532  0.00  0.00    -0.105 SA
ATOM     12  C   UNL d   1      -4.237   2.791   3.666  0.00  0.00     0.050 A 
ATOM     13  C   UNL d   1      -5.172   2.227   2.830  0.00  0.00     0.008 A 
ATOM     14  C   UNL d   1      -4.628   1.155   2.065  0.00  0.00     0.017 A 
ENDBRANCH   9  10
ENDBRANCH   4   9
TORSDOF 2
