REMARK  3 active torsions:
REMARK  status: ('A' for Active; 'I' for Inactive)
REMARK    1  A    between atoms: C_8  and  C_3 
REMARK    2  A    between atoms: N_6  and  C_4 
REMARK       I    between atoms: C_5  and  N_6 
REMARK       I    between atoms: N_9  and  C_5 
REMARK    3  A    between atoms: C_11  and  N_9 
ROOT
ATOM      1  C   UNL d   1       3.426   1.166   0.107  0.00  0.00     0.326 C 
ATOM      2  N   UNL d   1       2.127   1.530   0.231  0.00  0.00    -0.294 N 
ATOM      3  N   UNL d   1       3.794  -0.100   0.461  0.00  0.00    -0.306 N 
ATOM      4  O   UNL d   1       4.209   2.051  -0.253  0.00  0.00    -0.247 OA
ATOM      5  H   UNL d   1       2.011   2.521   0.085  0.00  0.00     0.172 HD
ATOM      6  H   UNL d   1       3.165  -0.554   1.116  0.00  0.00     0.171 HD
ENDROOT
BRANCH   2   7
ATOM      7  C   UNL d   1       0.977   0.794   0.381  0.00  0.00     0.116 A 
ATOM      8  N   UNL d   1       0.929  -0.582   0.365  0.00  0.00    -0.335 N 
ATOM      9  C   UNL d   1      -0.337  -0.982   0.354  0.00  0.00     0.092 A 
ATOM     10  HN  UNL d   1       1.741  -1.200   0.363  1.00  0.00     0.168 HD
ATOM     11  S   UNL d   1      -1.497   0.283   0.550  0.00  0.00    -0.079 SA
ATOM     12  C   UNL d   1      -0.242   1.429   0.491  0.00  0.00     0.100 A 
BRANCH   9  13
ATOM     13  C   UNL d   1      -0.723  -2.362   0.139  0.00  0.00     0.038 A 
ATOM     14  S   UNL d   1      -2.365  -2.866  -0.024  0.00  0.00    -0.099 SA
ATOM     15  C   UNL d   1      -1.925  -4.482  -0.346  0.00  0.00     0.050 A 
ATOM     16  C   UNL d   1      -0.564  -4.662  -0.299  0.00  0.00     0.008 A 
ATOM     17  C   UNL d   1       0.128  -3.444  -0.013  0.00  0.00     0.022 A 
ENDBRANCH   9  13
ENDBRANCH   2   7
BRANCH   3  18
ATOM     18  C   UNL d   1       5.154  -0.499   0.471  0.00  0.00     0.075 A 
ATOM     19  C   UNL d   1       5.645  -1.258   1.539  0.00  0.00     0.146 A 
ATOM     20  C   UNL d   1       6.999  -1.571   1.636  0.00  0.00     0.086 A 
ATOM     21  F   UNL d   1       4.820  -1.629   2.530  0.00  0.00    -0.204 F 
ATOM     22  C   UNL d   1       7.862  -1.158   0.629  0.00  0.00     0.119 A 
ATOM     23  C   UNL d   1       7.392  -0.448  -0.469  0.00  0.00     0.044 A 
ATOM     24  F   UNL d   1       9.168  -1.440   0.720  0.00  0.00    -0.206 F 
ATOM     25  C   UNL d   1       6.038  -0.116  -0.546  0.00  0.00     0.036 A 
ENDBRANCH   3  18
TORSDOF 3
