REMARK  6 active torsions:
REMARK  status: ('A' for Active; 'I' for Inactive)
REMARK    1  A    between atoms: S_8  and  C_2 
REMARK    2  A    between atoms: C_7  and  C_4 
REMARK    3  A    between atoms: O_14  and  C_7 
REMARK    4  A    between atoms: C_15  and  S_8 
REMARK    5  A    between atoms: C_18  and  O_14 
REMARK    6  A    between atoms: C_19  and  C_15 
ROOT
ATOM      1  C   UNL d   1       0.124  -0.633   0.355  0.00  0.00     0.041 C 
ATOM      2  C   UNL d   1       1.196  -1.482   0.162  0.00  0.00     0.057 C 
ATOM      3  C   UNL d   1       0.482   0.769   0.202  0.00  0.00    -0.018 C 
ATOM      4  C   UNL d   1       1.851   0.935   0.036  0.00  0.00     0.088 C 
ATOM      5  S   UNL d   1       2.650  -0.582   0.022  0.00  0.00    -0.076 SA
ATOM      6  C   UNL d   1      -1.256  -0.990   0.630  0.00  0.00     0.162 C 
ATOM      7  C   UNL d   1      -0.569   1.872   0.200  0.00  0.00     0.050 C 
ATOM      8  C   UNL d   1      -1.993   1.388   0.621  0.00  0.00    -0.037 C 
ATOM      9  C   UNL d   1      -2.266  -0.023   0.062  0.00  0.00     0.093 C 
ATOM     10  O   UNL d   1      -1.596  -1.936   1.333  0.00  0.00    -0.292 OA
ATOM     11  C   UNL d   1      -3.071   2.331   0.057  0.00  0.00     0.015 C 
ATOM     12  C   UNL d   1      -2.122   1.383   2.159  0.00  0.00     0.015 C 
ENDROOT
BRANCH   2  13
ATOM     13  S   UNL d   1       1.326  -3.237   0.063  0.00  0.00    -0.117 SA
BRANCH  13  14
ATOM     14  C   UNL d   1      -0.232  -3.871  -0.647  0.00  0.00     0.048 C 
ATOM     15  C   UNL d   1      -0.145  -5.401  -0.671  0.00  0.00     0.021 C 
BRANCH  14  16
ATOM     16  C   UNL d   1      -0.627  -3.305  -2.022  0.00  0.00     0.010 C 
ATOM     17  C   UNL d   1       0.341  -3.570  -3.166  0.00  0.00     0.006 C 
ENDBRANCH  14  16
ENDBRANCH  13  14
ENDBRANCH   2  13
BRANCH   4  18
ATOM     18  C   UNL d   1       2.594   2.172  -0.173  0.00  0.00     0.300 C 
ATOM     19  O   UNL d   1       2.084   3.287  -0.283  0.00  0.00    -0.259 OA
BRANCH  18  20
ATOM     20  O   UNL d   1       3.928   1.931  -0.320  0.00  0.00    -0.317 OA
BRANCH  20  21
ATOM     21  C   UNL d   1       4.701   2.962  -0.948  0.00  0.00     0.174 C 
ATOM     22  C   UNL d   1       4.628   2.752  -2.449  0.00  0.00     0.034 C 
ENDBRANCH  20  21
ENDBRANCH  18  20
ENDBRANCH   4  18
TORSDOF 6
