REMARK  3 active torsions:
REMARK  status: ('A' for Active; 'I' for Inactive)
REMARK    1  A    between atoms: O_2  and  S_1 
REMARK    2  A    between atoms: C_3  and  S_1 
REMARK    3  A    between atoms: C_10  and  O_2 
ROOT
ATOM      1  C   UNL d   1       0.273   1.618   0.501  0.00  0.00     0.086 A 
ATOM      2  N   UNL d   1      -1.563   6.575   1.564  0.00  0.00    -0.191 NA
ATOM      3  C   UNL d   1      -1.174   5.502   1.346  0.00  0.00     0.099 C 
ATOM      4  C   UNL d   1       1.012   2.471   1.330  0.00  0.00     0.027 A 
ATOM      5  C   UNL d   1      -0.944   2.037  -0.045  0.00  0.00     0.027 A 
ATOM      6  C   UNL d   1      -0.692   4.179   1.073  0.00  0.00     0.044 A 
ATOM      7  C   UNL d   1       0.526   3.750   1.617  0.00  0.00     0.024 A 
ATOM      8  C   UNL d   1      -1.426   3.318   0.247  0.00  0.00     0.024 A 
ENDROOT
BRANCH   1   9
ATOM      9  S   UNL d   1       0.981   0.055  -0.001  0.00  0.00     0.303 S 
ATOM     10  O   UNL d   1       0.376  -0.287  -1.274  0.00  0.00    -0.193 OA
ATOM     11  O   UNL d   1       2.420   0.215   0.117  0.00  0.00    -0.193 OA
BRANCH   9  12
ATOM     12  O   UNL d   1       0.462  -1.001   1.132  0.00  0.00    -0.228 OA
BRANCH  12  13
ATOM     13  C   UNL d   1       0.768  -2.333   1.031  0.00  0.00     0.105 A 
ATOM     14  C   UNL d   1      -0.146  -3.247   1.541  0.00  0.00     0.125 A 
ATOM     15  N   UNL d   1       0.029  -4.591   1.526  0.00  0.00    -0.373 N 
ATOM     16  C   UNL d   1       1.177  -5.046   0.981  0.00  0.00     0.088 A 
ATOM     17  HN  UNL d   1      -0.672  -5.227   1.907  1.00  0.00     0.164 HD
ATOM     18  C   UNL d   1       2.157  -4.218   0.462  0.00  0.00     0.020 A 
ATOM     19  C   UNL d   1       1.948  -2.841   0.494  0.00  0.00     0.041 A 
ENDBRANCH  12  13
ENDBRANCH   9  12
ENDBRANCH   1   9
TORSDOF 3
