REMARK  3 active torsions:
REMARK  status: ('A' for Active; 'I' for Inactive)
REMARK    1  A    between atoms: N_2  and  C_1 
REMARK       I    between atoms: C_5  and  N_9 
REMARK       I    between atoms: N_7  and  C_5 
REMARK    2  A    between atoms: N_9  and  C_6 
REMARK    3  A    between atoms: C_10  and  N_7 
ROOT
ATOM      1  C   UNL d   1       3.666  -0.887  -0.094  0.00  0.00     0.325 C 
ATOM      2  N   UNL d   1       3.925   0.455  -0.075  0.00  0.00    -0.307 N 
ATOM      3  N   UNL d   1       2.383  -1.306  -0.251  0.00  0.00    -0.308 N 
ATOM      4  O   UNL d   1       4.524  -1.769  -0.033  0.00  0.00    -0.247 OA
ATOM      5  H   UNL d   1       3.328   1.000  -0.683  0.00  0.00     0.170 HD
ATOM      6  H   UNL d   1       2.370  -2.313  -0.381  0.00  0.00     0.170 HD
ENDROOT
BRANCH   3   7
ATOM      7  C   UNL d   1       1.148  -0.694  -0.139  0.00  0.00     0.045 A 
ATOM      8  C   UNL d   1       0.804   0.649   0.203  0.00  0.00     0.074 A 
ATOM      9  C   UNL d   1      -0.565   0.825   0.284  0.00  0.00     0.145 A 
ATOM     10  S   UNL d   1      -1.435  -0.588  -0.077  0.00  0.00    -0.076 SA
ATOM     11  C   UNL d   1       0.011  -1.460  -0.326  0.00  0.00     0.081 A 
BRANCH   9  12
ATOM     12  N   UNL d   1      -1.266   2.030   0.643  0.00  0.00    -0.108 N 
ATOM     13  O   UNL d   1      -0.565   3.035   0.809  0.00  0.00    -0.531 OA
ATOM     14  O   UNL d   1      -2.497   1.984   0.763  0.00  0.00    -0.531 OA
ENDBRANCH   9  12
ENDBRANCH   3   7
BRANCH   2  15
ATOM     15  C   UNL d   1       5.256   0.948   0.039  0.00  0.00     0.058 A 
ATOM     16  C   UNL d   1       5.672   2.026  -0.755  0.00  0.00     0.060 A 
ATOM     17 CL   UNL d   1       4.561   2.840  -1.802  0.00  0.00    -0.082 Cl
ATOM     18  C   UNL d   1       7.013   2.423  -0.765  0.00  0.00     0.026 A 
ATOM     19  C   UNL d   1       7.939   1.774   0.052  0.00  0.00     0.002 A 
ATOM     20  C   UNL d   1       7.521   0.752   0.900  0.00  0.00     0.002 A 
ATOM     21  C   UNL d   1       6.185   0.344   0.898  0.00  0.00     0.031 A 
ENDBRANCH   2  15
TORSDOF 3
