REMARK  6 active torsions:
REMARK  status: ('A' for Active; 'I' for Inactive)
REMARK    1  A    between atoms: C_6  and  N_1 
REMARK    2  A    between atoms: C_13  and  C_2 
REMARK    3  A    between atoms: C_8  and  C_11 
REMARK    4  A    between atoms: C_12  and  O_18 
REMARK       I    between atoms: N_17  and  C_12 
REMARK    5  A    between atoms: O_18  and  N_15 
REMARK    6  A    between atoms: C_26  and  N_17 
ROOT
ATOM      1  N   UNL d   1      -4.164   3.885  -0.165  0.00  0.00    -0.244 N 
ATOM      2  C   UNL d   1      -2.211   2.790  -0.165  0.00  0.00     0.029 C 
ATOM      3  C   UNL d   1      -2.818   3.988  -0.527  0.00  0.00     0.046 C 
ATOM      4  N   UNL d   1      -4.472   2.621   0.228  0.00  0.00    -0.303 N 
ATOM      5  HN  UNL d   1      -5.391   2.245   0.462  1.00  0.00     0.186 HD
ATOM      6  C   UNL d   1      -3.303   1.984   0.239  0.00  0.00     0.123 C 
ATOM      7  C   UNL d   1      -2.249   5.237  -1.108  0.00  0.00     0.071 C 
ENDROOT
BRANCH   2   8
ATOM      8  C   UNL d   1      -0.784   2.451  -0.167  0.00  0.00     0.042 C 
ATOM      9  N   UNL d   1       0.066   3.378  -0.517  0.00  0.00    -0.260 N 
ATOM     10  HN  UNL d   1      -0.189   4.306  -0.855  1.00  0.00     0.194 HD
ATOM     11  C   UNL d   1      -0.336   1.076   0.296  0.00  0.00     0.071 C 
BRANCH   9  12
ATOM     12  O   UNL d   1       1.390   2.910  -0.358  0.00  0.00    -0.181 OA
BRANCH  12  13
ATOM     13  C   UNL d   1       2.369   3.858  -0.607  0.00  0.00     0.387 C 
ATOM     14  N   UNL d   1       1.906   5.028  -1.172  0.00  0.00    -0.301 N 
ATOM     15  H   UNL d   1       0.904   5.022  -1.310  0.00  0.00     0.171 HD
ATOM     16  O   UNL d   1       3.534   3.593  -0.337  0.00  0.00    -0.236 OA
BRANCH  14  17
ATOM     17  C   UNL d   1       2.660   6.151  -1.573  0.00  0.00     0.036 A 
ATOM     18  C   UNL d   1       4.045   6.250  -1.409  0.00  0.00     0.029 A 
ATOM     19  C   UNL d   1       4.741   7.389  -1.831  0.00  0.00     0.002 A 
ATOM     20  C   UNL d   1       4.058   8.447  -2.424  0.00  0.00     0.000 A 
ATOM     21  C   UNL d   1       2.679   8.364  -2.595  0.00  0.00     0.002 A 
ATOM     22  C   UNL d   1       1.984   7.219  -2.172  0.00  0.00     0.029 A 
ENDBRANCH  14  17
ENDBRANCH  12  13
ENDBRANCH   9  12
ENDBRANCH   2   8
BRANCH   1  23
ATOM     23  C   UNL d   1      -5.136   4.942  -0.103  0.00  0.00     0.128 A 
ATOM     24  N   UNL d   1      -4.755   6.174  -0.524  0.00  0.00    -0.345 N 
ATOM     25  C   UNL d   1      -5.590   7.217  -0.375  0.00  0.00     0.007 A 
ATOM     26  HN  UNL d   1      -3.839   6.308  -0.952  1.00  0.00     0.167 HD
ATOM     27  C   UNL d   1      -5.080   8.548  -0.832  0.00  0.00     0.068 C 
ATOM     28  C   UNL d   1      -6.843   7.075   0.195  0.00  0.00     0.041 A 
ATOM     29  C   UNL d   1      -7.256   5.806   0.625  0.00  0.00     0.053 A 
ATOM     30  C   UNL d   1      -6.389   4.715   0.458  0.00  0.00     0.066 A 
BRANCH  29  31
ATOM     31  C   UNL d   1      -8.596   5.660   1.298  0.00  0.00     0.417 C 
ATOM     32  F   UNL d   1      -8.897   4.385   1.659  0.00  0.00    -0.166 F 
ATOM     33  F   UNL d   1      -8.679   6.403   2.437  0.00  0.00    -0.166 F 
ATOM     34  F   UNL d   1      -9.622   6.081   0.507  0.00  0.00    -0.166 F 
ENDBRANCH  29  31
ENDBRANCH   1  23
TORSDOF 6
