REMARK  2 active torsions:
REMARK  status: ('A' for Active; 'I' for Inactive)
REMARK    1  A    between atoms: S_2  and  C_1 
REMARK       I    between atoms: N_6  and  C_1 
REMARK    2  A    between atoms: C_3  and  S_2 
ROOT
ATOM      1  C   UNL d   1       1.039  -2.542   1.592  0.00  0.00     0.031 A 
ATOM      2  C   UNL d   1       0.759  -3.871   1.230  0.00  0.00     0.051 A 
ATOM      3 CL   UNL d   1      -0.628  -4.308   0.291  0.00  0.00    -0.083 Cl
ATOM      4  C   UNL d   1       2.193  -2.288   2.352  0.00  0.00     0.021 A 
ATOM      5  C   UNL d   1       1.616  -4.911   1.619  0.00  0.00     0.025 A 
ATOM      6  C   UNL d   1       3.042  -3.328   2.745  0.00  0.00     0.001 A 
ATOM      7  C   UNL d   1       2.757  -4.638   2.373  0.00  0.00     0.002 A 
ENDROOT
BRANCH   1   8
ATOM      8  S   UNL d   1       0.044  -1.155   1.038  0.00  0.00    -0.028 SA
BRANCH   8   9
ATOM      9  C   UNL d   1      -0.559  -0.479   2.535  0.00  0.00     0.284 C 
ATOM     10  O   UNL d   1      -0.238  -0.902   3.642  0.00  0.00    -0.260 OA
ATOM     11  N   UNL d   1      -1.409   0.589   2.439  0.00  0.00    -0.356 N 
ATOM     12  C   UNL d   1      -1.880   1.289   1.267  0.00  0.00     0.150 C 
ATOM     13  H   UNL d   1      -1.649   0.971   3.345  0.00  0.00     0.162 HD
ENDBRANCH   8   9
ENDBRANCH   1   8
TORSDOF 2
