REMARK  5 active torsions:
REMARK  status: ('A' for Active; 'I' for Inactive)
REMARK    1  A    between atoms: C_7  and  C_1 
REMARK    2  A    between atoms: C_6  and  C_2 
REMARK    3  A    between atoms: C_9  and  C_5 
REMARK       I    between atoms: N_8  and  C_7 
REMARK    4  A    between atoms: C_18  and  N_8 
REMARK    5  A    between atoms: C_19  and  C_18 
ROOT
ATOM      1  C   UNL d   1       1.159   0.638   0.011  0.00  0.00     0.073 A 
ATOM      2  C   UNL d   1      -0.142   1.118  -0.044  0.00  0.00     0.175 A 
ATOM      3  O   UNL d   1      -1.022   0.065  -0.030  0.00  0.00    -0.304 OA
ATOM      4  C   UNL d   1       1.042  -0.783   0.086  0.00  0.00     0.058 A 
ATOM      5  C   UNL d   1      -0.302  -1.087   0.059  0.00  0.00     0.087 A 
ENDROOT
BRANCH   1   6
ATOM      6  C   UNL d   1       2.361   1.455  -0.017  0.00  0.00     0.254 C 
ATOM      7  N   UNL d   1       3.453   0.896   0.597  0.00  0.00    -0.351 N 
ATOM      8  H   UNL d   1       3.400   0.026   1.113  0.00  0.00     0.163 HD
ATOM      9  O   UNL d   1       2.397   2.556  -0.549  0.00  0.00    -0.268 OA
BRANCH   7  10
ATOM     10  C   UNL d   1       4.702   1.616   0.702  0.00  0.00     0.179 C 
BRANCH  10  11
ATOM     11  C   UNL d   1       5.756   0.837   1.459  0.00  0.00     0.026 A 
ATOM     12  N   UNL d   1       5.414  -0.380   1.970  0.00  0.00    -0.368 N 
ATOM     13  C   UNL d   1       6.372  -1.054   2.646  0.00  0.00     0.088 A 
ATOM     14  HN  UNL d   1       4.477  -0.764   1.848  1.00  0.00     0.165 HD
ATOM     15  C   UNL d   1       7.659  -0.582   2.844  0.00  0.00     0.017 A 
ATOM     16  C   UNL d   1       7.990   0.661   2.319  0.00  0.00     0.003 A 
ATOM     17  C   UNL d   1       7.030   1.383   1.617  0.00  0.00     0.027 A 
ENDBRANCH  10  11
ENDBRANCH   7  10
ENDBRANCH   1   6
BRANCH   2  18
ATOM     18  C   UNL d   1      -0.765   2.469  -0.071  0.00  0.00     0.440 C 
ATOM     19  F   UNL d   1       0.109   3.494   0.074  0.00  0.00    -0.164 F 
ATOM     20  F   UNL d   1      -1.446   2.690  -1.227  0.00  0.00    -0.164 F 
ATOM     21  F   UNL d   1      -1.668   2.610   0.938  0.00  0.00    -0.164 F 
ENDBRANCH   2  18
BRANCH   5  22
ATOM     22  C   UNL d   1      -1.070  -2.325   0.148  0.00  0.00    -0.002 A 
ATOM     23  C   UNL d   1      -0.506  -3.461   0.747  0.00  0.00     0.016 A 
ATOM     24  C   UNL d   1      -1.244  -4.641   0.884  0.00  0.00     0.024 A 
ATOM     25  C   UNL d   1      -2.552  -4.698   0.411  0.00  0.00     0.034 A 
ATOM     26  C   UNL d   1      -3.124  -3.589  -0.206  0.00  0.00     0.024 A 
ATOM     27 CL   UNL d   1      -3.467  -6.143   0.602  0.00  0.00    -0.084 Cl
ATOM     28  C   UNL d   1      -2.386  -2.407  -0.335  0.00  0.00     0.016 A 
ENDBRANCH   5  22
TORSDOF 5
