REMARK  1 active torsions:
REMARK  status: ('A' for Active; 'I' for Inactive)
REMARK    1  A    between atoms: C_8  and  C_7 
ROOT
ATOM      1  C   UNL d   1       1.183   0.111  -0.051  0.00  0.00     0.101 A 
ATOM      2  N   UNL d   1      -0.802  -1.254   0.016  0.00  0.00    -0.275 N 
ATOM      3  N   UNL d   1      -1.034   1.048  -0.014  0.00  0.00    -0.275 N 
ATOM      4  C   UNL d   1       0.563  -1.239  -0.025  0.00  0.00     0.265 A 
ATOM      5  C   UNL d   1       0.304   1.306  -0.123  0.00  0.00     0.265 A 
ATOM      6  C   UNL d   1      -1.627  -0.174   0.009  0.00  0.00     0.329 A 
ATOM      7  C   UNL d   1       2.529   0.163   0.016  0.00  0.00     0.035 C 
ATOM      8  O   UNL d   1       0.698   2.453  -0.297  0.00  0.00    -0.267 OA
ATOM      9  O   UNL d   1       1.207  -2.283  -0.046  0.00  0.00    -0.267 OA
ATOM     10  O   UNL d   1      -2.848  -0.297   0.003  0.00  0.00    -0.246 OA
ATOM     11  H   UNL d   1      -1.246  -2.162   0.026  0.00  0.00     0.173 HD
ATOM     12  H   UNL d   1      -1.649   1.848  -0.068  0.00  0.00     0.173 HD
ENDROOT
BRANCH   7  13
ATOM     13  C   UNL d   1       3.341   1.386   0.067  0.00  0.00    -0.013 A 
ATOM     14  C   UNL d   1       3.670   2.021   1.276  0.00  0.00     0.044 A 
ATOM     15 CL   UNL d   1       3.174   1.378   2.804  0.00  0.00    -0.083 Cl
ATOM     16  C   UNL d   1       4.415   3.203   1.274  0.00  0.00     0.024 A 
ATOM     17  C   UNL d   1       4.838   3.760   0.067  0.00  0.00     0.002 A 
ATOM     18  C   UNL d   1       4.524   3.132  -1.137  0.00  0.00     0.001 A 
ATOM     19  C   UNL d   1       3.783   1.948  -1.139  0.00  0.00     0.013 A 
ENDBRANCH   7  13
TORSDOF 1
