REMARK  4 active torsions:
REMARK  status: ('A' for Active; 'I' for Inactive)
REMARK    1  A    between atoms: C_6  and  C_1 
REMARK    2  A    between atoms: O_15  and  C_6 
REMARK    3  A    between atoms: C_8  and  C_14 
REMARK    4  A    between atoms: N_10  and  O_15 
ROOT
ATOM      1  N   UNL d   1       3.551  -4.040   0.022  0.00  0.00    -0.268 N 
ATOM      2  HN  UNL d   1       3.042  -4.920  -0.062  1.00  0.00     0.194 HD
ATOM      3  C   UNL d   1       4.839  -3.938   0.068  0.00  0.00     0.127 C 
ENDROOT
BRANCH   1   4
ATOM      4  O   UNL d   1       2.946  -2.770   0.103  0.00  0.00    -0.195 OA
BRANCH   4   5
ATOM      5  C   UNL d   1       1.574  -2.911   0.050  0.00  0.00     0.317 C 
ATOM      6  O   UNL d   1       0.981  -3.984  -0.038  0.00  0.00    -0.257 OA
BRANCH   5   7
ATOM      7  C   UNL d   1       0.833  -1.652   0.111  0.00  0.00     0.072 A 
ATOM      8  C   UNL d   1       1.330  -0.366   0.185  0.00  0.00     0.092 A 
ATOM      9  S   UNL d   1       0.124   0.836   0.243  0.00  0.00    -0.065 SA
ATOM     10 CL   UNL d   1       2.965   0.177   0.223  0.00  0.00    -0.075 Cl
ATOM     11  C   UNL d   1      -1.096  -0.327   0.169  0.00  0.00     0.077 A 
ATOM     12  C   UNL d   1      -0.615  -1.606   0.099  0.00  0.00     0.051 A 
ATOM     13 CL   UNL d   1      -2.744   0.150   0.186  0.00  0.00    -0.076 Cl
ENDBRANCH   5   7
ENDBRANCH   4   5
ENDBRANCH   1   4
BRANCH   3  14
ATOM     14  C   UNL d   1       5.686  -5.152  -0.019  0.00  0.00     0.003 A 
ATOM     15  C   UNL d   1       7.085  -5.094   0.017  0.00  0.00     0.047 A 
ATOM     16  C   UNL d   1       7.838  -6.268  -0.105  0.00  0.00     0.048 A 
ATOM     17 CL   UNL d   1       7.954  -3.614   0.214  0.00  0.00    -0.083 Cl
ATOM     18  C   UNL d   1       7.196  -7.496  -0.255  0.00  0.00     0.035 A 
ATOM     19  C   UNL d   1       5.807  -7.568  -0.277  0.00  0.00     0.025 A 
ATOM     20 CL   UNL d   1       8.125  -8.934  -0.419  0.00  0.00    -0.084 Cl
ATOM     21  C   UNL d   1       5.053  -6.399  -0.160  0.00  0.00     0.016 A 
ENDBRANCH   3  14
TORSDOF 4
