REMARK  4 active torsions:
REMARK  status: ('A' for Active; 'I' for Inactive)
REMARK       I    between atoms: C_2  and  N_3 
REMARK    1  A    between atoms: C_6  and  C_2 
REMARK    2  A    between atoms: N_4  and  C_5 
REMARK    3  A    between atoms: C_9  and  C_6 
REMARK    4  A    between atoms: O_19  and  C_17 
ROOT
ATOM      1  C   UNL d   1       2.127  -6.758   0.934  0.00  0.00     0.224 C 
ATOM      2  N   UNL d   1       1.762  -5.429   0.735  0.00  0.00    -0.349 N 
ATOM      3  N   UNL d   1       1.270  -2.632   0.331  0.00  0.00    -0.377 N 
ATOM      4  C   UNL d   1       0.894  -4.962  -0.368  0.00  0.00     0.145 C 
ATOM      5  C   UNL d   1       2.696  -4.409   1.242  0.00  0.00     0.145 C 
ATOM      6  C   UNL d   1       0.233  -3.592  -0.071  0.00  0.00     0.143 C 
ATOM      7  C   UNL d   1       2.009  -3.064   1.532  0.00  0.00     0.143 C 
ATOM      8  O   UNL d   1       3.178  -7.054   1.514  0.00  0.00    -0.273 OA
ENDROOT
BRANCH   1   9
ATOM      9  C   UNL d   1       1.152  -7.856   0.535  0.00  0.00     0.144 C 
BRANCH   9  10
ATOM     10  C   UNL d   1       1.540  -8.743  -0.628  0.00  0.00    -0.016 C 
ATOM     11  C   UNL d   1       0.565  -9.412  -1.391  0.00  0.00     0.074 C 
ATOM     12  C   UNL d   1       0.928 -10.103  -2.555  0.00  0.00     0.037 C 
ATOM     13  C   UNL d   1       2.266 -10.211  -2.930  0.00  0.00     0.003 C 
ATOM     14  C   UNL d   1       3.250  -9.658  -2.119  0.00  0.00     0.001 C 
ATOM     15  C   UNL d   1       2.890  -8.941  -0.975  0.00  0.00     0.010 C 
BRANCH  11  16
ATOM     16  O   UNL d   1      -0.784  -9.380  -1.143  0.00  0.00    -0.355 OA
ATOM     17  C   UNL d   1      -1.165  -9.758   0.181  0.00  0.00     0.210 C 
ENDBRANCH  11  16
ENDBRANCH   9  10
ENDBRANCH   1   9
BRANCH   3  18
ATOM     18  C   UNL d   1       1.037  -1.252   0.233  0.00  0.00     0.043 A 
ATOM     19  C   UNL d   1      -0.222  -0.579   0.287  0.00  0.00     0.018 A 
ATOM     20  C   UNL d   1      -0.266   0.814   0.106  0.00  0.00     0.044 A 
ATOM     21  C   UNL d   1      -1.575  -0.983   0.515  0.00  0.00     0.033 A 
ATOM     22  N   UNL d   1      -1.583   1.203   0.195  0.00  0.00    -0.365 N 
ATOM     23  C   UNL d   1       0.867   1.592  -0.128  0.00  0.00     0.030 A 
ATOM     24  C   UNL d   1      -2.384   0.129   0.453  0.00  0.00     0.089 A 
ATOM     25  H   UNL d   1      -1.900   2.160   0.095  0.00  0.00     0.165 HD
ATOM     26  C   UNL d   1       2.095   0.945  -0.173  0.00  0.00     0.005 A 
ATOM     27  C   UNL d   1       2.174  -0.431   0.010  0.00  0.00     0.030 A 
ENDBRANCH   3  18
TORSDOF 4
