REMARK  1 active torsions:
REMARK  status: ('A' for Active; 'I' for Inactive)
REMARK       I    between atoms: N_2  and  C_1 
REMARK       I    between atoms: N_3  and  C_1 
REMARK       I    between atoms: C_6  and  N_3 
REMARK    1  A    between atoms: C_13  and  C_6 
ROOT
ATOM      1  C   UNL d   1       1.087   0.204   0.252  0.00  0.00     0.325 C 
ATOM      2  N   UNL d   1       0.714   1.518  -0.043  0.00  0.00    -0.325 N 
ATOM      3  N   UNL d   1       0.586  -0.297   1.435  0.00  0.00    -0.275 N 
ATOM      4  C   UNL d   1      -0.993   3.289  -0.182  0.00  0.00    -0.022 A 
ATOM      5  C   UNL d   1      -0.241   2.347   0.734  0.00  0.00     0.119 C 
ATOM      6  C   UNL d   1       0.741  -1.595   1.895  0.00  0.00     0.259 C 
ATOM      7  C   UNL d   1      -0.667   3.469  -1.513  0.00  0.00    -0.008 A 
ATOM      8  C   UNL d   1       1.404   2.182  -1.169  0.00  0.00     0.133 C 
ATOM      9  S   UNL d   1      -1.658   4.599  -2.304  0.00  0.00    -0.106 SA
ATOM     10  C   UNL d   1       0.427   2.735  -2.213  0.00  0.00     0.067 C 
ATOM     11  C   UNL d   1      -2.116   4.105   0.174  0.00  0.00     0.017 A 
ATOM     12  C   UNL d   1      -2.567   4.869  -0.881  0.00  0.00     0.051 A 
ATOM     13  O   UNL d   1       1.817  -0.436  -0.500  0.00  0.00    -0.247 OA
ATOM     14  O   UNL d   1       1.335  -2.506   1.337  0.00  0.00    -0.267 OA
ATOM     15  C   UNL d   1       0.488   3.106   1.846  0.00  0.00     0.037 C 
ATOM     16  H   UNL d   1       0.275   0.376   2.108  0.00  0.00     0.173 HD
ENDROOT
BRANCH   6  17
ATOM     17  C   UNL d   1       0.113  -1.869   3.222  0.00  0.00     0.032 A 
ATOM     18  C   UNL d   1      -1.068  -1.228   3.624  0.00  0.00     0.018 A 
ATOM     19  C   UNL d   1      -1.648  -1.538   4.857  0.00  0.00     0.025 A 
ATOM     20  C   UNL d   1      -1.055  -2.493   5.685  0.00  0.00     0.034 A 
ATOM     21  C   UNL d   1       0.114  -3.141   5.291  0.00  0.00     0.025 A 
ATOM     22 CL   UNL d   1      -1.786  -2.884   7.191  0.00  0.00    -0.084 Cl
ATOM     23  C   UNL d   1       0.696  -2.832   4.057  0.00  0.00     0.018 A 
ENDBRANCH   6  17
TORSDOF 1
