REMARK  3 active torsions:
REMARK  status: ('A' for Active; 'I' for Inactive)
REMARK    1  A    between atoms: C_6  and  C_1 
REMARK    2  A    between atoms: C_3  and  C_2 
REMARK       I    between atoms: N_9  and  C_3 
REMARK    3  A    between atoms: C_12  and  N_9 
ROOT
ATOM      1  C   UNL d   1      -1.410  -0.441   0.498  0.00  0.00     0.086 A 
ATOM      2  C   UNL d   1      -0.130  -1.004   0.207  0.00  0.00     0.093 A 
ATOM      3  N   UNL d   1      -1.272   0.860   0.809  0.00  0.00    -0.259 N 
ATOM      4  HN  UNL d   1      -2.008   1.490   1.127  1.00  0.00     0.195 HD
ATOM      5  O   UNL d   1       0.050   1.178   0.615  0.00  0.00    -0.241 OA
ATOM      6  C   UNL d   1       0.736   0.070   0.245  0.00  0.00     0.090 A 
ATOM      7  C   UNL d   1       2.168   0.276  -0.042  0.00  0.00     0.080 C 
ENDROOT
BRANCH   2   8
ATOM      8  C   UNL d   1       0.226  -2.373  -0.089  0.00  0.00     0.261 C 
ATOM      9  N   UNL d   1       1.321  -2.814   0.655  0.00  0.00    -0.321 N 
ATOM     10  H   UNL d   1       1.460  -2.293   1.513  0.00  0.00     0.169 HD
ATOM     11  O   UNL d   1      -0.469  -3.079  -0.810  0.00  0.00    -0.267 OA
BRANCH   9  12
ATOM     12  C   UNL d   1       1.673  -4.187   0.691  0.00  0.00     0.058 A 
ATOM     13  C   UNL d   1       1.929  -4.962  -0.459  0.00  0.00     0.084 A 
ATOM     14  C   UNL d   1       2.088  -6.355  -0.341  0.00  0.00     0.079 A 
ATOM     15 CL   UNL d   1       2.212  -4.167  -1.984  0.00  0.00    -0.080 Cl
ATOM     16 CL   UNL d   1       2.373  -7.339  -1.746  0.00  0.00    -0.081 Cl
ATOM     17  C   UNL d   1       2.018  -6.950   0.929  0.00  0.00     0.057 A 
ATOM     18  C   UNL d   1       1.869  -6.161   2.073  0.00  0.00     0.028 A 
ATOM     19 CL   UNL d   1       2.111  -8.662   1.166  0.00  0.00    -0.082 Cl
ATOM     20  C   UNL d   1       1.716  -4.782   1.956  0.00  0.00     0.033 A 
ENDBRANCH   9  12
ENDBRANCH   2   8
BRANCH   1  21
ATOM     21  C   UNL d   1      -2.744  -1.052   0.570  0.00  0.00     0.037 A 
ATOM     22  C   UNL d   1      -3.025  -2.138   1.422  0.00  0.00     0.048 A 
ATOM     23 CL   UNL d   1      -1.826  -2.897   2.419  0.00  0.00    -0.083 Cl
ATOM     24  C   UNL d   1      -4.334  -2.630   1.558  0.00  0.00     0.025 A 
ATOM     25  C   UNL d   1      -5.390  -2.032   0.877  0.00  0.00     0.003 A 
ATOM     26  C   UNL d   1      -5.135  -0.963   0.026  0.00  0.00     0.025 A 
ATOM     27  C   UNL d   1      -3.826  -0.488  -0.143  0.00  0.00     0.048 A 
ATOM     28 CL   UNL d   1      -3.634   0.805  -1.285  0.00  0.00    -0.083 Cl
ENDBRANCH   1  21
TORSDOF 3
