REMARK  5 active torsions:
REMARK  status: ('A' for Active; 'I' for Inactive)
REMARK       I    between atoms: N_2  and  C_1 
REMARK    1  A    between atoms: C_5  and  C_1 
REMARK    2  A    between atoms: N_6  and  N_2 
REMARK    3  A    between atoms: C_9  and  N_6 
REMARK    4  A    between atoms: C_19  and  C_17 
REMARK    5  A    between atoms: C_20  and  C_19 
ROOT
ATOM      1  C   UNL d   1       0.854  -0.216  -0.084  0.00  0.00     0.266 C 
ATOM      2  N   UNL d   1       0.866  -0.404   1.289  0.00  0.00    -0.283 N 
ATOM      3  O   UNL d   1       1.392  -0.973  -0.883  0.00  0.00    -0.266 OA
ATOM      4  H   UNL d   1       0.833   0.413   1.893  0.00  0.00     0.184 HD
ENDROOT
BRANCH   2   5
ATOM      5  N   UNL d   1       1.632  -1.466   1.780  0.00  0.00    -0.203 NA
ATOM      6  H   UNL d   1       1.890  -2.130   1.040  0.00  0.00     0.153 HD
BRANCH   5   7
ATOM      7  C   UNL d   1       1.119  -2.106   2.935  0.00  0.00     0.029 A 
ATOM      8  C   UNL d   1       1.803  -3.225   3.429  0.00  0.00     0.049 A 
ATOM      9  C   UNL d   1       1.437  -3.819   4.644  0.00  0.00     0.041 A 
ATOM     10 CL   UNL d   1       2.358  -5.177   5.189  0.00  0.00    -0.084 Cl
ATOM     11  C   UNL d   1       0.375  -3.308   5.402  0.00  0.00    -0.040 A 
ATOM     12  C   UNL d   1      -0.318  -2.198   4.906  0.00  0.00     0.010 A 
ATOM     13  C   UNL d   1      -0.016  -3.893   6.729  0.00  0.00     0.050 C 
ATOM     14  C   UNL d   1       0.058  -1.601   3.697  0.00  0.00     0.026 A 
ENDBRANCH   5   7
ENDBRANCH   2   5
BRANCH   1  15
ATOM     15  C   UNL d   1       0.135   1.005  -0.541  0.00  0.00     0.033 A 
ATOM     16  C   UNL d   1       0.536   1.640  -1.720  0.00  0.00     0.017 A 
ATOM     17  C   UNL d   1      -0.160   2.762  -2.181  0.00  0.00     0.008 A 
ATOM     18  C   UNL d   1      -1.269   3.254  -1.476  0.00  0.00    -0.058 A 
ATOM     19  C   UNL d   1      -1.671   2.602  -0.303  0.00  0.00     0.008 A 
ATOM     20  C   UNL d   1      -0.973   1.489   0.166  0.00  0.00     0.017 A 
BRANCH  18  21
ATOM     21  C   UNL d   1      -2.036   4.450  -1.990  0.00  0.00     0.038 C 
BRANCH  21  22
ATOM     22  C   UNL d   1      -2.094   5.628  -1.010  0.00  0.00     0.000 C 
ATOM     23  C   UNL d   1      -0.724   6.210  -0.694  0.00  0.00     0.005 C 
ENDBRANCH  21  22
ENDBRANCH  18  21
ENDBRANCH   1  15
TORSDOF 5
