REMARK  7 active torsions:
REMARK  status: ('A' for Active; 'I' for Inactive)
REMARK       I    between atoms: C_4  and  N_1 
REMARK    1  A    between atoms: C_5  and  N_1 
REMARK       I    between atoms: N_2  and  C_3 
REMARK    2  A    between atoms: C_6  and  N_2 
REMARK    3  A    between atoms: C_3  and  C_13 
REMARK    4  A    between atoms: C_14  and  C_4 
REMARK    5  A    between atoms: C_13  and  C_20 
REMARK    6  A    between atoms: C_19  and  C_14 
REMARK    7  A    between atoms: C_20  and  C_19 
ROOT
ATOM      1  C   UNL d   1      -1.754   2.814  -0.222  0.00  0.00     0.010 C 
ENDROOT
BRANCH   1   2
ATOM      2  C   UNL d   1      -1.113   1.438  -0.366  0.00  0.00     0.103 C 
BRANCH   2   3
ATOM      3  C   UNL d   1       0.397   1.537  -0.315  0.00  0.00     0.223 C 
ATOM      4  N   UNL d   1       0.971   1.652  -1.570  0.00  0.00    -0.313 N 
ATOM      5  H   UNL d   1       0.362   1.691  -2.373  0.00  0.00     0.170 HD
ATOM      6  O   UNL d   1       0.965   1.528   0.767  0.00  0.00    -0.273 OA
BRANCH   4   7
ATOM      7  C   UNL d   1       2.351   1.689  -1.819  0.00  0.00     0.107 A 
ATOM      8  N   UNL d   1       3.229   1.620  -0.806  0.00  0.00    -0.352 N 
ATOM      9  C   UNL d   1       4.546   1.644  -1.098  0.00  0.00     0.089 A 
ATOM     10  HN  UNL d   1       2.909   1.551   0.159  1.00  0.00     0.166 HD
ATOM     11  C   UNL d   1       5.044   1.732  -2.384  0.00  0.00     0.017 A 
ATOM     12  C   UNL d   1       4.132   1.802  -3.428  0.00  0.00     0.005 A 
ATOM     13  C   UNL d   1       2.766   1.782  -3.145  0.00  0.00     0.048 A 
ENDBRANCH   4   7
ENDBRANCH   2   3
ENDBRANCH   1   2
BRANCH   1  14
ATOM     14  C   UNL d   1      -3.272   2.682  -0.086  0.00  0.00     0.010 C 
BRANCH  14  15
ATOM     15  C   UNL d   1      -3.952   4.042   0.014  0.00  0.00     0.103 C 
BRANCH  15  16
ATOM     16  C   UNL d   1      -5.465   4.033  -0.137  0.00  0.00     0.223 C 
ATOM     17  N   UNL d   1      -6.103   2.883   0.263  0.00  0.00    -0.313 N 
ATOM     18  H   UNL d   1      -5.636   2.242   0.889  0.00  0.00     0.170 HD
ATOM     19  O   UNL d   1      -6.033   5.054  -0.525  0.00  0.00    -0.273 OA
BRANCH  17  20
ATOM     20  C   UNL d   1      -7.488   2.699   0.261  0.00  0.00     0.107 A 
ATOM     21  N   UNL d   1      -7.934   1.845   1.205  0.00  0.00    -0.352 N 
ATOM     22  C   UNL d   1      -9.274   1.738   1.350  0.00  0.00     0.089 A 
ATOM     23  HN  UNL d   1      -7.289   1.305   1.783  1.00  0.00     0.166 HD
ATOM     24  C   UNL d   1     -10.194   2.401   0.555  0.00  0.00     0.017 A 
ATOM     25  C   UNL d   1      -9.712   3.206  -0.467  0.00  0.00     0.005 A 
ATOM     26  C   UNL d   1      -8.337   3.359  -0.619  0.00  0.00     0.048 A 
ENDBRANCH  17  20
ENDBRANCH  15  16
ENDBRANCH  14  15
ENDBRANCH   1  14
TORSDOF 7
