REMARK  7 active torsions:
REMARK  status: ('A' for Active; 'I' for Inactive)
REMARK    1  A    between atoms: C_3  and  C_10 
REMARK       I    between atoms: N_5  and  C_3 
REMARK    2  A    between atoms: O_6  and  C_4 
REMARK    3  A    between atoms: C_13  and  N_5 
REMARK    4  A    between atoms: C_10  and  O_6 
REMARK    5  A    between atoms: C_11  and  C_13 
REMARK    6  A    between atoms: O_16  and  C_11 
REMARK    7  A    between atoms: O_17  and  C_11 
ROOT
ATOM      1  C   UNL d   1      -4.819  -2.421   0.252  0.00  0.00     0.241 C 
ATOM      2  N   UNL d   1      -4.392  -3.729   0.344  0.00  0.00    -0.355 N 
ATOM      3  O   UNL d   1      -5.994  -2.095   0.413  0.00  0.00    -0.271 OA
ATOM      4  H   UNL d   1      -3.417  -3.951   0.190  0.00  0.00     0.162 HD
ENDROOT
BRANCH   1   5
ATOM      5  C   UNL d   1      -3.710  -1.415  -0.045  0.00  0.00     0.278 C 
BRANCH   5   6
ATOM      6  O   UNL d   1      -3.114  -1.065   1.194  0.00  0.00    -0.340 OA
BRANCH   6   7
ATOM      7  C   UNL d   1      -2.245  -0.014   1.277  0.00  0.00     0.091 A 
ATOM      8  C   UNL d   1      -1.503   0.630   0.275  0.00  0.00     0.069 A 
ATOM      9  C   UNL d   1      -0.613   1.663   0.614  0.00  0.00     0.050 A 
ATOM     10 CL   UNL d   1      -1.542   0.225  -1.404  0.00  0.00    -0.081 Cl
ATOM     11  C   UNL d   1      -0.458   2.056   1.940  0.00  0.00     0.035 A 
ATOM     12 CL   UNL d   1       0.655   3.305   2.339  0.00  0.00    -0.084 Cl
ATOM     13  C   UNL d   1      -1.188   1.434   2.943  0.00  0.00     0.026 A 
ATOM     14  C   UNL d   1      -2.072   0.406   2.608  0.00  0.00     0.040 A 
ENDBRANCH   6   7
ENDBRANCH   5   6
ENDBRANCH   1   5
BRANCH   2  15
ATOM     15  C   UNL d   1      -5.299  -4.817   0.674  0.00  0.00     0.183 C 
BRANCH  15  16
ATOM     16  C   UNL d   1      -6.372  -5.130  -0.397  0.00  0.00     0.275 C 
BRANCH  16  17
ATOM     17  O   UNL d   1      -5.683  -5.477  -1.611  0.00  0.00    -0.364 OA
ATOM     18  C   UNL d   1      -6.579  -5.588  -2.709  0.00  0.00     0.204 C 
ENDBRANCH  16  17
BRANCH  16  19
ATOM     19  O   UNL d   1      -7.181  -6.242   0.006  0.00  0.00    -0.364 OA
ATOM     20  C   UNL d   1      -8.095  -5.931   1.047  0.00  0.00     0.204 C 
ENDBRANCH  16  19
ENDBRANCH  15  16
ENDBRANCH   2  15
TORSDOF 7
