REMARK  6 active torsions:
REMARK  status: ('A' for Active; 'I' for Inactive)
REMARK    1  A    between atoms: C_5  and  C_1 
REMARK    2  A    between atoms: C_13  and  C_4 
REMARK       I    between atoms: N_11  and  C_5 
REMARK    3  A    between atoms: C_9  and  O_16 
REMARK       I    between atoms: C_10  and  N_12 
REMARK       I    between atoms: N_14  and  C_10 
REMARK    4  A    between atoms: N_12  and  N_11 
REMARK    5  A    between atoms: C_18  and  N_14 
REMARK    6  A    between atoms: O_16  and  C_25 
ROOT
ATOM      1  C   UNL d   1       0.539  -1.014  -0.011  0.00  0.00     0.241 A 
ATOM      2  N   UNL d   1      -0.727  -0.654   0.061  0.00  0.00    -0.315 N 
ATOM      3  HN  UNL d   1      -1.562  -1.209  -0.127  1.00  0.00     0.169 HD
ATOM      4  C   UNL d   1      -0.636   0.668   0.458  0.00  0.00     0.138 A 
ATOM      5  N   UNL d   1       0.627   1.111   0.582  0.00  0.00    -0.242 N 
ATOM      6  HN  UNL d   1       0.942   2.047   0.839  1.00  0.00     0.196 HD
ATOM      7  O   UNL d   1       1.405  -0.004   0.279  0.00  0.00    -0.212 OA
ENDROOT
BRANCH   1   8
ATOM      8  C   UNL d   1       1.064  -2.326  -0.325  0.00  0.00     0.313 C 
ATOM      9  N   UNL d   1       0.106  -3.256  -0.682  0.00  0.00    -0.259 N 
ATOM     10  H   UNL d   1      -0.885  -3.021  -0.764  0.00  0.00     0.190 HD
ATOM     11  O   UNL d   1       2.260  -2.636  -0.271  0.00  0.00    -0.262 OA
BRANCH   9  12
ATOM     12  N   UNL d   1       0.494  -4.559  -1.067  0.00  0.00    -0.248 N 
ATOM     13  C   UNL d   1      -0.537  -5.453  -1.320  0.00  0.00     0.339 C 
ATOM     14  N   UNL d   1      -0.071  -6.712  -1.638  0.00  0.00    -0.308 N 
ATOM     15  O   UNL d   1      -1.705  -5.082  -1.287  0.00  0.00    -0.245 OA
ATOM     16  H   UNL d   1       0.931  -6.807  -1.726  0.00  0.00     0.170 HD
ATOM     17  H   UNL d   1       1.353  -4.892  -0.636  0.00  0.00     0.192 HD
BRANCH  14  18
ATOM     18  C   UNL d   1      -0.847  -7.859  -1.929  0.00  0.00     0.038 A 
ATOM     19  C   UNL d   1      -2.242  -7.879  -1.904  0.00  0.00     0.053 A 
ATOM     20  C   UNL d   1      -2.936  -9.065  -2.155  0.00  0.00     0.036 A 
ATOM     21 CL   UNL d   1      -4.657  -9.075  -2.100  0.00  0.00    -0.084 Cl
ATOM     22  C   UNL d   1      -2.252 -10.242  -2.443  0.00  0.00     0.024 A 
ATOM     23  C   UNL d   1      -0.861 -10.229  -2.496  0.00  0.00     0.004 A 
ATOM     24  C   UNL d   1      -0.161  -9.043  -2.244  0.00  0.00     0.029 A 
ENDBRANCH  14  18
ENDBRANCH   9  12
ENDBRANCH   1   8
BRANCH   4  25
ATOM     25  C   UNL d   1      -1.813   1.484   0.755  0.00  0.00     0.010 A 
ATOM     26  C   UNL d   1      -3.102   0.947   0.627  0.00  0.00     0.018 A 
ATOM     27  C   UNL d   1      -4.238   1.707   0.944  0.00  0.00     0.038 A 
ATOM     28  C   UNL d   1      -4.103   3.030   1.357  0.00  0.00     0.078 A 
ATOM     29  C   UNL d   1      -2.821   3.563   1.513  0.00  0.00     0.038 A 
ATOM     30  C   UNL d   1      -1.686   2.803   1.210  0.00  0.00     0.018 A 
BRANCH  28  31
ATOM     31  O   UNL d   1      -5.115   3.871   1.701  0.00  0.00    -0.255 OA
BRANCH  31  32
ATOM     32  C   UNL d   1      -6.371   3.772   1.043  0.00  0.00     0.530 C 
ATOM     33  F   UNL d   1      -6.393   2.901   0.013  0.00  0.00    -0.144 F 
ATOM     34  F   UNL d   1      -7.315   3.410   1.938  0.00  0.00    -0.144 F 
ATOM     35  F   UNL d   1      -6.697   4.991   0.558  0.00  0.00    -0.144 F 
ENDBRANCH  31  32
ENDBRANCH  28  31
ENDBRANCH   4  25
TORSDOF 6
