REMARK  5 active torsions:
REMARK  status: ('A' for Active; 'I' for Inactive)
REMARK    1  A    between atoms: N_4  and  S_1 
REMARK    2  A    between atoms: C_6  and  S_1 
REMARK    3  A    between atoms: C_5  and  C_2 
REMARK    4  A    between atoms: C_3  and  N_4 
REMARK    5  A    between atoms: O_16  and  C_5 
ROOT
ATOM      1  N   UNL d   1       0.704   0.957  -1.287  0.00  0.00    -0.180 NA
ATOM      2  H   UNL d   1      -0.268   0.732  -1.508  0.00  0.00     0.146 HD
ENDROOT
BRANCH   1   3
ATOM      3  C   UNL d   1       0.887   2.380  -1.119  0.00  0.00     0.040 A 
ATOM      4  C   UNL d   1       2.095   3.031  -1.431  0.00  0.00     0.061 A 
ATOM      5  C   UNL d   1       2.234   4.403  -1.151  0.00  0.00     0.021 A 
ATOM      6  C   UNL d   1       1.190   5.120  -0.566  0.00  0.00     0.025 A 
ATOM      7  C   UNL d   1       0.004   4.466  -0.245  0.00  0.00     0.035 A 
ATOM      8  C   UNL d   1      -0.150   3.105  -0.509  0.00  0.00     0.049 A 
ATOM      9 CL   UNL d   1      -1.277   5.344   0.495  0.00  0.00    -0.084 Cl
BRANCH   4  10
ATOM     10  C   UNL d   1       3.271   2.373  -2.055  0.00  0.00     0.294 C 
ATOM     11  O   UNL d   1       4.416   2.773  -1.900  0.00  0.00    -0.259 OA
BRANCH  10  12
ATOM     12  O   UNL d   1       2.894   1.371  -2.885  0.00  0.00    -0.322 OA
ATOM     13  C   UNL d   1       3.982   0.735  -3.554  0.00  0.00     0.213 C 
ENDBRANCH  10  12
ENDBRANCH   4  10
ENDBRANCH   1   3
BRANCH   1  14
ATOM     14  S   UNL d   1       1.119   0.039   0.091  0.00  0.00     0.245 S 
ATOM     15  O   UNL d   1      -0.110  -0.131   0.836  0.00  0.00    -0.206 OA
ATOM     16  O   UNL d   1       2.308   0.596   0.698  0.00  0.00    -0.206 OA
BRANCH  14  17
ATOM     17  C   UNL d   1       1.548  -1.527  -0.631  0.00  0.00     0.074 A 
ATOM     18  C   UNL d   1       2.880  -1.796  -0.957  0.00  0.00     0.025 A 
ATOM     19  C   UNL d   1       3.229  -3.055  -1.454  0.00  0.00     0.008 A 
ATOM     20  C   UNL d   1       2.256  -4.051  -1.618  0.00  0.00    -0.062 A 
ATOM     21  C   UNL d   1       0.926  -3.771  -1.278  0.00  0.00     0.008 A 
ATOM     22  C   UNL d   1       2.652  -5.407  -2.126  0.00  0.00     0.048 C 
ATOM     23  C   UNL d   1       0.570  -2.514  -0.781  0.00  0.00     0.025 A 
ENDBRANCH  14  17
ENDBRANCH   1  14
TORSDOF 5
