REMARK  6 active torsions:
REMARK  status: ('A' for Active; 'I' for Inactive)
REMARK    1  A    between atoms: N_2  and  S_1 
REMARK    2  A    between atoms: C_4  and  S_1 
REMARK    3  A    between atoms: C_3  and  N_7 
REMARK    4  A    between atoms: N_8  and  C_3 
REMARK    5  A    between atoms: N_7  and  C_12 
REMARK    6  A    between atoms: C_15  and  N_8 
ROOT
ATOM      1  C   UNL d   1      -0.188  -1.510   0.263  0.00  0.00     0.079 C 
ATOM      2  C   UNL d   1       0.230  -2.454   1.200  0.00  0.00     0.027 C 
ATOM      3  C   UNL d   1      -1.096  -1.861  -0.738  0.00  0.00     0.027 C 
ATOM      4  C   UNL d   1      -0.870  -4.191  -0.094  0.00  0.00     0.034 C 
ATOM      5  C   UNL d   1      -0.117  -3.792   1.017  0.00  0.00     0.031 C 
ATOM      6  C   UNL d   1      -1.454  -3.210  -0.905  0.00  0.00     0.031 C 
ENDROOT
BRANCH   4   7
ATOM      7  N   UNL d   1      -0.999  -5.566  -0.433  0.00  0.00    -0.333 N 
ATOM      8  H   UNL d   1      -1.743  -5.795  -1.077  0.00  0.00     0.168 HD
BRANCH   7   9
ATOM      9  C   UNL d   1       0.048  -6.464  -0.448  0.00  0.00     0.172 C 
ATOM     10  S   UNL d   1       1.691  -6.136  -0.291  0.00  0.00    -0.041 SA
BRANCH   9  11
ATOM     11  N   UNL d   1      -0.226  -7.775  -0.650  0.00  0.00    -0.362 N 
ATOM     12  H   UNL d   1       0.632  -8.315  -0.642  0.00  0.00     0.162 HD
BRANCH  11  13
ATOM     13  C   UNL d   1      -1.414  -8.572  -0.884  0.00  0.00     0.083 C 
ATOM     14  C   UNL d   1      -2.100  -8.356  -2.230  0.00  0.00     0.025 C 
ATOM     15  C   UNL d   1      -3.566  -8.731  -1.999  0.00  0.00     0.002 C 
ATOM     16  C   UNL d   1      -3.657  -9.220  -0.555  0.00  0.00     0.002 C 
ATOM     17  C   UNL d   1      -2.521  -8.494   0.155  0.00  0.00     0.025 C 
ENDBRANCH  11  13
ENDBRANCH   9  11
ENDBRANCH   7   9
ENDBRANCH   4   7
BRANCH   1  18
ATOM     18  S   UNL d   1       0.519   0.128   0.340  0.00  0.00     0.260 S 
ATOM     19  O   UNL d   1      -0.403   1.043  -0.305  0.00  0.00    -0.200 OA
ATOM     20  O   UNL d   1       0.944   0.344   1.708  0.00  0.00    -0.200 OA
BRANCH  18  21
ATOM     21  N   UNL d   1       1.933  -0.013  -0.632  0.00  0.00    -0.307 N 
ATOM     22  C   UNL d   1       1.725   0.057  -2.100  0.00  0.00     0.135 C 
ATOM     23  C   UNL d   1       3.066   0.245  -2.812  0.00  0.00     0.021 C 
ATOM     24  C   UNL d   1       4.054  -0.855  -2.441  0.00  0.00     0.003 C 
ATOM     25  C   UNL d   1       4.229  -0.911  -0.928  0.00  0.00     0.021 C 
ATOM     26  C   UNL d   1       2.886  -1.084  -0.227  0.00  0.00     0.135 C 
ENDBRANCH  18  21
ENDBRANCH   1  18
TORSDOF 6
