REMARK  3 active torsions:
REMARK  status: ('A' for Active; 'I' for Inactive)
REMARK    1  A    between atoms: C_2  and  S_1 
REMARK    2  A    between atoms: O_8  and  S_1 
REMARK    3  A    between atoms: C_13  and  O_8 
ROOT
ATOM      1  S   UNL d   1       1.009   0.060   0.041  0.00  0.00     0.304 S 
ATOM      2  O   UNL d   1       1.551  -0.413   1.302  0.00  0.00    -0.193 OA
ATOM      3  O   UNL d   1      -0.087   1.007   0.099  0.00  0.00    -0.193 OA
ENDROOT
BRANCH   1   4
ATOM      4  C   UNL d   1       0.518  -1.392  -0.964  0.00  0.00     0.099 C 
ATOM      5  C   UNL d   1       1.174  -2.639  -0.728  0.00  0.00    -0.031 C 
ATOM      6  C   UNL d   1       0.679  -3.820  -1.348  0.00  0.00    -0.048 C 
ATOM      7  C   UNL d   1       2.400  -2.775   0.148  0.00  0.00     0.050 C 
ATOM      8  C   UNL d   1       1.243  -5.189  -1.012  0.00  0.00     0.049 C 
ATOM      9  C   UNL d   1      -0.345  -3.738  -2.323  0.00  0.00    -0.049 C 
ATOM     10  C   UNL d   1      -0.903  -2.480  -2.658  0.00  0.00    -0.048 C 
ATOM     11  C   UNL d   1      -0.804  -5.013  -3.006  0.00  0.00     0.049 C 
ATOM     12  C   UNL d   1      -0.508  -1.299  -1.952  0.00  0.00    -0.031 C 
ATOM     13  C   UNL d   1      -1.928  -2.427  -3.778  0.00  0.00     0.049 C 
ATOM     14  C   UNL d   1      -1.189  -0.013  -2.367  0.00  0.00     0.050 C 
ENDBRANCH   1   4
BRANCH   1  15
ATOM     15  O   UNL d   1       2.226   0.696  -0.851  0.00  0.00    -0.229 OA
BRANCH  15  16
ATOM     16  C   UNL d   1       2.874   1.866  -0.538  0.00  0.00     0.091 A 
ATOM     17  C   UNL d   1       2.620   2.667   0.578  0.00  0.00     0.063 A 
ATOM     18  C   UNL d   1       3.340   3.861   0.763  0.00  0.00     0.058 A 
ATOM     19 CL   UNL d   1       2.963   4.814   2.155  0.00  0.00    -0.082 Cl
ATOM     20  C   UNL d   1       4.318   4.251  -0.160  0.00  0.00     0.056 A 
ATOM     21  C   UNL d   1       4.583   3.437  -1.266  0.00  0.00     0.028 A 
ATOM     22 CL   UNL d   1       5.224   5.711   0.001  0.00  0.00    -0.083 Cl
ATOM     23  C   UNL d   1       3.862   2.254  -1.448  0.00  0.00     0.040 A 
ENDBRANCH  15  16
ENDBRANCH   1  15
TORSDOF 3
