REMARK  3 active torsions:
REMARK  status: ('A' for Active; 'I' for Inactive)
REMARK       I    between atoms: N_2  and  C_1 
REMARK       I    between atoms: N_5  and  C_1 
REMARK    1  A    between atoms: C_10  and  N_2 
REMARK    2  A    between atoms: C_3  and  C_11 
REMARK    3  A    between atoms: C_11  and  N_5 
ROOT
ATOM      1  C   UNL d   1       0.916  -0.068   0.013  0.00  0.00     0.317 C 
ATOM      2  N   UNL d   1       0.307   0.840  -0.811  0.00  0.00    -0.335 N 
ATOM      3  N   UNL d   1      -0.007  -0.779   0.732  0.00  0.00    -0.337 N 
ATOM      4  O   UNL d   1       2.125  -0.232   0.126  0.00  0.00    -0.247 OA
ATOM      5  H   UNL d   1      -0.669   1.006  -0.630  0.00  0.00     0.165 HD
ATOM      6  H   UNL d   1      -0.910  -0.899   0.296  0.00  0.00     0.164 HD
ENDROOT
BRANCH   2   7
ATOM      7  C   UNL d   1       1.024   1.829  -1.632  0.00  0.00     0.023 C 
ATOM      8  C   UNL d   1       1.881   1.133  -2.699  0.00  0.00     0.037 C 
ATOM      9  C   UNL d   1      -0.021   2.705  -2.351  0.00  0.00     0.037 C 
ATOM     10  C   UNL d   1       1.894   2.744  -0.758  0.00  0.00     0.037 C 
ENDBRANCH   2   7
BRANCH   3  11
ATOM     11  C   UNL d   1       0.423  -1.873   1.574  0.00  0.00     0.189 C 
BRANCH  11  12
ATOM     12  C   UNL d   1      -0.792  -2.517   2.128  0.00  0.00     0.070 A 
ATOM     13  O   UNL d   1      -1.640  -3.084   1.219  0.00  0.00    -0.325 OA
ATOM     14  C   UNL d   1      -2.701  -3.568   1.913  0.00  0.00     0.142 A 
ATOM     15  C   UNL d   1      -2.550  -3.318   3.257  0.00  0.00     0.027 A 
ATOM     16  C   UNL d   1      -1.311  -2.646   3.399  0.00  0.00     0.036 A 
ENDBRANCH  11  12
ENDBRANCH   3  11
TORSDOF 3
