REMARK  4 active torsions:
REMARK  status: ('A' for Active; 'I' for Inactive)
REMARK    1  A    between atoms: C_7  and  C_1 
REMARK    2  A    between atoms: C_8  and  C_4 
REMARK    3  A    between atoms: O_12  and  C_7 
REMARK    4  A    between atoms: C_17  and  O_12 
ROOT
ATOM      1  C   UNL d   1       1.294   0.794  -0.003  0.00  0.00     0.115 A 
ATOM      2  N   UNL d   1       1.388  -0.599  -0.017  0.00  0.00    -0.345 N 
ATOM      3  HN  UNL d   1       2.264  -1.118  -0.080  1.00  0.00     0.167 HD
ATOM      4  C   UNL d   1       0.195  -1.155   0.064  0.00  0.00     0.085 A 
ATOM      5  S   UNL d   1      -1.108  -0.029   0.159  0.00  0.00    -0.081 SA
ATOM      6  C   UNL d   1      -0.000   1.269   0.093  0.00  0.00     0.087 A 
ENDROOT
BRANCH   4   7
ATOM      7  C   UNL d   1      -0.040  -2.610   0.014  0.00  0.00    -0.002 A 
ATOM      8  C   UNL d   1      -1.198  -3.217   0.524  0.00  0.00     0.016 A 
ATOM      9  C   UNL d   1      -1.378  -4.604   0.446  0.00  0.00     0.024 A 
ATOM     10  C   UNL d   1      -0.397  -5.400  -0.140  0.00  0.00     0.034 A 
ATOM     11  C   UNL d   1       0.765  -4.823  -0.642  0.00  0.00     0.024 A 
ATOM     12 CL   UNL d   1      -0.622  -7.102  -0.239  0.00  0.00    -0.084 Cl
ATOM     13  C   UNL d   1       0.943  -3.438  -0.560  0.00  0.00     0.016 A 
ENDBRANCH   4   7
BRANCH   1  14
ATOM     14  C   UNL d   1       2.463   1.663  -0.143  0.00  0.00     0.310 C 
ATOM     15  O   UNL d   1       2.382   2.883  -0.232  0.00  0.00    -0.258 OA
BRANCH  14  16
ATOM     16  O   UNL d   1       3.626   0.955  -0.228  0.00  0.00    -0.317 OA
BRANCH  16  17
ATOM     17  C   UNL d   1       4.769   1.684  -0.686  0.00  0.00     0.175 C 
ATOM     18  C   UNL d   1       4.812   1.599  -2.201  0.00  0.00     0.034 C 
ENDBRANCH  16  17
ENDBRANCH  14  16
ENDBRANCH   1  14
TORSDOF 4
