REMARK  2 active torsions:
REMARK  status: ('A' for Active; 'I' for Inactive)
REMARK    1  A    between atoms: C_2  and  C_1 
REMARK    2  A    between atoms: C_12  and  N_3 
ROOT
ATOM      1  C   UNL d   1      -0.267  -1.327  -0.001  0.00  0.00     0.154 A 
ATOM      2  N   UNL d   1       1.015  -0.777  -0.070  0.00  0.00    -0.224 N 
ATOM      3  N   UNL d   1       0.862   0.576  -0.125  0.00  0.00     0.001 NA
ATOM      4  N   UNL d   1      -0.431   0.819  -0.005  0.00  0.00    -0.007 NA
ATOM      5  N   UNL d   1      -1.141  -0.340   0.090  0.00  0.00    -0.269 N 
ATOM      6  HN  UNL d   1      -2.150  -0.429   0.209  1.00  0.00     0.185 HD
ENDROOT
BRANCH   1   7
ATOM      7  C   UNL d   1      -0.510  -2.714  -0.023  0.00  0.00     0.077 A 
ATOM      8  C   UNL d   1      -0.310  -3.519  -1.267  0.00  0.00     0.199 A 
ATOM      9  C   UNL d   1      -0.574  -4.982  -1.178  0.00  0.00     0.042 A 
ATOM     10  O   UNL d   1       0.086  -3.009  -2.307  0.00  0.00    -0.286 OA
ATOM     11  C   UNL d   1      -0.453  -5.795  -2.311  0.00  0.00     0.018 A 
ATOM     12  C   UNL d   1      -0.932  -5.533   0.067  0.00  0.00     0.046 A 
ATOM     13  C   UNL d   1      -0.685  -7.166  -2.201  0.00  0.00     0.001 A 
ATOM     14  C   UNL d   1      -1.029  -7.721  -0.969  0.00  0.00     0.002 A 
ATOM     15  C   UNL d   1      -1.149  -6.910   0.163  0.00  0.00     0.030 A 
ATOM     16  N   UNL d   1      -1.076  -4.704   1.187  0.00  0.00    -0.364 N 
ATOM     17  C   UNL d   1      -0.896  -3.352   1.092  0.00  0.00     0.107 A 
ATOM     18  H   UNL d   1      -1.328  -5.110   2.082  0.00  0.00     0.165 HD
ENDBRANCH   1   7
BRANCH   2  19
ATOM     19  C   UNL d   1       2.326  -1.341  -0.003  0.00  0.00     0.056 A 
ATOM     20  C   UNL d   1       3.430  -0.517  -0.278  0.00  0.00     0.032 A 
ATOM     21  C   UNL d   1       4.732  -1.027  -0.229  0.00  0.00     0.009 A 
ATOM     22  C   UNL d   1       4.960  -2.364   0.103  0.00  0.00    -0.062 A 
ATOM     23  C   UNL d   1       3.869  -3.179   0.405  0.00  0.00     0.009 A 
ATOM     24  C   UNL d   1       6.358  -2.906   0.147  0.00  0.00     0.048 C 
ATOM     25  C   UNL d   1       2.565  -2.673   0.358  0.00  0.00     0.032 A 
ENDBRANCH   2  19
TORSDOF 2
