REMARK  2 active torsions:
REMARK  status: ('A' for Active; 'I' for Inactive)
REMARK    1  A    between atoms: C_3  and  S_1 
REMARK    2  A    between atoms: S_2  and  C_3 
ROOT
ATOM      1  C   UNL d   1       0.544  -1.276  -1.053  0.00  0.00     0.279 C 
ENDROOT
BRANCH   1   2
ATOM      2  S   UNL d   1       1.201  -1.332  -2.679  0.00  0.00     0.153 S 
ATOM      3  O   UNL d   1       0.707  -2.561  -3.275  0.00  0.00    -0.227 OA
ATOM      4  O   UNL d   1       0.924  -0.068  -3.331  0.00  0.00    -0.227 OA
ATOM      5  C   UNL d   1       2.963  -1.515  -2.519  0.00  0.00     0.162 C 
ENDBRANCH   1   2
BRANCH   1   6
ATOM      6  S   UNL d   1       1.074   0.060  -0.045  0.00  0.00     0.153 S 
ATOM      7  O   UNL d   1       2.521   0.010   0.052  0.00  0.00    -0.227 OA
ATOM      8  O   UNL d   1       0.279  -0.008   1.167  0.00  0.00    -0.227 OA
ATOM      9  C   UNL d   1       0.617   1.568  -0.873  0.00  0.00     0.162 C 
ENDBRANCH   1   6
TORSDOF 2
