REMARK  3 active torsions:
REMARK  status: ('A' for Active; 'I' for Inactive)
REMARK    1  A    between atoms: C_13  and  C_8 
REMARK    2  A    between atoms: C_12  and  C_9 
REMARK    3  A    between atoms: C_15  and  C_16 
ROOT
ATOM      1  C   UNL d   1       0.090   0.342   0.392  0.00  0.00     0.147 A 
ATOM      2  N   UNL d   1       0.334  -0.782  -0.400  0.00  0.00    -0.242 N 
ATOM      3  C   UNL d   1       1.325   0.888   0.640  0.00  0.00     0.085 A 
ATOM      4  N   UNL d   1      -1.170   0.723   0.765  0.00  0.00    -0.336 N 
ATOM      5  HN  UNL d   1      -1.326   1.547   1.346  1.00  0.00     0.167 HD
ATOM      6  N   UNL d   1       1.659  -0.957  -0.622  0.00  0.00    -0.290 N 
ATOM      7  HN  UNL d   1       2.096  -1.698  -1.170  1.00  0.00     0.187 HD
ATOM      8  C   UNL d   1       2.281   0.044   0.026  0.00  0.00     0.080 A 
ATOM      9  C   UNL d   1      -2.167  -0.012   0.347  0.00  0.00     0.120 A 
ATOM     10  C   UNL d   1      -0.735  -1.565  -0.865  0.00  0.00     0.034 A 
ATOM     11  C   UNL d   1      -1.994  -1.228  -0.522  0.00  0.00     0.061 A 
ATOM     12 BR   UNL d   1       1.618   2.486   1.584  0.00  0.00    -0.044 Br
ATOM     13  C   UNL d   1      -0.460  -2.753  -1.736  0.00  0.00     0.070 C 
ENDROOT
BRANCH   8  14
ATOM     14  C   UNL d   1       3.747   0.131  -0.001  0.00  0.00    -0.006 A 
ATOM     15  C   UNL d   1       4.485   0.600   1.089  0.00  0.00     0.014 A 
ATOM     16  C   UNL d   1       5.884   0.672   1.036  0.00  0.00     0.009 A 
ATOM     17  C   UNL d   1       6.601   0.249  -0.097  0.00  0.00    -0.051 A 
ATOM     18  C   UNL d   1       5.851  -0.237  -1.180  0.00  0.00     0.009 A 
ATOM     19  C   UNL d   1       4.452  -0.295  -1.133  0.00  0.00     0.014 A 
BRANCH  17  20
ATOM     20  C   UNL d   1       8.138   0.313  -0.113  0.00  0.00    -0.024 C 
ATOM     21  C   UNL d   1       8.761  -0.233  -1.417  0.00  0.00     0.019 C 
ATOM     22  C   UNL d   1       8.604   1.776   0.045  0.00  0.00     0.019 C 
ATOM     23  C   UNL d   1       8.712  -0.523   1.052  0.00  0.00     0.019 C 
ENDBRANCH  17  20
ENDBRANCH   8  14
BRANCH   9  24
ATOM     24  C   UNL d   1      -3.599   0.356   0.746  0.00  0.00     0.432 C 
ATOM     25  F   UNL d   1      -4.525  -0.503   0.235  0.00  0.00    -0.165 F 
ATOM     26  F   UNL d   1      -3.778   0.348   2.094  0.00  0.00    -0.165 F 
ATOM     27  F   UNL d   1      -3.953   1.596   0.310  0.00  0.00    -0.165 F 
ENDBRANCH   9  24
TORSDOF 3
