REMARK  6 active torsions:
REMARK  status: ('A' for Active; 'I' for Inactive)
REMARK    1  A    between atoms: N_2  and  C_1 
REMARK    2  A    between atoms: O_6  and  C_3 
REMARK    3  A    between atoms: C_5  and  C_7 
REMARK    4  A    between atoms: N_16  and  C_5 
REMARK    5  A    between atoms: C_8  and  O_6 
REMARK    6  A    between atoms: O_18  and  N_11 
ROOT
ATOM      1  C   UNL d   1      -4.247   4.308   0.743  0.00  0.00     0.137 A 
ATOM      2  C   UNL d   1      -5.145   3.281   0.431  0.00  0.00     0.109 A 
ATOM      3  C   UNL d   1      -2.861   4.107   0.743  0.00  0.00     0.053 A 
ATOM      4  C   UNL d   1      -2.361   2.846   0.407  0.00  0.00     0.006 A 
ATOM      5  C   UNL d   1      -4.624   2.042   0.039  0.00  0.00     0.041 A 
ATOM      6  C   UNL d   1      -3.244   1.819   0.051  0.00  0.00     0.018 A 
ENDROOT
BRANCH   2   7
ATOM      7  O   UNL d   1      -6.498   3.533   0.462  0.00  0.00    -0.307 OA
BRANCH   7   8
ATOM      8  C   UNL d   1      -7.345   2.514   0.851  0.00  0.00     0.098 A 
ATOM      9  C   UNL d   1      -8.532   2.320   0.136  0.00  0.00     0.067 A 
ATOM     10 CL   UNL d   1      -8.958   3.334  -1.195  0.00  0.00    -0.081 Cl
ATOM     11  C   UNL d   1      -9.393   1.274   0.479  0.00  0.00     0.026 A 
ATOM     12  C   UNL d   1      -9.074   0.425   1.541  0.00  0.00     0.002 A 
ATOM     13  C   UNL d   1      -7.913   0.641   2.282  0.00  0.00     0.003 A 
ATOM     14  C   UNL d   1      -7.062   1.698   1.955  0.00  0.00     0.039 A 
ENDBRANCH   7   8
ENDBRANCH   2   7
BRANCH   1  15
ATOM     15  N   UNL d   1      -4.740   5.627   1.075  0.00  0.00    -0.113 N 
ATOM     16  O   UNL d   1      -5.478   5.727   2.065  0.00  0.00    -0.532 OA
ATOM     17  O   UNL d   1      -4.348   6.566   0.370  0.00  0.00    -0.532 OA
ENDBRANCH   1  15
BRANCH   4  18
ATOM     18  C   UNL d   1      -0.891   2.588   0.429  0.00  0.00     0.108 C 
ATOM     19  N   UNL d   1      -0.130   3.371   1.139  0.00  0.00    -0.258 N 
ATOM     20  HN  UNL d   1      -0.466   4.155   1.698  1.00  0.00     0.195 HD
BRANCH  19  21
ATOM     21  O   UNL d   1       1.218   2.986   1.029  0.00  0.00    -0.289 OA
ATOM     22  H   UNL d   1       1.653   3.586   1.663  0.00  0.00     0.244 HD
ENDBRANCH  19  21
BRANCH  18  23
ATOM     23  N   UNL d   1      -0.386   1.537  -0.299  0.00  0.00    -0.287 NA
ATOM     24  H   UNL d   1      -0.764   1.444  -1.235  0.00  0.00     0.125 HD
ATOM     25  H   UNL d   1       0.631   1.601  -0.313  0.00  0.00     0.125 HD
ENDBRANCH  18  23
ENDBRANCH   4  18
TORSDOF 6
