REMARK  4 active torsions:
REMARK  status: ('A' for Active; 'I' for Inactive)
REMARK    1  A    between atoms: C_8  and  C_4 
REMARK    2  A    between atoms: C_9  and  C_7 
REMARK    3  A    between atoms: C_11  and  C_8 
REMARK    4  A    between atoms: O_19  and  C_18 
ROOT
ATOM      1  C   UNL d   1      -1.296   0.104  -0.223  0.00  0.00     0.081 A 
ATOM      2  N   UNL d   1      -0.413  -0.922  -0.340  0.00  0.00    -0.317 N 
ATOM      3  C   UNL d   1       1.077   0.866  -0.131  0.00  0.00     0.076 A 
ATOM      4  C   UNL d   1      -2.626   0.004  -0.138  0.00  0.00     0.092 C 
ATOM      5  C   UNL d   1       0.926  -0.620  -0.269  0.00  0.00     0.263 A 
ATOM      6  S   UNL d   1      -0.488   1.637  -0.111  0.00  0.00    -0.067 SA
ATOM      7  C   UNL d   1       2.210   1.577  -0.026  0.00  0.00     0.043 C 
ATOM      8  O   UNL d   1       1.818  -1.449  -0.289  0.00  0.00    -0.267 OA
ATOM      9  H   UNL d   1      -0.716  -1.885  -0.449  0.00  0.00     0.169 HD
ENDROOT
BRANCH   4  10
ATOM     10  C   UNL d   1      -3.391  -1.275  -0.117  0.00  0.00     0.184 C 
ATOM     11  O   UNL d   1      -2.935  -2.317  -0.565  0.00  0.00    -0.287 OA
BRANCH  10  12
ATOM     12  C   UNL d   1      -4.776  -1.199   0.446  0.00  0.00     0.017 A 
ATOM     13  C   UNL d   1      -5.782  -2.026  -0.078  0.00  0.00     0.052 A 
ATOM     14  C   UNL d   1      -7.099  -1.890   0.375  0.00  0.00     0.069 A 
ATOM     15  C   UNL d   1      -7.394  -0.963   1.379  0.00  0.00     0.037 A 
ATOM     16  C   UNL d   1      -6.389  -0.180   1.942  0.00  0.00     0.004 A 
ATOM     17  C   UNL d   1      -5.081  -0.300   1.479  0.00  0.00     0.015 A 
BRANCH  14  18
ATOM     18  O   UNL d   1      -8.190  -2.579  -0.079  0.00  0.00    -0.356 OA
ATOM     19  C   UNL d   1      -7.983  -3.503  -1.138  0.00  0.00     0.210 C 
ENDBRANCH  14  18
ENDBRANCH  10  12
ENDBRANCH   4  10
BRANCH   7  20
ATOM     20  C   UNL d   1       3.495   0.978  -0.035  0.00  0.00     0.006 A 
ATOM     21  S   UNL d   1       4.309   0.697  -1.523  0.00  0.00    -0.102 SA
ATOM     22  C   UNL d   1       5.606  -0.092  -0.740  0.00  0.00     0.050 A 
ATOM     23  C   UNL d   1       5.476  -0.066   0.629  0.00  0.00     0.008 A 
ATOM     24  C   UNL d   1       4.270   0.574   1.036  0.00  0.00     0.019 A 
ENDBRANCH   7  20
TORSDOF 4
