REMARK  4 active torsions:
REMARK  status: ('A' for Active; 'I' for Inactive)
REMARK    1  A    between atoms: C_4  and  N_1 
REMARK       I    between atoms: C_2  and  N_5 
REMARK    2  A    between atoms: C_3  and  C_2 
REMARK    3  A    between atoms: N_5  and  N_9 
REMARK    4  A    between atoms: N_9  and  C_8 
ROOT
ATOM      1  N   UNL d   1      -1.584  -4.162  -2.513  0.00  0.00    -0.182 NA
ATOM      2  C   UNL d   1      -1.248  -5.588  -2.483  0.00  0.00     0.144 C 
ENDROOT
BRANCH   1   3
ATOM      3  N   UNL d   1      -2.890  -3.903  -2.997  0.00  0.00    -0.279 N 
ATOM      4  C   UNL d   1      -3.113  -3.878  -4.361  0.00  0.00     0.269 C 
ATOM      5  O   UNL d   1      -2.232  -3.965  -5.214  0.00  0.00    -0.266 OA
ATOM      6  H   UNL d   1      -3.643  -3.928  -2.314  0.00  0.00     0.184 HD
BRANCH   4   7
ATOM      7  C   UNL d   1      -4.540  -3.777  -4.793  0.00  0.00     0.071 A 
ATOM      8  C   UNL d   1      -5.590  -3.547  -3.900  0.00  0.00     0.132 A 
ATOM      9  F   UNL d   1      -5.361  -3.389  -2.586  0.00  0.00    -0.205 F 
ATOM     10  C   UNL d   1      -6.909  -3.480  -4.345  0.00  0.00     0.043 A 
ATOM     11  C   UNL d   1      -7.196  -3.651  -5.700  0.00  0.00     0.003 A 
ATOM     12  C   UNL d   1      -6.161  -3.878  -6.603  0.00  0.00     0.001 A 
ATOM     13  C   UNL d   1      -4.838  -3.941  -6.153  0.00  0.00     0.020 A 
ENDBRANCH   4   7
ENDBRANCH   1   3
BRANCH   1  14
ATOM     14  C   UNL d   1      -1.323  -3.494  -1.287  0.00  0.00     0.100 A 
ATOM     15  C   UNL d   1      -1.692  -2.150  -1.143  0.00  0.00     0.046 A 
ATOM     16  C   UNL d   1      -1.610  -1.528   0.104  0.00  0.00     0.041 A 
ATOM     17  C   UNL d   1      -1.129  -2.267   1.181  0.00  0.00     0.118 A 
ATOM     18  C   UNL d   1      -0.691  -3.559   0.959  0.00  0.00     0.125 A 
ATOM     19  N   UNL d   1      -0.777  -4.173  -0.247  0.00  0.00    -0.353 N 
ATOM     20  HN  UNL d   1      -0.438  -5.127  -0.370  1.00  0.00     0.166 HD
BRANCH  17  21
ATOM     21  N   UNL d   1      -1.140  -1.727   2.532  0.00  0.00    -0.114 N 
ATOM     22  O   UNL d   1      -0.730  -2.455   3.446  0.00  0.00    -0.532 OA
ATOM     23  O   UNL d   1      -1.586  -0.583   2.689  0.00  0.00    -0.532 OA
ENDBRANCH  17  21
ENDBRANCH   1  14
TORSDOF 4
