REMARK  5 active torsions:
REMARK  status: ('A' for Active; 'I' for Inactive)
REMARK    1  A    between atoms: C_2  and  S_1 
REMARK    2  A    between atoms: N_3  and  S_1 
REMARK    3  A    between atoms: N_4  and  C_6 
REMARK    4  A    between atoms: C_23  and  N_9 
REMARK    5  A    between atoms: C_21  and  C_23 
ROOT
ATOM      1  N   UNL d   1       0.137   0.236  -0.874  0.00  0.00    -0.303 N 
ATOM      2  N   UNL d   1      -2.573   1.224  -1.456  0.00  0.00     0.095 N 
ATOM      3  C   UNL d   1      -0.069   1.571  -1.469  0.00  0.00     0.165 C 
ATOM      4  C   UNL d   1      -0.965  -0.730  -1.079  0.00  0.00     0.165 C 
ATOM      5  C   UNL d   1      -1.460   2.122  -1.126  0.00  0.00     0.293 C 
ATOM      6  C   UNL d   1      -2.353  -0.104  -0.847  0.00  0.00     0.293 C 
ENDROOT
BRANCH   1   7
ATOM      7  S   UNL d   1       1.306  -0.010   0.300  0.00  0.00     0.261 S 
ATOM      8  O   UNL d   1       1.423  -1.431   0.524  0.00  0.00    -0.200 OA
ATOM      9  O   UNL d   1       2.471   0.764  -0.057  0.00  0.00    -0.200 OA
BRANCH   7  10
ATOM     10  C   UNL d   1       0.577   0.693   1.794  0.00  0.00     0.087 A 
ATOM     11  C   UNL d   1      -0.175  -0.201   2.582  0.00  0.00     0.061 A 
ATOM     12  C   UNL d   1      -0.729   0.222   3.796  0.00  0.00     0.104 A 
ATOM     13  C   UNL d   1      -0.554   1.533   4.235  0.00  0.00     0.037 A 
ATOM     14  C   UNL d   1       0.201   2.414   3.462  0.00  0.00     0.011 A 
ATOM     15  C   UNL d   1       0.805   2.011   2.250  0.00  0.00    -0.039 A 
ATOM     16  C   UNL d   1       1.589   3.079   1.534  0.00  0.00     0.050 C 
BRANCH  12  17
ATOM     17  N   UNL d   1      -1.493  -0.724   4.621  0.00  0.00    -0.116 N 
ATOM     18  O   UNL d   1      -1.636  -1.877   4.194  0.00  0.00    -0.532 OA
ATOM     19  O   UNL d   1      -1.958  -0.308   5.694  0.00  0.00    -0.532 OA
ENDBRANCH  12  17
ENDBRANCH   7  10
ENDBRANCH   1   7
BRANCH   2  20
ATOM     20  C   UNL d   1      -2.856   1.156  -2.902  0.00  0.00     0.311 C 
BRANCH  20  21
ATOM     21  C   UNL d   1      -4.293   0.735  -3.150  0.00  0.00    -0.027 A 
ATOM     22  C   UNL d   1      -5.320   1.298  -2.370  0.00  0.00     0.048 A 
ATOM     23  C   UNL d   1      -6.591   0.793  -2.502  0.00  0.00     0.105 A 
ATOM     24  O   UNL d   1      -7.663   1.141  -1.742  0.00  0.00    -0.323 OA
ATOM     25  C   UNL d   1      -6.887  -0.190  -3.415  0.00  0.00     0.105 A 
ATOM     26  C   UNL d   1      -8.605   0.130  -2.153  0.00  0.00     0.352 C 
ATOM     27  O   UNL d   1      -8.186  -0.587  -3.335  0.00  0.00    -0.323 OA
ATOM     28  C   UNL d   1      -5.930  -0.700  -4.266  0.00  0.00     0.040 A 
ATOM     29  C   UNL d   1      -4.615  -0.236  -4.126  0.00  0.00     0.012 A 
ENDBRANCH  20  21
ENDBRANCH   2  20
TORSDOF 5
