REMARK  7 active torsions:
REMARK  status: ('A' for Active; 'I' for Inactive)
REMARK    1  A    between atoms: C_3  and  S_1 
REMARK    2  A    between atoms: N_7  and  S_1 
REMARK    3  A    between atoms: S_2  and  N_6 
REMARK    4  A    between atoms: C_4  and  S_2 
REMARK    5  A    between atoms: C_5  and  C_10 
REMARK    6  A    between atoms: N_6  and  C_12 
REMARK    7  A    between atoms: C_11  and  N_7 
ROOT
ATOM      1  C   UNL d   1       2.443  -2.469  -3.348  0.00  0.00     0.052 A 
ATOM      2  C   UNL d   1       0.796  -1.976  -1.634  0.00  0.00     0.045 A 
ATOM      3  C   UNL d   1       0.147  -3.216  -3.598  0.00  0.00     0.045 A 
ATOM      4  C   UNL d   1       1.455  -3.155  -4.075  0.00  0.00     0.046 A 
ATOM      5  C   UNL d   1       2.100  -1.881  -2.117  0.00  0.00     0.046 A 
ATOM      6  C   UNL d   1      -0.179  -2.636  -2.376  0.00  0.00     0.060 A 
ENDROOT
BRANCH   2   7
ATOM      7  N   UNL d   1       0.464  -1.406  -0.379  0.00  0.00    -0.280 N 
ATOM      8  H   UNL d   1       0.138  -2.008   0.378  0.00  0.00     0.179 HD
BRANCH   7   9
ATOM      9  S   UNL d   1      -0.079   0.181  -0.270  0.00  0.00     0.266 S 
ATOM     10  O   UNL d   1      -0.447   0.410   1.109  0.00  0.00    -0.200 OA
ATOM     11  O   UNL d   1       0.889   1.025  -0.938  0.00  0.00    -0.200 OA
BRANCH   9  12
ATOM     12  C   UNL d   1      -1.570   0.235  -1.219  0.00  0.00     0.118 A 
ATOM     13  C   UNL d   1      -2.629  -0.599  -0.871  0.00  0.00     0.142 A 
ATOM     14  C   UNL d   1      -3.829  -0.550  -1.576  0.00  0.00     0.086 A 
ATOM     15  F   UNL d   1      -2.500  -1.503   0.111  0.00  0.00    -0.204 F 
ATOM     16  C   UNL d   1      -3.961   0.353  -2.622  0.00  0.00     0.119 A 
ATOM     17  C   UNL d   1      -2.912   1.198  -2.981  0.00  0.00     0.044 A 
ATOM     18  F   UNL d   1      -5.111   0.411  -3.302  0.00  0.00    -0.206 F 
ATOM     19  C   UNL d   1      -1.707   1.141  -2.278  0.00  0.00     0.031 A 
ENDBRANCH   9  12
ENDBRANCH   7   9
ENDBRANCH   2   7
BRANCH   1  20
ATOM     20  C   UNL d   1       3.850  -2.339  -3.878  0.00  0.00     0.417 C 
ATOM     21  F   UNL d   1       4.023  -2.904  -5.105  0.00  0.00    -0.166 F 
ATOM     22  F   UNL d   1       4.234  -1.040  -4.010  0.00  0.00    -0.166 F 
ATOM     23  F   UNL d   1       4.770  -2.923  -3.063  0.00  0.00    -0.166 F 
ENDBRANCH   1  20
BRANCH   3  24
ATOM     24  N   UNL d   1      -0.856  -3.849  -4.379  0.00  0.00    -0.280 N 
ATOM     25  H   UNL d   1      -1.677  -3.309  -4.657  0.00  0.00     0.179 HD
BRANCH  24  26
ATOM     26  S   UNL d   1      -1.176  -5.491  -4.189  0.00  0.00     0.266 S 
ATOM     27  O   UNL d   1      -2.332  -5.799  -5.000  0.00  0.00    -0.200 OA
ATOM     28  O   UNL d   1       0.069  -6.210  -4.349  0.00  0.00    -0.200 OA
BRANCH  26  29
ATOM     29  C   UNL d   1      -1.665  -5.645  -2.497  0.00  0.00     0.118 A 
ATOM     30  C   UNL d   1      -2.763  -4.919  -2.041  0.00  0.00     0.142 A 
ATOM     31  C   UNL d   1      -3.108  -4.939  -0.694  0.00  0.00     0.086 A 
ATOM     32  F   UNL d   1      -3.452  -4.119  -2.866  0.00  0.00    -0.204 F 
ATOM     33  C   UNL d   1      -2.355  -5.709   0.184  0.00  0.00     0.119 A 
ATOM     34  C   UNL d   1      -1.279  -6.471  -0.265  0.00  0.00     0.044 A 
ATOM     35  F   UNL d   1      -2.656  -5.702   1.488  0.00  0.00    -0.206 F 
ATOM     36  C   UNL d   1      -0.929  -6.445  -1.616  0.00  0.00     0.031 A 
ENDBRANCH  26  29
ENDBRANCH  24  26
ENDBRANCH   3  24
TORSDOF 7
