REMARK  1 active torsions:
REMARK  status: ('A' for Active; 'I' for Inactive)
REMARK    1  A    between atoms: C_2  and  N_1 
ROOT
ATOM      1  C   UNL d   1       3.356   0.014  -0.149  0.00  0.00     0.108 A 
ATOM      2  C   UNL d   1       4.198   0.594   0.792  0.00  0.00     0.086 A 
ATOM      3  S   UNL d   1       4.265  -0.792  -1.365  0.00  0.00    -0.074 SA
ATOM      4  C   UNL d   1       5.591   0.374   0.488  0.00  0.00    -0.021 A 
ATOM      5  C   UNL d   1       5.744  -0.347  -0.678  0.00  0.00    -0.007 A 
ATOM      6  C   UNL d   1       3.774   1.253   1.998  0.00  0.00     0.103 C 
ATOM      7  N   UNL d   1       3.501   1.749   3.011  0.00  0.00    -0.191 NA
ATOM      8  C   UNL d   1       6.777   0.797   1.312  0.00  0.00     0.041 C 
ATOM      9  C   UNL d   1       7.051  -0.709  -1.311  0.00  0.00     0.047 C 
ATOM     10  C   UNL d   1       8.091   0.713   0.519  0.00  0.00     0.005 C 
ATOM     11  C   UNL d   1       8.192  -0.587  -0.292  0.00  0.00     0.005 C 
ENDROOT
BRANCH   1  12
ATOM     12  N   UNL d   1       1.971   0.016  -0.293  0.00  0.00    -0.236 N 
ATOM     13  C   UNL d   1       1.177   1.059   0.118  0.00  0.00     0.267 A 
ATOM     14  C   UNL d   1      -0.193   0.711  -0.253  0.00  0.00     0.048 A 
ATOM     15  O   UNL d   1       1.460   2.138   0.604  0.00  0.00    -0.267 OA
ATOM     16  C   UNL d   1      -1.374   1.407  -0.078  0.00  0.00     0.018 A 
ATOM     17  C   UNL d   1      -0.156  -0.506  -0.904  0.00  0.00     0.048 A 
ATOM     18  C   UNL d   1      -2.542   0.827  -0.584  0.00  0.00     0.001 A 
ATOM     19  C   UNL d   1      -2.503  -0.418  -1.245  0.00  0.00     0.001 A 
ATOM     20  C   UNL d   1      -1.295  -1.102  -1.411  0.00  0.00     0.018 A 
ATOM     21  C   UNL d   1       1.233  -0.958  -0.931  0.00  0.00     0.267 A 
ATOM     22  O   UNL d   1       1.535  -2.036  -1.410  0.00  0.00    -0.267 OA
ENDBRANCH   1  12
TORSDOF 1
