REMARK  4 active torsions:
REMARK  status: ('A' for Active; 'I' for Inactive)
REMARK    1  A    between atoms: C_4  and  C_1 
REMARK    2  A    between atoms: C_2  and  C_5 
REMARK    3  A    between atoms: S_3  and  C_2 
REMARK    4  A    between atoms: C_14  and  S_3 
ROOT
ATOM      1  C   UNL d   1       0.557   1.284   0.796  0.00  0.00     0.048 A 
ATOM      2  C   UNL d   1       0.096   3.948   1.601  0.00  0.00     0.021 A 
ATOM      3  C   UNL d   1      -0.446   1.583   1.731  0.00  0.00     0.017 A 
ATOM      4  C   UNL d   1       1.358   2.329   0.308  0.00  0.00     0.017 A 
ATOM      5  C   UNL d   1      -0.670   2.903   2.134  0.00  0.00     0.017 A 
ATOM      6  C   UNL d   1       1.133   3.649   0.707  0.00  0.00     0.017 A 
ENDROOT
BRANCH   2   7
ATOM      7  C   UNL d   1      -0.244   5.348   1.986  0.00  0.00     0.224 C 
ATOM      8  O   UNL d   1      -0.738   5.588   3.078  0.00  0.00    -0.279 OA
BRANCH   7   9
ATOM      9  S   UNL d   1      -0.104   6.553   0.714  0.00  0.00    -0.048 SA
BRANCH   9  10
ATOM     10  C   UNL d   1       0.790   7.927   1.412  0.00  0.00     0.008 A 
ATOM     11  C   UNL d   1       1.477   8.757   0.514  0.00  0.00     0.019 A 
ATOM     12  C   UNL d   1       2.116   9.923   0.948  0.00  0.00     0.008 A 
ATOM     13  C   UNL d   1       2.072  10.290   2.295  0.00  0.00    -0.062 A 
ATOM     14  C   UNL d   1       1.428   9.444   3.202  0.00  0.00     0.008 A 
ATOM     15  C   UNL d   1       2.725  11.559   2.758  0.00  0.00     0.048 C 
ATOM     16  C   UNL d   1       0.786   8.278   2.763  0.00  0.00     0.019 A 
ENDBRANCH   9  10
ENDBRANCH   7   9
ENDBRANCH   2   7
BRANCH   1  17
ATOM     17  C   UNL d   1       0.772  -0.122   0.289  0.00  0.00     0.417 C 
ATOM     18  F   UNL d   1      -0.053  -1.042   0.861  0.00  0.00    -0.166 F 
ATOM     19  F   UNL d   1       2.039  -0.568   0.503  0.00  0.00    -0.166 F 
ATOM     20  F   UNL d   1       0.564  -0.220  -1.054  0.00  0.00    -0.166 F 
ENDBRANCH   1  17
TORSDOF 4
