REMARK  5 active torsions:
REMARK  status: ('A' for Active; 'I' for Inactive)
REMARK    1  A    between atoms: C_2  and  S_1 
REMARK    2  A    between atoms: C_3  and  S_1 
REMARK    3  A    between atoms: C_7  and  C_3 
REMARK    4  A    between atoms: N_11  and  C_4 
REMARK    5  A    between atoms: C_16  and  N_11 
ROOT
ATOM      1  C   UNL d   1       0.398  -1.297   0.886  0.00  0.00     0.154 C 
ATOM      2  C   UNL d   1      -0.245  -1.027   2.035  0.00  0.00     0.123 C 
ATOM      3  C   UNL d   1       0.762  -0.297  -0.041  0.00  0.00     0.113 C 
ATOM      4  N   UNL d   1       1.035   0.586  -0.744  0.00  0.00    -0.191 NA
ENDROOT
BRANCH   1   5
ATOM      5  S   UNL d   1       0.891  -2.929   0.554  0.00  0.00     0.192 S 
ATOM      6  O   UNL d   1       1.581  -3.437   1.731  0.00  0.00    -0.222 OA
ATOM      7  O   UNL d   1       1.558  -3.002  -0.735  0.00  0.00    -0.222 OA
BRANCH   5   8
ATOM      8  C   UNL d   1      -0.622  -3.857   0.433  0.00  0.00     0.211 C 
BRANCH   8   9
ATOM      9  C   UNL d   1      -1.492  -3.343  -0.644  0.00  0.00     0.066 A 
ATOM     10  O   UNL d   1      -2.434  -2.429  -0.275  0.00  0.00    -0.326 OA
ATOM     11  C   UNL d   1      -3.182  -2.162  -1.377  0.00  0.00     0.142 A 
ATOM     12  C   UNL d   1      -2.730  -2.889  -2.452  0.00  0.00     0.027 A 
ATOM     13  C   UNL d   1      -1.630  -3.647  -1.983  0.00  0.00     0.035 A 
ENDBRANCH   8   9
ENDBRANCH   5   8
ENDBRANCH   1   5
BRANCH   2  14
ATOM     14  N   UNL d   1      -0.735   0.181   2.479  0.00  0.00    -0.364 N 
ATOM     15  H   UNL d   1      -0.665   0.975   1.844  0.00  0.00     0.165 HD
BRANCH  14  16
ATOM     16  C   UNL d   1      -1.372   0.464   3.701  0.00  0.00     0.033 A 
ATOM     17  C   UNL d   1      -1.196  -0.308   4.855  0.00  0.00     0.053 A 
ATOM     18  C   UNL d   1      -1.910  -0.016   6.020  0.00  0.00     0.036 A 
ATOM     19 CL   UNL d   1      -1.656  -0.962   7.436  0.00  0.00    -0.084 Cl
ATOM     20  C   UNL d   1      -2.828   1.031   6.048  0.00  0.00     0.024 A 
ATOM     21  C   UNL d   1      -3.025   1.799   4.905  0.00  0.00     0.004 A 
ATOM     22  C   UNL d   1      -2.300   1.518   3.744  0.00  0.00     0.029 A 
ENDBRANCH  14  16
ENDBRANCH   2  14
TORSDOF 5
