REMARK  7 active torsions:
REMARK  status: ('A' for Active; 'I' for Inactive)
REMARK    1  A    between atoms: C_9  and  C_2 
REMARK    2  A    between atoms: S_8  and  C_3 
REMARK    3  A    between atoms: C_19  and  S_8 
REMARK    4  A    between atoms: C_10  and  C_9 
REMARK    5  A    between atoms: C_11  and  C_19 
REMARK       I    between atoms: N_13  and  C_11 
REMARK    6  A    between atoms: C_23  and  N_13 
REMARK    7  A    between atoms: C_24  and  C_16 
ROOT
ATOM      1  S   UNL d   1       0.372  -2.717  -0.094  0.00  0.00    -0.083 SA
ENDROOT
BRANCH   1   2
ATOM      2  C   UNL d   1       0.242  -0.980  -0.055  0.00  0.00     0.162 A 
ATOM      3  N   UNL d   1      -0.934  -0.283  -0.100  0.00  0.00    -0.319 N 
ATOM      4  C   UNL d   1      -0.577   1.047  -0.188  0.00  0.00     0.104 A 
ATOM      5  C   UNL d   1      -2.270  -0.819  -0.054  0.00  0.00     0.159 C 
ATOM      6  N   UNL d   1       0.737   1.130  -0.103  0.00  0.00    -0.286 N 
ATOM      7  N   UNL d   1       1.249  -0.142  -0.021  0.00  0.00    -0.278 N 
ATOM      8  HN  UNL d   1       1.281   1.992  -0.100  1.00  0.00     0.188 HD
ATOM      9  HN  UNL d   1       2.235  -0.389   0.053  1.00  0.00     0.189 HD
BRANCH   4  10
ATOM     10  C   UNL d   1      -1.496   2.194  -0.465  0.00  0.00     0.117 C 
BRANCH  10  11
ATOM     11  C   UNL d   1      -2.059   2.869   0.756  0.00  0.00    -0.044 A 
ATOM     12  C   UNL d   1      -3.407   2.957   1.058  0.00  0.00     0.057 A 
ATOM     13  S   UNL d   1      -3.720   3.899   2.453  0.00  0.00    -0.113 SA
ATOM     14  C   UNL d   1      -2.058   4.213   2.679  0.00  0.00     0.050 A 
ATOM     15  C   UNL d   1      -1.282   3.598   1.720  0.00  0.00     0.015 A 
ENDBRANCH  10  11
ENDBRANCH   4  10
ENDBRANCH   1   2
BRANCH   1  16
ATOM     16  C   UNL d   1       2.176  -2.884   0.017  0.00  0.00     0.185 C 
BRANCH  16  17
ATOM     17  C   UNL d   1       2.742  -4.297  -0.063  0.00  0.00     0.231 C 
ATOM     18  N   UNL d   1       1.857  -5.340  -0.270  0.00  0.00    -0.327 N 
ATOM     19  H   UNL d   1       0.907  -5.087  -0.519  0.00  0.00     0.169 HD
ATOM     20  O   UNL d   1       3.962  -4.430   0.050  0.00  0.00    -0.272 OA
BRANCH  18  21
ATOM     21  C   UNL d   1       2.153  -6.723  -0.178  0.00  0.00     0.034 A 
ATOM     22  C   UNL d   1       3.362  -7.216   0.317  0.00  0.00     0.030 A 
ATOM     23  C   UNL d   1       3.578  -8.590   0.470  0.00  0.00     0.010 A 
ATOM     24  C   UNL d   1       2.589  -9.518   0.131  0.00  0.00    -0.055 A 
ATOM     25  C   UNL d   1       1.387  -9.031  -0.400  0.00  0.00     0.010 A 
ATOM     26  C   UNL d   1       1.170  -7.649  -0.548  0.00  0.00     0.030 A 
BRANCH  24  27
ATOM     27  C   UNL d   1       2.792 -11.004   0.378  0.00  0.00     0.010 C 
ATOM     28  C   UNL d   1       4.002 -11.563  -0.378  0.00  0.00     0.015 C 
ATOM     29  C   UNL d   1       2.925 -11.293   1.879  0.00  0.00     0.015 C 
ENDBRANCH  24  27
ENDBRANCH  18  21
ENDBRANCH  16  17
ENDBRANCH   1  16
TORSDOF 7
