REMARK  2 active torsions:
REMARK  status: ('A' for Active; 'I' for Inactive)
REMARK    1  A    between atoms: C_3  and  C_1 
REMARK    2  A    between atoms: N_4  and  C_2 
REMARK       I    between atoms: N_5  and  C_3 
ROOT
ATOM      1  C   UNL d   1       1.886  -1.140   1.077  0.00  0.00     0.100 A 
ATOM      2  C   UNL d   1       1.082  -1.983   1.818  0.00  0.00     0.207 A 
ATOM      3  N   UNL d   1       0.354  -1.228   2.682  0.00  0.00    -0.276 N 
ATOM      4  N   UNL d   1       0.627   0.092   2.552  0.00  0.00    -0.307 N 
ATOM      5  HN  UNL d   1       0.252   0.869   3.096  1.00  0.00     0.186 HD
ATOM      6  C   UNL d   1       1.502   0.138   1.545  0.00  0.00     0.128 A 
ATOM      7  C   UNL d   1      -0.629  -1.603   3.672  0.00  0.00     0.179 C 
ENDROOT
BRANCH   1   8
ATOM      8  C   UNL d   1       2.779  -1.518  -0.001  0.00  0.00     0.259 C 
ATOM      9  N   UNL d   1       3.954  -0.793  -0.180  0.00  0.00    -0.343 N 
ATOM     10  C   UNL d   1       4.589   0.123   0.777  0.00  0.00     0.157 C 
ATOM     11  C   UNL d   1       4.832  -1.120  -1.308  0.00  0.00     0.157 C 
ATOM     12  C   UNL d   1       5.076   1.388   0.047  0.00  0.00     0.136 C 
ATOM     13  C   UNL d   1       5.812   2.315   1.003  0.00  0.00     0.041 C 
ATOM     14  O   UNL d   1       5.974   1.034  -1.021  0.00  0.00    -0.378 OA
ATOM     15  C   UNL d   1       5.327   0.173  -1.982  0.00  0.00     0.136 C 
ATOM     16  C   UNL d   1       6.329  -0.128  -3.088  0.00  0.00     0.041 C 
ATOM     17  O   UNL d   1       2.459  -2.434  -0.755  0.00  0.00    -0.267 OA
ENDBRANCH   1   8
BRANCH   2  18
ATOM     18  N   UNL d   1       0.984  -3.394   1.778  0.00  0.00    -0.095 N 
ATOM     19  O   UNL d   1       2.037  -4.025   1.938  0.00  0.00    -0.530 OA
ATOM     20  O   UNL d   1      -0.149  -3.869   1.651  0.00  0.00    -0.530 OA
ENDBRANCH   2  18
TORSDOF 2
