REMARK  4 active torsions:
REMARK  status: ('A' for Active; 'I' for Inactive)
REMARK    1  A    between atoms: C_4  and  C_1 
REMARK    2  A    between atoms: C_5  and  C_2 
REMARK       I    between atoms: N_8  and  C_4 
REMARK       I    between atoms: N_9  and  C_5 
REMARK    3  A    between atoms: N_12  and  N_8 
REMARK    4  A    between atoms: N_11  and  N_9 
ROOT
ATOM      1  C   UNL d   1      -0.030   0.925  -0.098  0.00  0.00     0.097 A 
ATOM      2  C   UNL d   1       0.789  -0.359   0.004  0.00  0.00     0.097 A 
ATOM      3  C   UNL d   1      -0.724  -0.419  -0.032  0.00  0.00     0.009 A 
ATOM      4  C   UNL d   1      -1.420  -1.022  -1.204  0.00  0.00     0.011 C 
ENDROOT
BRANCH   1   5
ATOM      5  C   UNL d   1       0.071   1.745  -1.329  0.00  0.00     0.237 C 
ATOM      6  O   UNL d   1       0.582   1.309  -2.358  0.00  0.00    -0.272 OA
ATOM      7  N   UNL d   1      -0.436   3.029  -1.206  0.00  0.00    -0.294 N 
ATOM      8  H   UNL d   1      -0.952   3.304  -0.373  0.00  0.00     0.183 HD
BRANCH   7   9
ATOM      9  N   UNL d   1      -0.381   3.916  -2.304  0.00  0.00    -0.247 NA
ATOM     10  H   UNL d   1      -0.115   3.356  -3.127  0.00  0.00     0.143 HD
ATOM     11  H   UNL d   1       0.418   4.541  -2.165  0.00  0.00     0.143 HD
ENDBRANCH   7   9
ENDBRANCH   1   5
BRANCH   2  12
ATOM     12  C   UNL d   1       1.530  -0.641   1.260  0.00  0.00     0.237 C 
ATOM     13  O   UNL d   1       1.306  -0.016   2.292  0.00  0.00    -0.272 OA
ATOM     14  N   UNL d   1       2.470  -1.652   1.156  0.00  0.00    -0.294 N 
ATOM     15  H   UNL d   1       2.515  -2.232   0.321  0.00  0.00     0.183 HD
BRANCH  14  16
ATOM     16  N   UNL d   1       3.230  -2.020   2.288  0.00  0.00    -0.247 NA
ATOM     17  H   UNL d   1       2.826  -1.520   3.095  0.00  0.00     0.143 HD
ATOM     18  H   UNL d   1       4.163  -1.610   2.189  0.00  0.00     0.143 HD
ENDBRANCH  14  16
ENDBRANCH   2  12
TORSDOF 4
