REMARK  3 active torsions:
REMARK  status: ('A' for Active; 'I' for Inactive)
REMARK    1  A    between atoms: S_5  and  C_1 
REMARK    2  A    between atoms: C_7  and  C_2 
REMARK       I    between atoms: N_8  and  C_7 
REMARK    3  A    between atoms: C_13  and  N_8 
ROOT
ATOM      1  C   UNL d   1      -1.228   1.703  -0.080  0.00  0.00     0.111 A 
ATOM      2  C   UNL d   1      -1.706  -0.754  -0.130  0.00  0.00     0.081 A 
ATOM      3  S   UNL d   1      -2.621   0.697  -0.114  0.00  0.00    -0.071 SA
ATOM      4  C   UNL d   1      -0.079   0.938  -0.113  0.00  0.00    -0.000 A 
ATOM      5  C   UNL d   1      -0.343  -0.475  -0.160  0.00  0.00    -0.023 A 
ATOM      6  C   UNL d   1       1.260   1.426  -0.099  0.00  0.00     0.010 C 
ATOM      7  C   UNL d   1       2.314   0.606  -0.233  0.00  0.00    -0.025 C 
ATOM      8  C   UNL d   1       0.780  -1.484  -0.176  0.00  0.00     0.045 C 
ATOM      9  C   UNL d   1       2.177  -0.883  -0.422  0.00  0.00     0.032 C 
ENDROOT
BRANCH   2  10
ATOM     10  C   UNL d   1      -2.358  -2.073  -0.058  0.00  0.00     0.263 C 
ATOM     11  N   UNL d   1      -3.748  -2.059  -0.116  0.00  0.00    -0.323 N 
ATOM     12  H   UNL d   1      -4.167  -1.169  -0.355  0.00  0.00     0.169 HD
ATOM     13  O   UNL d   1      -1.698  -3.105   0.056  0.00  0.00    -0.267 OA
BRANCH  11  14
ATOM     14  C   UNL d   1      -4.637  -3.106   0.217  0.00  0.00     0.035 A 
ATOM     15  C   UNL d   1      -4.232  -4.321   0.777  0.00  0.00     0.031 A 
ATOM     16  C   UNL d   1      -5.176  -5.252   1.228  0.00  0.00     0.026 A 
ATOM     17  C   UNL d   1      -6.535  -4.981   1.103  0.00  0.00     0.034 A 
ATOM     18  C   UNL d   1      -6.957  -3.805   0.492  0.00  0.00     0.026 A 
ATOM     19 CL   UNL d   1      -7.691  -6.086   1.736  0.00  0.00    -0.084 Cl
ATOM     20  C   UNL d   1      -6.011  -2.870   0.051  0.00  0.00     0.031 A 
ENDBRANCH  11  14
ENDBRANCH   2  10
BRANCH   1  21
ATOM     21  S   UNL d   1      -1.567   3.455  -0.026  0.00  0.00     0.179 S 
ATOM     22  O   UNL d   1      -0.283   4.118   0.056  0.00  0.00    -0.222 OA
ATOM     23  O   UNL d   1      -2.488   3.715  -1.113  0.00  0.00    -0.222 OA
ATOM     24  C   UNL d   1      -2.408   3.700   1.516  0.00  0.00     0.167 C 
ENDBRANCH   1  21
TORSDOF 3
