REMARK  8 active torsions:
REMARK  status: ('A' for Active; 'I' for Inactive)
REMARK    1  A    between atoms: S_14  and  C_3 
REMARK    2  A    between atoms: C_7  and  C_4 
REMARK    3  A    between atoms: O_18  and  C_7 
REMARK    4  A    between atoms: C_8  and  O_17 
REMARK       I    between atoms: N_12  and  C_8 
REMARK    5  A    between atoms: C_19  and  N_12 
REMARK    6  A    between atoms: C_22  and  S_14 
REMARK    7  A    between atoms: O_17  and  C_23 
REMARK    8  A    between atoms: C_23  and  C_22 
ROOT
ATOM      1  C   UNL d   1       0.090  -0.704   0.039  0.00  0.00     0.041 A 
ATOM      2  C   UNL d   1       0.435   0.704   0.006  0.00  0.00    -0.018 A 
ATOM      3  C   UNL d   1       1.201  -1.518  -0.042  0.00  0.00     0.056 A 
ATOM      4  C   UNL d   1       1.816   0.896  -0.050  0.00  0.00     0.088 A 
ATOM      5  S   UNL d   1       2.641  -0.608  -0.058  0.00  0.00    -0.076 SA
ATOM      6  C   UNL d   1      -1.304  -1.140   0.107  0.00  0.00     0.162 C 
ATOM      7  C   UNL d   1      -0.630   1.785  -0.005  0.00  0.00     0.050 C 
ATOM      8  C   UNL d   1      -2.050   1.256   0.365  0.00  0.00    -0.037 C 
ATOM      9  C   UNL d   1      -2.313  -0.098  -0.332  0.00  0.00     0.093 C 
ATOM     10  O   UNL d   1      -1.657  -2.244   0.509  0.00  0.00    -0.292 OA
ATOM     11  C   UNL d   1      -3.126   2.254  -0.103  0.00  0.00     0.015 C 
ATOM     12  C   UNL d   1      -2.183   1.106   1.896  0.00  0.00     0.015 C 
ENDROOT
BRANCH   3  13
ATOM     13  S   UNL d   1       1.264  -3.265  -0.241  0.00  0.00    -0.119 SA
BRANCH  13  14
ATOM     14  C   UNL d   1       1.368  -3.805   1.489  0.00  0.00     0.107 C 
BRANCH  14  15
ATOM     15  C   UNL d   1       1.459  -5.327   1.552  0.00  0.00     0.191 C 
BRANCH  15  16
ATOM     16  O   UNL d   1       1.446  -5.754   2.927  0.00  0.00    -0.303 OA
BRANCH  16  17
ATOM     17  C   UNL d   1       2.653  -5.912   3.517  0.00  0.00     0.365 C 
ATOM     18  N   UNL d   1       2.630  -6.280   4.836  0.00  0.00    -0.303 N 
ATOM     19  H   UNL d   1       3.569  -6.404   5.190  0.00  0.00     0.171 HD
ATOM     20  O   UNL d   1       3.727  -5.736   2.951  0.00  0.00    -0.238 OA
BRANCH  18  21
ATOM     21  C   UNL d   1       1.585  -6.364   5.775  0.00  0.00     0.036 A 
ATOM     22  C   UNL d   1       0.236  -6.145   5.498  0.00  0.00     0.029 A 
ATOM     23  C   UNL d   1      -0.709  -6.131   6.532  0.00  0.00     0.002 A 
ATOM     24  C   UNL d   1      -0.316  -6.352   7.848  0.00  0.00     0.000 A 
ATOM     25  C   UNL d   1       1.019  -6.623   8.131  0.00  0.00     0.002 A 
ATOM     26  C   UNL d   1       1.961  -6.636   7.099  0.00  0.00     0.029 A 
ENDBRANCH  18  21
ENDBRANCH  16  17
ENDBRANCH  15  16
ENDBRANCH  14  15
ENDBRANCH  13  14
ENDBRANCH   3  13
BRANCH   4  27
ATOM     27  C   UNL d   1       2.555   2.155  -0.119  0.00  0.00     0.300 C 
ATOM     28  O   UNL d   1       2.045   3.267  -0.156  0.00  0.00    -0.259 OA
BRANCH  27  29
ATOM     29  O   UNL d   1       3.904   1.937  -0.138  0.00  0.00    -0.322 OA
ATOM     30  C   UNL d   1       4.712   3.112  -0.207  0.00  0.00     0.213 C 
ENDBRANCH  27  29
ENDBRANCH   4  27
TORSDOF 8
