REMARK  2 active torsions:
REMARK  status: ('A' for Active; 'I' for Inactive)
REMARK    1  A    between atoms: C_12  and  N_1 
REMARK    2  A    between atoms: C_9  and  C_12 
ROOT
ATOM      1  C   UNL d   1       3.354   0.045  -0.095  0.00  0.00     0.193 C 
ENDROOT
BRANCH   1   2
ATOM      2  C   UNL d   1       3.914   1.434  -0.152  0.00  0.00     0.035 A 
ATOM      3  N   UNL d   1       4.154   2.132   1.027  0.00  0.00    -0.351 N 
ATOM      4  C   UNL d   1       4.611   3.344   0.766  0.00  0.00     0.091 A 
ATOM      5  HN  UNL d   1       3.998   1.759   1.964  1.00  0.00     0.166 HD
ATOM      6  C   UNL d   1       4.901   4.290   1.823  0.00  0.00     0.038 A 
ATOM      7  S   UNL d   1       4.817   3.686  -0.909  0.00  0.00    -0.081 SA
ATOM      8  S   UNL d   1       5.317   5.934   1.538  0.00  0.00    -0.099 SA
ATOM      9  C   UNL d   1       4.869   4.028   3.183  0.00  0.00     0.022 A 
ATOM     10  C   UNL d   1       5.439   6.278   3.206  0.00  0.00     0.050 A 
ATOM     11  C   UNL d   1       5.179   5.170   3.979  0.00  0.00     0.008 A 
ATOM     12  C   UNL d   1       4.227   2.134  -1.302  0.00  0.00     0.078 A 
ENDBRANCH   1   2
BRANCH   1  13
ATOM     13  N   UNL d   1       1.913   0.096   0.029  0.00  0.00    -0.274 N 
ATOM     14  C   UNL d   1       1.228  -0.449   1.079  0.00  0.00     0.262 A 
ATOM     15  C   UNL d   1      -0.192  -0.276   0.784  0.00  0.00     0.048 A 
ATOM     16  O   UNL d   1       1.649  -1.032   2.061  0.00  0.00    -0.267 OA
ATOM     17  C   UNL d   1      -1.307  -0.641   1.512  0.00  0.00     0.018 A 
ATOM     18  C   UNL d   1      -0.290   0.328  -0.456  0.00  0.00     0.048 A 
ATOM     19  C   UNL d   1      -2.557  -0.358   0.952  0.00  0.00     0.001 A 
ATOM     20  C   UNL d   1      -2.658   0.273  -0.305  0.00  0.00     0.001 A 
ATOM     21  C   UNL d   1      -1.513   0.621  -1.030  0.00  0.00     0.018 A 
ATOM     22  C   UNL d   1       1.069   0.514  -0.962  0.00  0.00     0.262 A 
ATOM     23  O   UNL d   1       1.331   0.917  -2.080  0.00  0.00    -0.267 OA
ENDBRANCH   1  13
TORSDOF 2
