REMARK  5 active torsions:
REMARK  status: ('A' for Active; 'I' for Inactive)
REMARK    1  A    between atoms: C_5  and  C_1 
REMARK    2  A    between atoms: N_6  and  C_2 
REMARK    3  A    between atoms: N_4  and  C_7 
REMARK    4  A    between atoms: O_15  and  C_5 
REMARK    5  A    between atoms: C_18  and  O_15 
ROOT
ATOM      1  C   UNL d   1       1.361  -0.289   0.088  0.00  0.00     0.068 A 
ATOM      2  C   UNL d   1       0.479  -1.396   0.130  0.00  0.00     0.046 A 
ATOM      3  C   UNL d   1       0.860   1.036   0.044  0.00  0.00     0.050 A 
ATOM      4  C   UNL d   1      -0.512   1.288   0.078  0.00  0.00     0.039 A 
ATOM      5  C   UNL d   1      -0.899  -1.099   0.066  0.00  0.00     0.033 A 
ATOM      6  C   UNL d   1      -1.393   0.211   0.062  0.00  0.00     0.032 A 
ENDROOT
BRANCH   2   7
ATOM      7  N   UNL d   1       0.906  -2.722   0.297  0.00  0.00    -0.380 N 
ATOM      8  C   UNL d   1      -0.024  -3.672   0.927  0.00  0.00     0.123 C 
ATOM      9  C   UNL d   1       0.748  -4.856   1.500  0.00  0.00     0.020 C 
ATOM     10  C   UNL d   1       1.605  -5.520   0.429  0.00  0.00     0.003 C 
ATOM     11  C   UNL d   1       2.515  -4.494  -0.245  0.00  0.00     0.020 C 
ATOM     12  C   UNL d   1       1.722  -3.298  -0.783  0.00  0.00     0.123 C 
ENDBRANCH   2   7
BRANCH   1  13
ATOM     13  C   UNL d   1       2.836  -0.418   0.290  0.00  0.00     0.295 C 
ATOM     14  O   UNL d   1       3.391  -1.193   1.048  0.00  0.00    -0.259 OA
BRANCH  13  15
ATOM     15  O   UNL d   1       3.456   0.550  -0.444  0.00  0.00    -0.318 OA
BRANCH  15  16
ATOM     16  C   UNL d   1       4.822   0.818  -0.092  0.00  0.00     0.174 C 
ATOM     17  C   UNL d   1       4.848   1.855   1.020  0.00  0.00     0.034 C 
ENDBRANCH  15  16
ENDBRANCH  13  15
ENDBRANCH   1  13
BRANCH   4  18
ATOM     18  N   UNL d   1      -0.996   2.618   0.214  0.00  0.00    -0.333 N 
ATOM     19  C   UNL d   1      -0.313   3.782  -0.091  0.00  0.00     0.096 A 
ATOM     20  C   UNL d   1      -1.095   4.863   0.261  0.00  0.00     0.019 A 
ATOM     21  C   UNL d   1      -2.290   4.360   0.807  0.00  0.00     0.019 A 
ATOM     22  C   UNL d   1      -2.217   2.986   0.747  0.00  0.00     0.096 A 
ENDBRANCH   4  18
TORSDOF 5
