REMARK  4 active torsions:
REMARK  status: ('A' for Active; 'I' for Inactive)
REMARK    1  A    between atoms: S_13  and  C_4 
REMARK    2  A    between atoms: S_14  and  C_5 
REMARK    3  A    between atoms: C_15  and  S_13 
REMARK    4  A    between atoms: C_16  and  S_14 
ROOT
ATOM      1  C   UNL d   1      -0.353  -1.269  -0.031  0.00  0.00     0.103 A 
ATOM      2  N   UNL d   1      -0.753   1.046  -0.110  0.00  0.00    -0.319 N 
ATOM      3  HN  UNL d   1      -1.281   1.917  -0.151  1.00  0.00     0.175 HD
ATOM      4  C   UNL d   1       0.951  -0.804   0.024  0.00  0.00     0.082 A 
ATOM      5  C   UNL d   1      -1.274  -0.176  -0.102  0.00  0.00     0.099 A 
ATOM      6  S   UNL d   1       0.893   0.917  -0.041  0.00  0.00    -0.005 SA
ATOM      7  C   UNL d   1      -0.730  -2.644   0.006  0.00  0.00     0.104 C 
ATOM      8  N   UNL d   1      -0.993  -3.773   0.005  0.00  0.00    -0.191 NA
ENDROOT
BRANCH   4   9
ATOM      9  S   UNL d   1       2.494  -1.615   0.241  0.00  0.00    -0.105 SA
BRANCH   9  10
ATOM     10  C   UNL d   1       2.421  -3.088  -0.824  0.00  0.00     0.203 C 
ATOM     11  C   UNL d   1       3.742  -3.721  -0.959  0.00  0.00     0.069 C 
ATOM     12  N   UNL d   1       4.780  -4.231  -1.065  0.00  0.00    -0.197 NA
ENDBRANCH   9  10
ENDBRANCH   4   9
BRANCH   5  13
ATOM     13  S   UNL d   1      -3.029  -0.364  -0.122  0.00  0.00    -0.096 SA
BRANCH  13  14
ATOM     14  C   UNL d   1      -3.560   1.208  -0.873  0.00  0.00     0.204 C 
ATOM     15  C   UNL d   1      -3.156   1.333  -2.279  0.00  0.00     0.069 C 
ATOM     16  N   UNL d   1      -2.840   1.417  -3.395  0.00  0.00    -0.197 NA
ENDBRANCH  13  14
ENDBRANCH   5  13
TORSDOF 4
