REMARK  3 active torsions:
REMARK  status: ('A' for Active; 'I' for Inactive)
REMARK    1  A    between atoms: C_24  and  N_3 
REMARK    2  A    between atoms: C_16  and  C_11 
REMARK    3  A    between atoms: C_13  and  C_15 
ROOT
ATOM      1  C   UNL d   1      -0.571  -1.227   0.012  0.00  0.00     0.105 A 
ATOM      2  C   UNL d   1      -0.994  -2.586   0.000  0.00  0.00     0.193 A 
ATOM      3  N   UNL d   1       0.469  -0.713   0.746  0.00  0.00    -0.288 N 
ATOM      4  O   UNL d   1      -1.751  -3.133  -1.010  0.00  0.00    -0.271 OA
ATOM      5  N   UNL d   1      -0.709  -3.475   0.933  0.00  0.00    -0.276 N 
ATOM      6  HN  UNL d   1      -0.182  -3.307   1.791  1.00  0.00     0.189 HD
ATOM      7  N   UNL d   1      -1.256  -4.673   0.531  0.00  0.00    -0.277 N 
ATOM      8  HN  UNL d   1      -1.207  -5.564   1.025  1.00  0.00     0.189 HD
ATOM      9  N   UNL d   1       0.638   0.619   0.562  0.00  0.00    -0.303 N 
ATOM     10  HN  UNL d   1       1.323   1.229   1.007  1.00  0.00     0.186 HD
ATOM     11  C   UNL d   1      -1.855  -4.441  -0.619  0.00  0.00     0.174 A 
ATOM     12  C   UNL d   1      -1.069  -0.165  -0.715  0.00  0.00     0.061 A 
ATOM     13  C   UNL d   1      -0.295   0.951  -0.334  0.00  0.00     0.024 A 
ATOM     14  C   UNL d   1      -0.406   2.348  -0.815  0.00  0.00     0.070 C 
ENDROOT
BRANCH  11  15
ATOM     15  C   UNL d   1      -2.523  -5.366  -1.525  0.00  0.00     0.017 A 
ATOM     16  C   UNL d   1      -2.315  -6.744  -1.379  0.00  0.00     0.017 A 
ATOM     17  C   UNL d   1      -2.928  -7.660  -2.239  0.00  0.00     0.017 A 
ATOM     18  C   UNL d   1      -3.776  -7.216  -3.263  0.00  0.00     0.048 A 
ATOM     19  C   UNL d   1      -3.991  -5.837  -3.409  0.00  0.00     0.017 A 
ATOM     20  C   UNL d   1      -3.369  -4.921  -2.552  0.00  0.00     0.017 A 
BRANCH  18  21
ATOM     21  C   UNL d   1      -4.455  -8.193  -4.194  0.00  0.00     0.417 C 
ATOM     22  F   UNL d   1      -4.131  -9.493  -3.951  0.00  0.00    -0.166 F 
ATOM     23  F   UNL d   1      -5.812  -8.125  -4.117  0.00  0.00    -0.166 F 
ATOM     24  F   UNL d   1      -4.142  -7.969  -5.500  0.00  0.00    -0.166 F 
ENDBRANCH  18  21
ENDBRANCH  11  15
BRANCH   3  25
ATOM     25  C   UNL d   1       1.444  -1.417   1.563  0.00  0.00     0.145 C 
ATOM     26  C   UNL d   1       1.055  -1.483   3.029  0.00  0.00     0.028 C 
ENDBRANCH   3  25
TORSDOF 3
