REMARK  3 active torsions:
REMARK  status: ('A' for Active; 'I' for Inactive)
REMARK    1  A    between atoms: C_7  and  C_1 
REMARK    2  A    between atoms: N_4  and  C_9 
REMARK    3  A    between atoms: O_17  and  C_7 
ROOT
ATOM      1  C   UNL d   1      -1.805  -1.294  -0.102  0.00  0.00     0.114 A 
ATOM      2  C   UNL d   1      -2.080   0.151  -0.061  0.00  0.00     0.305 A 
ATOM      3  C   UNL d   1      -0.541  -1.751  -0.063  0.00  0.00     0.039 A 
ATOM      4  O   UNL d   1      -1.000   1.022  -0.075  0.00  0.00    -0.274 OA
ATOM      5  C   UNL d   1       0.580  -0.826  -0.005  0.00  0.00     0.001 A 
ATOM      6  C   UNL d   1       0.321   0.542  -0.042  0.00  0.00     0.089 A 
ATOM      7  C   UNL d   1       2.945  -0.320   0.086  0.00  0.00     0.103 A 
ATOM      8  C   UNL d   1       1.905  -1.265   0.065  0.00  0.00     0.050 A 
ATOM      9  O   UNL d   1      -3.239   0.563  -0.030  0.00  0.00    -0.259 OA
ATOM     10  C   UNL d   1       1.345   1.488  -0.035  0.00  0.00     0.041 A 
ATOM     11  C   UNL d   1       2.669   1.056   0.027  0.00  0.00     0.039 A 
ENDROOT
BRANCH   1  12
ATOM     12  C   UNL d   1      -2.892  -2.299  -0.191  0.00  0.00     0.182 C 
ATOM     13  O   UNL d   1      -2.681  -3.504  -0.232  0.00  0.00    -0.646 OA
BRANCH  12  14
ATOM     14  O   UNL d   1      -4.144  -1.799  -0.240  0.00  0.00    -0.772 OA
ATOM     15  H   UNL d   1      -4.215  -0.815  -0.186  0.00  0.00     0.167 HD
ENDBRANCH  12  14
ENDBRANCH   1  12
BRANCH   7  16
ATOM     16  N   UNL d   1       4.339  -0.775   0.172  0.00  0.00    -0.116 N 
ATOM     17  O   UNL d   1       4.542  -1.996   0.226  0.00  0.00    -0.532 OA
ATOM     18  O   UNL d   1       5.227   0.089   0.190  0.00  0.00    -0.532 OA
ENDBRANCH   7  16
TORSDOF 3
