REMARK  6 active torsions:
REMARK  status: ('A' for Active; 'I' for Inactive)
REMARK    1  A    between atoms: C_5  and  C_1 
REMARK    2  A    between atoms: C_2  and  C_4 
REMARK    3  A    between atoms: C_3  and  C_12 
REMARK    4  A    between atoms: C_7  and  C_6 
REMARK       I    between atoms: N_11  and  C_7 
REMARK    5  A    between atoms: C_25  and  N_11 
REMARK    6  A    between atoms: C_26  and  C_25 
ROOT
ATOM      1  C   UNL d   1      -0.423   0.475   4.630  0.00  0.00     0.251 C 
ATOM      2  N   UNL d   1      -0.496   1.286   5.740  0.00  0.00    -0.353 N 
ATOM      3  O   UNL d   1      -0.567  -0.748   4.689  0.00  0.00    -0.268 OA
ATOM      4  H   UNL d   1      -0.320   2.273   5.676  0.00  0.00     0.163 HD
ENDROOT
BRANCH   1   5
ATOM      5  C   UNL d   1      -0.047   1.111   3.327  0.00  0.00     0.033 A 
ATOM      6  C   UNL d   1       0.561   0.301   2.351  0.00  0.00     0.033 A 
ATOM      7  C   UNL d   1       1.058   0.840   1.151  0.00  0.00     0.049 A 
ATOM      8  C   UNL d   1       0.935   2.220   0.931  0.00  0.00     0.032 A 
ATOM      9  C   UNL d   1       0.317   3.049   1.883  0.00  0.00     0.049 A 
ATOM     10  C   UNL d   1      -0.207   2.478   3.062  0.00  0.00     0.033 A 
BRANCH   7  11
ATOM     11  C   UNL d   1       1.752  -0.050   0.144  0.00  0.00     0.417 C 
ATOM     12  F   UNL d   1       2.238   0.630  -0.931  0.00  0.00    -0.166 F 
ATOM     13  F   UNL d   1       0.933  -1.012  -0.361  0.00  0.00    -0.166 F 
ATOM     14  F   UNL d   1       2.819  -0.702   0.680  0.00  0.00    -0.166 F 
ENDBRANCH   7  11
BRANCH   9  15
ATOM     15  C   UNL d   1       0.271   4.548   1.685  0.00  0.00     0.417 C 
ATOM     16  F   UNL d   1       0.951   4.976   0.587  0.00  0.00    -0.166 F 
ATOM     17  F   UNL d   1      -0.996   5.025   1.559  0.00  0.00    -0.166 F 
ATOM     18  F   UNL d   1       0.818   5.210   2.743  0.00  0.00    -0.166 F 
ENDBRANCH   9  15
ENDBRANCH   1   5
BRANCH   2  19
ATOM     19  C   UNL d   1      -0.591   0.737   7.089  0.00  0.00     0.161 C 
BRANCH  19  20
ATOM     20  C   UNL d   1      -2.004   0.727   7.617  0.00  0.00    -0.041 A 
ATOM     21  C   UNL d   1      -2.794  -0.428   7.530  0.00  0.00     0.009 A 
ATOM     22  C   UNL d   1      -4.107  -0.432   8.011  0.00  0.00     0.017 A 
ATOM     23  C   UNL d   1      -4.660   0.721   8.586  0.00  0.00     0.047 A 
ATOM     24  C   UNL d   1      -3.868   1.876   8.677  0.00  0.00     0.017 A 
ATOM     25  C   UNL d   1      -2.554   1.877   8.201  0.00  0.00     0.009 A 
BRANCH  23  26
ATOM     26  C   UNL d   1      -6.079   0.737   9.099  0.00  0.00     0.417 C 
ATOM     27  F   UNL d   1      -6.731  -0.450   8.947  0.00  0.00    -0.166 F 
ATOM     28  F   UNL d   1      -6.149   1.031  10.428  0.00  0.00    -0.166 F 
ATOM     29  F   UNL d   1      -6.850   1.668   8.471  0.00  0.00    -0.166 F 
ENDBRANCH  23  26
ENDBRANCH  19  20
ENDBRANCH   2  19
TORSDOF 6
