REMARK  7 active torsions:
REMARK  status: ('A' for Active; 'I' for Inactive)
REMARK    1  A    between atoms: C_6  and  C_1 
REMARK    2  A    between atoms: C_13  and  C_4 
REMARK    3  A    between atoms: N_5  and  C_12 
REMARK    4  A    between atoms: S_19  and  C_11 
REMARK    5  A    between atoms: C_17  and  C_21 
REMARK    6  A    between atoms: C_20  and  C_17 
REMARK    7  A    between atoms: C_21  and  S_19 
ROOT
ATOM      1  C   UNL d   1       0.469  -2.702   0.035  0.00  0.00     0.050 A 
ATOM      2  N   UNL d   1      -0.002  -3.484  -0.954  0.00  0.00    -0.336 N 
ATOM      3  HN  UNL d   1      -0.542  -3.091  -1.725  1.00  0.00     0.168 HD
ATOM      4  C   UNL d   1       0.260  -4.796  -0.891  0.00  0.00     0.144 A 
ATOM      5  N   UNL d   1       1.028  -5.370   0.045  0.00  0.00    -0.347 N 
ATOM      6  HN  UNL d   1       1.230  -6.370   0.038  1.00  0.00     0.167 HD
ATOM      7  C   UNL d   1       1.252  -3.204   1.052  0.00  0.00     0.047 A 
ATOM      8  C   UNL d   1       1.515  -4.553   0.995  0.00  0.00     0.092 A 
ENDROOT
BRANCH   1   9
ATOM      9  C   UNL d   1      -0.006  -1.328   0.012  0.00  0.00     0.051 A 
ATOM     10  C   UNL d   1      -1.276  -0.792  -0.409  0.00  0.00     0.080 A 
ATOM     11  N   UNL d   1      -1.268   0.548  -0.303  0.00  0.00    -0.259 N 
ATOM     12  O   UNL d   1      -0.037   0.898   0.193  0.00  0.00    -0.241 OA
ATOM     13  HN  UNL d   1      -2.029   1.182  -0.544  1.00  0.00     0.195 HD
ATOM     14  C   UNL d   1       0.720  -0.212   0.387  0.00  0.00     0.087 A 
ATOM     15  C   UNL d   1       2.077   0.048   0.910  0.00  0.00     0.080 C 
BRANCH  10  16
ATOM     16  C   UNL d   1      -2.485  -1.480  -0.886  0.00  0.00    -0.006 A 
ATOM     17  C   UNL d   1      -3.318  -0.871  -1.839  0.00  0.00     0.015 A 
ATOM     18  C   UNL d   1      -4.456  -1.529  -2.322  0.00  0.00     0.024 A 
ATOM     19  C   UNL d   1      -4.764  -2.807  -1.862  0.00  0.00     0.034 A 
ATOM     20  C   UNL d   1      -3.965  -3.418  -0.902  0.00  0.00     0.024 A 
ATOM     21 CL   UNL d   1      -6.143  -3.631  -2.474  0.00  0.00    -0.084 Cl
ATOM     22  C   UNL d   1      -2.847  -2.745  -0.400  0.00  0.00     0.015 A 
ENDBRANCH  10  16
ENDBRANCH   1   9
BRANCH   4  23
ATOM     23  S   UNL d   1      -0.605  -5.809  -2.064  0.00  0.00    -0.086 SA
BRANCH  23  24
ATOM     24  C   UNL d   1       0.030  -7.446  -1.617  0.00  0.00     0.166 C 
BRANCH  24  25
ATOM     25  C   UNL d   1      -0.682  -8.526  -2.408  0.00  0.00     0.169 C 
ATOM     26  O   UNL d   1      -1.665  -9.116  -1.954  0.00  0.00    -0.291 OA
BRANCH  25  27
ATOM     27  C   UNL d   1      -0.157  -8.934  -3.744  0.00  0.00     0.011 A 
ATOM     28  C   UNL d   1      -0.404 -10.247  -4.178  0.00  0.00     0.017 A 
ATOM     29  C   UNL d   1       0.040 -10.681  -5.432  0.00  0.00     0.037 A 
ATOM     30  C   UNL d   1       0.722  -9.786  -6.266  0.00  0.00     0.102 A 
ATOM     31  C   UNL d   1       0.973  -8.473  -5.845  0.00  0.00     0.037 A 
ATOM     32  C   UNL d   1       0.538  -8.054  -4.583  0.00  0.00     0.017 A 
BRANCH  30  33
ATOM     33  N   UNL d   1       1.171 -10.220  -7.597  0.00  0.00    -0.116 N 
ATOM     34  O   UNL d   1       0.954 -11.395  -7.921  0.00  0.00    -0.532 OA
ATOM     35  O   UNL d   1       1.743  -9.386  -8.310  0.00  0.00    -0.532 OA
ENDBRANCH  30  33
ENDBRANCH  25  27
ENDBRANCH  24  25
ENDBRANCH  23  24
ENDBRANCH   4  23
TORSDOF 7
