REMARK  1 active torsions:
REMARK  status: ('A' for Active; 'I' for Inactive)
REMARK    1  A    between atoms: C_7  and  C_2 
ROOT
ATOM      1  C   UNL d   1      -2.050  -0.289   0.072  0.00  0.00     0.024 A 
ATOM      2  C   UNL d   1      -1.558  -1.542   0.040  0.00  0.00     0.096 A 
ATOM      3  C   UNL d   1      -1.076   0.834   0.044  0.00  0.00     0.193 A 
ATOM      4  O   UNL d   1      -0.215  -1.873  -0.003  0.00  0.00    -0.308 OA
ATOM      5  C   UNL d   1       0.351   0.482   0.029  0.00  0.00     0.048 A 
ATOM      6  C   UNL d   1       0.708  -0.861   0.011  0.00  0.00     0.090 A 
ATOM      7  O   UNL d   1      -1.438   2.005   0.038  0.00  0.00    -0.287 OA
ATOM      8  C   UNL d   1      -3.492   0.115   0.136  0.00  0.00     0.055 C 
ATOM      9  C   UNL d   1       1.335   1.476   0.039  0.00  0.00     0.018 A 
ATOM     10  C   UNL d   1       2.055  -1.223   0.006  0.00  0.00     0.038 A 
ATOM     11  C   UNL d   1       2.682   1.115   0.034  0.00  0.00     0.001 A 
ATOM     12  C   UNL d   1       3.042  -0.234   0.019  0.00  0.00     0.003 A 
ENDROOT
BRANCH   2  13
ATOM     13  C   UNL d   1      -2.426  -2.728   0.039  0.00  0.00    -0.002 A 
ATOM     14  C   UNL d   1      -2.879  -3.269  -1.171  0.00  0.00     0.014 A 
ATOM     15  C   UNL d   1      -3.716  -4.387  -1.172  0.00  0.00     0.001 A 
ATOM     16  C   UNL d   1      -4.102  -4.970   0.034  0.00  0.00     0.000 A 
ATOM     17  C   UNL d   1      -3.651  -4.439   1.243  0.00  0.00     0.001 A 
ATOM     18  C   UNL d   1      -2.813  -3.322   1.247  0.00  0.00     0.014 A 
ENDBRANCH   2  13
TORSDOF 1
