REMARK  7 active torsions:
REMARK  status: ('A' for Active; 'I' for Inactive)
REMARK    1  A    between atoms: C_4  and  C_1 
REMARK       I    between atoms: N_10  and  C_4 
REMARK       I    between atoms: C_5  and  N_11 
REMARK    2  A    between atoms: C_8  and  C_5 
REMARK    3  A    between atoms: C_24  and  C_7 
REMARK    4  A    between atoms: N_11  and  N_10 
REMARK    5  A    between atoms: C_12  and  C_16 
REMARK    6  A    between atoms: O_25  and  C_24 
REMARK    7  A    between atoms: C_26  and  O_25 
ROOT
ATOM      1  C   UNL d   1       0.591   0.901  -0.713  0.00  0.00     0.109 A 
ATOM      2  N   UNL d   1       0.438  -0.433  -1.109  0.00  0.00    -0.347 N 
ATOM      3  HN  UNL d   1       0.446  -0.762  -2.075  1.00  0.00     0.166 HD
ATOM      4  C   UNL d   1       0.516   1.103   0.653  0.00  0.00     0.086 A 
ATOM      5  C   UNL d   1       0.283  -1.205  -0.046  0.00  0.00     0.075 A 
ATOM      6  S   UNL d   1       0.294  -0.381   1.468  0.00  0.00    -0.084 SA
ENDROOT
BRANCH   1   7
ATOM      7  C   UNL d   1       0.794   1.991  -1.670  0.00  0.00     0.287 C 
ATOM      8  N   UNL d   1       0.866   1.587  -2.985  0.00  0.00    -0.262 N 
ATOM      9  H   UNL d   1       0.822   0.601  -3.245  0.00  0.00     0.190 HD
ATOM     10  O   UNL d   1       0.884   3.174  -1.333  0.00  0.00    -0.264 OA
BRANCH   8  11
ATOM     11  N   UNL d   1       1.052   2.549  -3.986  0.00  0.00    -0.263 N 
ATOM     12  C   UNL d   1       1.578   2.184  -5.213  0.00  0.00     0.277 C 
ATOM     13  O   UNL d   1       1.866   1.011  -5.457  0.00  0.00    -0.265 OA
ATOM     14  H   UNL d   1       0.957   3.526  -3.716  0.00  0.00     0.190 HD
BRANCH  12  15
ATOM     15  C   UNL d   1       1.748   3.261  -6.181  0.00  0.00     0.074 A 
ATOM     16  S   UNL d   1       1.165   4.851  -5.901  0.00  0.00    -0.097 SA
ATOM     17  C   UNL d   1       1.666   5.387  -7.445  0.00  0.00     0.050 A 
ATOM     18  C   UNL d   1       2.292   4.391  -8.159  0.00  0.00     0.009 A 
ATOM     19  C   UNL d   1       2.342   3.167  -7.429  0.00  0.00     0.025 A 
ENDBRANCH  12  15
ENDBRANCH   8  11
ENDBRANCH   1   7
BRANCH   5  20
ATOM     20  C   UNL d   1       0.039  -2.689  -0.068  0.00  0.00     0.240 C 
BRANCH  20  21
ATOM     21  O   UNL d   1       1.306  -3.344   0.072  0.00  0.00    -0.345 OA
BRANCH  21  22
ATOM     22  C   UNL d   1       1.254  -4.710  -0.021  0.00  0.00     0.069 A 
ATOM     23  C   UNL d   1       2.374  -5.329  -0.576  0.00  0.00     0.037 A 
ATOM     24  C   UNL d   1       2.407  -6.718  -0.748  0.00  0.00     0.012 A 
ATOM     25  C   UNL d   1       1.321  -7.517  -0.352  0.00  0.00    -0.035 A 
ATOM     26  C   UNL d   1       0.229  -6.886   0.264  0.00  0.00     0.012 A 
ATOM     27  C   UNL d   1       0.195  -5.497   0.428  0.00  0.00     0.037 A 
BRANCH  25  28
ATOM     28  C   UNL d   1       1.330  -9.008  -0.628  0.00  0.00     0.141 C 
ATOM     29  S   UNL d   1      -0.042  -9.496  -1.728  0.00  0.00    -0.148 SA
ATOM     30  C   UNL d   1      -0.306 -11.127  -1.003  0.00  0.00     0.085 C 
ATOM     31  C   UNL d   1      -0.180 -10.991   0.500  0.00  0.00     0.085 C 
ATOM     32  S   UNL d   1       1.300 -10.017   0.891  0.00  0.00    -0.148 SA
ENDBRANCH  25  28
ENDBRANCH  21  22
ENDBRANCH  20  21
ENDBRANCH   5  20
TORSDOF 7
