REMARK  6 active torsions:
REMARK  status: ('A' for Active; 'I' for Inactive)
REMARK    1  A    between atoms: S_8  and  C_2 
REMARK    2  A    between atoms: C_7  and  C_4 
REMARK    3  A    between atoms: O_15  and  C_7 
REMARK    4  A    between atoms: C_14  and  S_8 
REMARK    5  A    between atoms: C_17  and  C_14 
REMARK    6  A    between atoms: C_25  and  O_15 
ROOT
ATOM      1  C   UNL d   1       0.055  -0.745   0.130  0.00  0.00     0.041 A 
ATOM      2  C   UNL d   1       1.151  -1.588   0.122  0.00  0.00     0.057 A 
ATOM      3  C   UNL d   1       0.430   0.652   0.013  0.00  0.00    -0.018 A 
ATOM      4  C   UNL d   1       1.805   0.820  -0.087  0.00  0.00     0.088 A 
ATOM      5  S   UNL d   1       2.608  -0.692   0.007  0.00  0.00    -0.076 SA
ATOM      6  C   UNL d   1      -1.350  -1.113   0.254  0.00  0.00     0.162 C 
ATOM      7  C   UNL d   1      -0.609   1.760  -0.013  0.00  0.00     0.050 C 
ATOM      8  C   UNL d   1      -2.038   1.276   0.375  0.00  0.00    -0.037 C 
ATOM      9  C   UNL d   1      -2.323  -0.087  -0.284  0.00  0.00     0.093 C 
ATOM     10  O   UNL d   1      -1.751  -2.145   0.790  0.00  0.00    -0.292 OA
ATOM     11  C   UNL d   1      -3.086   2.286  -0.119  0.00  0.00     0.015 C 
ATOM     12  C   UNL d   1      -2.173   1.157   1.910  0.00  0.00     0.015 C 
ENDROOT
BRANCH   2  13
ATOM     13  S   UNL d   1       1.250  -3.347   0.243  0.00  0.00    -0.117 SA
BRANCH  13  14
ATOM     14  C   UNL d   1       0.025  -3.915  -0.967  0.00  0.00     0.118 C 
BRANCH  14  15
ATOM     15  C   UNL d   1       0.007  -5.416  -1.113  0.00  0.00    -0.049 A 
ATOM     16  C   UNL d   1      -0.674  -6.211  -0.175  0.00  0.00     0.009 A 
ATOM     17  C   UNL d   1      -0.747  -7.595  -0.340  0.00  0.00     0.024 A 
ATOM     18  C   UNL d   1      -0.136  -8.192  -1.439  0.00  0.00     0.034 A 
ATOM     19  C   UNL d   1       0.559  -7.420  -2.367  0.00  0.00     0.024 A 
ATOM     20 CL   UNL d   1      -0.253  -9.894  -1.662  0.00  0.00    -0.084 Cl
ATOM     21  C   UNL d   1       0.636  -6.035  -2.203  0.00  0.00     0.009 A 
ENDBRANCH  14  15
ENDBRANCH  13  14
ENDBRANCH   2  13
BRANCH   4  22
ATOM     22  C   UNL d   1       2.536   2.064  -0.288  0.00  0.00     0.300 C 
ATOM     23  O   UNL d   1       2.017   3.159  -0.463  0.00  0.00    -0.259 OA
BRANCH  22  24
ATOM     24  O   UNL d   1       3.886   1.850  -0.330  0.00  0.00    -0.317 OA
BRANCH  24  25
ATOM     25  C   UNL d   1       4.685   2.925  -0.840  0.00  0.00     0.174 C 
ATOM     26  C   UNL d   1       4.772   2.782  -2.349  0.00  0.00     0.034 C 
ENDBRANCH  24  25
ENDBRANCH  22  24
ENDBRANCH   4  22
TORSDOF 6
