REMARK  6 active torsions:
REMARK  status: ('A' for Active; 'I' for Inactive)
REMARK    1  A    between atoms: C_2  and  S_1 
REMARK    2  A    between atoms: N_7  and  S_1 
REMARK    3  A    between atoms: C_3  and  C_5 
REMARK    4  A    between atoms: C_4  and  C_6 
REMARK    5  A    between atoms: C_20  and  N_7 
REMARK    6  A    between atoms: C_10  and  C_17 
ROOT
ATOM      1  S   UNL d   1       0.453   2.597   0.806  0.00  0.00     0.263 S 
ATOM      2  O   UNL d   1       0.136   2.579  -0.609  0.00  0.00    -0.200 OA
ATOM      3  O   UNL d   1      -0.337   3.369   1.740  0.00  0.00    -0.200 OA
ENDROOT
BRANCH   1   4
ATOM      4  C   UNL d   1       2.151   3.123   0.951  0.00  0.00     0.081 A 
ATOM      5  C   UNL d   1       3.027   2.921  -0.123  0.00  0.00     0.041 A 
ATOM      6  C   UNL d   1       4.341   3.408  -0.060  0.00  0.00     0.050 A 
ATOM      7  C   UNL d   1       4.753   4.105   1.090  0.00  0.00     0.032 A 
ATOM      8  C   UNL d   1       3.870   4.331   2.164  0.00  0.00     0.050 A 
ATOM      9  C   UNL d   1       2.563   3.827   2.087  0.00  0.00     0.041 A 
BRANCH   6  10
ATOM     10  C   UNL d   1       5.303   3.221  -1.213  0.00  0.00     0.417 C 
ATOM     11  F   UNL d   1       4.758   2.568  -2.276  0.00  0.00    -0.166 F 
ATOM     12  F   UNL d   1       5.769   4.404  -1.696  0.00  0.00    -0.166 F 
ATOM     13  F   UNL d   1       6.403   2.502  -0.856  0.00  0.00    -0.166 F 
ENDBRANCH   6  10
BRANCH   8  14
ATOM     14  C   UNL d   1       4.327   5.143   3.356  0.00  0.00     0.417 C 
ATOM     15  F   UNL d   1       3.362   5.319   4.299  0.00  0.00    -0.166 F 
ATOM     16  F   UNL d   1       5.386   4.578   3.997  0.00  0.00    -0.166 F 
ATOM     17  F   UNL d   1       4.731   6.393   2.997  0.00  0.00    -0.166 F 
ENDBRANCH   8  14
ENDBRANCH   1   4
BRANCH   1  18
ATOM     18  N   UNL d   1       0.496   1.002   1.295  0.00  0.00    -0.281 N 
ATOM     19  H   UNL d   1       0.477   0.291   0.567  0.00  0.00     0.179 HD
BRANCH  18  20
ATOM     20  C   UNL d   1       0.794   0.645   2.629  0.00  0.00     0.043 A 
ATOM     21  C   UNL d   1       2.080   0.218   2.955  0.00  0.00     0.043 A 
ATOM     22  C   UNL d   1       2.387  -0.244   4.250  0.00  0.00    -0.007 A 
ATOM     23  C   UNL d   1       1.353  -0.230   5.206  0.00  0.00     0.014 A 
ATOM     24  C   UNL d   1       0.064   0.200   4.877  0.00  0.00     0.003 A 
ATOM     25  C   UNL d   1      -0.217   0.634   3.584  0.00  0.00     0.030 A 
BRANCH  22  26
ATOM     26  C   UNL d   1       3.739  -0.760   4.557  0.00  0.00     0.045 A 
ATOM     27  N   UNL d   1       4.755  -0.202   3.860  0.00  0.00    -0.345 N 
ATOM     28  C   UNL d   1       5.995  -0.680   4.084  0.00  0.00     0.077 A 
ATOM     29  HN  UNL d   1       4.590   0.549   3.191  1.00  0.00     0.167 HD
ATOM     30  C   UNL d   1       7.131  -0.081   3.317  0.00  0.00     0.089 C 
ATOM     31  N   UNL d   1       6.288  -1.676   4.939  0.00  0.00    -0.356 N 
ATOM     32  C   UNL d   1       5.255  -2.209   5.607  0.00  0.00     0.091 A 
ATOM     33  HN  UNL d   1       7.244  -2.007   5.073  1.00  0.00     0.166 HD
ATOM     34  C   UNL d   1       3.954  -1.788   5.457  0.00  0.00     0.047 A 
ENDBRANCH  22  26
ENDBRANCH  18  20
ENDBRANCH   1  18
TORSDOF 6
