REMARK  4 active torsions:
REMARK  status: ('A' for Active; 'I' for Inactive)
REMARK    1  A    between atoms: N_3  and  C_1 
REMARK    2  A    between atoms: C_6  and  S_18 
REMARK    3  A    between atoms: S_18  and  C_10 
REMARK    4  A    between atoms: N_23  and  C_13 
ROOT
ATOM      1  C   UNL d   1      -2.690  -0.681  -0.046  0.00  0.00     0.121 A 
ATOM      2  N   UNL d   1       1.828   0.017  -0.046  0.00  0.00    -0.289 N 
ATOM      3  C   UNL d   1       1.068   1.147  -0.062  0.00  0.00     0.259 A 
ATOM      4  C   UNL d   1       1.073  -1.115  -0.029  0.00  0.00     0.259 A 
ATOM      5  C   UNL d   1      -0.323  -0.679  -0.059  0.00  0.00     0.050 A 
ATOM      6  C   UNL d   1      -0.328   0.706  -0.084  0.00  0.00     0.049 A 
ATOM      7  C   UNL d   1      -2.725   0.740  -0.072  0.00  0.00     0.041 A 
ATOM      8  C   UNL d   1      -1.489  -1.413  -0.037  0.00  0.00     0.055 A 
ATOM      9  C   UNL d   1      -1.503   1.441  -0.088  0.00  0.00     0.039 A 
ATOM     10  O   UNL d   1       1.437   2.302  -0.041  0.00  0.00    -0.267 OA
ATOM     11  O   UNL d   1       1.442  -2.269   0.014  0.00  0.00    -0.267 OA
ATOM     12  H   UNL d   1       2.834   0.021  -0.015  0.00  0.00     0.172 HD
ENDROOT
BRANCH   7  13
ATOM     13  S   UNL d   1      -4.221   1.712   0.085  0.00  0.00    -0.061 SA
BRANCH  13  14
ATOM     14  C   UNL d   1      -4.692   1.838  -1.599  0.00  0.00     0.135 A 
ATOM     15  S   UNL d   1      -6.325   2.059  -2.071  0.00  0.00    -0.026 SA
ATOM     16  C   UNL d   1      -5.773   2.123  -3.696  0.00  0.00     0.159 A 
ATOM     17  N   UNL d   1      -4.472   1.980  -3.818  0.00  0.00    -0.279 N 
ATOM     18  N   UNL d   1      -3.837   1.812  -2.597  0.00  0.00    -0.286 N 
ATOM     19  HN  UNL d   1      -3.983   1.991  -4.714  1.00  0.00     0.189 HD
ATOM     20  HN  UNL d   1      -2.831   1.684  -2.487  1.00  0.00     0.188 HD
BRANCH  16  21
ATOM     21  N   UNL d   1      -6.629   2.303  -4.720  0.00  0.00    -0.379 N 
ATOM     22  H   UNL d   1      -7.609   2.085  -4.576  0.00  0.00     0.158 HD
ATOM     23  H   UNL d   1      -6.284   2.085  -5.647  0.00  0.00     0.158 HD
ENDBRANCH  16  21
ENDBRANCH  13  14
ENDBRANCH   7  13
BRANCH   1  24
ATOM     24  N   UNL d   1      -3.918  -1.451   0.024  0.00  0.00    -0.114 N 
ATOM     25  O   UNL d   1      -4.720  -1.334  -0.911  0.00  0.00    -0.532 OA
ATOM     26  O   UNL d   1      -4.051  -2.197   1.002  0.00  0.00    -0.532 OA
ENDBRANCH   1  24
TORSDOF 4
