REMARK  6 active torsions:
REMARK  status: ('A' for Active; 'I' for Inactive)
REMARK    1  A    between atoms: N_10  and  S_1 
REMARK    2  A    between atoms: C_11  and  S_1 
REMARK    3  A    between atoms: C_2  and  C_9 
REMARK    4  A    between atoms: C_13  and  C_8 
REMARK    5  A    between atoms: C_12  and  N_10 
REMARK    6  A    between atoms: O_26  and  C_22 
ROOT
ATOM      1  C   UNL d   1       2.236  -2.027  -2.197  0.00  0.00     0.044 A 
ATOM      2  C   UNL d   1       0.960  -2.165  -1.615  0.00  0.00     0.057 A 
ATOM      3  C   UNL d   1       2.495  -2.709  -3.404  0.00  0.00     0.018 A 
ATOM      4  C   UNL d   1      -0.025  -2.927  -2.263  0.00  0.00     0.031 A 
ATOM      5  C   UNL d   1       1.515  -3.479  -4.031  0.00  0.00     0.001 A 
ATOM      6  C   UNL d   1       0.249  -3.573  -3.468  0.00  0.00     0.002 A 
ENDROOT
BRANCH   1   7
ATOM      7  C   UNL d   1       3.324  -1.224  -1.654  0.00  0.00     0.177 A 
ATOM      8  O   UNL d   1       3.312  -0.934  -0.318  0.00  0.00    -0.273 OA
ATOM      9  C   UNL d   1       4.394  -0.102  -0.206  0.00  0.00     0.174 A 
ATOM     10  N   UNL d   1       5.058   0.024  -1.337  0.00  0.00    -0.277 N 
ATOM     11  N   UNL d   1       4.371  -0.715  -2.274  0.00  0.00    -0.277 N 
ATOM     12  HN  UNL d   1       5.911   0.563  -1.488  1.00  0.00     0.189 HD
ATOM     13  HN  UNL d   1       4.622  -0.844  -3.254  1.00  0.00     0.189 HD
BRANCH   9  14
ATOM     14  C   UNL d   1       4.597   0.556   1.076  0.00  0.00     0.019 A 
ATOM     15  C   UNL d   1       5.580   1.554   1.180  0.00  0.00     0.052 A 
ATOM     16  C   UNL d   1       5.745   2.274   2.364  0.00  0.00     0.069 A 
ATOM     17  C   UNL d   1       4.940   1.972   3.464  0.00  0.00     0.037 A 
ATOM     18  C   UNL d   1       3.978   0.966   3.385  0.00  0.00     0.004 A 
ATOM     19  C   UNL d   1       3.805   0.262   2.194  0.00  0.00     0.016 A 
BRANCH  16  20
ATOM     20  O   UNL d   1       6.634   3.295   2.560  0.00  0.00    -0.356 OA
ATOM     21  C   UNL d   1       7.433   3.668   1.442  0.00  0.00     0.210 C 
ENDBRANCH  16  20
ENDBRANCH   9  14
ENDBRANCH   1   7
BRANCH   2  22
ATOM     22  N   UNL d   1       0.582  -1.555  -0.379  0.00  0.00    -0.280 N 
ATOM     23  H   UNL d   1       0.077  -2.131   0.293  0.00  0.00     0.179 HD
BRANCH  22  24
ATOM     24  S   UNL d   1       0.108   0.061  -0.321  0.00  0.00     0.263 S 
ATOM     25  O   UNL d   1       1.115   0.897  -0.930  0.00  0.00    -0.200 OA
ATOM     26  O   UNL d   1      -0.352   0.293   1.035  0.00  0.00    -0.200 OA
BRANCH  24  27
ATOM     27  C   UNL d   1      -1.322   0.104  -1.370  0.00  0.00     0.083 A 
ATOM     28  C   UNL d   1      -2.583  -0.172  -0.835  0.00  0.00     0.049 A 
ATOM     29  C   UNL d   1      -3.700  -0.106  -1.666  0.00  0.00     0.037 A 
ATOM     30 CL   UNL d   1      -5.256  -0.462  -1.028  0.00  0.00    -0.084 Cl
ATOM     31  C   UNL d   1      -3.568   0.242  -3.010  0.00  0.00     0.047 A 
ATOM     32  C   UNL d   1      -2.305   0.534  -3.523  0.00  0.00     0.037 A 
ATOM     33  C   UNL d   1      -1.175   0.474  -2.710  0.00  0.00     0.049 A 
ATOM     34 CL   UNL d   1      -2.138   0.971  -5.178  0.00  0.00    -0.084 Cl
ENDBRANCH  24  27
ENDBRANCH  22  24
ENDBRANCH   2  22
TORSDOF 6
