REMARK  8 active torsions:
REMARK  status: ('A' for Active; 'I' for Inactive)
REMARK       I    between atoms: N_3  and  C_1 
REMARK    1  A    between atoms: C_6  and  C_1 
REMARK    2  A    between atoms: C_5  and  C_2 
REMARK    3  A    between atoms: C_4  and  N_3 
REMARK       I    between atoms: N_13  and  C_5 
REMARK    4  A    between atoms: O_17  and  C_7 
REMARK    5  A    between atoms: O_19  and  C_9 
REMARK    6  A    between atoms: C_20  and  N_13 
REMARK    7  A    between atoms: C_15  and  C_23 
REMARK    8  A    between atoms: C_23  and  C_20 
ROOT
ATOM      1  C   UNL d   1       1.838  -2.642   0.943  0.00  0.00     0.058 A 
ATOM      2  C   UNL d   1       2.219  -4.003   0.891  0.00  0.00     0.050 A 
ATOM      3  C   UNL d   1       0.902  -2.157   0.010  0.00  0.00     0.019 A 
ATOM      4  C   UNL d   1       1.552  -4.852  -0.007  0.00  0.00     0.030 A 
ATOM      5  C   UNL d   1       0.279  -3.014  -0.897  0.00  0.00     0.001 A 
ATOM      6  C   UNL d   1       0.586  -4.366  -0.887  0.00  0.00     0.002 A 
ENDROOT
BRANCH   1   7
ATOM      7  C   UNL d   1       2.471  -1.693   1.911  0.00  0.00     0.253 C 
ATOM      8  O   UNL d   1       3.524  -1.976   2.472  0.00  0.00    -0.268 OA
ATOM      9  N   UNL d   1       1.780  -0.518   2.165  0.00  0.00    -0.356 N 
ATOM     10  H   UNL d   1       0.787  -0.499   1.971  0.00  0.00     0.162 HD
BRANCH   9  11
ATOM     11  C   UNL d   1       2.292   0.459   3.107  0.00  0.00     0.127 C 
BRANCH  11  12
ATOM     12  C   UNL d   1       1.400   1.701   3.217  0.00  0.00     0.058 C 
BRANCH  12  13
ATOM     13  C   UNL d   1       0.027   1.434   3.795  0.00  0.00    -0.054 A 
ATOM     14  C   UNL d   1      -1.130   1.733   3.056  0.00  0.00     0.046 A 
ATOM     15  C   UNL d   1      -2.416   1.535   3.592  0.00  0.00     0.102 A 
ATOM     16  C   UNL d   1      -2.543   0.988   4.878  0.00  0.00     0.101 A 
ATOM     17  C   UNL d   1      -1.389   0.707   5.619  0.00  0.00     0.040 A 
ATOM     18  C   UNL d   1      -0.117   0.926   5.088  0.00  0.00     0.010 A 
BRANCH  15  19
ATOM     19  O   UNL d   1      -3.549   1.839   2.885  0.00  0.00    -0.353 OA
ATOM     20  C   UNL d   1      -3.460   2.963   2.015  0.00  0.00     0.210 C 
ENDBRANCH  15  19
BRANCH  16  21
ATOM     21  O   UNL d   1      -3.697   0.738   5.572  0.00  0.00    -0.353 OA
ATOM     22  C   UNL d   1      -4.861   0.432   4.816  0.00  0.00     0.210 C 
ENDBRANCH  16  21
ENDBRANCH  12  13
ENDBRANCH  11  12
ENDBRANCH   9  11
ENDBRANCH   1   7
BRANCH   2  23
ATOM     23  N   UNL d   1       3.231  -4.531   1.739  0.00  0.00    -0.322 N 
ATOM     24  C   UNL d   1       4.034  -5.608   1.399  0.00  0.00     0.256 C 
ATOM     25  O   UNL d   1       4.104  -6.139   0.297  0.00  0.00    -0.267 OA
ATOM     26  H   UNL d   1       3.566  -3.915   2.482  0.00  0.00     0.169 HD
BRANCH  24  27
ATOM     27  C   UNL d   1       4.856  -6.172   2.496  0.00  0.00     0.038 A 
ATOM     28  C   UNL d   1       6.246  -6.365   2.376  0.00  0.00    -0.046 A 
ATOM     29  C   UNL d   1       7.069  -5.835   1.236  0.00  0.00     0.049 C 
ATOM     30  C   UNL d   1       6.909  -7.090   3.383  0.00  0.00     0.007 A 
ATOM     31  C   UNL d   1       6.208  -7.624   4.465  0.00  0.00     0.001 A 
ATOM     32  C   UNL d   1       4.835  -7.425   4.575  0.00  0.00     0.001 A 
ATOM     33  C   UNL d   1       4.160  -6.697   3.595  0.00  0.00     0.017 A 
ENDBRANCH  24  27
ENDBRANCH   2  23
TORSDOF 8
