REMARK  4 active torsions:
REMARK  status: ('A' for Active; 'I' for Inactive)
REMARK       I    between atoms: N_4  and  C_1 
REMARK       I    between atoms: N_5  and  C_1 
REMARK    1  A    between atoms: C_11  and  N_4 
REMARK    2  A    between atoms: C_12  and  N_5 
REMARK    3  A    between atoms: O_10  and  C_6 
REMARK    4  A    between atoms: C_16  and  O_10 
ROOT
ATOM      1  N   UNL d   1       1.440   3.155  -3.474  0.00  0.00    -0.344 N 
ATOM      2  HN  UNL d   1       1.200   4.096  -3.785  1.00  0.00     0.167 HD
ATOM      3  C   UNL d   1       2.455   2.469  -4.030  0.00  0.00     0.148 A 
ATOM      4  C   UNL d   1       1.044   1.269  -1.994  0.00  0.00     0.051 A 
ATOM      5  C   UNL d   1       0.754   2.541  -2.485  0.00  0.00     0.119 A 
ATOM      6  C   UNL d   1       2.880   1.233  -3.567  0.00  0.00     0.059 A 
ATOM      7  C   UNL d   1       2.162   0.626  -2.529  0.00  0.00     0.035 A 
ENDROOT
BRANCH   4   8
ATOM      8  N   UNL d   1       0.266   0.610  -1.007  0.00  0.00    -0.307 N 
ATOM      9  C   UNL d   1      -1.033   0.978  -0.685  0.00  0.00     0.325 C 
ATOM     10  N   UNL d   1      -1.554   0.214   0.345  0.00  0.00    -0.309 N 
ATOM     11  O   UNL d   1      -1.648   1.869  -1.255  0.00  0.00    -0.247 OA
ATOM     12  H   UNL d   1      -0.888  -0.194   0.984  0.00  0.00     0.170 HD
ATOM     13  H   UNL d   1       0.557  -0.316  -0.734  0.00  0.00     0.170 HD
BRANCH  10  14
ATOM     14  C   UNL d   1      -2.908   0.250   0.758  0.00  0.00     0.036 A 
ATOM     15  C   UNL d   1      -3.939   0.749  -0.049  0.00  0.00     0.031 A 
ATOM     16  C   UNL d   1      -5.262   0.766   0.398  0.00  0.00     0.026 A 
ATOM     17  C   UNL d   1      -5.568   0.268   1.658  0.00  0.00     0.034 A 
ATOM     18  C   UNL d   1      -4.559  -0.245   2.471  0.00  0.00     0.026 A 
ATOM     19 CL   UNL d   1      -7.197   0.277   2.206  0.00  0.00    -0.084 Cl
ATOM     20  C   UNL d   1      -3.232  -0.260   2.021  0.00  0.00     0.031 A 
ENDBRANCH  10  14
ENDBRANCH   4   8
BRANCH   3  21
ATOM     21  O   UNL d   1       3.110   3.014  -5.125  0.00  0.00    -0.293 OA
BRANCH  21  22
ATOM     22  C   UNL d   1       2.364   3.823  -5.952  0.00  0.00     0.093 A 
ATOM     23  C   UNL d   1       2.960   4.965  -6.468  0.00  0.00     0.124 A 
ATOM     24  N   UNL d   1       2.345   5.828  -7.316  0.00  0.00    -0.373 N 
ATOM     25  C   UNL d   1       1.070   5.534  -7.655  0.00  0.00     0.088 A 
ATOM     26  HN  UNL d   1       2.821   6.655  -7.678  1.00  0.00     0.164 HD
ATOM     27  C   UNL d   1       0.393   4.411  -7.209  0.00  0.00     0.020 A 
ATOM     28  C   UNL d   1       1.061   3.533  -6.358  0.00  0.00     0.040 A 
ENDBRANCH  21  22
ENDBRANCH   3  21
TORSDOF 4
