REMARK  6 active torsions:
REMARK  status: ('A' for Active; 'I' for Inactive)
REMARK    1  A    between atoms: C_8  and  N_1 
REMARK    2  A    between atoms: C_12  and  C_2 
REMARK    3  A    between atoms: S_11  and  C_5 
REMARK    4  A    between atoms: C_28  and  S_11 
REMARK    5  A    between atoms: C_15  and  C_28 
REMARK    6  A    between atoms: C_19  and  C_20 
ROOT
ATOM      1  N   UNL d   1      -0.337  -1.308  -0.011  0.00  0.00    -0.275 N 
ATOM      2  C   UNL d   1       0.909  -0.661  -0.076  0.00  0.00     0.139 A 
ATOM      3  N   UNL d   1       0.710   0.646  -0.117  0.00  0.00    -0.282 N 
ATOM      4  HN  UNL d   1       1.442   1.356  -0.130  1.00  0.00     0.188 HD
ATOM      5  C   UNL d   1      -1.252  -0.263  -0.072  0.00  0.00     0.167 A 
ATOM      6  N   UNL d   1      -0.630   0.891  -0.138  0.00  0.00    -0.278 N 
ATOM      7  HN  UNL d   1      -1.073   1.808  -0.196  1.00  0.00     0.189 HD
ENDROOT
BRANCH   2   8
ATOM      8  C   UNL d   1       2.247  -1.268  -0.151  0.00  0.00     0.010 A 
ATOM      9  C   UNL d   1       2.530  -2.371  -0.957  0.00  0.00     0.016 A 
ATOM     10  C   UNL d   1       3.797  -2.970  -0.938  0.00  0.00     0.009 A 
ATOM     11  C   UNL d   1       4.844  -2.453  -0.154  0.00  0.00    -0.051 A 
ATOM     12  C   UNL d   1       4.570  -1.298   0.594  0.00  0.00     0.009 A 
ATOM     13  C   UNL d   1       3.292  -0.716   0.597  0.00  0.00     0.016 A 
BRANCH  11  14
ATOM     14  C   UNL d   1       6.216  -3.152  -0.140  0.00  0.00    -0.024 C 
ATOM     15  C   UNL d   1       7.290  -2.401   0.680  0.00  0.00     0.019 C 
ATOM     16  C   UNL d   1       6.067  -4.558   0.480  0.00  0.00     0.019 C 
ATOM     17  C   UNL d   1       6.758  -3.290  -1.579  0.00  0.00     0.019 C 
ENDBRANCH  11  14
ENDBRANCH   2   8
BRANCH   1  18
ATOM     18  C   UNL d   1      -0.586  -2.715   0.067  0.00  0.00     0.046 A 
ATOM     19  C   UNL d   1      -1.642  -3.291  -0.657  0.00  0.00     0.069 A 
ATOM     20  C   UNL d   1      -1.763  -4.667  -0.643  0.00  0.00     0.107 A 
ATOM     21  O   UNL d   1      -2.705  -5.385  -1.312  0.00  0.00    -0.323 OA
ATOM     22  C   UNL d   1      -0.887  -5.470   0.046  0.00  0.00     0.105 A 
ATOM     23  C   UNL d   1      -2.332  -6.731  -0.949  0.00  0.00     0.352 A 
ATOM     24  O   UNL d   1      -1.159  -6.792  -0.110  0.00  0.00    -0.323 OA
ATOM     25  C   UNL d   1       0.145  -4.942   0.787  0.00  0.00     0.042 A 
ATOM     26  C   UNL d   1       0.282  -3.549   0.812  0.00  0.00     0.033 A 
ENDBRANCH   1  18
BRANCH   5  27
ATOM     27  S   UNL d   1      -2.969  -0.395   0.154  0.00  0.00    -0.092 SA
BRANCH  27  28
ATOM     28  C   UNL d   1      -3.547   0.996  -0.866  0.00  0.00     0.087 C 
BRANCH  28  29
ATOM     29  C   UNL d   1      -5.047   1.037  -0.812  0.00  0.00    -0.005 A 
ATOM     30  C   UNL d   1      -5.892  -0.048  -1.438  0.00  0.00     0.006 A 
ATOM     31  C   UNL d   1      -5.853   1.317  -2.060  0.00  0.00     0.006 A 
ENDBRANCH  28  29
ENDBRANCH  27  28
ENDBRANCH   5  27
TORSDOF 6
