REMARK  7 active torsions:
REMARK  status: ('A' for Active; 'I' for Inactive)
REMARK    1  A    between atoms: S_10  and  C_2 
REMARK    2  A    between atoms: C_16  and  S_10 
REMARK    3  A    between atoms: C_11  and  C_13 
REMARK    4  A    between atoms: C_12  and  C_11 
REMARK    5  A    between atoms: O_17  and  C_12 
REMARK    6  A    between atoms: C_13  and  C_16 
REMARK    7  A    between atoms: C_21  and  O_17 
ROOT
ATOM      1  C   UNL d   1      -0.453   1.516  -0.127  0.00  0.00     0.084 A 
ATOM      2  C   UNL d   1      -1.199   0.344  -0.278  0.00  0.00     0.091 A 
ATOM      3  N   UNL d   1      -0.639  -0.888  -0.222  0.00  0.00    -0.353 N 
ATOM      4  HN  UNL d   1      -1.216  -1.725  -0.295  1.00  0.00     0.166 HD
ATOM      5  C   UNL d   1       0.951   1.420   0.009  0.00  0.00    -0.031 A 
ATOM      6  C   UNL d   1       1.551   0.138   0.016  0.00  0.00    -0.032 A 
ATOM      7  C   UNL d   1       0.708  -0.985  -0.067  0.00  0.00     0.012 A 
ATOM      8  C   UNL d   1      -1.108   2.792  -0.127  0.00  0.00     0.103 C 
ATOM      9  N   UNL d   1      -1.597   3.848  -0.119  0.00  0.00    -0.191 NA
ATOM     10  C   UNL d   1       1.812   2.660   0.083  0.00  0.00     0.050 C 
ATOM     11  C   UNL d   1       3.047  -0.040   0.072  0.00  0.00     0.050 C 
ATOM     12  C   UNL d   1       1.222  -2.397  -0.005  0.00  0.00     0.068 C 
ENDROOT
BRANCH   2  13
ATOM     13  S   UNL d   1      -2.921   0.405  -0.786  0.00  0.00    -0.103 SA
BRANCH  13  14
ATOM     14  C   UNL d   1      -3.586  -1.122  -0.055  0.00  0.00     0.159 C 
BRANCH  14  15
ATOM     15  C   UNL d   1      -3.748  -1.028   1.452  0.00  0.00     0.145 C 
ATOM     16  O   UNL d   1      -3.319  -0.071   2.110  0.00  0.00    -0.297 OA
BRANCH  15  17
ATOM     17  C   UNL d   1      -4.445  -2.136   2.207  0.00  0.00     0.190 C 
BRANCH  17  18
ATOM     18  C   UNL d   1      -5.028  -3.291   1.451  0.00  0.00     0.265 C 
ATOM     19  O   UNL d   1      -5.063  -3.421   0.237  0.00  0.00    -0.265 OA
BRANCH  18  20
ATOM     20  O   UNL d   1      -5.535  -4.197   2.339  0.00  0.00    -0.322 OA
BRANCH  20  21
ATOM     21  C   UNL d   1      -6.147  -5.364   1.767  0.00  0.00     0.174 C 
ATOM     22  C   UNL d   1      -5.093  -6.403   1.433  0.00  0.00     0.034 C 
ENDBRANCH  20  21
ENDBRANCH  18  20
ENDBRANCH  17  18
ENDBRANCH  15  17
ENDBRANCH  14  15
ENDBRANCH  13  14
ENDBRANCH   2  13
TORSDOF 7
