REMARK  9 active torsions:
REMARK  status: ('A' for Active; 'I' for Inactive)
REMARK    1  A    between atoms: N_3  and  C_2 
REMARK    2  A    between atoms: S_13  and  C_4 
REMARK    3  A    between atoms: C_15  and  C_5 
REMARK    4  A    between atoms: C_10  and  C_14 
REMARK    5  A    between atoms: C_11  and  S_13 
REMARK    6  A    between atoms: C_28  and  C_27 
REMARK    7  A    between atoms: C_29  and  C_28 
REMARK    8  A    between atoms: C_31  and  C_29 
REMARK    9  A    between atoms: C_30  and  C_31 
ROOT
ATOM      1  N   UNL d   1      -0.026  -0.265   1.131  0.00  0.00    -0.320 N 
ATOM      2  C   UNL d   1       0.325   0.980   0.707  0.00  0.00     0.165 A 
ATOM      3  C   UNL d   1      -0.310  -0.996   0.001  0.00  0.00     0.132 A 
ATOM      4  N   UNL d   1      -0.183  -0.191  -1.042  0.00  0.00    -0.283 N 
ATOM      5  HN  UNL d   1      -0.365  -0.444  -2.013  1.00  0.00     0.188 HD
ATOM      6  N   UNL d   1       0.235   1.049  -0.597  0.00  0.00    -0.278 N 
ATOM      7  HN  UNL d   1       0.436   1.865  -1.176  1.00  0.00     0.189 HD
ATOM      8  H   UNL d   1      -0.083  -0.574   2.090  0.00  0.00     0.169 HD
ENDROOT
BRANCH   2   9
ATOM      9  S   UNL d   1       0.922   2.173   1.800  0.00  0.00    -0.050 SA
BRANCH   9  10
ATOM     10  C   UNL d   1      -0.557   3.160   2.002  0.00  0.00     0.041 A 
ATOM     11  C   UNL d   1      -1.454   3.036   3.074  0.00  0.00     0.120 A 
ATOM     12  C   UNL d   1      -2.578   3.870   3.212  0.00  0.00     0.053 A 
ATOM     13  C   UNL d   1      -2.829   4.869   2.261  0.00  0.00     0.050 A 
ATOM     14  C   UNL d   1      -1.911   5.036   1.211  0.00  0.00     0.017 A 
ATOM     15  C   UNL d   1      -0.794   4.195   1.085  0.00  0.00     0.022 A 
BRANCH  11  16
ATOM     16  N   UNL d   1      -1.244   2.038   4.107  0.00  0.00    -0.114 N 
ATOM     17  O   UNL d   1      -1.214   0.848   3.755  0.00  0.00    -0.532 OA
ATOM     18  O   UNL d   1      -1.146   2.447   5.271  0.00  0.00    -0.532 OA
ENDBRANCH  11  16
BRANCH  13  19
ATOM     19  C   UNL d   1      -4.065   5.736   2.343  0.00  0.00     0.417 C 
ATOM     20  F   UNL d   1      -4.877   5.414   3.388  0.00  0.00    -0.166 F 
ATOM     21  F   UNL d   1      -3.773   7.056   2.486  0.00  0.00    -0.166 F 
ATOM     22  F   UNL d   1      -4.838   5.637   1.227  0.00  0.00    -0.166 F 
ENDBRANCH  13  19
ENDBRANCH   9  10
ENDBRANCH   2   9
BRANCH   3  23
ATOM     23  C   UNL d   1      -0.696  -2.408  -0.011  0.00  0.00     0.009 A 
ATOM     24  C   UNL d   1      -1.486  -2.912  -1.053  0.00  0.00     0.016 A 
ATOM     25  C   UNL d   1      -1.868  -4.257  -1.085  0.00  0.00     0.008 A 
ATOM     26  C   UNL d   1      -1.456  -5.139  -0.075  0.00  0.00    -0.058 A 
ATOM     27  C   UNL d   1      -0.644  -4.645   0.954  0.00  0.00     0.008 A 
ATOM     28  C   UNL d   1      -0.275  -3.294   0.990  0.00  0.00     0.016 A 
BRANCH  26  29
ATOM     29  C   UNL d   1      -1.863  -6.594  -0.109  0.00  0.00     0.038 C 
BRANCH  29  30
ATOM     30  C   UNL d   1      -2.624  -7.067   1.136  0.00  0.00     0.005 C 
BRANCH  30  31
ATOM     31  C   UNL d   1      -3.958  -6.343   1.343  0.00  0.00    -0.000 C 
BRANCH  31  32
ATOM     32  C   UNL d   1      -4.665  -6.856   2.597  0.00  0.00    -0.005 C 
ATOM     33  C   UNL d   1      -5.984  -6.139   2.831  0.00  0.00     0.005 C 
ENDBRANCH  31  32
ENDBRANCH  30  31
ENDBRANCH  29  30
ENDBRANCH  26  29
ENDBRANCH   3  23
TORSDOF 9
