REMARK  4 active torsions:
REMARK  status: ('A' for Active; 'I' for Inactive)
REMARK    1  A    between atoms: C_2  and  C_1 
REMARK    2  A    between atoms: C_3  and  C_5 
REMARK    3  A    between atoms: N_6  and  C_4 
REMARK       I    between atoms: C_8  and  N_6 
REMARK    4  A    between atoms: C_10  and  C_8 
ROOT
ATOM      1  N   UNL d   1       0.862  -2.441   0.043  0.00  0.00    -0.323 N 
ATOM      2  C   UNL d   1       0.638  -2.040  -1.265  0.00  0.00     0.245 C 
ATOM      3  O   UNL d   1       0.422  -2.792  -2.205  0.00  0.00    -0.268 OA
ATOM      4  H   UNL d   1       1.446  -1.826   0.595  0.00  0.00     0.169 HD
ENDROOT
BRANCH   1   5
ATOM      5  C   UNL d   1       0.841  -3.809   0.398  0.00  0.00     0.050 A 
ATOM      6  C   UNL d   1      -0.197  -4.694   0.058  0.00  0.00     0.074 A 
ATOM      7  C   UNL d   1      -0.011  -6.073   0.302  0.00  0.00     0.018 A 
ATOM      8  C   UNL d   1       1.139  -6.550   0.928  0.00  0.00     0.001 A 
ATOM      9  C   UNL d   1       2.107  -5.651   1.358  0.00  0.00     0.002 A 
ATOM     10  C   UNL d   1       1.956  -4.286   1.105  0.00  0.00     0.030 A 
BRANCH   6  11
ATOM     11  C   UNL d   1      -1.578  -4.273  -0.394  0.00  0.00     0.419 C 
ATOM     12  F   UNL d   1      -1.773  -2.948  -0.634  0.00  0.00    -0.166 F 
ATOM     13  F   UNL d   1      -2.505  -4.577   0.571  0.00  0.00    -0.166 F 
ATOM     14  F   UNL d   1      -2.004  -4.936  -1.506  0.00  0.00    -0.166 F 
ENDBRANCH   6  11
ENDBRANCH   1   5
BRANCH   2  15
ATOM     15  C   UNL d   1       0.721  -0.564  -1.442  0.00  0.00     0.075 C 
ATOM     16  C   UNL d   1       0.784  -0.069  -2.687  0.00  0.00     0.025 C 
BRANCH  16  17
ATOM     17  C   UNL d   1       0.669   1.317  -3.026  0.00  0.00     0.011 A 
ATOM     18  C   UNL d   1       1.020   1.947  -4.222  0.00  0.00    -0.044 A 
ATOM     19  C   UNL d   1       0.581   3.315  -4.257  0.00  0.00     0.015 A 
ATOM     20  C   UNL d   1       1.726   1.323  -5.387  0.00  0.00     0.049 C 
ATOM     21  C   UNL d   1      -0.039   3.704  -3.096  0.00  0.00     0.051 A 
ATOM     22  S   UNL d   1      -0.078   2.449  -1.951  0.00  0.00    -0.102 SA
ENDBRANCH  16  17
ENDBRANCH   2  15
TORSDOF 4
