REMARK  3 active torsions:
REMARK  status: ('A' for Active; 'I' for Inactive)
REMARK    1  A    between atoms: S_2  and  N_1 
REMARK    2  A    between atoms: C_8  and  S_2 
REMARK    3  A    between atoms: C_11  and  C_6 
ROOT
ATOM      1  N   UNL d   1      -0.281  -1.101  -0.111  0.00  0.00    -0.187 N 
ATOM      2  N   UNL d   1       1.030  -0.760  -0.008  0.00  0.00    -0.288 N 
ATOM      3  HN  UNL d   1       1.836  -1.383   0.051  1.00  0.00     0.188 HD
ATOM      4  C   UNL d   1      -1.114  -0.007  -0.062  0.00  0.00     0.143 A 
ATOM      5  C   UNL d   1      -0.302   1.110  -0.018  0.00  0.00     0.016 A 
ATOM      6  C   UNL d   1       1.023   0.579  -0.002  0.00  0.00     0.035 A 
ATOM      7  C   UNL d   1       2.319   1.304   0.066  0.00  0.00     0.070 C 
ENDROOT
BRANCH   1   8
ATOM      8  S   UNL d   1      -0.901  -2.720  -0.007  0.00  0.00     0.282 S 
ATOM      9  O   UNL d   1      -2.232  -2.661  -0.581  0.00  0.00    -0.198 OA
ATOM     10  O   UNL d   1       0.129  -3.599  -0.529  0.00  0.00    -0.198 OA
BRANCH   8  11
ATOM     11  C   UNL d   1      -1.047  -3.016   1.736  0.00  0.00     0.081 A 
ATOM     12  C   UNL d   1      -2.280  -3.416   2.263  0.00  0.00     0.027 A 
ATOM     13  C   UNL d   1      -2.397  -3.663   3.633  0.00  0.00     0.025 A 
ATOM     14  C   UNL d   1      -1.285  -3.514   4.463  0.00  0.00     0.034 A 
ATOM     15  C   UNL d   1      -0.053  -3.126   3.934  0.00  0.00     0.025 A 
ATOM     16 CL   UNL d   1      -1.435  -3.818   6.149  0.00  0.00    -0.084 Cl
ATOM     17  C   UNL d   1       0.072  -2.880   2.564  0.00  0.00     0.027 A 
ENDBRANCH   8  11
ENDBRANCH   1   8
BRANCH   5  18
ATOM     18  C   UNL d   1      -0.791   2.483   0.046  0.00  0.00    -0.023 A 
ATOM     19  C   UNL d   1      -1.975   2.796   0.730  0.00  0.00     0.012 A 
ATOM     20  C   UNL d   1      -2.400   4.123   0.854  0.00  0.00     0.001 A 
ATOM     21  C   UNL d   1      -1.648   5.154   0.296  0.00  0.00     0.000 A 
ATOM     22  C   UNL d   1      -0.485   4.857  -0.407  0.00  0.00     0.001 A 
ATOM     23  C   UNL d   1      -0.066   3.530  -0.541  0.00  0.00     0.012 A 
ENDBRANCH   5  18
TORSDOF 3
