REMARK  5 active torsions:
REMARK  status: ('A' for Active; 'I' for Inactive)
REMARK    1  A    between atoms: C_2  and  C_1 
REMARK    2  A    between atoms: O_9  and  C_2 
REMARK    3  A    between atoms: N_8  and  C_3 
REMARK    4  A    between atoms: N_4  and  C_6 
REMARK    5  A    between atoms: O_10  and  N_4 
ROOT
ATOM      1  C   UNL d   1       1.464  -0.244   0.097  0.00  0.00     0.066 A 
ATOM      2  C   UNL d   1       0.585  -1.349  -0.031  0.00  0.00     0.049 A 
ATOM      3  C   UNL d   1       0.935   1.064   0.152  0.00  0.00     0.020 A 
ATOM      4  C   UNL d   1      -0.800  -1.081  -0.057  0.00  0.00     0.030 A 
ATOM      5  C   UNL d   1      -0.437   1.295   0.099  0.00  0.00     0.001 A 
ATOM      6  C   UNL d   1      -1.306   0.220   0.008  0.00  0.00     0.002 A 
ENDROOT
BRANCH   2   7
ATOM      7  N   UNL d   1       1.054  -2.667  -0.200  0.00  0.00    -0.350 N 
ATOM      8  C   UNL d   1       0.398  -3.730  -0.742  0.00  0.00     0.204 C 
ATOM      9  H   UNL d   1       2.036  -2.819   0.018  0.00  0.00     0.166 HD
BRANCH   8  10
ATOM     10  N   UNL d   1       0.902  -4.911  -0.899  0.00  0.00    -0.265 N 
ATOM     11  HN  UNL d   1       1.841  -5.200  -0.625  1.00  0.00     0.194 HD
BRANCH  10  12
ATOM     12  O   UNL d   1      -0.060  -5.728  -1.510  0.00  0.00    -0.289 OA
ATOM     13  H   UNL d   1       0.411  -6.576  -1.607  0.00  0.00     0.244 HD
ENDBRANCH  10  12
ENDBRANCH   8  10
ENDBRANCH   2   7
BRANCH   1  14
ATOM     14  C   UNL d   1       2.953  -0.322   0.185  0.00  0.00     0.295 C 
ATOM     15  O   UNL d   1       3.667   0.670   0.255  0.00  0.00    -0.259 OA
BRANCH  14  16
ATOM     16  O   UNL d   1       3.404  -1.603   0.212  0.00  0.00    -0.322 OA
ATOM     17  C   UNL d   1       4.826  -1.737   0.329  0.00  0.00     0.213 C 
ENDBRANCH  14  16
ENDBRANCH   1  14
TORSDOF 5
