REMARK  6 active torsions:
REMARK  status: ('A' for Active; 'I' for Inactive)
REMARK    1  A    between atoms: C_3  and  N_1 
REMARK    2  A    between atoms: C_22  and  N_4 
REMARK    3  A    between atoms: C_13  and  C_7 
REMARK    4  A    between atoms: C_16  and  C_10 
REMARK    5  A    between atoms: C_28  and  C_22 
REMARK    6  A    between atoms: C_29  and  C_28 
ROOT
ATOM      1  N   UNL d   1      -0.103   0.961  -0.048  0.00  0.00    -0.209 N 
ATOM      2  C   UNL d   1       1.070   0.248  -0.019  0.00  0.00     0.334 A 
ATOM      3  N   UNL d   1       0.736  -1.105  -0.021  0.00  0.00    -0.316 N 
ATOM      4  C   UNL d   1      -1.200   0.140  -0.019  0.00  0.00     0.261 A 
ATOM      5  C   UNL d   1      -0.700  -1.301   0.027  0.00  0.00     0.215 A 
ATOM      6  O   UNL d   1       2.215   0.659  -0.032  0.00  0.00    -0.246 OA
ATOM      7  O   UNL d   1      -2.389   0.438   0.040  0.00  0.00    -0.270 OA
ENDROOT
BRANCH   1   8
ATOM      8  C   UNL d   1      -0.139   2.324   0.103  0.00  0.00     0.178 A 
ATOM      9  S   UNL d   1      -1.486   3.208  -0.478  0.00  0.00    -0.036 SA
ATOM     10  C   UNL d   1      -0.774   4.625   0.188  0.00  0.00     0.077 A 
ATOM     11  N   UNL d   1       0.402   4.400   0.741  0.00  0.00    -0.295 N 
ATOM     12  N   UNL d   1       0.787   3.079   0.651  0.00  0.00    -0.278 N 
ATOM     13  HN  UNL d   1       0.965   5.125   1.186  1.00  0.00     0.187 HD
ATOM     14  HN  UNL d   1       1.689   2.728   0.973  1.00  0.00     0.189 HD
BRANCH  10  15
ATOM     15  C   UNL d   1      -1.482   5.970   0.171  0.00  0.00    -0.001 C 
ATOM     16  C   UNL d   1      -2.822   5.873   0.924  0.00  0.00     0.021 C 
ATOM     17  C   UNL d   1      -0.600   7.021   0.876  0.00  0.00     0.021 C 
ATOM     18  C   UNL d   1      -1.749   6.452  -1.267  0.00  0.00     0.021 C 
ENDBRANCH  10  15
ENDBRANCH   1   8
BRANCH   3  19
ATOM     19  C   UNL d   1       1.695  -2.198  -0.019  0.00  0.00     0.129 C 
BRANCH  19  20
ATOM     20  C   UNL d   1       1.490  -3.192  -1.160  0.00  0.00     0.020 C 
BRANCH  20  21
ATOM     21  C   UNL d   1       1.658  -2.569  -2.546  0.00  0.00    -0.003 C 
ATOM     22  C   UNL d   1       1.442  -3.621  -3.624  0.00  0.00     0.005 C 
ENDBRANCH  20  21
ENDBRANCH  19  20
ENDBRANCH   3  19
BRANCH   5  23
ATOM     23  C   UNL d   1      -1.161  -2.039   1.266  0.00  0.00    -0.025 A 
ATOM     24  C   UNL d   1      -1.968  -3.180   1.137  0.00  0.00     0.035 A 
ATOM     25  C   UNL d   1      -2.368  -3.908   2.265  0.00  0.00     0.056 A 
ATOM     26 CL   UNL d   1      -3.321  -5.325   2.005  0.00  0.00    -0.083 Cl
ATOM     27  C   UNL d   1      -1.976  -3.490   3.540  0.00  0.00     0.055 A 
ATOM     28  C   UNL d   1      -1.193  -2.342   3.681  0.00  0.00     0.026 A 
ATOM     29 CL   UNL d   1      -2.411  -4.349   4.973  0.00  0.00    -0.083 Cl
ATOM     30  C   UNL d   1      -0.789  -1.621   2.555  0.00  0.00     0.011 A 
ENDBRANCH   5  23
TORSDOF 6
