REMARK  1 active torsions:
REMARK  status: ('A' for Active; 'I' for Inactive)
REMARK    1  A    between atoms: C_7  and  C_8 
ROOT
ATOM      1  N   UNL d   1      -1.238  -1.401  -0.008  0.00  0.00    -0.316 N 
ATOM      2  C   UNL d   1      -0.015  -0.716  -0.013  0.00  0.00     0.079 A 
ATOM      3  N   UNL d   1      -1.225   1.384   0.000  0.00  0.00    -0.317 N 
ATOM      4  C   UNL d   1      -2.465  -0.778   0.019  0.00  0.00     0.314 A 
ATOM      5  C   UNL d   1      -0.016   0.683  -0.006  0.00  0.00     0.064 A 
ATOM      6  C   UNL d   1      -2.458   0.769   0.021  0.00  0.00     0.314 A 
ATOM      7  C   UNL d   1       2.412   0.710   0.022  0.00  0.00     0.051 A 
ATOM      8  C   UNL d   1       1.203  -1.403  -0.014  0.00  0.00     0.040 A 
ATOM      9  C   UNL d   1       1.186   1.394   0.006  0.00  0.00     0.048 A 
ATOM     10  C   UNL d   1       2.408  -0.696   0.006  0.00  0.00     0.037 A 
ATOM     11  O   UNL d   1      -3.510  -1.413   0.044  0.00  0.00    -0.262 OA
ATOM     12  O   UNL d   1      -3.496   1.416   0.043  0.00  0.00    -0.262 OA
ATOM     13 BR   UNL d   1       1.272  -3.299  -0.030  0.00  0.00    -0.049 Br
ATOM     14  H   UNL d   1      -1.250  -2.414  -0.005  0.00  0.00     0.169 HD
ATOM     15  H   UNL d   1      -1.244   2.395   0.005  0.00  0.00     0.169 HD
ENDROOT
BRANCH   7  16
ATOM     16  C   UNL d   1       3.723   1.458   0.075  0.00  0.00     0.417 C 
ATOM     17  F   UNL d   1       3.573   2.811   0.078  0.00  0.00    -0.166 F 
ATOM     18  F   UNL d   1       4.440   1.157   1.192  0.00  0.00    -0.166 F 
ATOM     19  F   UNL d   1       4.528   1.169  -0.982  0.00  0.00    -0.166 F 
ENDBRANCH   7  16
TORSDOF 1
