REMARK  5 active torsions:
REMARK  status: ('A' for Active; 'I' for Inactive)
REMARK    1  A    between atoms: C_6  and  C_1 
REMARK    2  A    between atoms: C_7  and  C_3 
REMARK    3  A    between atoms: S_14  and  C_5 
REMARK    4  A    between atoms: C_9  and  C_7 
REMARK    5  A    between atoms: N_18  and  C_12 
ROOT
ATOM      1  C   UNL d   1      -0.228  -1.079   0.141  0.00  0.00     0.025 A 
ATOM      2  C   UNL d   1      -0.745   0.278   0.103  0.00  0.00     0.081 A 
ATOM      3  C   UNL d   1       1.169  -1.101   0.048  0.00  0.00     0.069 A 
ATOM      4  S   UNL d   1       1.789   0.492  -0.138  0.00  0.00    -0.077 SA
ATOM      5  C   UNL d   1       0.251   1.218  -0.063  0.00  0.00     0.063 A 
ATOM      6  C   UNL d   1      -2.122   0.664   0.275  0.00  0.00     0.102 C 
ATOM      7  N   UNL d   1      -3.222   1.009   0.398  0.00  0.00    -0.191 NA
ENDROOT
BRANCH   1   8
ATOM      8  C   UNL d   1      -1.116  -2.312   0.276  0.00  0.00     0.018 A 
ATOM      9  S   UNL d   1      -2.732  -2.388  -0.311  0.00  0.00    -0.101 SA
ATOM     10  C   UNL d   1      -2.974  -3.962   0.292  0.00  0.00     0.050 A 
ATOM     11  C   UNL d   1      -1.841  -4.453   0.895  0.00  0.00     0.008 A 
ATOM     12  C   UNL d   1      -0.770  -3.506   0.880  0.00  0.00     0.020 A 
ENDBRANCH   1   8
BRANCH   5  13
ATOM     13  S   UNL d   1       0.109   2.978  -0.120  0.00  0.00    -0.126 SA
ATOM     14  C   UNL d   1      -0.933   3.230  -1.579  0.00  0.00     0.096 C 
ENDBRANCH   5  13
BRANCH   3  15
ATOM     15  C   UNL d   1       2.082  -2.238  -0.109  0.00  0.00     0.191 C 
ATOM     16  O   UNL d   1       1.718  -3.288  -0.648  0.00  0.00    -0.287 OA
BRANCH  15  17
ATOM     17  C   UNL d   1       3.531  -2.227   0.293  0.00  0.00     0.073 C 
ATOM     18  C   UNL d   1       4.172  -1.475   1.199  0.00  0.00     0.088 C 
BRANCH  18  19
ATOM     19  N   UNL d   1       5.518  -1.507   1.567  0.00  0.00    -0.398 N 
ATOM     20  C   UNL d   1       6.079  -0.554   2.532  0.00  0.00     0.148 C 
ATOM     21  C   UNL d   1       6.545  -2.313   0.899  0.00  0.00     0.148 C 
ENDBRANCH  18  19
ENDBRANCH  15  17
ENDBRANCH   3  15
TORSDOF 5
