REMARK  4 active torsions:
REMARK  status: ('A' for Active; 'I' for Inactive)
REMARK    1  A    between atoms: S_2  and  C_1 
REMARK    2  A    between atoms: C_14  and  S_2 
REMARK    3  A    between atoms: C_7  and  C_3 
REMARK       I    between atoms: N_4  and  C_7 
REMARK    4  A    between atoms: S_16  and  C_6 
ROOT
ATOM      1  C   UNL d   1       1.512  -0.735  -0.091  0.00  0.00     0.084 C 
ATOM      2  C   UNL d   1       0.048   1.109  -0.279  0.00  0.00     0.075 C 
ATOM      3  C   UNL d   1       1.368   0.679  -0.299  0.00  0.00     0.050 C 
ATOM      4  C   UNL d   1       0.277  -1.356   0.001  0.00  0.00     0.063 C 
ATOM      5  S   UNL d   1      -0.988  -0.240  -0.306  0.00  0.00    -0.076 SA
ENDROOT
BRANCH   2   6
ATOM      6  C   UNL d   1      -0.402   2.505  -0.400  0.00  0.00     0.265 C 
ATOM      7  N   UNL d   1      -1.583   2.929   0.229  0.00  0.00    -0.313 N 
ATOM      8  C   UNL d   1      -2.088   4.254   0.202  0.00  0.00     0.043 A 
ATOM      9  C   UNL d   1      -2.428   2.161   1.171  0.00  0.00     0.137 A 
ATOM     10  C   UNL d   1      -3.232   4.358   0.998  0.00  0.00    -0.030 A 
ATOM     11  C   UNL d   1      -1.613   5.370  -0.469  0.00  0.00     0.030 A 
ATOM     12  C   UNL d   1      -3.929   5.553   1.129  0.00  0.00     0.009 A 
ATOM     13  C   UNL d   1      -3.582   3.057   1.632  0.00  0.00     0.061 A 
ATOM     14  C   UNL d   1      -3.453   6.674   0.456  0.00  0.00     0.001 A 
ATOM     15  C   UNL d   1      -2.300   6.584  -0.334  0.00  0.00     0.002 A 
ATOM     16  O   UNL d   1       0.322   3.291  -1.012  0.00  0.00    -0.267 OA
ENDBRANCH   2   6
BRANCH   1  17
ATOM     17  S   UNL d   1       3.032  -1.565   0.013  0.00  0.00     0.180 S 
ATOM     18  O   UNL d   1       2.982  -2.260   1.281  0.00  0.00    -0.222 OA
ATOM     19  O   UNL d   1       3.096  -2.269  -1.253  0.00  0.00    -0.222 OA
BRANCH  17  20
ATOM     20  C   UNL d   1       4.376  -0.385   0.050  0.00  0.00     0.105 C 
ATOM     21  C   UNL d   1       4.405   0.446   1.327  0.00  0.00     0.026 C 
ATOM     22  C   UNL d   1       5.700  -1.142  -0.092  0.00  0.00     0.026 C 
ENDBRANCH  17  20
ENDBRANCH   1  17
BRANCH   4  23
ATOM     23  S   UNL d   1      -0.189  -3.005   0.411  0.00  0.00    -0.126 SA
ATOM     24  C   UNL d   1       0.677  -4.016  -0.801  0.00  0.00     0.096 C 
ENDBRANCH   4  23
TORSDOF 4
