REMARK  3 active torsions:
REMARK  status: ('A' for Active; 'I' for Inactive)
REMARK    1  A    between atoms: C_3  and  S_1 
REMARK    2  A    between atoms: C_4  and  S_1 
REMARK    3  A    between atoms: C_2  and  C_4 
ROOT
ATOM      1  C   UNL d   1       0.681  -1.056   1.387  0.00  0.00     0.189 C 
ENDROOT
BRANCH   1   2
ATOM      2  C   UNL d   1       1.118  -2.439   0.987  0.00  0.00     0.016 A 
ATOM      3  C   UNL d   1       2.427  -2.917   1.140  0.00  0.00     0.044 A 
ATOM      4 CL   UNL d   1       3.679  -1.946   1.824  0.00  0.00    -0.084 Cl
ATOM      5  C   UNL d   1       2.756  -4.229   0.772  0.00  0.00     0.024 A 
ATOM      6  C   UNL d   1       1.785  -5.081   0.246  0.00  0.00     0.005 A 
ATOM      7  C   UNL d   1       0.485  -4.618   0.078  0.00  0.00     0.043 A 
ATOM      8  C   UNL d   1       0.168  -3.312   0.443  0.00  0.00     0.125 A 
ATOM      9  F   UNL d   1      -1.099  -2.899   0.294  0.00  0.00    -0.205 F 
ENDBRANCH   1   2
BRANCH   1  10
ATOM     10  S   UNL d   1       0.890   0.065   0.007  0.00  0.00     0.186 S 
ATOM     11  O   UNL d   1       2.299   0.352  -0.189  0.00  0.00    -0.222 OA
ATOM     12  O   UNL d   1       0.031  -0.307  -1.099  0.00  0.00    -0.222 OA
BRANCH  10  13
ATOM     13  C   UNL d   1       0.221   1.604   0.626  0.00  0.00     0.100 A 
ATOM     14  S   UNL d   1      -1.442   1.610   1.033  0.00  0.00    -0.090 SA
ATOM     15  C   UNL d   1      -1.384   3.246   1.528  0.00  0.00     0.051 A 
ATOM     16  C   UNL d   1      -0.128   3.788   1.374  0.00  0.00     0.009 A 
ATOM     17  C   UNL d   1       0.799   2.841   0.849  0.00  0.00     0.031 A 
ENDBRANCH  10  13
ENDBRANCH   1  10
TORSDOF 3
