REMARK  3 active torsions:
REMARK  status: ('A' for Active; 'I' for Inactive)
REMARK    1  A    between atoms: C_3  and  C_1 
REMARK    2  A    between atoms: C_2  and  C_3 
REMARK    3  A    between atoms: N_8  and  C_4 
ROOT
ATOM      1  C   UNL d   1       2.666  -2.287  -0.637  0.00  0.00     0.037 A 
ATOM      2  C   UNL d   1       3.154  -2.949  -1.775  0.00  0.00     0.048 A 
ATOM      3  C   UNL d   1       3.473  -1.313  -0.017  0.00  0.00     0.041 A 
ATOM      4  C   UNL d   1       4.451  -2.683  -2.238  0.00  0.00     0.026 A 
ATOM      5  C   UNL d   1       4.753  -1.044  -0.500  0.00  0.00     0.035 A 
ATOM      6 CL   UNL d   1       2.220  -4.039  -2.739  0.00  0.00    -0.083 Cl
ATOM      7  C   UNL d   1       5.252  -1.736  -1.599  0.00  0.00     0.025 A 
ATOM      8 CL   UNL d   1       5.725   0.155   0.259  0.00  0.00    -0.084 Cl
ENDROOT
BRANCH   1   9
ATOM      9  C   UNL d   1       1.315  -2.493  -0.045  0.00  0.00     0.185 C 
ATOM     10  O   UNL d   1       0.711  -1.535   0.427  0.00  0.00    -0.287 OA
BRANCH   9  11
ATOM     11  C   UNL d   1       0.775  -3.876   0.022  0.00  0.00     0.072 C 
ATOM     12  C   UNL d   1      -0.533  -4.097   0.205  0.00  0.00     0.088 C 
BRANCH  12  13
ATOM     13  N   UNL d   1      -1.231  -5.299   0.210  0.00  0.00    -0.398 N 
ATOM     14  C   UNL d   1      -0.659  -6.588  -0.175  0.00  0.00     0.148 C 
ATOM     15  C   UNL d   1      -2.669  -5.348   0.479  0.00  0.00     0.148 C 
ENDBRANCH  12  13
ENDBRANCH   9  11
ENDBRANCH   1   9
TORSDOF 3
