REMARK  5 active torsions:
REMARK  status: ('A' for Active; 'I' for Inactive)
REMARK    1  A    between atoms: C_2  and  S_1 
REMARK    2  A    between atoms: N_3  and  S_1 
REMARK    3  A    between atoms: C_4  and  N_5 
REMARK    4  A    between atoms: C_28  and  C_19 
REMARK    5  A    between atoms: C_29  and  C_28 
ROOT
ATOM      1  N   UNL d   1       0.355  -1.765  -0.015  0.00  0.00    -0.305 N 
ATOM      2  N   UNL d   1      -1.043  -4.402  -0.481  0.00  0.00    -0.216 N 
ATOM      3  C   UNL d   1      -1.084  -1.905  -0.424  0.00  0.00     0.155 C 
ATOM      4  C   UNL d   1      -1.724  -3.224   0.041  0.00  0.00     0.161 C 
ATOM      5  C   UNL d   1       1.340  -4.083   0.151  0.00  0.00     0.041 C 
ATOM      6  C   UNL d   1       1.248  -2.783  -0.635  0.00  0.00     0.137 C 
ATOM      7  C   UNL d   1       0.077  -4.926   0.272  0.00  0.00     0.143 C 
ENDROOT
BRANCH   1   8
ATOM      8  S   UNL d   1       0.938  -0.148   0.008  0.00  0.00     0.261 S 
ATOM      9  O   UNL d   1      -0.180   0.743   0.251  0.00  0.00    -0.200 OA
ATOM     10  O   UNL d   1       2.084  -0.101   0.897  0.00  0.00    -0.200 OA
BRANCH   8  11
ATOM     11  C   UNL d   1       1.520   0.175  -1.677  0.00  0.00     0.086 A 
ATOM     12  C   UNL d   1       0.582   0.733  -2.575  0.00  0.00     0.034 A 
ATOM     13  C   UNL d   1       0.950   1.118  -3.881  0.00  0.00    -0.039 A 
ATOM     14  C   UNL d   1      -0.076   1.695  -4.816  0.00  0.00     0.050 C 
ATOM     15  C   UNL d   1       2.278   0.938  -4.280  0.00  0.00     0.040 A 
ATOM     16  C   UNL d   1       3.211   0.397  -3.396  0.00  0.00     0.032 A 
ATOM     17 CL   UNL d   1       2.826   1.375  -5.859  0.00  0.00    -0.084 Cl
ATOM     18  C   UNL d   1       2.861   0.008  -2.085  0.00  0.00    -0.037 A 
ATOM     19  C   UNL d   1       3.998  -0.547  -1.270  0.00  0.00     0.050 C 
ENDBRANCH   8  11
ENDBRANCH   1   8
BRANCH   2  20
ATOM     20  C   UNL d   1      -1.384  -4.926  -1.703  0.00  0.00     0.679 A 
ATOM     21  N   UNL d   1      -2.454  -4.431  -2.347  0.00  0.00    -0.201 N 
ATOM     22  C   UNL d   1      -2.808  -5.007  -3.515  0.00  0.00     0.114 A 
ATOM     23  HN  UNL d   1      -2.981  -3.646  -1.966  1.00  0.00     0.183 HD
ATOM     24  C   UNL d   1      -2.128  -6.051  -4.097  0.00  0.00    -0.026 A 
ATOM     25  C   UNL d   1      -1.029  -6.466  -3.383  0.00  0.00     0.114 A 
ATOM     26  N   UNL d   1      -0.646  -5.928  -2.209  0.00  0.00    -0.201 N 
ATOM     27  HN  UNL d   1       0.180  -6.270  -1.718  1.00  0.00     0.183 HD
BRANCH  24  28
ATOM     28  C   UNL d   1      -2.531  -6.654  -5.408  0.00  0.00     0.041 C 
BRANCH  28  29
ATOM     29  C   UNL d   1      -2.805  -8.161  -5.364  0.00  0.00     0.000 C 
ATOM     30  C   UNL d   1      -3.994  -8.527  -4.486  0.00  0.00     0.005 C 
ENDBRANCH  28  29
ENDBRANCH  24  28
ENDBRANCH   2  20
TORSDOF 5
