REMARK  6 active torsions:
REMARK  status: ('A' for Active; 'I' for Inactive)
REMARK    1  A    between atoms: S_2  and  C_1 
REMARK    2  A    between atoms: C_14  and  S_2 
REMARK    3  A    between atoms: S_15  and  C_3 
REMARK    4  A    between atoms: C_7  and  C_5 
REMARK       I    between atoms: N_10  and  C_7 
REMARK    5  A    between atoms: C_17  and  N_10 
REMARK    6  A    between atoms: C_11  and  C_17 
ROOT
ATOM      1  C   UNL d   1       1.494   0.813   0.060  0.00  0.00     0.084 A 
ATOM      2  C   UNL d   1       0.240   1.365  -0.179  0.00  0.00     0.063 A 
ATOM      3  C   UNL d   1       1.428  -0.626   0.122  0.00  0.00     0.050 A 
ATOM      4  C   UNL d   1       0.157  -1.148   0.008  0.00  0.00     0.075 A 
ATOM      5  S   UNL d   1      -0.972   0.098  -0.192  0.00  0.00    -0.076 SA
ENDROOT
BRANCH   4   6
ATOM      6  C   UNL d   1      -0.183  -2.569   0.031  0.00  0.00     0.258 C 
ATOM      7  N   UNL d   1      -1.520  -2.903   0.002  0.00  0.00    -0.356 N 
ATOM      8  H   UNL d   1      -2.206  -2.167  -0.096  0.00  0.00     0.162 HD
ATOM      9  O   UNL d   1       0.697  -3.429   0.063  0.00  0.00    -0.267 OA
BRANCH   7  10
ATOM     10  C   UNL d   1      -1.946  -4.282  -0.103  0.00  0.00     0.127 C 
BRANCH  10  11
ATOM     11  C   UNL d   1      -2.983  -4.613   0.926  0.00  0.00     0.003 A 
ATOM     12  C   UNL d   1      -2.744  -4.456   2.409  0.00  0.00     0.007 A 
ATOM     13  C   UNL d   1      -2.772  -5.828   1.802  0.00  0.00     0.007 A 
ENDBRANCH  10  11
ENDBRANCH   7  10
ENDBRANCH   4   6
BRANCH   1  14
ATOM     14  S   UNL d   1       3.073   1.543   0.225  0.00  0.00     0.180 S 
ATOM     15  O   UNL d   1       2.866   2.869   0.755  0.00  0.00    -0.222 OA
ATOM     16  O   UNL d   1       3.824   0.564   0.985  0.00  0.00    -0.222 OA
BRANCH  14  17
ATOM     17  C   UNL d   1       3.759   1.609  -1.434  0.00  0.00     0.105 C 
ATOM     18  C   UNL d   1       3.029   2.591  -2.338  0.00  0.00     0.026 C 
ATOM     19  C   UNL d   1       5.243   1.970  -1.367  0.00  0.00     0.026 C 
ENDBRANCH  14  17
ENDBRANCH   1  14
BRANCH   2  20
ATOM     20  S   UNL d   1      -0.422   2.951  -0.580  0.00  0.00    -0.126 SA
ATOM     21  C   UNL d   1       0.575   4.259   0.120  0.00  0.00     0.096 C 
ENDBRANCH   2  20
TORSDOF 6
