REMARK  0 active torsions:
REMARK  status: ('A' for Active; 'I' for Inactive)
ROOT
ATOM      1  N   UNL d   1       0.250  -0.699  -0.000  0.00  0.00    -0.282 N 
ATOM      2  C   UNL d   1       1.558  -1.118  -0.001  0.00  0.00     0.198 A 
ATOM      3  N   UNL d   1       1.515   1.157   0.002  0.00  0.00    -0.283 N 
ATOM      4  HN  UNL d   1       1.793   2.139   0.002  1.00  0.00     0.188 HD
ATOM      5  C   UNL d   1       0.314   0.663   0.001  0.00  0.00     0.128 A 
ATOM      6  N   UNL d   1       2.324   0.047   0.001  0.00  0.00    -0.274 N 
ATOM      7  C   UNL d   1      -0.923  -1.409  -0.000  0.00  0.00     0.101 A 
ATOM      8  S   UNL d   1       2.196  -2.649  -0.002  0.00  0.00    -0.039 SA
ATOM      9  C   UNL d   1      -0.960   1.411   0.001  0.00  0.00     0.050 A 
ATOM     10  C   UNL d   1      -2.091  -0.747   0.000  0.00  0.00     0.018 A 
ATOM     11  C   UNL d   1      -2.103   0.705  -0.000  0.00  0.00     0.005 A 
ATOM     12  H   UNL d   1       3.335   0.115   0.001  0.00  0.00     0.189 HD
ENDROOT
TORSDOF 0
