REMARK  1 active torsions:
REMARK  status: ('A' for Active; 'I' for Inactive)
REMARK    1  A    between atoms: S_7  and  C_1 
ROOT
ATOM      1  C   UNL d   1      -2.034  -0.877  -0.027  0.00  0.00     0.112 A 
ATOM      2  N   UNL d   1      -0.968  -1.643  -0.015  0.00  0.00    -0.344 N 
ATOM      3  HN  UNL d   1      -0.978  -2.663  -0.012  1.00  0.00     0.167 HD
ATOM      4  S   UNL d   1      -1.751   0.811  -0.025  0.00  0.00    -0.063 SA
ATOM      5  C   UNL d   1       0.171  -0.855  -0.007  0.00  0.00     0.050 A 
ATOM      6  C   UNL d   1      -0.053   0.523  -0.013  0.00  0.00     0.034 A 
ATOM      7  C   UNL d   1       1.500  -1.326   0.004  0.00  0.00     0.031 A 
ATOM      8  C   UNL d   1       1.005   1.448  -0.009  0.00  0.00     0.021 A 
ATOM      9  C   UNL d   1       2.561  -0.414   0.007  0.00  0.00     0.002 A 
ATOM     10  C   UNL d   1       2.314   0.955   0.000  0.00  0.00     0.002 A 
ENDROOT
BRANCH   1  11
ATOM     11  S   UNL d   1      -3.655  -1.542  -0.044  0.00  0.00    -0.109 SA
ATOM     12  C   UNL d   1      -3.295  -3.312  -0.056  0.00  0.00     0.097 C 
ENDBRANCH   1  11
TORSDOF 1
