REMARK  4 active torsions:
REMARK  status: ('A' for Active; 'I' for Inactive)
REMARK    1  A    between atoms: C_11  and  C_7 
REMARK    2  A    between atoms: O_17  and  C_8 
REMARK    3  A    between atoms: O_18  and  C_14 
REMARK    4  A    between atoms: C_19  and  O_18 
ROOT
ATOM      1  C   UNL d   1       2.913  -1.089   0.460  0.00  0.00     0.101 A 
ATOM      2  N   UNL d   1       2.361  -3.423   0.710  0.00  0.00    -0.275 N 
ATOM      3  N   UNL d   1       4.353  -2.647   1.596  0.00  0.00    -0.275 N 
ATOM      4  C   UNL d   1       1.968  -2.211   0.220  0.00  0.00     0.265 A 
ATOM      5  C   UNL d   1       4.148  -1.342   1.244  0.00  0.00     0.265 A 
ATOM      6  C   UNL d   1       3.508  -3.692   1.389  0.00  0.00     0.329 A 
ATOM      7  C   UNL d   1       2.576   0.105  -0.068  0.00  0.00     0.034 C 
ATOM      8  O   UNL d   1       4.945  -0.478   1.589  0.00  0.00    -0.267 OA
ATOM      9  O   UNL d   1       0.900  -2.086  -0.370  0.00  0.00    -0.267 OA
ATOM     10  O   UNL d   1       3.760  -4.817   1.804  0.00  0.00    -0.246 OA
ATOM     11  H   UNL d   1       1.731  -4.199   0.562  0.00  0.00     0.173 HD
ATOM     12  H   UNL d   1       5.189  -2.841   2.129  0.00  0.00     0.173 HD
ENDROOT
BRANCH   7  13
ATOM     13  C   UNL d   1       3.333   1.356   0.017  0.00  0.00    -0.032 A 
ATOM     14  C   UNL d   1       3.122   2.231   1.091  0.00  0.00     0.051 A 
ATOM     15  C   UNL d   1       3.790   3.465   1.167  0.00  0.00     0.102 A 
ATOM     16  C   UNL d   1       4.707   3.806   0.154  0.00  0.00     0.102 A 
ATOM     17  C   UNL d   1       4.920   2.915  -0.910  0.00  0.00     0.040 A 
ATOM     18  C   UNL d   1       4.236   1.701  -0.985  0.00  0.00     0.014 A 
BRANCH  15  19
ATOM     19  O   UNL d   1       3.578   4.359   2.182  0.00  0.00    -0.353 OA
ATOM     20  C   UNL d   1       2.622   4.044   3.184  0.00  0.00     0.210 C 
ENDBRANCH  15  19
BRANCH  16  21
ATOM     21  O   UNL d   1       5.467   4.945   0.033  0.00  0.00    -0.349 OA
BRANCH  21  22
ATOM     22  C   UNL d   1       5.367   5.946   1.040  0.00  0.00     0.171 C 
ATOM     23  C   UNL d   1       6.309   7.083   0.686  0.00  0.00     0.034 C 
ENDBRANCH  21  22
ENDBRANCH  16  21
ENDBRANCH   7  13
TORSDOF 4
