REMARK  3 active torsions:
REMARK  status: ('A' for Active; 'I' for Inactive)
REMARK    1  A    between atoms: C_2  and  N_1 
REMARK    2  A    between atoms: S_5  and  C_3 
REMARK    3  A    between atoms: C_4  and  S_5 
ROOT
ATOM      1  C   UNL d   1       0.210   0.038  -1.288  0.00  0.00     0.121 A 
ATOM      2  C   UNL d   1      -0.824   0.985  -1.265  0.00  0.00     0.039 A 
ATOM      3  N   UNL d   1       0.562  -1.590  -5.841  0.00  0.00    -0.191 NA
ATOM      4  C   UNL d   1       0.268  -1.042  -4.863  0.00  0.00     0.099 C 
ATOM      5  C   UNL d   1       0.592  -0.626  -2.466  0.00  0.00     0.060 A 
ATOM      6  C   UNL d   1      -1.513   1.217  -2.466  0.00  0.00     0.023 A 
ATOM      7  C   UNL d   1      -0.097  -0.369  -3.651  0.00  0.00     0.047 A 
ATOM      8  C   UNL d   1      -1.157   0.546  -3.646  0.00  0.00     0.024 A 
ENDROOT
BRANCH   1   9
ATOM      9  N   UNL d   1       0.926  -0.316  -0.076  0.00  0.00    -0.114 N 
ATOM     10  O   UNL d   1       0.272  -0.834   0.838  0.00  0.00    -0.532 OA
ATOM     11  O   UNL d   1       2.152  -0.145  -0.082  0.00  0.00    -0.532 OA
ENDBRANCH   1   9
BRANCH   2  12
ATOM     12  S   UNL d   1      -1.339   1.896   0.184  0.00  0.00    -0.081 SA
BRANCH  12  13
ATOM     13  C   UNL d   1      -0.475   3.417  -0.047  0.00  0.00     0.046 A 
ATOM     14  S   UNL d   1       1.113   3.552  -0.677  0.00  0.00    -0.095 SA
ATOM     15  C   UNL d   1       1.122   5.251  -0.488  0.00  0.00     0.051 A 
ATOM     16  C   UNL d   1      -0.051   5.712   0.062  0.00  0.00     0.009 A 
ATOM     17  C   UNL d   1      -0.969   4.653   0.325  0.00  0.00     0.027 A 
ENDBRANCH  12  13
ENDBRANCH   2  12
TORSDOF 3
