REMARK  3 active torsions:
REMARK  status: ('A' for Active; 'I' for Inactive)
REMARK    1  A    between atoms: C_2  and  S_1 
REMARK    2  A    between atoms: N_3  and  S_1 
REMARK    3  A    between atoms: C_12  and  N_3 
ROOT
ATOM      1  S   UNL d   1       0.886  -0.050   0.003  0.00  0.00     0.263 S 
ATOM      2  O   UNL d   1       2.248  -0.049  -0.490  0.00  0.00    -0.200 OA
ATOM      3  O   UNL d   1      -0.131  -0.880  -0.604  0.00  0.00    -0.200 OA
ENDROOT
BRANCH   1   4
ATOM      4  C   UNL d   1       0.311   1.635  -0.012  0.00  0.00     0.080 A 
ATOM      5  C   UNL d   1      -1.065   1.890  -0.120  0.00  0.00     0.035 A 
ATOM      6  C   UNL d   1      -1.474   3.211  -0.107  0.00  0.00    -0.021 A 
ATOM      7  C   UNL d   1      -2.841   3.778  -0.118  0.00  0.00     0.068 C 
ATOM      8  C   UNL d   1      -0.553   4.244   0.004  0.00  0.00     0.075 A 
ATOM      9  C   UNL d   1      -2.492   5.242  -0.386  0.00  0.00     0.180 C 
ATOM     10  O   UNL d   1      -1.127   5.488   0.029  0.00  0.00    -0.350 OA
ATOM     11  C   UNL d   1       0.805   4.013   0.100  0.00  0.00     0.039 A 
ATOM     12  C   UNL d   1       1.245   2.686   0.080  0.00  0.00     0.028 A 
ENDBRANCH   1   4
BRANCH   1  13
ATOM     13  N   UNL d   1       0.980  -0.401   1.637  0.00  0.00    -0.281 N 
ATOM     14  H   UNL d   1       1.907  -0.468   2.048  0.00  0.00     0.179 HD
BRANCH  13  15
ATOM     15  C   UNL d   1      -0.178  -0.426   2.446  0.00  0.00     0.042 A 
ATOM     16  C   UNL d   1      -0.895  -1.615   2.578  0.00  0.00     0.033 A 
ATOM     17  C   UNL d   1      -2.029  -1.653   3.390  0.00  0.00     0.044 A 
ATOM     18  C   UNL d   1      -2.435  -0.499   4.054  0.00  0.00     0.116 A 
ATOM     19  C   UNL d   1      -1.720   0.687   3.932  0.00  0.00     0.044 A 
ATOM     20  F   UNL d   1      -3.529  -0.532   4.826  0.00  0.00    -0.206 F 
ATOM     21  C   UNL d   1      -0.576   0.722   3.132  0.00  0.00     0.033 A 
ENDBRANCH  13  15
ENDBRANCH   1  13
TORSDOF 3
