REMARK  6 active torsions:
REMARK  status: ('A' for Active; 'I' for Inactive)
REMARK    1  A    between atoms: C_4  and  S_1 
REMARK    2  A    between atoms: C_5  and  S_1 
REMARK    3  A    between atoms: C_2  and  C_8 
REMARK    4  A    between atoms: C_11  and  C_3 
REMARK    5  A    between atoms: C_7  and  C_4 
REMARK    6  A    between atoms: O_23  and  C_11 
ROOT
ATOM      1  S   UNL d   1       1.027   0.001   0.036  0.00  0.00     0.196 S 
ATOM      2  O   UNL d   1       0.427   1.142   0.713  0.00  0.00    -0.221 OA
ATOM      3  O   UNL d   1       2.475  -0.097  -0.046  0.00  0.00    -0.221 OA
ENDROOT
BRANCH   1   4
ATOM      4  C   UNL d   1       0.368  -0.082  -1.613  0.00  0.00     0.212 C 
BRANCH   4   5
ATOM      5  C   UNL d   1      -1.113  -0.072  -1.575  0.00  0.00     0.068 A 
ATOM      6  O   UNL d   1      -1.732  -1.285  -1.500  0.00  0.00    -0.307 OA
ATOM      7  C   UNL d   1      -3.085  -1.055  -1.497  0.00  0.00     0.148 A 
ATOM      8  C   UNL d   1      -3.320   0.303  -1.584  0.00  0.00     0.047 A 
ATOM      9  C   UNL d   1      -2.054   0.935  -1.631  0.00  0.00     0.037 A 
BRANCH   7  10
ATOM     10  C   UNL d   1      -3.984  -2.179  -1.411  0.00  0.00     0.201 C 
ATOM     11  O   UNL d   1      -5.203  -2.128  -1.401  0.00  0.00    -0.645 OA
BRANCH  10  12
ATOM     12  O   UNL d   1      -3.297  -3.350  -1.328  0.00  0.00    -0.771 OA
ATOM     13  H   UNL d   1      -2.333  -3.174  -1.366  0.00  0.00     0.167 HD
ENDBRANCH  10  12
ENDBRANCH   7  10
ENDBRANCH   4   5
ENDBRANCH   1   4
BRANCH   1  14
ATOM     14  C   UNL d   1       0.444  -1.477   0.850  0.00  0.00     0.128 A 
ATOM     15  N   UNL d   1       0.789  -2.634   0.225  0.00  0.00    -0.356 N 
ATOM     16  C   UNL d   1       0.490  -3.777   0.885  0.00  0.00     0.105 A 
ATOM     17  HN  UNL d   1       1.244  -2.640  -0.688  1.00  0.00     0.166 HD
ATOM     18  C   UNL d   1      -0.164  -3.818   2.113  0.00  0.00     0.063 A 
ATOM     19  C   UNL d   1      -0.553  -2.599   2.687  0.00  0.00     0.020 A 
ATOM     20  C   UNL d   1      -0.239  -1.400   2.053  0.00  0.00     0.042 A 
BRANCH  18  21
ATOM     21  C   UNL d   1      -0.410  -5.124   2.809  0.00  0.00     0.418 C 
ATOM     22  F   UNL d   1       0.064  -6.202   2.126  0.00  0.00    -0.166 F 
ATOM     23  F   UNL d   1       0.176  -5.174   4.037  0.00  0.00    -0.166 F 
ATOM     24  F   UNL d   1      -1.733  -5.363   3.015  0.00  0.00    -0.166 F 
ENDBRANCH  18  21
ENDBRANCH   1  14
TORSDOF 6
