REMARK  4 active torsions:
REMARK  status: ('A' for Active; 'I' for Inactive)
REMARK    1  A    between atoms: C_5  and  S_1 
REMARK    2  A    between atoms: N_6  and  S_1 
REMARK    3  A    between atoms: C_2  and  N_6 
REMARK    4  A    between atoms: S_18  and  C_7 
ROOT
ATOM      1  S   UNL d   1       1.008  -0.151   0.030  0.00  0.00     0.249 S 
ATOM      2  O   UNL d   1       0.357   0.634   1.060  0.00  0.00    -0.205 OA
ATOM      3  O   UNL d   1       2.453  -0.198  -0.043  0.00  0.00    -0.205 OA
ENDROOT
BRANCH   1   4
ATOM      4  C   UNL d   1       0.409   0.475  -1.524  0.00  0.00     0.097 A 
ATOM      5  C   UNL d   1      -0.954   0.574  -1.803  0.00  0.00     0.058 A 
ATOM      6  C   UNL d   1      -1.368   1.143  -3.012  0.00  0.00     0.050 A 
ATOM      7 CL   UNL d   1      -2.196   0.012  -0.741  0.00  0.00    -0.083 Cl
ATOM      8  C   UNL d   1      -0.434   1.622  -3.938  0.00  0.00     0.041 A 
ATOM      9  C   UNL d   1       0.939   1.530  -3.673  0.00  0.00    -0.039 A 
ATOM     10 CL   UNL d   1      -1.050   2.326  -5.390  0.00  0.00    -0.084 Cl
ATOM     11  C   UNL d   1       1.348   0.947  -2.460  0.00  0.00     0.035 A 
ATOM     12  C   UNL d   1       2.008   2.030  -4.605  0.00  0.00     0.050 C 
ENDBRANCH   1   4
BRANCH   1  13
ATOM     13  N   UNL d   1       0.415  -1.722   0.145  0.00  0.00    -0.150 NA
ATOM     14  H   UNL d   1      -0.591  -1.668   0.285  0.00  0.00     0.149 HD
BRANCH  13  15
ATOM     15  C   UNL d   1       0.761  -2.601  -0.853  0.00  0.00     0.188 A 
ATOM     16  N   UNL d   1       1.717  -3.559  -0.699  0.00  0.00    -0.310 N 
ATOM     17  C   UNL d   1       1.623  -4.256  -1.806  0.00  0.00     0.163 A 
ATOM     18  HN  UNL d   1       2.352  -3.700   0.086  1.00  0.00     0.170 HD
ATOM     19  N   UNL d   1       0.653  -3.719  -2.600  0.00  0.00    -0.273 N 
ATOM     20  N   UNL d   1       0.040  -2.693  -1.972  0.00  0.00    -0.271 N 
ATOM     21  C   UNL d   1       0.247  -4.106  -3.926  0.00  0.00     0.180 C 
ATOM     22  HN  UNL d   1      -0.760  -2.137  -2.272  1.00  0.00     0.190 HD
BRANCH  17  23
ATOM     23  S   UNL d   1       2.534  -5.661  -2.231  0.00  0.00    -0.097 SA
ATOM     24  C   UNL d   1       3.549  -5.865  -0.749  0.00  0.00     0.099 C 
ENDBRANCH  17  23
ENDBRANCH  13  15
ENDBRANCH   1  13
TORSDOF 4
