REMARK  4 active torsions:
REMARK  status: ('A' for Active; 'I' for Inactive)
REMARK    1  A    between atoms: N_2  and  C_1 
REMARK    2  A    between atoms: C_3  and  N_7 
REMARK    3  A    between atoms: N_8  and  C_6 
REMARK    4  A    between atoms: N_7  and  N_8 
ROOT
ATOM      1  N   UNL d   1       4.393  -1.430   0.058  0.00  0.00    -0.204 NA
ATOM      2  H   UNL d   1       3.880  -2.138  -0.474  0.00  0.00     0.150 HD
ENDROOT
BRANCH   1   3
ATOM      3  C   UNL d   1       4.593  -1.813   1.457  0.00  0.00     0.257 C 
ATOM      4  O   UNL d   1       5.514  -0.923   2.132  0.00  0.00    -0.290 OA
ATOM      5  C   UNL d   1       6.423  -1.601   2.886  0.00  0.00     0.295 C 
ATOM      6  O   UNL d   1       7.263  -1.120   3.612  0.00  0.00    -0.259 OA
ATOM      7  C   UNL d   1       6.183  -3.017   2.651  0.00  0.00     0.049 A 
ATOM      8  C   UNL d   1       5.184  -3.154   1.706  0.00  0.00     0.003 A 
ATOM      9  C   UNL d   1       6.769  -4.090   3.301  0.00  0.00     0.018 A 
ATOM     10  C   UNL d   1       4.781  -4.423   1.316  0.00  0.00     0.012 A 
ATOM     11  C   UNL d   1       5.357  -5.530   1.955  0.00  0.00     0.001 A 
ATOM     12  C   UNL d   1       6.327  -5.366   2.958  0.00  0.00     0.001 A 
ENDBRANCH   1   3
BRANCH   1  13
ATOM     13  N   UNL d   1       3.837  -0.120  -0.049  0.00  0.00    -0.312 N 
ATOM     14  C   UNL d   1       4.816   0.985  -0.004  0.00  0.00     0.172 C 
BRANCH  13  15
ATOM     15  C   UNL d   1       2.449   0.192  -0.077  0.00  0.00     0.078 A 
ATOM     16  C   UNL d   1       1.359  -0.712  -0.071  0.00  0.00     0.132 A 
ATOM     17  C   UNL d   1       0.005  -0.310  -0.115  0.00  0.00     0.062 A 
ATOM     18  C   UNL d   1      -0.311   1.036  -0.159  0.00  0.00     0.036 A 
ATOM     19  C   UNL d   1       0.706   1.975  -0.152  0.00  0.00     0.026 A 
ATOM     20 CL   UNL d   1      -1.952   1.544  -0.211  0.00  0.00    -0.084 Cl
ATOM     21  C   UNL d   1       2.047   1.555  -0.116  0.00  0.00     0.035 A 
BRANCH  16  22
ATOM     22  N   UNL d   1       1.539  -2.143   0.027  0.00  0.00    -0.113 N 
ATOM     23  O   UNL d   1       2.100  -2.722  -0.914  0.00  0.00    -0.532 OA
ATOM     24  O   UNL d   1       1.099  -2.696   1.044  0.00  0.00    -0.532 OA
ENDBRANCH  16  22
ENDBRANCH  13  15
ENDBRANCH   1  13
TORSDOF 4
