REMARK  6 active torsions:
REMARK  status: ('A' for Active; 'I' for Inactive)
REMARK    1  A    between atoms: S_4  and  C_1 
REMARK    2  A    between atoms: C_7  and  C_2 
REMARK    3  A    between atoms: N_10  and  C_3 
REMARK    4  A    between atoms: C_11  and  S_4 
REMARK    5  A    between atoms: S_12  and  C_5 
REMARK    6  A    between atoms: O_14  and  C_7 
ROOT
ATOM      1  C   UNL d   1      -0.675  -1.250   0.095  0.00  0.00     0.111 C 
ATOM      2  C   UNL d   1      -0.118   1.035   0.067  0.00  0.00     0.107 C 
ATOM      3  C   UNL d   1      -1.141   0.110   0.234  0.00  0.00     0.073 C 
ATOM      4  C   UNL d   1       0.713  -1.288  -0.018  0.00  0.00     0.065 C 
ATOM      5  S   UNL d   1       1.393   0.273  -0.136  0.00  0.00    -0.073 SA
ENDROOT
BRANCH   1   6
ATOM      6  S   UNL d   1      -1.592  -2.729   0.034  0.00  0.00     0.183 S 
ATOM      7  O   UNL d   1      -1.237  -3.319  -1.240  0.00  0.00    -0.222 OA
ATOM      8  O   UNL d   1      -1.266  -3.361   1.300  0.00  0.00    -0.222 OA
BRANCH   6   9
ATOM      9  C   UNL d   1      -3.351  -2.455   0.021  0.00  0.00     0.105 C 
ATOM     10  C   UNL d   1      -3.840  -1.719  -1.222  0.00  0.00     0.026 C 
ATOM     11  C   UNL d   1      -4.079  -3.803   0.110  0.00  0.00     0.026 C 
ENDBRANCH   6   9
ENDBRANCH   1   6
BRANCH   3  12
ATOM     12  N   UNL d   1      -2.404   0.563   0.484  0.00  0.00    -0.397 N 
ATOM     13  H   UNL d   1      -2.821   1.181  -0.226  0.00  0.00     0.156 HD
ATOM     14  H   UNL d   1      -3.139  -0.045   0.833  0.00  0.00     0.156 HD
ENDBRANCH   3  12
BRANCH   4  15
ATOM     15  S   UNL d   1       1.795  -2.682  -0.132  0.00  0.00    -0.126 SA
ATOM     16  C   UNL d   1       2.126  -3.003   1.617  0.00  0.00     0.096 C 
ENDBRANCH   4  15
BRANCH   2  17
ATOM     17  C   UNL d   1      -0.145   2.489   0.077  0.00  0.00     0.185 C 
ATOM     18  O   UNL d   1       0.681   3.240  -0.422  0.00  0.00    -0.646 OA
BRANCH  17  19
ATOM     19  O   UNL d   1      -1.237   2.977   0.729  0.00  0.00    -0.772 OA
ATOM     20  H   UNL d   1      -1.752   2.247   1.135  0.00  0.00     0.167 HD
ENDBRANCH  17  19
ENDBRANCH   2  17
TORSDOF 6
