REMARK  2 active torsions:
REMARK  status: ('A' for Active; 'I' for Inactive)
REMARK    1  A    between atoms: C_9  and  C_2 
REMARK    2  A    between atoms: C_10  and  C_4 
ROOT
ATOM      1  C   UNL d   1      -1.272  -0.106  -0.299  0.00  0.00     0.099 C 
ATOM      2  C   UNL d   1      -2.593  -0.067  -0.579  0.00  0.00     0.123 C 
ATOM      3  N   UNL d   1      -0.376   0.944  -0.179  0.00  0.00    -0.352 N 
ATOM      4  C   UNL d   1       0.953   0.560  -0.105  0.00  0.00     0.024 C 
ATOM      5  S   UNL d   1      -0.415  -1.671  -0.095  0.00  0.00    -0.081 SA
ATOM      6  C   UNL d   1       1.093  -0.783  -0.038  0.00  0.00     0.077 C 
ATOM      7  C   UNL d   1      -3.362  -1.254  -0.741  0.00  0.00     0.106 C 
ATOM      8  N   UNL d   1      -4.017  -2.198  -0.900  0.00  0.00    -0.191 NA
ATOM      9  H   UNL d   1      -0.687   1.900  -0.341  0.00  0.00     0.166 HD
ENDROOT
BRANCH   2  10
ATOM     10  C   UNL d   1      -3.267   1.257  -0.783  0.00  0.00     0.169 C 
ATOM     11  O   UNL d   1      -2.646   2.318  -0.644  0.00  0.00    -0.292 OA
ATOM     12  C   UNL d   1      -4.729   1.309  -1.182  0.00  0.00     0.097 C 
ENDBRANCH   2  10
BRANCH   4  13
ATOM     13  C   UNL d   1       2.125   1.539  -0.169  0.00  0.00    -0.008 C 
ATOM     14  C   UNL d   1       1.682   3.007  -0.328  0.00  0.00     0.021 C 
ATOM     15  C   UNL d   1       2.978   1.435   1.113  0.00  0.00     0.021 C 
ATOM     16  C   UNL d   1       3.019   1.189  -1.381  0.00  0.00     0.021 C 
ENDBRANCH   4  13
TORSDOF 2
