REMARK  1 active torsions:
REMARK  status: ('A' for Active; 'I' for Inactive)
REMARK    1  A    between atoms: C_11  and  C_3 
ROOT
ATOM      1  C   UNL d   1       0.275   0.716   0.004  0.00  0.00     0.052 A 
ATOM      2  C   UNL d   1       0.235  -0.652  -0.003  0.00  0.00     0.181 A 
ATOM      3  C   UNL d   1      -0.962   1.412  -0.005  0.00  0.00    -0.004 A 
ATOM      4  N   UNL d   1       1.536  -1.062   0.002  0.00  0.00    -0.274 N 
ATOM      5  N   UNL d   1       2.413  -0.031   0.021  0.00  0.00    -0.300 N 
ATOM      6  HN  UNL d   1       3.432  -0.077   0.027  1.00  0.00     0.187 HD
ATOM      7  C   UNL d   1       1.638   1.068   0.030  0.00  0.00     0.037 A 
ATOM      8  O   UNL d   1      -0.818  -1.452  -0.007  0.00  0.00    -0.256 OA
ATOM      9  C   UNL d   1      -2.031  -0.825   0.005  0.00  0.00     0.290 A 
ATOM     10  C   UNL d   1      -2.086   0.667  -0.005  0.00  0.00     0.096 A 
ATOM     11  O   UNL d   1      -3.083  -1.460   0.017  0.00  0.00    -0.260 OA
ATOM     12  C   UNL d   1       2.039  -2.412  -0.001  0.00  0.00     0.180 C 
ATOM     13  C   UNL d   1       2.259   2.414   0.069  0.00  0.00     0.070 C 
ENDROOT
BRANCH   3  14
ATOM     14  C   UNL d   1      -1.096   2.878  -0.041  0.00  0.00    -0.025 A 
ATOM     15  C   UNL d   1      -1.179   3.615   1.147  0.00  0.00     0.012 A 
ATOM     16  C   UNL d   1      -1.214   5.011   1.106  0.00  0.00     0.001 A 
ATOM     17  C   UNL d   1      -1.173   5.675  -0.120  0.00  0.00     0.000 A 
ATOM     18  C   UNL d   1      -1.111   4.947  -1.307  0.00  0.00     0.001 A 
ATOM     19  C   UNL d   1      -1.075   3.552  -1.269  0.00  0.00     0.012 A 
ENDBRANCH   3  14
TORSDOF 1
