REMARK  3 active torsions:
REMARK  status: ('A' for Active; 'I' for Inactive)
REMARK    1  A    between atoms: N_2  and  N_7 
REMARK    2  A    between atoms: N_12  and  C_3 
REMARK    3  A    between atoms: N_14  and  C_16 
ROOT
ATOM      1  N   UNL d   1       1.285  -3.778  -0.147  0.00  0.00    -0.180 N 
ATOM      2  C   UNL d   1       0.508  -4.141  -1.251  0.00  0.00     0.280 C 
ATOM      3  C   UNL d   1       1.384  -4.521   1.036  0.00  0.00     0.280 C 
ATOM      4  C   UNL d   1       0.059  -5.556  -1.294  0.00  0.00     0.048 A 
ATOM      5  C   UNL d   1       1.001  -5.943   0.936  0.00  0.00     0.046 A 
ATOM      6  C   UNL d   1       0.338  -6.403  -0.209  0.00  0.00     0.006 A 
ATOM      7  C   UNL d   1      -1.070  -7.362  -2.436  0.00  0.00     0.104 A 
ATOM      8  C   UNL d   1      -0.652  -6.027  -2.407  0.00  0.00     0.054 A 
ATOM      9  C   UNL d   1      -0.080  -7.756  -0.253  0.00  0.00    -0.021 A 
ATOM     10  C   UNL d   1      -0.782  -8.226  -1.371  0.00  0.00     0.048 A 
ATOM     11  O   UNL d   1       0.134  -3.350  -2.114  0.00  0.00    -0.265 OA
ATOM     12  O   UNL d   1       1.728  -4.085   2.133  0.00  0.00    -0.265 OA
ATOM     13  C   UNL d   1       1.280  -6.801   2.007  0.00  0.00     0.018 A 
ATOM     14  C   UNL d   1       0.203  -8.605   0.829  0.00  0.00     0.012 A 
ATOM     15  C   UNL d   1       0.885  -8.134   1.951  0.00  0.00     0.002 A 
ENDROOT
BRANCH   1  16
ATOM     16  N   UNL d   1       1.607  -2.386  -0.083  0.00  0.00    -0.270 N 
ATOM     17  C   UNL d   1       2.699  -1.877   0.550  0.00  0.00     0.173 A 
ATOM     18  C   UNL d   1       3.948  -2.394   0.855  0.00  0.00     0.173 A 
ATOM     19  N   UNL d   1       2.680  -0.641   1.163  0.00  0.00    -0.278 N 
ATOM     20  C   UNL d   1       4.560  -1.461   1.722  0.00  0.00     0.059 A 
ATOM     21  C   UNL d   1       5.860  -1.543   2.434  0.00  0.00     0.072 C 
ATOM     22  N   UNL d   1       3.799  -0.369   1.871  0.00  0.00    -0.299 N 
ATOM     23  HN  UNL d   1       4.014   0.477   2.400  1.00  0.00     0.187 HD
ATOM     24  C   UNL d   1       1.593   0.307   1.242  0.00  0.00     0.179 C 
ATOM     25  H   UNL d   1       0.929  -1.810  -0.590  0.00  0.00     0.189 HD
BRANCH  18  26
ATOM     26  N   UNL d   1       4.475  -3.637   0.403  0.00  0.00    -0.110 N 
ATOM     27  O   UNL d   1       4.378  -3.885  -0.806  0.00  0.00    -0.532 OA
ATOM     28  O   UNL d   1       4.998  -4.376   1.248  0.00  0.00    -0.532 OA
ENDBRANCH  18  26
ENDBRANCH   1  16
BRANCH   7  29
ATOM     29  N   UNL d   1      -1.824  -7.869  -3.590  0.00  0.00    -0.116 N 
ATOM     30  O   UNL d   1      -2.078  -7.074  -4.505  0.00  0.00    -0.532 OA
ATOM     31  O   UNL d   1      -2.165  -9.060  -3.576  0.00  0.00    -0.532 OA
ENDBRANCH   7  29
TORSDOF 3
