REMARK  6 active torsions:
REMARK  status: ('A' for Active; 'I' for Inactive)
REMARK    1  A    between atoms: C_7  and  C_1 
REMARK    2  A    between atoms: C_8  and  C_6 
REMARK    3  A    between atoms: C_16  and  C_10 
REMARK    4  A    between atoms: S_19  and  C_13 
REMARK    5  A    between atoms: C_26  and  S_19 
REMARK    6  A    between atoms: C_27  and  C_26 
ROOT
ATOM      1  C   UNL d   1       2.536   1.969  -0.838  0.00  0.00     0.034 A 
ATOM      2  S   UNL d   1       2.935   3.628  -0.811  0.00  0.00    -0.086 SA
ATOM      3  C   UNL d   1       4.299   3.374   0.206  0.00  0.00     0.032 A 
ATOM      4  C   UNL d   1       3.427   1.222  -0.099  0.00  0.00     0.023 A 
ATOM      5  C   UNL d   1       4.432   2.030   0.510  0.00  0.00     0.023 A 
ENDROOT
BRANCH   3   6
ATOM      6  C   UNL d   1       5.136   4.495   0.658  0.00  0.00     0.052 A 
ATOM      7  N   UNL d   1       5.693   4.314   1.877  0.00  0.00    -0.336 N 
ATOM      8  C   UNL d   1       6.468   5.307   2.340  0.00  0.00     0.144 A 
ATOM      9  HN  UNL d   1       5.532   3.465   2.417  1.00  0.00     0.168 HD
ATOM     10  N   UNL d   1       6.740   6.438   1.669  0.00  0.00    -0.347 N 
ATOM     11  C   UNL d   1       6.183   6.567   0.455  0.00  0.00     0.092 A 
ATOM     12  HN  UNL d   1       7.341   7.162   2.063  1.00  0.00     0.167 HD
ATOM     13  C   UNL d   1       5.359   5.623  -0.104  0.00  0.00     0.048 A 
BRANCH   8  14
ATOM     14  S   UNL d   1       7.157   5.178   3.972  0.00  0.00    -0.089 SA
BRANCH  14  15
ATOM     15  C   UNL d   1       7.239   3.373   4.131  0.00  0.00     0.121 C 
BRANCH  15  16
ATOM     16  C   UNL d   1       7.809   2.947   5.465  0.00  0.00    -0.049 A 
ATOM     17  C   UNL d   1       6.963   2.738   6.564  0.00  0.00     0.008 A 
ATOM     18  C   UNL d   1       7.483   2.322   7.792  0.00  0.00     0.001 A 
ATOM     19  C   UNL d   1       8.853   2.121   7.937  0.00  0.00     0.000 A 
ATOM     20  C   UNL d   1       9.708   2.344   6.859  0.00  0.00     0.001 A 
ATOM     21  C   UNL d   1       9.190   2.761   5.631  0.00  0.00     0.008 A 
ENDBRANCH  15  16
ENDBRANCH  14  15
ENDBRANCH   8  14
ENDBRANCH   3   6
BRANCH   1  22
ATOM     22  C   UNL d   1       1.356   1.389  -1.562  0.00  0.00     0.067 A 
ATOM     23  C   UNL d   1       0.446   2.079  -2.387  0.00  0.00     0.068 A 
ATOM     24  C   UNL d   1      -0.471   1.132  -2.815  0.00  0.00     0.136 A 
ATOM     25  N   UNL d   1      -0.098  -0.032  -2.199  0.00  0.00    -0.292 N 
ATOM     26  N   UNL d   1       1.036   0.095  -1.477  0.00  0.00    -0.297 N 
ATOM     27  C   UNL d   1      -0.744  -1.324  -2.155  0.00  0.00     0.178 C 
ATOM     28  HN  UNL d   1       1.539  -0.638  -0.976  1.00  0.00     0.187 HD
BRANCH  24  29
ATOM     29  C   UNL d   1      -1.624   1.312  -3.717  0.00  0.00     0.434 C 
ATOM     30  F   UNL d   1      -2.280   0.170  -4.028  0.00  0.00    -0.165 F 
ATOM     31  F   UNL d   1      -2.544   2.153  -3.177  0.00  0.00    -0.165 F 
ATOM     32  F   UNL d   1      -1.238   1.865  -4.896  0.00  0.00    -0.165 F 
ENDBRANCH  24  29
ENDBRANCH   1  22
TORSDOF 6
