REMARK  3 active torsions:
REMARK  status: ('A' for Active; 'I' for Inactive)
REMARK    1  A    between atoms: N_2  and  S_1 
REMARK    2  A    between atoms: C_11  and  S_1 
REMARK    3  A    between atoms: C_3  and  N_2 
ROOT
ATOM      1  N   UNL d   1       0.691   0.859   1.511  0.00  0.00    -0.165 NA
ATOM      2  H   UNL d   1      -0.192   1.343   1.379  0.00  0.00     0.147 HD
ENDROOT
BRANCH   1   3
ATOM      3  S   UNL d   1       1.079  -0.060   0.163  0.00  0.00     0.247 S 
ATOM      4  O   UNL d   1       0.175   0.399  -0.875  0.00  0.00    -0.205 OA
ATOM      5  O   UNL d   1       1.145  -1.462   0.510  0.00  0.00    -0.205 OA
BRANCH   3   6
ATOM      6  C   UNL d   1       2.703   0.517  -0.255  0.00  0.00     0.074 A 
ATOM      7  C   UNL d   1       3.825  -0.151   0.241  0.00  0.00     0.025 A 
ATOM      8  C   UNL d   1       5.100   0.291  -0.115  0.00  0.00     0.002 A 
ATOM      9  C   UNL d   1       5.248   1.385  -0.971  0.00  0.00     0.000 A 
ATOM     10  C   UNL d   1       4.124   2.035  -1.482  0.00  0.00     0.002 A 
ATOM     11  C   UNL d   1       2.847   1.598  -1.130  0.00  0.00     0.025 A 
ENDBRANCH   3   6
ENDBRANCH   1   3
BRANCH   1  12
ATOM     12  C   UNL d   1       0.900   0.243   2.763  0.00  0.00     0.116 A 
ATOM     13  N   UNL d   1       2.140   0.412   3.258  0.00  0.00    -0.353 N 
ATOM     14  C   UNL d   1       2.354  -0.142   4.476  0.00  0.00     0.114 A 
ATOM     15  HN  UNL d   1       2.866   0.921   2.754  1.00  0.00     0.166 HD
ATOM     16  C   UNL d   1       1.379  -0.848   5.174  0.00  0.00     0.021 A 
ATOM     17  N   UNL d   1       0.141  -1.032   4.657  0.00  0.00    -0.360 N 
ATOM     18  C   UNL d   1       1.663  -1.417   6.529  0.00  0.00     0.069 C 
ATOM     19  C   UNL d   1      -0.090  -0.489   3.431  0.00  0.00     0.045 A 
ATOM     20  HN  UNL d   1      -0.580  -1.551   5.159  1.00  0.00     0.165 HD
ATOM     21  C   UNL d   1      -1.454  -0.698   2.851  0.00  0.00     0.071 C 
ENDBRANCH   1  12
TORSDOF 3
