REMARK  6 active torsions:
REMARK  status: ('A' for Active; 'I' for Inactive)
REMARK    1  A    between atoms: C_13  and  C_3 
REMARK    2  A    between atoms: C_5  and  C_4 
REMARK    3  A    between atoms: C_14  and  C_9 
REMARK    4  A    between atoms: O_22  and  C_13 
REMARK    5  A    between atoms: C_15  and  C_16 
REMARK    6  A    between atoms: C_26  and  O_22 
ROOT
ATOM      1  N   UNL d   1       1.247  -0.529   0.492  0.00  0.00    -0.347 N 
ATOM      2  HN  UNL d   1       2.018  -1.028   0.936  1.00  0.00     0.167 HD
ATOM      3  C   UNL d   1       1.168   0.843   0.346  0.00  0.00     0.076 A 
ATOM      4  C   UNL d   1       0.177  -1.098  -0.030  0.00  0.00     0.084 A 
ATOM      5  S   UNL d   1      -0.980   0.004  -0.687  0.00  0.00    -0.081 SA
ATOM      6  C   UNL d   1       0.026   1.316  -0.259  0.00  0.00     0.084 A 
ENDROOT
BRANCH   3   7
ATOM      7  C   UNL d   1       2.246   1.747   0.814  0.00  0.00     0.128 A 
ATOM      8  C   UNL d   1       3.439   1.369   1.374  0.00  0.00     0.079 A 
ATOM      9  C   UNL d   1       4.109   2.586   1.656  0.00  0.00     0.132 A 
ATOM     10  N   UNL d   1       3.360   3.637   1.280  0.00  0.00    -0.255 N 
ATOM     11  O   UNL d   1       2.201   3.107   0.751  0.00  0.00    -0.235 OA
ATOM     12  HN  UNL d   1       3.599   4.624   1.367  1.00  0.00     0.195 HD
BRANCH   9  13
ATOM     13  C   UNL d   1       5.400   2.741   2.316  0.00  0.00     0.311 C 
ATOM     14  O   UNL d   1       6.073   1.788   2.695  0.00  0.00    -0.258 OA
BRANCH  13  15
ATOM     15  O   UNL d   1       5.719   4.049   2.543  0.00  0.00    -0.317 OA
BRANCH  15  16
ATOM     16  C   UNL d   1       6.691   4.279   3.567  0.00  0.00     0.175 C 
ATOM     17  C   UNL d   1       5.972   4.309   4.904  0.00  0.00     0.034 C 
ENDBRANCH  15  16
ENDBRANCH  13  15
ENDBRANCH   9  13
ENDBRANCH   3   7
BRANCH   4  18
ATOM     18  C   UNL d   1      -0.072  -2.548  -0.045  0.00  0.00    -0.002 A 
ATOM     19  C   UNL d   1       0.446  -3.359   0.974  0.00  0.00     0.015 A 
ATOM     20  C   UNL d   1       0.228  -4.745   0.972  0.00  0.00     0.009 A 
ATOM     21  C   UNL d   1      -0.499  -5.372  -0.056  0.00  0.00    -0.051 A 
ATOM     22  C   UNL d   1      -1.013  -4.550  -1.069  0.00  0.00     0.009 A 
ATOM     23  C   UNL d   1      -0.800  -3.167  -1.066  0.00  0.00     0.015 A 
BRANCH  21  24
ATOM     24  C   UNL d   1      -0.680  -6.900  -0.075  0.00  0.00    -0.024 C 
ATOM     25  C   UNL d   1      -1.471  -7.407  -1.304  0.00  0.00     0.019 C 
ATOM     26  C   UNL d   1       0.706  -7.579  -0.113  0.00  0.00     0.019 C 
ATOM     27  C   UNL d   1      -1.441  -7.372   1.181  0.00  0.00     0.019 C 
ENDBRANCH  21  24
ENDBRANCH   4  18
TORSDOF 6
