REMARK  8 active torsions:
REMARK  status: ('A' for Active; 'I' for Inactive)
REMARK    1  A    between atoms: N_5  and  C_1 
REMARK    2  A    between atoms: C_16  and  C_3 
REMARK    3  A    between atoms: S_10  and  C_4 
REMARK    4  A    between atoms: C_8  and  S_10 
REMARK    5  A    between atoms: C_20  and  C_9 
REMARK    6  A    between atoms: O_23  and  C_16 
REMARK    7  A    between atoms: O_24  and  C_20 
REMARK    8  A    between atoms: O_25  and  C_20 
ROOT
ATOM      1  C   UNL d   1       4.186  -4.852  -0.070  0.00  0.00     0.068 A 
ATOM      2  N   UNL d   1       1.933  -4.571  -0.883  0.00  0.00    -0.348 N 
ATOM      3  HN  UNL d   1       1.218  -4.772  -1.582  1.00  0.00     0.166 HD
ATOM      4  C   UNL d   1       1.638  -3.773   0.169  0.00  0.00     0.098 A 
ATOM      5  C   UNL d   1       3.189  -5.113  -1.016  0.00  0.00     0.082 A 
ATOM      6  C   UNL d   1       2.568  -3.497   1.161  0.00  0.00     0.079 A 
ATOM      7  C   UNL d   1       3.854  -4.043   1.032  0.00  0.00     0.045 A 
ATOM      8  C   UNL d   1       2.281  -2.643   2.268  0.00  0.00     0.102 C 
ATOM      9  N   UNL d   1       2.083  -1.936   3.168  0.00  0.00    -0.191 NA
ENDROOT
BRANCH   4  10
ATOM     10  S   UNL d   1       0.043  -2.984   0.074  0.00  0.00    -0.045 SA
BRANCH  10  11
ATOM     11  C   UNL d   1      -0.891  -4.156   0.972  0.00  0.00     0.120 A 
ATOM     12  S   UNL d   1      -2.555  -4.423   0.633  0.00  0.00    -0.040 SA
ATOM     13  C   UNL d   1      -2.608  -5.542   1.907  0.00  0.00     0.161 A 
ATOM     14  C   UNL d   1      -1.383  -5.645   2.522  0.00  0.00     0.133 A 
ATOM     15  N   UNL d   1      -0.394  -4.836   1.985  0.00  0.00    -0.352 N 
ATOM     16  HN  UNL d   1       0.568  -4.777   2.320  1.00  0.00     0.166 HD
BRANCH  13  17
ATOM     17  N   UNL d   1      -3.804  -6.245   2.246  0.00  0.00    -0.107 N 
ATOM     18  O   UNL d   1      -3.721  -7.042   3.191  0.00  0.00    -0.531 OA
ATOM     19  O   UNL d   1      -4.825  -6.016   1.586  0.00  0.00    -0.531 OA
ENDBRANCH  13  17
ENDBRANCH  10  11
ENDBRANCH   4  10
BRANCH   1  20
ATOM     20  C   UNL d   1       5.597  -5.289  -0.246  0.00  0.00     0.295 C 
ATOM     21  O   UNL d   1       6.121  -5.480  -1.327  0.00  0.00    -0.259 OA
BRANCH  20  22
ATOM     22  O   UNL d   1       6.214  -5.367   0.959  0.00  0.00    -0.322 OA
ATOM     23  C   UNL d   1       7.614  -5.657   0.898  0.00  0.00     0.213 C 
ENDBRANCH  20  22
ENDBRANCH   1  20
BRANCH   5  24
ATOM     24  C   UNL d   1       3.387  -6.038  -2.223  0.00  0.00     0.310 C 
BRANCH  24  25
ATOM     25  O   UNL d   1       2.935  -7.339  -1.814  0.00  0.00    -0.360 OA
ATOM     26  C   UNL d   1       3.078  -8.306  -2.846  0.00  0.00     0.205 C 
ENDBRANCH  24  25
BRANCH  24  27
ATOM     27  O   UNL d   1       2.637  -5.597  -3.369  0.00  0.00    -0.360 OA
ATOM     28  C   UNL d   1       3.060  -4.334  -3.861  0.00  0.00     0.205 C 
ENDBRANCH  24  27
ENDBRANCH   5  24
TORSDOF 8
