REMARK  10 active torsions:
REMARK  status: ('A' for Active; 'I' for Inactive)
REMARK    1  A    between atoms: C_8  and  C_2 
REMARK    2  A    between atoms: S_9  and  C_3 
REMARK    3  A    between atoms: C_12  and  C_8 
REMARK    4  A    between atoms: C_11  and  S_9 
REMARK    5  A    between atoms: C_10  and  C_11 
REMARK    6  A    between atoms: C_14  and  C_10 
REMARK    7  A    between atoms: O_16  and  C_12 
REMARK    8  A    between atoms: O_17  and  C_12 
REMARK    9  A    between atoms: C_21  and  O_16 
REMARK   10  A    between atoms: C_20  and  O_17 
ROOT
ATOM      1  N   UNL d   1       0.703  -0.143   0.615  0.00  0.00    -0.319 N 
ATOM      2  C   UNL d   1      -0.025   0.969   0.249  0.00  0.00     0.104 A 
ATOM      3  C   UNL d   1      -0.046  -1.217   0.225  0.00  0.00     0.162 A 
ATOM      4  N   UNL d   1      -1.181   0.568  -0.249  0.00  0.00    -0.287 N 
ATOM      5  HN  UNL d   1      -1.936   1.175  -0.568  1.00  0.00     0.188 HD
ATOM      6  N   UNL d   1      -1.192  -0.809  -0.264  0.00  0.00    -0.278 N 
ATOM      7  HN  UNL d   1      -1.952  -1.403  -0.596  1.00  0.00     0.189 HD
ATOM      8  C   UNL d   1       2.025  -0.182   1.187  0.00  0.00     0.159 C 
ENDROOT
BRANCH   3   9
ATOM      9  S   UNL d   1       0.506  -2.853   0.317  0.00  0.00    -0.085 SA
BRANCH   9  10
ATOM     10  C   UNL d   1       0.234  -3.387  -1.399  0.00  0.00     0.166 C 
BRANCH  10  11
ATOM     11  C   UNL d   1       1.185  -2.728  -2.390  0.00  0.00     0.169 C 
ATOM     12  O   UNL d   1       1.995  -1.852  -2.082  0.00  0.00    -0.291 OA
BRANCH  11  13
ATOM     13  C   UNL d   1       1.142  -3.182  -3.820  0.00  0.00     0.010 A 
ATOM     14  C   UNL d   1       0.344  -4.256  -4.250  0.00  0.00     0.015 A 
ATOM     15  C   UNL d   1       0.365  -4.659  -5.588  0.00  0.00     0.001 A 
ATOM     16  C   UNL d   1       1.172  -3.994  -6.511  0.00  0.00     0.000 A 
ATOM     17  C   UNL d   1       1.960  -2.922  -6.099  0.00  0.00     0.001 A 
ATOM     18  C   UNL d   1       1.945  -2.521  -4.758  0.00  0.00     0.015 A 
ENDBRANCH  11  13
ENDBRANCH  10  11
ENDBRANCH   9  10
ENDBRANCH   3   9
BRANCH   2  19
ATOM     19  C   UNL d   1       0.516   2.360   0.256  0.00  0.00     0.138 C 
BRANCH  19  20
ATOM     20  C   UNL d   1      -0.545   3.471   0.260  0.00  0.00     0.266 C 
BRANCH  20  21
ATOM     21  O   UNL d   1      -1.030   3.615   1.607  0.00  0.00    -0.361 OA
BRANCH  21  22
ATOM     22  C   UNL d   1      -2.053   4.606   1.703  0.00  0.00     0.166 C 
ATOM     23  C   UNL d   1      -2.566   4.658   3.130  0.00  0.00     0.033 C 
ENDBRANCH  21  22
ENDBRANCH  20  21
BRANCH  20  24
ATOM     24  O   UNL d   1       0.065   4.710  -0.138  0.00  0.00    -0.361 OA
BRANCH  24  25
ATOM     25  C   UNL d   1       0.251   4.834  -1.544  0.00  0.00     0.166 C 
ATOM     26  C   UNL d   1       0.786   6.223  -1.830  0.00  0.00     0.033 C 
ENDBRANCH  24  25
ENDBRANCH  20  24
ENDBRANCH  19  20
ENDBRANCH   2  19
TORSDOF 10
