REMARK  4 active torsions:
REMARK  status: ('A' for Active; 'I' for Inactive)
REMARK    1  A    between atoms: C_3  and  C_1 
REMARK    2  A    between atoms: C_6  and  C_2 
REMARK       I    between atoms: N_9  and  C_3 
REMARK    3  A    between atoms: O_10  and  C_8 
REMARK    4  A    between atoms: C_13  and  O_10 
ROOT
ATOM      1  C   UNL d   1       0.837   0.549  -0.571  0.00  0.00     0.112 C 
ATOM      2  C   UNL d   1       0.361  -0.674  -0.885  0.00  0.00     0.042 C 
ATOM      3  C   UNL d   1       1.991   1.105  -1.180  0.00  0.00     0.105 C 
ATOM      4  N   UNL d   1       2.917   1.625  -1.653  0.00  0.00    -0.191 NA
ENDROOT
BRANCH   1   5
ATOM      5  C   UNL d   1       0.080   1.336   0.446  0.00  0.00     0.260 C 
ATOM      6  O   UNL d   1      -0.917   0.907   1.018  0.00  0.00    -0.267 OA
ATOM      7  N   UNL d   1       0.539   2.589   0.725  0.00  0.00    -0.365 N 
ATOM      8  H   UNL d   1       1.348   3.026   0.301  0.00  0.00     0.159 HD
ATOM      9  H   UNL d   1       0.023   3.130   1.411  0.00  0.00     0.159 HD
ENDBRANCH   1   5
BRANCH   2  10
ATOM     10  C   UNL d   1       0.977  -1.543  -1.896  0.00  0.00    -0.001 A 
ATOM     11  C   UNL d   1       1.988  -2.481  -1.632  0.00  0.00     0.079 A 
ATOM     12  C   UNL d   1       2.635  -3.106  -2.708  0.00  0.00     0.037 A 
ATOM     13  C   UNL d   1       2.268  -2.841  -4.027  0.00  0.00     0.003 A 
ATOM     14  C   UNL d   1       1.237  -1.949  -4.288  0.00  0.00     0.001 A 
ATOM     15  C   UNL d   1       0.594  -1.306  -3.231  0.00  0.00     0.014 A 
BRANCH  11  16
ATOM     16  O   UNL d   1       2.516  -2.836  -0.423  0.00  0.00    -0.351 OA
BRANCH  16  17
ATOM     17  C   UNL d   1       1.669  -2.846   0.723  0.00  0.00     0.171 C 
ATOM     18  C   UNL d   1       2.178  -3.926   1.666  0.00  0.00     0.034 C 
ENDBRANCH  16  17
ENDBRANCH  11  16
ENDBRANCH   2  10
TORSDOF 4
