REMARK  8 active torsions:
REMARK  status: ('A' for Active; 'I' for Inactive)
REMARK    1  A    between atoms: C_2  and  C_1 
REMARK       I    between atoms: C_5  and  N_17 
REMARK    2  A    between atoms: C_7  and  C_5 
REMARK    3  A    between atoms: C_6  and  C_8 
REMARK    4  A    between atoms: O_20  and  C_6 
REMARK    5  A    between atoms: N_18  and  C_9 
REMARK    6  A    between atoms: N_17  and  C_21 
REMARK    7  A    between atoms: C_22  and  N_18 
REMARK    8  A    between atoms: C_21  and  C_22 
ROOT
ATOM      1  N   UNL d   1      -0.431  -4.769  -2.528  0.00  0.00    -0.375 N 
ATOM      2  H   UNL d   1      -1.200  -4.637  -3.174  0.00  0.00     0.161 HD
ENDROOT
BRANCH   1   3
ATOM      3  C   UNL d   1      -0.105  -3.613  -1.862  0.00  0.00     0.100 A 
ATOM      4  C   UNL d   1       0.778  -3.568  -0.789  0.00  0.00     0.049 A 
ATOM      5  C   UNL d   1       1.100  -2.344  -0.207  0.00  0.00     0.021 A 
ATOM      6  C   UNL d   1       0.550  -1.170  -0.719  0.00  0.00     0.063 A 
ATOM      7  C   UNL d   1      -0.325  -1.301  -1.784  0.00  0.00     0.106 A 
ATOM      8  N   UNL d   1      -0.661  -2.487  -2.351  0.00  0.00    -0.352 N 
ATOM      9  HN  UNL d   1      -1.319  -2.526  -3.129  1.00  0.00     0.166 HD
BRANCH   6  10
ATOM     10  C   UNL d   1       0.897   0.167  -0.147  0.00  0.00     0.418 C 
ATOM     11  F   UNL d   1       0.301   1.211  -0.787  0.00  0.00    -0.166 F 
ATOM     12  F   UNL d   1       2.235   0.419  -0.192  0.00  0.00    -0.166 F 
ATOM     13  F   UNL d   1       0.543   0.282   1.163  0.00  0.00    -0.166 F 
ENDBRANCH   6  10
ENDBRANCH   1   3
BRANCH   1  14
ATOM     14  C   UNL d   1      -0.081  -6.094  -2.048  0.00  0.00     0.141 C 
BRANCH  14  15
ATOM     15  C   UNL d   1      -0.693  -7.192  -2.932  0.00  0.00     0.142 C 
BRANCH  15  16
ATOM     16  N   UNL d   1      -0.198  -8.529  -2.635  0.00  0.00    -0.356 N 
ATOM     17  C   UNL d   1      -0.469  -9.161  -1.449  0.00  0.00     0.241 C 
ATOM     18  O   UNL d   1      -1.069  -8.649  -0.512  0.00  0.00    -0.269 OA
ATOM     19  H   UNL d   1       0.273  -9.031  -3.377  0.00  0.00     0.162 HD
BRANCH  17  20
ATOM     20  C   UNL d   1       0.041 -10.549  -1.396  0.00  0.00     0.080 C 
ATOM     21  C   UNL d   1      -0.133 -11.269  -0.279  0.00  0.00     0.086 C 
BRANCH  21  22
ATOM     22  C   UNL d   1       0.366 -12.655  -0.254  0.00  0.00     0.165 C 
ATOM     23  O   UNL d   1       0.932 -13.196  -1.188  0.00  0.00    -0.647 OA
BRANCH  22  24
ATOM     24  O   UNL d   1       0.129 -13.263   0.923  0.00  0.00    -0.773 OA
ATOM     25  H   UNL d   1      -0.333 -12.726   1.593  0.00  0.00     0.167 HD
ENDBRANCH  22  24
ENDBRANCH  21  22
ENDBRANCH  17  20
ENDBRANCH  15  16
ENDBRANCH  14  15
ENDBRANCH   1  14
TORSDOF 8
