REMARK  3 active torsions:
REMARK  status: ('A' for Active; 'I' for Inactive)
REMARK    1  A    between atoms: N_8  and  C_1 
REMARK       I    between atoms: C_7  and  N_8 
REMARK       I    between atoms: N_10  and  C_7 
REMARK    2  A    between atoms: C_9  and  N_10 
REMARK    3  A    between atoms: O_19  and  C_12 
ROOT
ATOM      1  C   UNL d   1      -2.771  -2.326  -0.382  0.00  0.00     0.325 C 
ATOM      2  N   UNL d   1      -1.434  -2.077  -0.152  0.00  0.00    -0.305 N 
ATOM      3  N   UNL d   1      -3.515  -1.154  -0.396  0.00  0.00    -0.306 N 
ATOM      4  O   UNL d   1      -3.249  -3.429  -0.596  0.00  0.00    -0.247 OA
ATOM      5  H   UNL d   1      -1.127  -1.119  -0.117  0.00  0.00     0.171 HD
ATOM      6  H   UNL d   1      -3.018  -0.279  -0.464  0.00  0.00     0.171 HD
ENDROOT
BRANCH   2   7
ATOM      7  C   UNL d   1      -0.440  -3.035  -0.029  0.00  0.00     0.077 A 
ATOM      8  C   UNL d   1      -0.424  -4.463   0.050  0.00  0.00     0.050 A 
ATOM      9  N   UNL d   1       0.827  -4.927   0.207  0.00  0.00    -0.301 N 
ATOM     10  C   UNL d   1      -1.528  -5.456   0.027  0.00  0.00     0.072 C 
ATOM     11  N   UNL d   1       1.588  -3.829   0.242  0.00  0.00    -0.305 N 
ATOM     12  HN  UNL d   1       1.127  -5.899   0.284  1.00  0.00     0.187 HD
ATOM     13  C   UNL d   1       0.887  -2.674   0.073  0.00  0.00     0.141 A 
ATOM     14  C   UNL d   1       2.998  -3.949   0.520  0.00  0.00     0.177 C 
ENDBRANCH   2   7
BRANCH   3  15
ATOM     15  C   UNL d   1      -4.898  -1.099  -0.695  0.00  0.00     0.071 A 
ATOM     16  C   UNL d   1      -5.756  -2.166  -0.398  0.00  0.00     0.056 A 
ATOM     17  C   UNL d   1      -7.106  -2.104  -0.737  0.00  0.00     0.036 A 
ATOM     18 CL   UNL d   1      -8.146  -3.418  -0.339  0.00  0.00    -0.084 Cl
ATOM     19  C   UNL d   1      -7.624  -0.983  -1.377  0.00  0.00     0.026 A 
ATOM     20  C   UNL d   1      -6.790   0.108  -1.636  0.00  0.00     0.041 A 
ATOM     21  C   UNL d   1      -5.436   0.057  -1.288  0.00  0.00     0.095 A 
BRANCH  21  22
ATOM     22  O   UNL d   1      -4.712   1.204  -1.486  0.00  0.00    -0.354 OA
ATOM     23  C   UNL d   1      -3.697   1.088  -2.483  0.00  0.00     0.210 C 
ENDBRANCH  21  22
ENDBRANCH   3  15
TORSDOF 3
