REMARK  7 active torsions:
REMARK  status: ('A' for Active; 'I' for Inactive)
REMARK    1  A    between atoms: C_2  and  N_1 
REMARK       I    between atoms: C_3  and  N_1 
REMARK    2  A    between atoms: N_5  and  C_2 
REMARK    3  A    between atoms: C_8  and  C_3 
REMARK    4  A    between atoms: C_4  and  C_6 
REMARK    5  A    between atoms: O_19  and  C_4 
REMARK    6  A    between atoms: C_13  and  N_5 
REMARK    7  A    between atoms: C_9  and  C_10 
ROOT
ATOM      1  N   UNL d   1       1.212  -0.098  -0.063  0.00  0.00    -0.299 N 
ATOM      2  C   UNL d   1       2.337   0.713  -0.060  0.00  0.00     0.257 C 
ATOM      3  O   UNL d   1       2.795   1.269  -1.059  0.00  0.00    -0.267 OA
ATOM      4  H   UNL d   1       0.977  -0.584   0.787  0.00  0.00     0.171 HD
ENDROOT
BRANCH   1   5
ATOM      5  C   UNL d   1       0.183  -0.111  -0.990  0.00  0.00     0.179 C 
ATOM      6  S   UNL d   1      -0.258   1.113  -2.036  0.00  0.00    -0.040 SA
BRANCH   5   7
ATOM      7  N   UNL d   1      -0.600  -1.243  -0.962  0.00  0.00    -0.333 N 
ATOM      8  H   UNL d   1      -1.495  -1.136  -1.432  0.00  0.00     0.168 HD
BRANCH   7   9
ATOM      9  C   UNL d   1      -0.172  -2.580  -0.799  0.00  0.00     0.035 A 
ATOM     10  C   UNL d   1       1.170  -2.963  -0.898  0.00  0.00     0.047 A 
ATOM     11  C   UNL d   1       1.524  -4.319  -0.877  0.00  0.00     0.041 A 
ATOM     12  C   UNL d   1       0.530  -5.291  -0.707  0.00  0.00     0.018 A 
ATOM     13  C   UNL d   1      -0.808  -4.910  -0.595  0.00  0.00     0.003 A 
ATOM     14  C   UNL d   1      -1.158  -3.561  -0.662  0.00  0.00     0.029 A 
BRANCH  11  15
ATOM     15  C   UNL d   1       2.924  -4.775  -1.109  0.00  0.00     0.293 C 
ATOM     16  O   UNL d   1       3.273  -5.939  -1.050  0.00  0.00    -0.259 OA
BRANCH  15  17
ATOM     17  O   UNL d   1       3.711  -3.720  -1.442  0.00  0.00    -0.323 OA
ATOM     18  C   UNL d   1       5.037  -4.075  -1.837  0.00  0.00     0.213 C 
ENDBRANCH  15  17
ENDBRANCH  11  15
ENDBRANCH   7   9
ENDBRANCH   5   7
ENDBRANCH   1   5
BRANCH   2  19
ATOM     19  C   UNL d   1       3.092   0.833   1.217  0.00  0.00     0.032 A 
ATOM     20  C   UNL d   1       3.137  -0.159   2.201  0.00  0.00     0.017 A 
ATOM     21  C   UNL d   1       3.872   0.060   3.378  0.00  0.00     0.009 A 
ATOM     22  C   UNL d   1       4.572   1.262   3.606  0.00  0.00    -0.051 A 
ATOM     23  C   UNL d   1       4.549   2.219   2.578  0.00  0.00     0.009 A 
ATOM     24  C   UNL d   1       3.822   2.008   1.406  0.00  0.00     0.017 A 
BRANCH  22  25
ATOM     25  C   UNL d   1       5.282   1.529   4.947  0.00  0.00    -0.024 C 
ATOM     26  C   UNL d   1       5.945   2.925   5.027  0.00  0.00     0.019 C 
ATOM     27  C   UNL d   1       4.245   1.455   6.089  0.00  0.00     0.019 C 
ATOM     28  C   UNL d   1       6.390   0.487   5.206  0.00  0.00     0.019 C 
ENDBRANCH  22  25
ENDBRANCH   2  19
TORSDOF 7
