REMARK  6 active torsions:
REMARK  status: ('A' for Active; 'I' for Inactive)
REMARK    1  A    between atoms: C_6  and  C_1 
REMARK    2  A    between atoms: S_2  and  C_7 
REMARK    3  A    between atoms: C_10  and  S_2 
REMARK    4  A    between atoms: C_7  and  C_5 
REMARK       I    between atoms: N_16  and  C_6 
REMARK    5  A    between atoms: C_11  and  C_10 
REMARK    6  A    between atoms: N_20  and  N_16 
ROOT
ATOM      1  C   UNL d   1       0.678   0.947   0.667  0.00  0.00     0.109 A 
ATOM      2  N   UNL d   1       0.437  -0.386   1.015  0.00  0.00    -0.348 N 
ATOM      3  HN  UNL d   1       0.351  -0.731   1.971  1.00  0.00     0.166 HD
ATOM      4  C   UNL d   1       0.335  -1.132  -0.065  0.00  0.00     0.065 A 
ATOM      5  C   UNL d   1       0.733   1.176  -0.693  0.00  0.00     0.086 A 
ATOM      6  S   UNL d   1       0.463  -0.278  -1.554  0.00  0.00    -0.085 SA
ENDROOT
BRANCH   4   7
ATOM      7  C   UNL d   1       0.073  -2.596  -0.051  0.00  0.00     0.205 C 
BRANCH   7   8
ATOM      8  S   UNL d   1       1.629  -3.469   0.018  0.00  0.00     0.156 S 
ATOM      9  O   UNL d   1       1.325  -4.891   0.105  0.00  0.00    -0.227 OA
ATOM     10  O   UNL d   1       2.466  -3.009  -1.078  0.00  0.00    -0.227 OA
BRANCH   8  11
ATOM     11  C   UNL d   1       2.428  -2.975   1.545  0.00  0.00     0.205 C 
BRANCH  11  12
ATOM     12  C   UNL d   1       1.584  -3.365   2.693  0.00  0.00     0.066 A 
ATOM     13  O   UNL d   1       0.715  -2.424   3.159  0.00  0.00    -0.326 OA
ATOM     14  C   UNL d   1       0.029  -2.987   4.185  0.00  0.00     0.142 A 
ATOM     15  C   UNL d   1       0.460  -4.273   4.401  0.00  0.00     0.027 A 
ATOM     16  C   UNL d   1       1.473  -4.518   3.442  0.00  0.00     0.035 A 
ENDBRANCH  11  12
ENDBRANCH   8  11
ENDBRANCH   7   8
ENDBRANCH   4   7
BRANCH   1  17
ATOM     17  C   UNL d   1       0.862   1.984   1.685  0.00  0.00     0.282 C 
ATOM     18  O   UNL d   1       1.125   3.156   1.421  0.00  0.00    -0.265 OA
ATOM     19  N   UNL d   1       0.719   1.505   2.982  0.00  0.00    -0.288 N 
ATOM     20  H   UNL d   1       0.429   0.533   3.104  0.00  0.00     0.183 HD
BRANCH  19  21
ATOM     21  N   UNL d   1       0.817   2.377   4.091  0.00  0.00    -0.247 NA
ATOM     22  H   UNL d   1       0.857   3.336   3.719  0.00  0.00     0.143 HD
ATOM     23  H   UNL d   1       1.736   2.237   4.519  0.00  0.00     0.143 HD
ENDBRANCH  19  21
ENDBRANCH   1  17
TORSDOF 6
