REMARK  2 active torsions:
REMARK  status: ('A' for Active; 'I' for Inactive)
REMARK    1  A    between atoms: C_13  and  C_3 
REMARK    2  A    between atoms: C_16  and  N_4 
ROOT
ATOM      1  C   UNL d   1      -0.524  -1.239   0.052  0.00  0.00     0.105 A 
ATOM      2  C   UNL d   1      -0.964  -2.593   0.006  0.00  0.00     0.193 A 
ATOM      3  C   UNL d   1      -2.158  -4.318  -0.405  0.00  0.00     0.176 A 
ATOM      4  N   UNL d   1       0.776  -0.805   0.099  0.00  0.00    -0.288 N 
ATOM      5  O   UNL d   1      -2.174  -2.959  -0.530  0.00  0.00    -0.271 OA
ATOM      6  N   UNL d   1      -0.299  -3.635   0.467  0.00  0.00    -0.276 N 
ATOM      7  HN  UNL d   1       0.616  -3.621   0.916  1.00  0.00     0.189 HD
ATOM      8  N   UNL d   1      -1.082  -4.748   0.225  0.00  0.00    -0.277 N 
ATOM      9  HN  UNL d   1      -0.869  -5.712   0.482  1.00  0.00     0.189 HD
ATOM     10  N   UNL d   1       0.879   0.544   0.127  0.00  0.00    -0.303 N 
ATOM     11  HN  UNL d   1       1.729   1.104   0.187  1.00  0.00     0.186 HD
ATOM     12  C   UNL d   1      -1.296  -0.098   0.010  0.00  0.00     0.061 A 
ATOM     13  C   UNL d   1      -0.384   0.976   0.059  0.00  0.00     0.024 A 
ATOM     14  C   UNL d   1      -0.685   2.427   0.022  0.00  0.00     0.070 C 
ENDROOT
BRANCH   4  15
ATOM     15  C   UNL d   1       1.999  -1.581  -0.037  0.00  0.00     0.145 C 
ATOM     16  C   UNL d   1       2.607  -1.991   1.291  0.00  0.00     0.028 C 
ENDBRANCH   4  15
BRANCH   3  17
ATOM     17  C   UNL d   1      -3.313  -5.061  -0.898  0.00  0.00     0.038 A 
ATOM     18  C   UNL d   1      -4.080  -4.682  -2.015  0.00  0.00     0.048 A 
ATOM     19 CL   UNL d   1      -3.719  -3.302  -2.997  0.00  0.00    -0.083 Cl
ATOM     20  C   UNL d   1      -5.177  -5.458  -2.421  0.00  0.00     0.025 A 
ATOM     21  C   UNL d   1      -5.518  -6.619  -1.732  0.00  0.00     0.002 A 
ATOM     22  C   UNL d   1      -4.761  -7.016  -0.634  0.00  0.00     0.001 A 
ATOM     23  C   UNL d   1      -3.667  -6.245  -0.224  0.00  0.00     0.017 A 
ENDBRANCH   3  17
TORSDOF 2
