REMARK  2 active torsions:
REMARK  status: ('A' for Active; 'I' for Inactive)
REMARK       I    between atoms: C_2  and  N_1 
REMARK    1  A    between atoms: C_3  and  N_1 
REMARK    2  A    between atoms: C_4  and  C_2 
ROOT
ATOM      1  N   UNL d   1       1.035  -0.195  -0.133  0.00  0.00    -0.155 N 
ATOM      2  C   UNL d   1       0.190  -1.246   0.113  0.00  0.00     0.269 C 
ATOM      3  O   UNL d   1      -1.016  -1.175   0.335  0.00  0.00    -0.267 OA
ATOM      4  H   UNL d   1       2.020  -0.319  -0.289  0.00  0.00     0.187 HD
ENDROOT
BRANCH   1   5
ATOM      5  C   UNL d   1       0.644   1.132  -0.261  0.00  0.00     0.684 A 
ATOM      6  N   UNL d   1      -0.610   1.522  -0.010  0.00  0.00    -0.202 N 
ATOM      7  C   UNL d   1      -0.907   2.815  -0.221  0.00  0.00     0.107 A 
ATOM      8  HN  UNL d   1      -1.313   0.865   0.328  1.00  0.00     0.183 HD
ATOM      9  C   UNL d   1       0.003   3.729  -0.687  0.00  0.00     0.035 A 
ATOM     10  C   UNL d   1       1.267   3.238  -0.902  0.00  0.00     0.107 A 
ATOM     11  N   UNL d   1       1.618   1.954  -0.685  0.00  0.00    -0.202 N 
ATOM     12  HN  UNL d   1       2.572   1.624  -0.835  1.00  0.00     0.183 HD
ENDBRANCH   1   5
BRANCH   2  13
ATOM     13  C   UNL d   1       0.799  -2.612   0.092  0.00  0.00     0.033 A 
ATOM     14  C   UNL d   1       0.094  -3.645   0.733  0.00  0.00     0.018 A 
ATOM     15  C   UNL d   1       0.564  -4.962   0.693  0.00  0.00     0.025 A 
ATOM     16  C   UNL d   1       1.742  -5.250   0.013  0.00  0.00     0.034 A 
ATOM     17  C   UNL d   1       2.456  -4.236  -0.624  0.00  0.00     0.025 A 
ATOM     18 CL   UNL d   1       2.304  -6.874  -0.067  0.00  0.00    -0.084 Cl
ATOM     19  C   UNL d   1       1.986  -2.916  -0.589  0.00  0.00     0.018 A 
ENDBRANCH   2  13
TORSDOF 2
