REMARK  7 active torsions:
REMARK  status: ('A' for Active; 'I' for Inactive)
REMARK    1  A    between atoms: C_2  and  C_1 
REMARK    2  A    between atoms: C_12  and  C_2 
REMARK    3  A    between atoms: N_9  and  N_5 
REMARK    4  A    between atoms: N_16  and  C_7 
REMARK    5  A    between atoms: C_8  and  N_9 
REMARK    6  A    between atoms: O_17  and  C_12 
REMARK    7  A    between atoms: C_23  and  O_17 
ROOT
ATOM      1  C   UNL d   1      -1.984  -2.440   0.045  0.00  0.00     0.151 C 
ATOM      2  N   UNL d   1      -3.278  -2.326   0.182  0.00  0.00    -0.293 N 
ATOM      3  HN  UNL d   1      -3.860  -3.158   0.282  1.00  0.00     0.187 HD
ENDROOT
BRANCH   1   4
ATOM      4  C   UNL d   1      -1.448  -3.801   0.004  0.00  0.00     0.075 A 
ATOM      5  N   UNL d   1      -0.215  -4.077  -0.587  0.00  0.00    -0.335 N 
ATOM      6  C   UNL d   1       0.077  -5.344  -0.464  0.00  0.00     0.142 A 
ATOM      7  HN  UNL d   1       0.375  -3.387  -1.050  1.00  0.00     0.168 HD
ATOM      8  S   UNL d   1      -1.109  -6.306   0.315  0.00  0.00    -0.064 SA
ATOM      9  C   UNL d   1      -2.082  -4.913   0.524  0.00  0.00     0.085 A 
BRANCH   6  10
ATOM     10  N   UNL d   1       1.221  -5.881  -0.922  0.00  0.00    -0.380 N 
ATOM     11  H   UNL d   1       1.731  -5.334  -1.605  0.00  0.00     0.158 HD
ATOM     12  H   UNL d   1       1.258  -6.881  -1.066  0.00  0.00     0.158 HD
ENDBRANCH   6  10
ENDBRANCH   1   4
BRANCH   1  13
ATOM     13  C   UNL d   1      -1.039  -1.253  -0.101  0.00  0.00     0.313 C 
ATOM     14  O   UNL d   1      -1.310  -0.275  -0.779  0.00  0.00    -0.257 OA
BRANCH  13  15
ATOM     15  O   UNL d   1       0.111  -1.499   0.564  0.00  0.00    -0.317 OA
BRANCH  15  16
ATOM     16  C   UNL d   1       1.252  -0.746   0.136  0.00  0.00     0.175 C 
ATOM     17  C   UNL d   1       1.831  -1.378  -1.120  0.00  0.00     0.034 C 
ENDBRANCH  15  16
ENDBRANCH  13  15
ENDBRANCH   1  13
BRANCH   2  18
ATOM     18  N   UNL d   1      -3.844  -1.089   0.190  0.00  0.00    -0.297 N 
ATOM     19  H   UNL d   1      -3.423  -0.365  -0.413  0.00  0.00     0.187 HD
BRANCH  18  20
ATOM     20  C   UNL d   1      -5.270  -1.009   0.181  0.00  0.00     0.091 A 
ATOM     21  C   UNL d   1      -6.133  -1.958   0.775  0.00  0.00     0.063 A 
ATOM     22 CL   UNL d   1      -5.592  -3.377   1.614  0.00  0.00    -0.082 Cl
ATOM     23  C   UNL d   1      -7.528  -1.779   0.760  0.00  0.00     0.026 A 
ATOM     24  C   UNL d   1      -8.096  -0.648   0.183  0.00  0.00     0.003 A 
ATOM     25  C   UNL d   1      -7.271   0.315  -0.383  0.00  0.00     0.026 A 
ATOM     26  C   UNL d   1      -5.881   0.138  -0.380  0.00  0.00     0.063 A 
ATOM     27 CL   UNL d   1      -4.922   1.382  -1.115  0.00  0.00    -0.082 Cl
ENDBRANCH  18  20
ENDBRANCH   2  18
TORSDOF 7
