REMARK  6 active torsions:
REMARK  status: ('A' for Active; 'I' for Inactive)
REMARK    1  A    between atoms: C_5  and  S_1 
REMARK    2  A    between atoms: C_8  and  S_1 
REMARK    3  A    between atoms: C_2  and  C_5 
REMARK    4  A    between atoms: C_16  and  C_6 
REMARK    5  A    between atoms: C_12  and  S_15 
REMARK    6  A    between atoms: S_15  and  C_16 
ROOT
ATOM      1  C   UNL d   1       0.770   2.190   1.589  0.00  0.00     0.065 A 
ATOM      2  N   UNL d   1       1.311   1.422   2.513  0.00  0.00    -0.355 N 
ATOM      3  HN  UNL d   1       1.454   0.417   2.419  1.00  0.00     0.166 HD
ATOM      4  C   UNL d   1       1.659   2.170   3.634  0.00  0.00     0.026 A 
ATOM      5  S   UNL d   1       0.700   3.863   1.988  0.00  0.00    -0.086 SA
ATOM      6  C   UNL d   1       1.381   3.521   3.520  0.00  0.00     0.077 A 
ENDROOT
BRANCH   1   7
ATOM      7  C   UNL d   1       0.328   1.707   0.252  0.00  0.00     0.210 C 
BRANCH   7   8
ATOM      8  S   UNL d   1      -1.417   1.346   0.344  0.00  0.00     0.181 S 
ATOM      9  O   UNL d   1      -2.159   2.588   0.458  0.00  0.00    -0.222 OA
ATOM     10  O   UNL d   1      -1.661   0.249   1.260  0.00  0.00    -0.222 OA
BRANCH   8  11
ATOM     11  C   UNL d   1      -1.782   0.707  -1.290  0.00  0.00     0.059 A 
ATOM     12  C   UNL d   1      -1.682  -0.668  -1.527  0.00  0.00     0.025 A 
ATOM     13  C   UNL d   1      -2.036  -1.179  -2.779  0.00  0.00     0.025 A 
ATOM     14  C   UNL d   1      -2.493  -0.318  -3.777  0.00  0.00     0.034 A 
ATOM     15  C   UNL d   1      -2.605   1.052  -3.534  0.00  0.00     0.025 A 
ATOM     16 CL   UNL d   1      -2.937  -0.953  -5.313  0.00  0.00    -0.084 Cl
ATOM     17  C   UNL d   1      -2.254   1.570  -2.284  0.00  0.00     0.025 A 
ENDBRANCH   8  11
ENDBRANCH   7   8
ENDBRANCH   1   7
BRANCH   4  18
ATOM     18  C   UNL d   1       2.233   1.485   4.841  0.00  0.00     0.138 C 
BRANCH  18  19
ATOM     19  S   UNL d   1       3.840   0.707   4.470  0.00  0.00    -0.106 SA
BRANCH  19  20
ATOM     20  C   UNL d   1       4.191  -0.049   6.048  0.00  0.00     0.069 A 
ATOM     21  N   UNL d   1       3.351   0.190   7.080  0.00  0.00    -0.361 N 
ATOM     22  C   UNL d   1       3.642  -0.392   8.266  0.00  0.00     0.089 A 
ATOM     23  HN  UNL d   1       2.530   0.785   6.969  1.00  0.00     0.165 HD
ATOM     24  C   UNL d   1       4.745  -1.202   8.479  0.00  0.00     0.017 A 
ATOM     25  C   UNL d   1       5.602  -1.431   7.410  0.00  0.00     0.004 A 
ATOM     26  C   UNL d   1       5.323  -0.849   6.176  0.00  0.00     0.037 A 
ENDBRANCH  19  20
ENDBRANCH  18  19
ENDBRANCH   4  18
TORSDOF 6
