REMARK  4 active torsions:
REMARK  status: ('A' for Active; 'I' for Inactive)
REMARK    1  A    between atoms: C_2  and  S_1 
REMARK    2  A    between atoms: N_3  and  S_1 
REMARK    3  A    between atoms: C_21  and  N_6 
REMARK    4  A    between atoms: C_20  and  C_21 
ROOT
ATOM      1  N   UNL d   1       0.258  -0.936   0.085  0.00  0.00    -0.303 N 
ATOM      2  N   UNL d   1      -0.455  -1.494   2.917  0.00  0.00     0.095 N 
ATOM      3  C   UNL d   1      -0.618  -0.026   0.868  0.00  0.00     0.165 C 
ATOM      4  C   UNL d   1       0.270  -2.333   0.594  0.00  0.00     0.165 C 
ATOM      5  C   UNL d   1       0.394  -2.421   2.133  0.00  0.00     0.293 C 
ATOM      6  C   UNL d   1      -0.289  -0.131   2.367  0.00  0.00     0.293 C 
ENDROOT
BRANCH   1   7
ATOM      7  S   UNL d   1       1.683  -0.270  -0.534  0.00  0.00     0.261 S 
ATOM      8  O   UNL d   1       2.153   0.751   0.374  0.00  0.00    -0.200 OA
ATOM      9  O   UNL d   1       2.547  -1.330  -1.006  0.00  0.00    -0.200 OA
BRANCH   7  10
ATOM     10  C   UNL d   1       1.038   0.534  -1.985  0.00  0.00     0.083 A 
ATOM     11  C   UNL d   1       0.924   1.925  -2.043  0.00  0.00     0.049 A 
ATOM     12  C   UNL d   1       0.382   2.505  -3.189  0.00  0.00     0.037 A 
ATOM     13 CL   UNL d   1       0.207   4.216  -3.276  0.00  0.00    -0.084 Cl
ATOM     14  C   UNL d   1      -0.034   1.719  -4.264  0.00  0.00     0.047 A 
ATOM     15  C   UNL d   1       0.100   0.334  -4.192  0.00  0.00     0.037 A 
ATOM     16  C   UNL d   1       0.636  -0.267  -3.059  0.00  0.00     0.049 A 
ATOM     17 CL   UNL d   1      -0.415  -0.644  -5.510  0.00  0.00    -0.084 Cl
ENDBRANCH   7  10
ENDBRANCH   1   7
BRANCH   2  18
ATOM     18  C   UNL d   1      -1.859  -1.938   2.957  0.00  0.00     0.311 C 
BRANCH  18  19
ATOM     19  C   UNL d   1      -2.757  -1.032   3.781  0.00  0.00    -0.027 A 
ATOM     20  C   UNL d   1      -3.758  -0.264   3.160  0.00  0.00     0.048 A 
ATOM     21  C   UNL d   1      -4.535   0.558   3.950  0.00  0.00     0.105 A 
ATOM     22  O   UNL d   1      -5.537   1.365   3.512  0.00  0.00    -0.323 OA
ATOM     23  C   UNL d   1      -4.354   0.639   5.312  0.00  0.00     0.105 A 
ATOM     24  C   UNL d   1      -5.987   1.942   4.756  0.00  0.00     0.352 A 
ATOM     25  O   UNL d   1      -5.226   1.502   5.900  0.00  0.00    -0.323 OA
ATOM     26  C   UNL d   1      -3.381  -0.090   5.956  0.00  0.00     0.040 A 
ATOM     27  C   UNL d   1      -2.574  -0.932   5.180  0.00  0.00     0.012 A 
ENDBRANCH  18  19
ENDBRANCH   2  18
TORSDOF 4
