REMARK  3 active torsions:
REMARK  status: ('A' for Active; 'I' for Inactive)
REMARK    1  A    between atoms: N_2  and  C_1 
REMARK       I    between atoms: N_3  and  C_7 
REMARK       I    between atoms: C_6  and  N_3 
REMARK    2  A    between atoms: C_7  and  C_5 
REMARK       I    between atoms: N_10  and  C_6 
REMARK    3  A    between atoms: C_11  and  N_10 
ROOT
ATOM      1  N   UNL d   1      -2.982  -2.749  -0.080  0.00  0.00    -0.273 N 
ATOM      2  C   UNL d   1      -3.874  -1.753  -0.335  0.00  0.00     0.327 C 
ATOM      3  C   UNL d   1      -1.607  -2.740   0.052  0.00  0.00     0.283 C 
ATOM      4  N   UNL d   1      -3.425  -0.462  -0.245  0.00  0.00    -0.306 N 
ATOM      5  O   UNL d   1      -5.012  -2.099  -0.652  0.00  0.00    -0.247 OA
ATOM      6  O   UNL d   1      -0.913  -1.729   0.019  0.00  0.00    -0.265 OA
ATOM      7  H   UNL d   1      -3.435  -3.651  -0.124  0.00  0.00     0.173 HD
ATOM      8  H   UNL d   1      -2.441  -0.323  -0.448  0.00  0.00     0.171 HD
ENDROOT
BRANCH   3   9
ATOM      9  C   UNL d   1      -1.122  -4.085   0.262  0.00  0.00     0.146 A 
ATOM     10  O   UNL d   1      -1.060  -4.931  -0.819  0.00  0.00    -0.283 OA
ATOM     11  C   UNL d   1      -0.796  -6.164  -0.314  0.00  0.00     0.215 A 
ATOM     12  C   UNL d   1      -0.712  -6.157   1.055  0.00  0.00     0.066 A 
ATOM     13  C   UNL d   1      -0.893  -4.798   1.429  0.00  0.00     0.047 A 
BRANCH  11  14
ATOM     14  N   UNL d   1      -0.779  -7.223  -1.258  0.00  0.00    -0.090 N 
ATOM     15  O   UNL d   1       0.237  -7.333  -1.954  0.00  0.00    -0.530 OA
ATOM     16  O   UNL d   1      -1.773  -7.959  -1.273  0.00  0.00    -0.530 OA
ENDBRANCH  11  14
ENDBRANCH   3   9
BRANCH   4  17
ATOM     17  C   UNL d   1      -4.306   0.640  -0.332  0.00  0.00     0.075 A 
ATOM     18  C   UNL d   1      -5.609   0.606   0.199  0.00  0.00     0.146 A 
ATOM     19  C   UNL d   1      -6.496   1.660   0.018  0.00  0.00     0.086 A 
ATOM     20  F   UNL d   1      -6.012  -0.417   0.968  0.00  0.00    -0.204 F 
ATOM     21  C   UNL d   1      -6.069   2.776  -0.681  0.00  0.00     0.119 A 
ATOM     22  C   UNL d   1      -4.765   2.867  -1.163  0.00  0.00     0.044 A 
ATOM     23  F   UNL d   1      -6.920   3.791  -0.883  0.00  0.00    -0.206 F 
ATOM     24  C   UNL d   1      -3.872   1.804  -0.974  0.00  0.00     0.036 A 
ENDBRANCH   4  17
TORSDOF 3
