REMARK  16 active torsions:
REMARK  status: ('A' for Active; 'I' for Inactive)
REMARK       I    between atoms: N_3  and  C_1 
REMARK    1  A    between atoms: O_6  and  C_1 
REMARK    2  A    between atoms: C_18  and  C_2 
REMARK    3  A    between atoms: C_2  and  C_4 
REMARK    4  A    between atoms: C_2  and  N_3 
REMARK    5  A    between atoms: O_7  and  C_4 
REMARK    6  A    between atoms: C_5  and  C_12 
REMARK    7  A    between atoms: O_17  and  C_5 
REMARK    8  A    between atoms: C_11  and  O_6 
REMARK    9  A    between atoms: C_13  and  O_7 
REMARK   10  A    between atoms: C_12  and  C_14 
REMARK   11  A    between atoms: C_15  and  C_13 
REMARK   12  A    between atoms: O_16  and  C_18 
REMARK   13  A    between atoms: C_24  and  O_16 
REMARK   14  A    between atoms: C_23  and  C_24 
REMARK   15  A    between atoms: C_36  and  N_35 
REMARK   16  A    between atoms: C_37  and  N_35 
ROOT
ATOM      1  N   UNL d   2       1.512   1.265  -1.008  0.00  0.00     0.092 N 
ATOM      2  H   UNL d   2       1.370   1.497  -0.026  0.00  0.00     0.316 HD
ENDROOT
BRANCH   1   3
ATOM      3  C   UNL d   2       0.835   2.230  -1.866  0.00  0.00     0.221 C 
ATOM      4  C   UNL d   2       1.410   3.615  -1.494  0.00  0.00     0.035 C 
ATOM      5  C   UNL d   2       0.953   4.098  -0.112  0.00  0.00     0.002 C 
ATOM      6  C   UNL d   2      -0.567   4.155  -0.029  0.00  0.00     0.000 C 
ATOM      7  C   UNL d   2      -1.220   2.831  -0.426  0.00  0.00     0.002 C 
ATOM      8  C   UNL d   2      -0.698   2.278  -1.754  0.00  0.00     0.035 C 
ENDBRANCH   1   3
BRANCH   1   9
ATOM      9  C   UNL d   2       1.324  -0.174  -1.177  0.00  0.00     0.221 C 
ATOM     10  C   UNL d   2       2.461  -0.827  -0.358  0.00  0.00     0.035 C 
ATOM     11  C   UNL d   2       3.831  -0.612  -1.012  0.00  0.00     0.002 C 
ATOM     12  C   UNL d   2       3.860  -1.195  -2.420  0.00  0.00     0.000 C 
ATOM     13  C   UNL d   2       2.723  -0.658  -3.288  0.00  0.00     0.002 C 
ATOM     14  C   UNL d   2       1.359  -0.748  -2.604  0.00  0.00     0.035 C 
ENDBRANCH   1   9
TORSDOF 16
