REMARK  9 active torsions:
REMARK  status: ('A' for Active; 'I' for Inactive)
REMARK    1  A    between atoms: C_9  and  C_1 
REMARK    2  A    between atoms: C_3  and  C_2 
REMARK    3  A    between atoms: C_6  and  C_10 
REMARK    4  A    between atoms: C_7  and  C_11 
REMARK    5  A    between atoms: S_17  and  C_8 
REMARK    6  A    between atoms: O_21  and  C_9 
REMARK    7  A    between atoms: C_16  and  S_17 
REMARK    8  A    between atoms: C_20  and  C_34 
REMARK    9  A    between atoms: C_34  and  O_21 
ROOT
ATOM      1  C   UNL d   1      -0.010  -1.513  -0.093  0.00  0.00     0.086 A 
ATOM      2  C   UNL d   1       1.222  -0.899  -0.093  0.00  0.00     0.136 A 
ATOM      3  N   UNL d   1       1.330   0.472  -0.078  0.00  0.00    -0.332 N 
ATOM      4  HN  UNL d   1       2.245   0.923  -0.061  1.00  0.00     0.168 HD
ATOM      5  C   UNL d   1       0.204   1.205  -0.088  0.00  0.00     0.149 A 
ATOM      6  N   UNL d   1      -1.029   0.685  -0.122  0.00  0.00    -0.345 N 
ATOM      7  HN  UNL d   1      -1.862   1.273  -0.144  1.00  0.00     0.167 HD
ATOM      8  C   UNL d   1      -1.107  -0.666  -0.127  0.00  0.00     0.110 A 
ENDROOT
BRANCH   5   9
ATOM      9  S   UNL d   1       0.352   2.965   0.055  0.00  0.00    -0.054 SA
BRANCH   9  10
ATOM     10  C   UNL d   1       0.457   3.472  -1.651  0.00  0.00     0.010 A 
ATOM     11  C   UNL d   1      -0.478   4.385  -2.155  0.00  0.00     0.035 A 
ATOM     12  C   UNL d   1      -0.386   4.865  -3.474  0.00  0.00     0.050 A 
ATOM     13  C   UNL d   1       0.665   4.416  -4.286  0.00  0.00     0.032 A 
ATOM     14  C   UNL d   1       1.620   3.506  -3.796  0.00  0.00     0.050 A 
ATOM     15  C   UNL d   1       1.506   3.045  -2.474  0.00  0.00     0.035 A 
BRANCH  12  16
ATOM     16  C   UNL d   1      -1.396   5.865  -3.985  0.00  0.00     0.417 C 
ATOM     17  F   UNL d   1      -1.198   6.219  -5.285  0.00  0.00    -0.166 F 
ATOM     18  F   UNL d   1      -2.673   5.398  -3.917  0.00  0.00    -0.166 F 
ATOM     19  F   UNL d   1      -1.381   7.026  -3.276  0.00  0.00    -0.166 F 
ENDBRANCH  12  16
BRANCH  14  20
ATOM     20  C   UNL d   1       2.767   3.034  -4.656  0.00  0.00     0.417 C 
ATOM     21  F   UNL d   1       2.727   3.520  -5.928  0.00  0.00    -0.166 F 
ATOM     22  F   UNL d   1       3.976   3.400  -4.153  0.00  0.00    -0.166 F 
ATOM     23  F   UNL d   1       2.801   1.678  -4.776  0.00  0.00    -0.166 F 
ENDBRANCH  14  20
ENDBRANCH   9  10
ENDBRANCH   5   9
BRANCH   2  24
ATOM     24  C   UNL d   1       2.523  -1.675  -0.130  0.00  0.00     0.433 C 
ATOM     25  F   UNL d   1       2.411  -2.966  -0.548  0.00  0.00    -0.165 F 
ATOM     26  F   UNL d   1       3.428  -1.114  -0.985  0.00  0.00    -0.165 F 
ATOM     27  F   UNL d   1       3.137  -1.717   1.084  0.00  0.00    -0.165 F 
ENDBRANCH   2  24
BRANCH   1  28
ATOM     28  C   UNL d   1      -0.305  -2.952  -0.072  0.00  0.00     0.297 C 
ATOM     29  O   UNL d   1      -1.218  -3.423  -0.738  0.00  0.00    -0.259 OA
BRANCH  28  30
ATOM     30  O   UNL d   1       0.404  -3.582   0.897  0.00  0.00    -0.317 OA
BRANCH  30  31
ATOM     31  C   UNL d   1      -0.135  -4.859   1.299  0.00  0.00     0.183 C 
BRANCH  31  32
ATOM     32  C   UNL d   1       0.623  -6.006   0.699  0.00  0.00     0.010 A 
ATOM     33  C   UNL d   1       0.514  -6.408  -0.750  0.00  0.00     0.007 A 
ATOM     34  C   UNL d   1      -0.149  -7.245   0.306  0.00  0.00     0.007 A 
ENDBRANCH  31  32
ENDBRANCH  30  31
ENDBRANCH  28  30
ENDBRANCH   1  28
TORSDOF 9
