REMARK  3 active torsions:
REMARK  status: ('A' for Active; 'I' for Inactive)
REMARK    1  A    between atoms: C_7  and  C_1 
REMARK    2  A    between atoms: C_8  and  C_3 
REMARK       I    between atoms: N_9  and  C_7 
REMARK    3  A    between atoms: C_15  and  N_9 
ROOT
ATOM      1  C   UNL d   1      -0.204  -1.061  -0.254  0.00  0.00     0.097 A 
ATOM      2  S   UNL d   1       1.302  -0.303  -0.513  0.00  0.00    -0.064 SA
ATOM      3  C   UNL d   1       0.591   1.243  -0.215  0.00  0.00     0.085 A 
ATOM      4  N   UNL d   1      -0.720   1.214  -0.066  0.00  0.00    -0.352 N 
ATOM      5  HN  UNL d   1      -1.311   2.038   0.039  1.00  0.00     0.166 HD
ATOM      6  C   UNL d   1      -1.181  -0.095  -0.071  0.00  0.00     0.029 A 
ATOM      7  C   UNL d   1      -2.636  -0.336   0.143  0.00  0.00     0.070 C 
ENDROOT
BRANCH   1   8
ATOM      8  C   UNL d   1      -0.382  -2.503  -0.205  0.00  0.00     0.265 C 
ATOM      9  N   UNL d   1       0.727  -3.277  -0.543  0.00  0.00    -0.322 N 
ATOM     10  H   UNL d   1       1.593  -2.780  -0.705  0.00  0.00     0.169 HD
ATOM     11  O   UNL d   1      -1.452  -2.979   0.163  0.00  0.00    -0.267 OA
BRANCH   9  12
ATOM     12  C   UNL d   1       0.788  -4.690  -0.486  0.00  0.00     0.037 A 
ATOM     13  C   UNL d   1      -0.348  -5.496  -0.369  0.00  0.00     0.069 A 
ATOM     14  C   UNL d   1      -0.231  -6.867  -0.157  0.00  0.00     0.104 A 
ATOM     15  O   UNL d   1      -1.401  -7.555   0.041  0.00  0.00    -0.346 OA
ATOM     16  C   UNL d   1       1.025  -7.470  -0.128  0.00  0.00     0.102 A 
ATOM     17  C   UNL d   1      -1.149  -8.772   0.747  0.00  0.00     0.202 C 
ATOM     18  C   UNL d   1      -0.024  -9.539   0.073  0.00  0.00     0.202 C 
ATOM     19  O   UNL d   1       1.210  -8.807   0.109  0.00  0.00    -0.346 OA
ATOM     20  C   UNL d   1       2.164  -6.690  -0.317  0.00  0.00     0.042 A 
ATOM     21  C   UNL d   1       2.047  -5.304  -0.502  0.00  0.00     0.032 A 
ENDBRANCH   9  12
ENDBRANCH   1   8
BRANCH   3  22
ATOM     22  C   UNL d   1       1.413   2.468  -0.145  0.00  0.00     0.000 A 
ATOM     23  C   UNL d   1       2.800   2.421   0.069  0.00  0.00     0.051 A 
ATOM     24  C   UNL d   1       3.507   3.603   0.141  0.00  0.00     0.076 A 
ATOM     25  O   UNL d   1       4.860   3.669   0.357  0.00  0.00    -0.350 OA
ATOM     26  C   UNL d   1       2.897   4.838   0.030  0.00  0.00    -0.023 A 
ATOM     27  C   UNL d   1       5.177   5.050   0.067  0.00  0.00     0.180 C 
ATOM     28  C   UNL d   1       3.912   5.897   0.231  0.00  0.00     0.068 C 
ATOM     29  C   UNL d   1       1.531   4.932  -0.157  0.00  0.00     0.011 A 
ATOM     30  C   UNL d   1       0.792   3.738  -0.249  0.00  0.00     0.015 A 
ENDBRANCH   3  22
TORSDOF 3
