REMARK  3 active torsions:
REMARK  status: ('A' for Active; 'I' for Inactive)
REMARK    1  A    between atoms: C_6  and  C_1 
REMARK    2  A    between atoms: S_13  and  C_3 
REMARK       I    between atoms: N_7  and  C_6 
REMARK    3  A    between atoms: C_8  and  N_7 
ROOT
ATOM      1  C   UNL d   1      -2.367  -2.092  -0.024  0.00  0.00     0.263 C 
ATOM      2  N   UNL d   1      -3.755  -2.111   0.073  0.00  0.00    -0.320 N 
ATOM      3  O   UNL d   1      -1.687  -3.108  -0.132  0.00  0.00    -0.267 OA
ATOM      4  H   UNL d   1      -4.210  -1.222  -0.097  0.00  0.00     0.169 HD
ENDROOT
BRANCH   1   5
ATOM      5  C   UNL d   1      -1.753  -0.758  -0.075  0.00  0.00     0.081 A 
ATOM      6  S   UNL d   1      -2.697   0.675  -0.043  0.00  0.00    -0.076 SA
ATOM      7  C   UNL d   1      -1.322   1.699  -0.035  0.00  0.00     0.052 A 
ATOM      8  C   UNL d   1      -0.158   0.961  -0.092  0.00  0.00    -0.005 A 
ATOM      9  C   UNL d   1      -0.398  -0.456  -0.148  0.00  0.00    -0.023 A 
ATOM     10  C   UNL d   1       1.179   1.465  -0.064  0.00  0.00     0.010 C 
ATOM     11  C   UNL d   1       0.737  -1.449  -0.181  0.00  0.00     0.045 C 
ATOM     12  C   UNL d   1       2.122  -0.826  -0.447  0.00  0.00     0.032 C 
ATOM     13  C   UNL d   1       2.240   0.658  -0.222  0.00  0.00    -0.025 C 
BRANCH   7  14
ATOM     14  S   UNL d   1      -1.531   3.443   0.118  0.00  0.00    -0.126 SA
ATOM     15  C   UNL d   1      -0.893   4.035  -1.465  0.00  0.00     0.096 C 
ENDBRANCH   7  14
ENDBRANCH   1   5
BRANCH   2  16
ATOM     16  C   UNL d   1      -4.566  -3.269   0.087  0.00  0.00     0.074 A 
ATOM     17  C   UNL d   1      -4.155  -4.526   0.556  0.00  0.00     0.146 A 
ATOM     18  C   UNL d   1      -4.964  -5.651   0.425  0.00  0.00     0.086 A 
ATOM     19  F   UNL d   1      -3.005  -4.677   1.231  0.00  0.00    -0.204 F 
ATOM     20  C   UNL d   1      -6.215  -5.519  -0.156  0.00  0.00     0.119 A 
ATOM     21  C   UNL d   1      -6.684  -4.271  -0.557  0.00  0.00     0.044 A 
ATOM     22  F   UNL d   1      -6.987  -6.598  -0.322  0.00  0.00    -0.206 F 
ATOM     23  C   UNL d   1      -5.868  -3.144  -0.419  0.00  0.00     0.036 A 
ENDBRANCH   2  16
TORSDOF 3
