REMARK  4 active torsions:
REMARK  status: ('A' for Active; 'I' for Inactive)
REMARK    1  A    between atoms: C_2  and  N_1 
REMARK    2  A    between atoms: C_13  and  C_8 
REMARK    3  A    between atoms: C_17  and  C_13 
REMARK    4  A    between atoms: O_18  and  N_15 
ROOT
ATOM      1  N   UNL d   1       4.069   6.905  -0.116  0.00  0.00    -0.160 N 
ATOM      2  N   UNL d   1       4.400   5.699  -0.662  0.00  0.00     0.004 NA
ATOM      3  N   UNL d   1       2.776   6.930   0.352  0.00  0.00    -0.266 N 
ATOM      4  HN  UNL d   1       2.274   7.679   0.828  1.00  0.00     0.190 HD
ATOM      5  N   UNL d   1       3.315   4.946  -0.591  0.00  0.00    -0.270 N 
ATOM      6  HN  UNL d   1       3.215   3.986  -0.922  1.00  0.00     0.185 HD
ATOM      7  C   UNL d   1       2.357   5.705   0.012  0.00  0.00     0.115 A 
ENDROOT
BRANCH   1   8
ATOM      8  C   UNL d   1       4.940   8.031  -0.064  0.00  0.00     0.165 A 
ATOM      9  N   UNL d   1       6.152   7.965  -0.628  0.00  0.00    -0.242 N 
ATOM     10  O   UNL d   1       6.706   9.223  -0.437  0.00  0.00    -0.241 OA
ATOM     11  HN  UNL d   1       6.577   7.165  -1.097  1.00  0.00     0.196 HD
ATOM     12  C   UNL d   1       5.826  10.008   0.247  0.00  0.00     0.076 A 
ATOM     13  C   UNL d   1       4.683   9.291   0.511  0.00  0.00     0.087 A 
ATOM     14  C   UNL d   1       6.268  11.386   0.528  0.00  0.00     0.079 C 
ENDBRANCH   1   8
BRANCH   7  15
ATOM     15  C   UNL d   1       0.962   5.231   0.143  0.00  0.00     0.133 C 
BRANCH  15  16
ATOM     16  C   UNL d   1       0.706   4.512   1.452  0.00  0.00     0.013 C 
ATOM     17  N   UNL d   1      -0.216   4.999   2.233  0.00  0.00    -0.277 N 
ATOM     18  HN  UNL d   1      -0.741   5.850   2.031  1.00  0.00     0.193 HD
ATOM     19  C   UNL d   1       1.487   3.241   1.723  0.00  0.00     0.066 C 
BRANCH  17  20
ATOM     20  O   UNL d   1      -0.402   4.223   3.379  0.00  0.00    -0.290 OA
ATOM     21  H   UNL d   1      -1.104   4.708   3.852  0.00  0.00     0.244 HD
ENDBRANCH  17  20
ENDBRANCH  15  16
ENDBRANCH   7  15
TORSDOF 4
