REMARK  4 active torsions:
REMARK  status: ('A' for Active; 'I' for Inactive)
REMARK    1  A    between atoms: C_11  and  C_20 
REMARK    2  A    between atoms: C_21  and  C_12 
REMARK    3  A    between atoms: O_13  and  C_21 
REMARK    4  A    between atoms: C_20  and  O_13 
ROOT
ATOM      1  O   UNL d   1      -4.569   0.292  -0.224  0.00  0.00    -0.382 OA
ENDROOT
BRANCH   1   2
ATOM      2  C   UNL d   1      -3.558   1.293  -0.148  0.00  0.00     0.206 C 
BRANCH   2   3
ATOM      3  C   UNL d   1      -2.216   0.610  -0.057  0.00  0.00    -0.034 A 
ATOM      4  C   UNL d   1      -1.796  -0.251  -1.087  0.00  0.00     0.019 A 
ATOM      5  C   UNL d   1      -0.570  -0.881  -0.968  0.00  0.00    -0.022 A 
ATOM      6  C   UNL d   1       0.244  -0.653   0.128  0.00  0.00     0.075 A 
ATOM      7  C   UNL d   1       0.119  -1.796  -1.904  0.00  0.00     0.068 C 
ATOM      8  O   UNL d   1       1.427  -1.343   0.090  0.00  0.00    -0.350 OA
ATOM      9  C   UNL d   1      -0.126   0.201   1.146  0.00  0.00     0.038 A 
ATOM     10  C   UNL d   1       1.221  -2.304  -0.973  0.00  0.00     0.180 C 
ATOM     11  C   UNL d   1      -1.370   0.832   1.052  0.00  0.00     0.012 A 
ENDBRANCH   2   3
ENDBRANCH   1   2
BRANCH   1  12
ATOM     12  C   UNL d   1      -5.873   0.860  -0.309  0.00  0.00     0.206 C 
BRANCH  12  13
ATOM     13  C   UNL d   1      -6.913  -0.232  -0.419  0.00  0.00    -0.034 A 
ATOM     14  C   UNL d   1      -6.722  -1.484   0.190  0.00  0.00     0.019 A 
ATOM     15  C   UNL d   1      -7.706  -2.449   0.054  0.00  0.00    -0.022 A 
ATOM     16  C   UNL d   1      -7.767  -3.822   0.601  0.00  0.00     0.068 C 
ATOM     17  C   UNL d   1      -8.876  -2.180  -0.635  0.00  0.00     0.075 A 
ATOM     18  C   UNL d   1      -8.949  -4.351  -0.213  0.00  0.00     0.180 C 
ATOM     19  O   UNL d   1      -9.751  -3.235  -0.668  0.00  0.00    -0.350 OA
ATOM     20  C   UNL d   1      -9.116  -0.951  -1.211  0.00  0.00     0.038 A 
ATOM     21  C   UNL d   1      -8.124   0.027  -1.102  0.00  0.00     0.012 A 
ENDBRANCH  12  13
ENDBRANCH   1  12
TORSDOF 4
