REMARK  3 active torsions:
REMARK  status: ('A' for Active; 'I' for Inactive)
REMARK    1  A    between atoms: C_6  and  C_2 
REMARK    2  A    between atoms: N_13  and  C_3 
REMARK    3  A    between atoms: C_11  and  C_4 
ROOT
ATOM      1  C   UNL d   1      -0.415  -1.176  -0.056  0.00  0.00     0.095 A 
ATOM      2  C   UNL d   1       0.863  -0.634  -0.039  0.00  0.00     0.116 A 
ATOM      3  C   UNL d   1      -0.579   1.047  -0.058  0.00  0.00     0.154 A 
ATOM      4  C   UNL d   1      -1.360  -0.096  -0.043  0.00  0.00     0.049 A 
ATOM      5  O   UNL d   1       0.735   0.731  -0.044  0.00  0.00    -0.290 OA
ATOM      6  C   UNL d   1      -0.701  -2.575  -0.073  0.00  0.00     0.103 C 
ATOM      7  N   UNL d   1      -0.941  -3.710  -0.082  0.00  0.00    -0.191 NA
ENDROOT
BRANCH   2   8
ATOM      8  C   UNL d   1       2.159  -1.274  -0.021  0.00  0.00     0.040 A 
ATOM      9  S   UNL d   1       3.497  -0.488   0.721  0.00  0.00    -0.099 SA
ATOM     10  C   UNL d   1       4.547  -1.791   0.370  0.00  0.00     0.050 A 
ATOM     11  C   UNL d   1       3.904  -2.798  -0.308  0.00  0.00     0.008 A 
ATOM     12  C   UNL d   1       2.529  -2.500  -0.537  0.00  0.00     0.022 A 
ENDBRANCH   2   8
BRANCH   4  13
ATOM     13  C   UNL d   1      -2.827  -0.119  -0.041  0.00  0.00    -0.020 A 
ATOM     14  C   UNL d   1      -3.575   0.873  -0.694  0.00  0.00     0.014 A 
ATOM     15  C   UNL d   1      -4.976   0.832  -0.708  0.00  0.00     0.023 A 
ATOM     16  C   UNL d   1      -5.655  -0.222  -0.095  0.00  0.00     0.044 A 
ATOM     17  C   UNL d   1      -7.085  -0.287  -0.144  0.00  0.00     0.099 C 
ATOM     18  C   UNL d   1      -4.926  -1.219   0.554  0.00  0.00     0.023 A 
ATOM     19  N   UNL d   1      -8.245  -0.339  -0.190  0.00  0.00    -0.191 NA
ATOM     20  C   UNL d   1      -3.526  -1.158   0.594  0.00  0.00     0.014 A 
ENDBRANCH   4  13
BRANCH   3  21
ATOM     21  N   UNL d   1      -0.823   2.364  -0.070  0.00  0.00    -0.379 N 
ATOM     22  H   UNL d   1      -1.704   2.732   0.270  0.00  0.00     0.158 HD
ATOM     23  H   UNL d   1      -0.035   2.984   0.091  0.00  0.00     0.158 HD
ENDBRANCH   3  21
TORSDOF 3
