REMARK  6 active torsions:
REMARK  status: ('A' for Active; 'I' for Inactive)
REMARK    1  A    between atoms: S_14  and  C_2 
REMARK    2  A    between atoms: C_6  and  C_3 
REMARK       I    between atoms: N_9  and  C_6 
REMARK    3  A    between atoms: C_7  and  C_11 
REMARK       I    between atoms: C_8  and  N_10 
REMARK    4  A    between atoms: C_13  and  C_8 
REMARK    5  A    between atoms: N_10  and  N_9 
REMARK    6  A    between atoms: O_25  and  C_12 
ROOT
ATOM      1  C   UNL d   1       2.507   2.057   0.169  0.00  0.00     0.277 C 
ATOM      2  N   UNL d   1       3.880   1.954   0.012  0.00  0.00    -0.263 N 
ATOM      3  O   UNL d   1       1.978   3.159   0.326  0.00  0.00    -0.265 OA
ATOM      4  H   UNL d   1       4.352   1.062  -0.129  0.00  0.00     0.190 HD
ENDROOT
BRANCH   2   5
ATOM      5  N   UNL d   1       4.683   3.096   0.077  0.00  0.00    -0.263 N 
ATOM      6  C   UNL d   1       6.056   2.924   0.072  0.00  0.00     0.270 C 
ATOM      7  O   UNL d   1       6.591   1.824  -0.025  0.00  0.00    -0.266 OA
ATOM      8  H   UNL d   1       4.222   3.956   0.364  0.00  0.00     0.190 HD
BRANCH   6   9
ATOM      9  C   UNL d   1       6.874   4.160   0.218  0.00  0.00     0.033 A 
ATOM     10  C   UNL d   1       8.158   4.060   0.770  0.00  0.00     0.018 A 
ATOM     11  C   UNL d   1       8.954   5.204   0.919  0.00  0.00     0.017 A 
ATOM     12  C   UNL d   1       8.480   6.459   0.508  0.00  0.00     0.048 A 
ATOM     13  C   UNL d   1       7.199   6.545  -0.065  0.00  0.00     0.017 A 
ATOM     14  C   UNL d   1       6.403   5.405  -0.211  0.00  0.00     0.018 A 
BRANCH  12  15
ATOM     15  C   UNL d   1       9.318   7.709   0.656  0.00  0.00     0.417 C 
ATOM     16  F   UNL d   1      10.527   7.490   1.240  0.00  0.00    -0.166 F 
ATOM     17  F   UNL d   1       9.579   8.300  -0.542  0.00  0.00    -0.166 F 
ATOM     18  F   UNL d   1       8.700   8.655   1.414  0.00  0.00    -0.166 F 
ENDBRANCH  12  15
ENDBRANCH   6   9
ENDBRANCH   2   5
BRANCH   1  19
ATOM     19  C   UNL d   1       1.765   0.793   0.120  0.00  0.00     0.082 A 
ATOM     20  C   UNL d   1       0.391   0.585   0.094  0.00  0.00    -0.025 A 
ATOM     21  C   UNL d   1       0.044  -0.825  -0.024  0.00  0.00     0.002 A 
ATOM     22  C   UNL d   1      -0.665   1.663   0.121  0.00  0.00     0.041 C 
ATOM     23  C   UNL d   1       1.173  -1.628   0.019  0.00  0.00     0.051 A 
ATOM     24  C   UNL d   1      -1.396  -1.271  -0.141  0.00  0.00     0.153 C 
ATOM     25  S   UNL d   1       2.604  -0.697   0.100  0.00  0.00    -0.076 SA
ATOM     26  C   UNL d   1      -2.366  -0.113  -0.407  0.00  0.00     0.037 C 
ATOM     27  C   UNL d   1      -2.051   1.103   0.458  0.00  0.00     0.007 C 
BRANCH  23  28
ATOM     28  S   UNL d   1       1.342  -3.379  -0.076  0.00  0.00    -0.126 SA
ATOM     29  C   UNL d   1       0.023  -4.005   0.980  0.00  0.00     0.096 C 
ENDBRANCH  23  28
BRANCH  24  30
ATOM     30  O   UNL d   1      -1.585  -2.222  -1.187  0.00  0.00    -0.391 OA
ATOM     31  H   UNL d   1      -1.004  -1.957  -1.921  0.00  0.00     0.210 HD
ENDBRANCH  24  30
ENDBRANCH   1  19
TORSDOF 6
