REMARK  9 active torsions:
REMARK  status: ('A' for Active; 'I' for Inactive)
REMARK    1  A    between atoms: C_6  and  S_1 
REMARK    2  A    between atoms: C_10  and  S_1 
REMARK    3  A    between atoms: C_2  and  C_3 
REMARK    4  A    between atoms: S_7  and  C_2 
REMARK    5  A    between atoms: C_4  and  C_8 
REMARK    6  A    between atoms: C_5  and  S_20 
REMARK    7  A    between atoms: C_16  and  S_7 
REMARK    8  A    between atoms: C_21  and  C_10 
REMARK    9  A    between atoms: S_20  and  C_21 
ROOT
ATOM      1  S   UNL d   1       2.520  -1.327  -3.590  0.00  0.00    -0.110 SA
ENDROOT
BRANCH   1   2
ATOM      2  C   UNL d   1       1.719  -1.414  -5.194  0.00  0.00     0.084 C 
ATOM      3  C   UNL d   1       0.765  -0.458  -5.559  0.00  0.00     0.054 C 
ATOM      4  C   UNL d   1       0.554  -0.227  -6.926  0.00  0.00     0.020 C 
ATOM      5  C   UNL d   1       1.170  -1.045  -7.867  0.00  0.00     0.018 C 
ATOM      6  C   UNL d   1       1.964  -2.078  -7.405  0.00  0.00     0.089 C 
ATOM      7  N   UNL d   1       2.278  -2.256  -6.101  0.00  0.00    -0.360 N 
ATOM      8  HN  UNL d   1       2.913  -2.999  -5.808  1.00  0.00     0.166 HD
BRANCH   3   9
ATOM      9  C   UNL d   1      -0.042   0.339  -4.601  0.00  0.00     0.222 C 
ATOM     10  O   UNL d   1      -0.263   1.521  -4.830  0.00  0.00    -0.280 OA
BRANCH   9  11
ATOM     11  S   UNL d   1      -0.812  -0.556  -3.291  0.00  0.00    -0.078 SA
BRANCH  11  12
ATOM     12  C   UNL d   1      -1.840   0.672  -2.396  0.00  0.00     0.005 C 
ATOM     13  C   UNL d   1      -2.991   1.164  -3.283  0.00  0.00     0.026 C 
ATOM     14  C   UNL d   1      -2.452  -0.067  -1.185  0.00  0.00     0.026 C 
ATOM     15  C   UNL d   1      -1.004   1.837  -1.854  0.00  0.00     0.026 C 
ENDBRANCH  11  12
ENDBRANCH   9  11
ENDBRANCH   3   9
ENDBRANCH   1   2
BRANCH   1  16
ATOM     16  C   UNL d   1       3.487  -2.876  -3.490  0.00  0.00     0.096 C 
BRANCH  16  17
ATOM     17  C   UNL d   1       4.641  -2.606  -2.536  0.00  0.00     0.156 C 
BRANCH  17  18
ATOM     18  S   UNL d   1       5.456  -4.109  -2.057  0.00  0.00     0.176 S 
ATOM     19  O   UNL d   1       4.524  -4.907  -1.274  0.00  0.00    -0.223 OA
ATOM     20  O   UNL d   1       6.119  -4.668  -3.215  0.00  0.00    -0.223 OA
BRANCH  18  21
ATOM     21  C   UNL d   1       6.720  -3.540  -0.930  0.00  0.00     0.060 A 
ATOM     22  C   UNL d   1       6.428  -3.393   0.434  0.00  0.00     0.039 A 
ATOM     23  C   UNL d   1       7.425  -2.969   1.324  0.00  0.00     0.049 A 
ATOM     24  C   UNL d   1       8.713  -2.704   0.829  0.00  0.00     0.016 A 
ATOM     25  C   UNL d   1       9.003  -2.872  -0.529  0.00  0.00     0.002 A 
ATOM     26  C   UNL d   1       8.009  -3.289  -1.409  0.00  0.00     0.023 A 
BRANCH  23  27
ATOM     27  C   UNL d   1       7.146  -2.784   2.798  0.00  0.00     0.417 C 
ATOM     28  F   UNL d   1       5.878  -3.124   3.158  0.00  0.00    -0.166 F 
ATOM     29  F   UNL d   1       7.973  -3.525   3.585  0.00  0.00    -0.166 F 
ATOM     30  F   UNL d   1       7.312  -1.491   3.195  0.00  0.00    -0.166 F 
ENDBRANCH  23  27
ENDBRANCH  18  21
ENDBRANCH  17  18
ENDBRANCH  16  17
ENDBRANCH   1  16
TORSDOF 9
