REMARK  0 active torsions:
REMARK  status: ('A' for Active; 'I' for Inactive)
ROOT
ATOM      1  N   UNL d   1      -2.416   1.359  -0.006  0.00  0.00    -0.289 N 
ATOM      2  N   UNL d   1      -3.625  -0.667  -0.004  0.00  0.00    -0.270 N 
ATOM      3  C   UNL d   1      -3.646   0.722  -0.005  0.00  0.00     0.332 A 
ATOM      4  C   UNL d   1      -1.193   0.656  -0.004  0.00  0.00     0.127 A 
ATOM      5  C   UNL d   1      -1.202  -0.722  -0.002  0.00  0.00     0.077 A 
ATOM      6  C   UNL d   1      -2.475  -1.438  -0.003  0.00  0.00     0.265 A 
ATOM      7  N   UNL d   1      -0.032   1.363  -0.004  0.00  0.00    -0.341 N 
ATOM      8  HN  UNL d   1      -0.048   2.382  -0.005  1.00  0.00     0.167 HD
ATOM      9  C   UNL d   1       0.005  -1.419  -0.001  0.00  0.00     0.034 A 
ATOM     10  C   UNL d   1       1.144   0.697  -0.002  0.00  0.00     0.044 A 
ATOM     11  C   UNL d   1       1.205  -0.710  -0.001  0.00  0.00    -0.008 A 
ATOM     12  O   UNL d   1      -4.705   1.352  -0.007  0.00  0.00    -0.246 OA
ATOM     13  O   UNL d   1      -2.472  -2.667  -0.002  0.00  0.00    -0.267 OA
ATOM     14  C   UNL d   1       2.347   1.397  -0.002  0.00  0.00     0.037 A 
ATOM     15  C   UNL d   1      -2.356   2.812  -0.009  0.00  0.00     0.163 C 
ATOM     16  C   UNL d   1      -4.883  -1.393  -0.005  0.00  0.00     0.164 C 
ATOM     17  C   UNL d   1       2.440  -1.377   0.001  0.00  0.00     0.014 A 
ATOM     18  C   UNL d   1       3.592   0.744  -0.001  0.00  0.00    -0.060 A 
ATOM     19  C   UNL d   1       3.627  -0.651   0.000  0.00  0.00     0.007 A 
ATOM     20  C   UNL d   1       4.877   1.518  -0.000  0.00  0.00     0.048 C 
ENDROOT
TORSDOF 0
