REMARK  5 active torsions:
REMARK  status: ('A' for Active; 'I' for Inactive)
REMARK       I    between atoms: C_2  and  N_1 
REMARK    1  A    between atoms: O_6  and  C_2 
REMARK    2  A    between atoms: C_4  and  C_3 
REMARK    3  A    between atoms: O_9  and  C_4 
REMARK    4  A    between atoms: C_10  and  O_6 
REMARK    5  A    between atoms: C_13  and  C_10 
ROOT
ATOM      1  N   UNL d   1       1.355  -0.101   0.204  0.00  0.00    -0.327 N 
ATOM      2  C   UNL d   1       2.489   0.013   0.985  0.00  0.00     0.363 C 
ATOM      3  C   UNL d   1      -0.739   1.166   0.322  0.00  0.00     0.102 C 
ATOM      4  C   UNL d   1       0.668   1.096  -0.263  0.00  0.00     0.143 C 
ATOM      5  O   UNL d   1       2.938   1.108   1.320  0.00  0.00    -0.238 OA
ATOM      6  C   UNL d   1       0.726  -1.363  -0.171  0.00  0.00     0.128 C 
ATOM      7  C   UNL d   1      -1.493  -0.120  -0.081  0.00  0.00     0.018 C 
ATOM      8  C   UNL d   1      -0.724  -1.393   0.306  0.00  0.00     0.021 C 
ENDROOT
BRANCH   2   9
ATOM      9  O   UNL d   1       3.052  -1.182   1.300  0.00  0.00    -0.299 OA
BRANCH   9  10
ATOM     10  C   UNL d   1       4.451  -1.140   1.621  0.00  0.00     0.219 C 
BRANCH  10  11
ATOM     11  C   UNL d   1       4.813  -1.720   2.967  0.00  0.00    -0.034 A 
ATOM     12  C   UNL d   1       6.014  -2.444   3.097  0.00  0.00     0.009 A 
ATOM     13  C   UNL d   1       6.462  -2.882   4.344  0.00  0.00     0.001 A 
ATOM     14  C   UNL d   1       5.717  -2.600   5.486  0.00  0.00     0.000 A 
ATOM     15  C   UNL d   1       4.523  -1.890   5.377  0.00  0.00     0.001 A 
ATOM     16  C   UNL d   1       4.072  -1.449   4.125  0.00  0.00     0.009 A 
ENDBRANCH  10  11
ENDBRANCH   9  10
ENDBRANCH   2   9
BRANCH   3  17
ATOM     17  C   UNL d   1      -0.812   1.383   1.830  0.00  0.00     0.145 C 
ATOM     18  O   UNL d   1      -1.788   1.052   2.494  0.00  0.00    -0.650 OA
BRANCH  17  19
ATOM     19  O   UNL d   1       0.211   2.040   2.410  0.00  0.00    -0.776 OA
ATOM     20  H   UNL d   1       1.025   2.203   1.893  0.00  0.00     0.167 HD
ENDBRANCH  17  19
ENDBRANCH   3  17
TORSDOF 5
