REMARK  5 active torsions:
REMARK  status: ('A' for Active; 'I' for Inactive)
REMARK    1  A    between atoms: C_7  and  N_1 
REMARK    2  A    between atoms: S_8  and  C_2 
REMARK    3  A    between atoms: C_14  and  S_8 
REMARK    4  A    between atoms: C_11  and  C_14 
REMARK    5  A    between atoms: C_12  and  C_11 
ROOT
ATOM      1  N   UNL d   1      -0.258  -1.333  -0.037  0.00  0.00    -0.218 N 
ATOM      2  C   UNL d   1       0.971  -0.715  -0.274  0.00  0.00     0.177 A 
ATOM      3  N   UNL d   1       0.829   0.588  -0.184  0.00  0.00    -0.264 N 
ATOM      4  HN  UNL d   1       1.556   1.294  -0.296  1.00  0.00     0.186 HD
ATOM      5  N   UNL d   1      -1.161  -0.335   0.158  0.00  0.00     0.001 NA
ATOM      6  N   UNL d   1      -0.492   0.805   0.089  0.00  0.00    -0.006 NA
ENDROOT
BRANCH   1   7
ATOM      7  C   UNL d   1      -0.627  -2.696   0.158  0.00  0.00     0.062 A 
ATOM      8  C   UNL d   1      -1.921  -3.180  -0.147  0.00  0.00    -0.033 A 
ATOM      9  C   UNL d   1      -2.255  -4.504   0.216  0.00  0.00     0.015 A 
ATOM     10  C   UNL d   1      -2.991  -2.430  -0.900  0.00  0.00     0.050 C 
ATOM     11  C   UNL d   1      -1.338  -5.352   0.847  0.00  0.00    -0.061 A 
ATOM     12  C   UNL d   1      -0.054  -4.877   1.101  0.00  0.00     0.009 A 
ATOM     13  C   UNL d   1      -1.751  -6.736   1.251  0.00  0.00     0.048 C 
ATOM     14  C   UNL d   1       0.299  -3.566   0.764  0.00  0.00     0.032 A 
ENDBRANCH   1   7
BRANCH   2  15
ATOM     15  S   UNL d   1       2.411  -1.510  -0.813  0.00  0.00    -0.084 SA
BRANCH  15  16
ATOM     16  C   UNL d   1       3.599  -0.128  -0.963  0.00  0.00     0.161 C 
BRANCH  16  17
ATOM     17  C   UNL d   1       4.940  -0.627  -1.510  0.00  0.00     0.144 C 
ATOM     18  O   UNL d   1       5.136  -1.817  -1.772  0.00  0.00    -0.296 OA
BRANCH  17  19
ATOM     19  C   UNL d   1       6.109   0.378  -1.654  0.00  0.00     0.010 C 
ATOM     20  C   UNL d   1       6.910   0.377  -0.345  0.00  0.00     0.022 C 
ATOM     21  C   UNL d   1       7.015  -0.108  -2.803  0.00  0.00     0.022 C 
ATOM     22  C   UNL d   1       5.657   1.806  -1.978  0.00  0.00     0.022 C 
ENDBRANCH  17  19
ENDBRANCH  16  17
ENDBRANCH  15  16
ENDBRANCH   2  15
TORSDOF 5
