REMARK  9 active torsions:
REMARK  status: ('A' for Active; 'I' for Inactive)
REMARK    1  A    between atoms: N_7  and  C_1 
REMARK    2  A    between atoms: S_3  and  C_2 
REMARK    3  A    between atoms: C_9  and  S_3 
REMARK    4  A    between atoms: C_12  and  C_4 
REMARK    5  A    between atoms: N_10  and  N_7 
REMARK    6  A    between atoms: C_13  and  C_8 
REMARK    7  A    between atoms: C_16  and  C_9 
REMARK    8  A    between atoms: O_26  and  C_12 
REMARK    9  A    between atoms: C_19  and  C_13 
ROOT
ATOM      1  C   UNL d   1       3.579   3.619   0.160  0.00  0.00     0.175 C 
ATOM      2  N   UNL d   1       2.453   3.081   0.548  0.00  0.00    -0.287 N 
ATOM      3  HN  UNL d   1       2.444   2.371   1.281  1.00  0.00     0.188 HD
ATOM      4  C   UNL d   1       3.570   4.575  -0.930  0.00  0.00     0.123 C 
ATOM      5  N   UNL d   1       3.546   5.366  -1.780  0.00  0.00    -0.190 NA
ENDROOT
BRANCH   1   6
ATOM      6  C   UNL d   1       4.883   3.229   0.813  0.00  0.00     0.195 C 
ATOM      7  O   UNL d   1       5.873   3.184   0.085  0.00  0.00    -0.289 OA
BRANCH   6   8
ATOM      8  C   UNL d   1       4.931   2.887   2.311  0.00  0.00     0.017 C 
ATOM      9  C   UNL d   1       4.611   1.398   2.487  0.00  0.00     0.023 C 
ATOM     10  C   UNL d   1       6.370   3.148   2.806  0.00  0.00     0.023 C 
ATOM     11  C   UNL d   1       3.987   3.737   3.172  0.00  0.00     0.023 C 
ENDBRANCH   6   8
ENDBRANCH   1   6
BRANCH   2  12
ATOM     12  N   UNL d   1       1.287   3.483  -0.043  0.00  0.00    -0.297 N 
ATOM     13  H   UNL d   1       1.158   4.505  -0.162  0.00  0.00     0.187 HD
BRANCH  12  14
ATOM     14  C   UNL d   1       0.142   2.738   0.011  0.00  0.00     0.093 A 
ATOM     15  C   UNL d   1      -1.167   3.333   0.016  0.00  0.00     0.095 A 
ATOM     16  C   UNL d   1      -2.176   2.397   0.004  0.00  0.00     0.076 A 
ATOM     17  S   UNL d   1      -1.569   0.813   0.060  0.00  0.00    -0.092 SA
ATOM     18  C   UNL d   1       0.074   1.350   0.062  0.00  0.00     0.109 A 
BRANCH  15  19
ATOM     19  S   UNL d   1      -1.511   5.034   0.028  0.00  0.00     0.184 S 
ATOM     20  O   UNL d   1      -0.224   5.688   0.183  0.00  0.00    -0.222 OA
ATOM     21  O   UNL d   1      -2.305   5.220  -1.172  0.00  0.00    -0.222 OA
BRANCH  19  22
ATOM     22  C   UNL d   1      -2.550   5.333   1.442  0.00  0.00     0.210 C 
BRANCH  22  23
ATOM     23  C   UNL d   1      -1.848   5.013   2.702  0.00  0.00     0.066 A 
ATOM     24  O   UNL d   1      -2.004   3.745   3.180  0.00  0.00    -0.326 OA
ATOM     25  C   UNL d   1      -1.347   3.683   4.367  0.00  0.00     0.142 A 
ATOM     26  C   UNL d   1      -0.776   4.898   4.664  0.00  0.00     0.027 A 
ATOM     27  C   UNL d   1      -1.098   5.760   3.588  0.00  0.00     0.035 A 
ENDBRANCH  22  23
ENDBRANCH  19  22
ENDBRANCH  15  19
BRANCH  18  28
ATOM     28  C   UNL d   1       1.134   0.349   0.046  0.00  0.00     0.302 C 
ATOM     29  O   UNL d   1       2.255   0.465  -0.439  0.00  0.00    -0.259 OA
BRANCH  28  30
ATOM     30  O   UNL d   1       0.704  -0.799   0.660  0.00  0.00    -0.322 OA
ATOM     31  C   UNL d   1       1.638  -1.876   0.656  0.00  0.00     0.213 C 
ENDBRANCH  28  30
ENDBRANCH  18  28
ENDBRANCH  12  14
ENDBRANCH   2  12
TORSDOF 9
