REMARK  3 active torsions:
REMARK  status: ('A' for Active; 'I' for Inactive)
REMARK    1  A    between atoms: C_8  and  N_4 
REMARK    2  A    between atoms: C_7  and  C_8 
REMARK    3  A    between atoms: O_12  and  C_7 
ROOT
ATOM      1  S   UNL d   1       0.905   0.118  -0.087  0.00  0.00     0.147 S 
ATOM      2  C   UNL d   1       0.039  -1.347   0.402  0.00  0.00     0.170 C 
ATOM      3  C   UNL d   1      -0.205   1.412   0.395  0.00  0.00     0.170 C 
ATOM      4  N   UNL d   1      -2.209  -0.151   0.381  0.00  0.00     0.100 N 
ATOM      5  O   UNL d   1       2.095   0.226   0.737  0.00  0.00    -0.228 OA
ATOM      6  O   UNL d   1       1.006   0.124  -1.535  0.00  0.00    -0.228 OA
ATOM      7  C   UNL d   1      -1.398  -1.300  -0.086  0.00  0.00     0.288 C 
ATOM      8  C   UNL d   1      -1.617   1.121  -0.091  0.00  0.00     0.288 C 
ENDROOT
BRANCH   4   9
ATOM      9  C   UNL d   1      -2.426  -0.131   1.855  0.00  0.00     0.381 C 
BRANCH   9  10
ATOM     10  C   UNL d   1      -3.314  -1.291   2.297  0.00  0.00     0.169 C 
ATOM     11  O   UNL d   1      -3.277  -1.799   3.406  0.00  0.00    -0.649 OA
BRANCH  10  12
ATOM     12  O   UNL d   1      -4.189  -1.670   1.333  0.00  0.00    -0.775 OA
ATOM     13  H   UNL d   1      -4.003  -1.138   0.526  0.00  0.00     0.167 HD
ENDBRANCH  10  12
ENDBRANCH   9  10
ENDBRANCH   4   9
TORSDOF 3
