REMARK  0 active torsions:
REMARK  status: ('A' for Active; 'I' for Inactive)
ROOT
ATOM      1  C   UNL d   1       1.284  -0.735   0.068  0.00  0.00     0.099 A 
ATOM      2  C   UNL d   1       2.556  -1.388   0.118  0.00  0.00     0.104 C 
ATOM      3  N   UNL d   1       3.586  -1.922   0.163  0.00  0.00    -0.191 NA
ATOM      4  C   UNL d   1       0.068  -1.430   0.072  0.00  0.00     0.030 A 
ATOM      5  C   UNL d   1       1.255   0.660   0.019  0.00  0.00     0.138 A 
ATOM      6  F   UNL d   1       2.399   1.361   0.009  0.00  0.00    -0.204 F 
ATOM      7  I   UNL d   1      -0.043  -3.526   0.134  0.00  0.00    -0.043 I 
ATOM      8  C   UNL d   1      -1.153   0.666  -0.012  0.00  0.00     0.004 A 
ATOM      9  C   UNL d   1      -1.147  -0.729   0.032  0.00  0.00     0.020 A 
ATOM     10  C   UNL d   1       0.052   1.362  -0.020  0.00  0.00     0.044 A 
ENDROOT
TORSDOF 0
