REMARK  5 active torsions:
REMARK  status: ('A' for Active; 'I' for Inactive)
REMARK    1  A    between atoms: S_4  and  C_1 
REMARK    2  A    between atoms: C_7  and  C_2 
REMARK    3  A    between atoms: C_12  and  S_4 
REMARK    4  A    between atoms: O_13  and  C_7 
REMARK    5  A    between atoms: C_15  and  C_12 
ROOT
ATOM      1  C   UNL d   1      -0.066  -1.261  -0.030  0.00  0.00     0.089 A 
ATOM      2  C   UNL d   1       0.229   1.059  -0.040  0.00  0.00     0.103 A 
ATOM      3  C   UNL d   1      -0.698   0.026  -0.019  0.00  0.00     0.079 A 
ATOM      4  S   UNL d   1       1.839   0.456  -0.022  0.00  0.00    -0.093 SA
ATOM      5  C   UNL d   1       1.310  -1.162  -0.031  0.00  0.00     0.075 A 
ATOM      6 CL   UNL d   1      -2.402   0.244   0.057  0.00  0.00    -0.081 Cl
ENDROOT
BRANCH   1   7
ATOM      7  S   UNL d   1      -0.879  -2.796   0.018  0.00  0.00     0.177 S 
ATOM      8  O   UNL d   1       0.193  -3.769  -0.061  0.00  0.00    -0.223 OA
ATOM      9  O   UNL d   1      -1.748  -2.707   1.171  0.00  0.00    -0.223 OA
BRANCH   7  10
ATOM     10  C   UNL d   1      -1.839  -2.885  -1.482  0.00  0.00     0.145 C 
BRANCH  10  11
ATOM     11  C   UNL d   1      -2.546  -4.232  -1.597  0.00  0.00     0.011 C 
ATOM     12  C   UNL d   1      -3.390  -4.310  -2.859  0.00  0.00     0.006 C 
ENDBRANCH  10  11
ENDBRANCH   7  10
ENDBRANCH   1   7
BRANCH   2  13
ATOM     13  C   UNL d   1       0.061   2.502  -0.058  0.00  0.00     0.301 C 
ATOM     14  O   UNL d   1       0.873   3.325   0.349  0.00  0.00    -0.259 OA
BRANCH  13  15
ATOM     15  O   UNL d   1      -1.121   2.837  -0.650  0.00  0.00    -0.322 OA
ATOM     16  C   UNL d   1      -1.352   4.244  -0.745  0.00  0.00     0.213 C 
ENDBRANCH  13  15
ENDBRANCH   2  13
TORSDOF 5
