REMARK  5 active torsions:
REMARK  status: ('A' for Active; 'I' for Inactive)
REMARK    1  A    between atoms: N_4  and  S_1 
REMARK    2  A    between atoms: C_9  and  S_1 
REMARK    3  A    between atoms: N_3  and  C_2 
REMARK    4  A    between atoms: S_6  and  N_4 
REMARK    5  A    between atoms: C_7  and  N_8 
ROOT
ATOM      1  C   UNL d   1       2.449  -5.576   1.428  0.00  0.00     0.125 A 
ATOM      2  C   UNL d   1       1.390  -4.677   1.168  0.00  0.00     0.044 A 
ATOM      3  N   UNL d   1       1.802  -9.496  -1.349  0.00  0.00    -0.191 NA
ATOM      4  C   UNL d   1       2.583  -6.814   0.774  0.00  0.00     0.060 A 
ATOM      5  C   UNL d   1       1.732  -8.463  -0.827  0.00  0.00     0.099 C 
ATOM      6  C   UNL d   1       0.456  -5.101   0.201  0.00  0.00     0.028 A 
ATOM      7  C   UNL d   1       1.627  -7.198  -0.162  0.00  0.00     0.047 A 
ATOM      8  C   UNL d   1       0.565  -6.340  -0.448  0.00  0.00     0.024 A 
ENDROOT
BRANCH   1   9
ATOM      9  N   UNL d   1       3.459  -5.272   2.428  0.00  0.00    -0.114 N 
ATOM     10  O   UNL d   1       3.092  -5.142   3.602  0.00  0.00    -0.532 OA
ATOM     11  O   UNL d   1       4.633  -5.216   2.028  0.00  0.00    -0.532 OA
ENDBRANCH   1   9
BRANCH   2  12
ATOM     12  N   UNL d   1       1.260  -3.434   1.824  0.00  0.00    -0.280 NA
ATOM     13  C   UNL d   1      -0.106  -2.873   1.916  0.00  0.00     0.106 C 
ATOM     14  C   UNL d   1      -0.197  -1.798   3.000  0.00  0.00     0.100 C 
ATOM     15  S   UNL d   1       0.840  -0.333   2.658  0.00  0.00    -0.115 SA
ATOM     16  C   UNL d   1       2.366  -1.267   2.366  0.00  0.00     0.100 C 
ATOM     17  C   UNL d   1       2.292  -2.454   1.413  0.00  0.00     0.106 C 
BRANCH  15  18
ATOM     18  N   UNL d   1       0.208   0.017   1.234  0.00  0.00    -0.264 N 
ATOM     19  HN  UNL d   1      -0.808   0.070   1.172  1.00  0.00     0.186 HD
BRANCH  18  20
ATOM     20  S   UNL d   1       1.096   0.308  -0.191  0.00  0.00     0.267 S 
ATOM     21  O   UNL d   1       0.777  -0.747  -1.135  0.00  0.00    -0.200 OA
ATOM     22  O   UNL d   1       2.475   0.648   0.098  0.00  0.00    -0.200 OA
BRANCH  20  23
ATOM     23  C   UNL d   1       0.298   1.776  -0.784  0.00  0.00     0.080 A 
ATOM     24  C   UNL d   1       0.934   3.011  -0.643  0.00  0.00     0.027 A 
ATOM     25  C   UNL d   1       0.322   4.160  -1.141  0.00  0.00     0.025 A 
ATOM     26  C   UNL d   1      -0.915   4.059  -1.784  0.00  0.00     0.034 A 
ATOM     27  C   UNL d   1      -1.541   2.825  -1.937  0.00  0.00     0.025 A 
ATOM     28 CL   UNL d   1      -1.670   5.484  -2.392  0.00  0.00    -0.084 Cl
ATOM     29  C   UNL d   1      -0.933   1.670  -1.445  0.00  0.00     0.027 A 
ENDBRANCH  20  23
ENDBRANCH  18  20
ENDBRANCH  15  18
ENDBRANCH   2  12
TORSDOF 5
