REMARK  4 active torsions:
REMARK  status: ('A' for Active; 'I' for Inactive)
REMARK    1  A    between atoms: C_6  and  C_10 
REMARK    2  A    between atoms: S_20  and  C_7 
REMARK    3  A    between atoms: O_14  and  N_8 
REMARK    4  A    between atoms: C_10  and  O_14 
ROOT
ATOM      1  C   UNL d   1       0.051  -0.775  -0.063  0.00  0.00     0.026 A 
ATOM      2  C   UNL d   1       0.063   0.606  -0.011  0.00  0.00     0.025 A 
ATOM      3  C   UNL d   1      -1.220  -1.536  -0.084  0.00  0.00     0.047 C 
ATOM      4  N   UNL d   1       1.211   1.319   0.035  0.00  0.00    -0.339 N 
ATOM      5  HN  UNL d   1       1.198   2.338   0.091  1.00  0.00     0.168 HD
ATOM      6  C   UNL d   1       2.369   0.638   0.003  0.00  0.00     0.144 A 
ATOM      7  N   UNL d   1      -1.203  -2.806  -0.359  0.00  0.00    -0.261 N 
ATOM      8  HN  UNL d   1      -0.352  -3.327  -0.570  1.00  0.00     0.194 HD
ATOM      9  N   UNL d   1       2.458  -0.701  -0.072  0.00  0.00    -0.346 N 
ATOM     10  HN  UNL d   1       3.359  -1.179  -0.100  1.00  0.00     0.167 HD
ATOM     11  C   UNL d   1       1.287  -1.382  -0.109  0.00  0.00     0.105 A 
ATOM     12  C   UNL d   1      -2.450   0.638  -0.454  0.00  0.00    -0.037 C 
ATOM     13  C   UNL d   1      -1.208   1.413   0.030  0.00  0.00     0.067 C 
ATOM     14  C   UNL d   1      -2.474  -0.737   0.237  0.00  0.00     0.069 C 
ATOM     15  C   UNL d   1      -2.442   0.478  -1.989  0.00  0.00     0.015 C 
ATOM     16  C   UNL d   1      -3.715   1.422  -0.065  0.00  0.00     0.015 C 
ENDROOT
BRANCH   7  17
ATOM     17  O   UNL d   1      -2.490  -3.388  -0.333  0.00  0.00    -0.195 OA
BRANCH  17  18
ATOM     18  C   UNL d   1      -2.468  -4.598  -0.971  0.00  0.00     0.316 C 
ATOM     19  O   UNL d   1      -1.515  -5.119  -1.533  0.00  0.00    -0.257 OA
BRANCH  18  20
ATOM     20  C   UNL d   1      -3.758  -5.314  -0.804  0.00  0.00     0.063 A 
ATOM     21  C   UNL d   1      -5.024  -4.723  -0.891  0.00  0.00     0.050 A 
ATOM     22 CL   UNL d   1      -5.281  -3.063  -1.290  0.00  0.00    -0.083 Cl
ATOM     23  C   UNL d   1      -6.175  -5.508  -0.715  0.00  0.00     0.025 A 
ATOM     24  C   UNL d   1      -6.072  -6.880  -0.480  0.00  0.00     0.002 A 
ATOM     25  C   UNL d   1      -4.818  -7.479  -0.426  0.00  0.00     0.001 A 
ATOM     26  C   UNL d   1      -3.669  -6.703  -0.588  0.00  0.00     0.019 A 
ENDBRANCH  18  20
ENDBRANCH  17  18
ENDBRANCH   7  17
BRANCH   6  27
ATOM     27  S   UNL d   1       3.842   1.628   0.078  0.00  0.00    -0.098 SA
ATOM     28  C   UNL d   1       5.116   0.350  -0.018  0.00  0.00     0.099 C 
ENDBRANCH   6  27
TORSDOF 4
