REMARK  4 active torsions:
REMARK  status: ('A' for Active; 'I' for Inactive)
REMARK    1  A    between atoms: C_3  and  S_1 
REMARK    2  A    between atoms: N_4  and  S_1 
REMARK    3  A    between atoms: C_7  and  N_4 
REMARK    4  A    between atoms: N_8  and  C_9 
REMARK       I    between atoms: C_15  and  N_8 
ROOT
ATOM      1  C   UNL d   1       0.488   1.068   1.579  0.00  0.00     0.081 A 
ATOM      2  C   UNL d   1       0.913   2.397   1.649  0.00  0.00     0.051 A 
ATOM      3  C   UNL d   1      -0.179   2.617   3.819  0.00  0.00     0.056 A 
ATOM      4  C   UNL d   1       0.562   3.168   2.757  0.00  0.00     0.062 A 
ATOM      5  C   UNL d   1      -0.230   0.494   2.626  0.00  0.00     0.027 A 
ATOM      6  C   UNL d   1      -0.556   1.270   3.744  0.00  0.00     0.033 A 
ATOM      7 CL   UNL d   1       1.062   4.825   2.780  0.00  0.00    -0.082 Cl
ENDROOT
BRANCH   1   8
ATOM      8  S   UNL d   1       0.860   0.137   0.118  0.00  0.00     0.259 S 
ATOM      9  O   UNL d   1       0.124  -1.109   0.161  0.00  0.00    -0.201 OA
ATOM     10  O   UNL d   1       2.291   0.201  -0.059  0.00  0.00    -0.201 OA
BRANCH   8  11
ATOM     11  N   UNL d   1       0.181   1.091  -1.077  0.00  0.00    -0.310 N 
ATOM     12  H   UNL d   1       0.772   1.853  -1.408  0.00  0.00     0.172 HD
BRANCH  11  13
ATOM     13  C   UNL d   1      -1.214   0.961  -1.517  0.00  0.00     0.108 C 
ATOM     14  C   UNL d   1      -1.448   1.886  -2.706  0.00  0.00     0.166 C 
ATOM     15  S   UNL d   1      -3.206   2.140  -2.761  0.00  0.00     0.146 S 
ATOM     16  O   UNL d   1      -3.776   1.216  -3.713  0.00  0.00    -0.228 OA
ATOM     17  O   UNL d   1      -3.457   3.565  -2.812  0.00  0.00    -0.228 OA
ATOM     18  C   UNL d   1      -3.560   1.555  -1.116  0.00  0.00     0.142 C 
ATOM     19  C   UNL d   1      -2.210   1.378  -0.436  0.00  0.00     0.041 C 
ENDBRANCH  11  13
ENDBRANCH   8  11
ENDBRANCH   1   8
BRANCH   3  20
ATOM     20  N   UNL d   1      -0.544   3.458   4.898  0.00  0.00    -0.326 N 
ATOM     21  C   UNL d   1      -1.098   3.076   6.103  0.00  0.00     0.218 C 
ATOM     22  O   UNL d   1      -1.281   1.926   6.485  0.00  0.00    -0.274 OA
ATOM     23  C   UNL d   1      -1.506   4.241   6.970  0.00  0.00     0.117 C 
ATOM     24  H   UNL d   1      -0.301   4.437   4.781  0.00  0.00     0.169 HD
ENDBRANCH   3  20
TORSDOF 4
