REMARK  4 active torsions:
REMARK  status: ('A' for Active; 'I' for Inactive)
REMARK    1  A    between atoms: C_8  and  C_1 
REMARK    2  A    between atoms: N_2  and  C_9 
REMARK    3  A    between atoms: S_12  and  C_5 
REMARK    4  A    between atoms: N_17  and  C_6 
ROOT
ATOM      1  C   UNL d   1      -0.102  -1.290   0.023  0.00  0.00     0.054 A 
ATOM      2  N   UNL d   1      -0.103   1.015   0.086  0.00  0.00    -0.284 N 
ATOM      3  HN  UNL d   1       0.190   1.991   0.133  1.00  0.00     0.188 HD
ATOM      4  C   UNL d   1      -1.410  -0.835   0.022  0.00  0.00     0.099 A 
ATOM      5  C   UNL d   1       0.659  -0.072   0.059  0.00  0.00     0.127 A 
ATOM      6  N   UNL d   1      -1.347   0.527   0.039  0.00  0.00    -0.292 N 
ATOM      7  H   UNL d   1      -2.124   1.176   0.019  0.00  0.00     0.187 HD
ENDROOT
BRANCH   1   8
ATOM      8  C   UNL d   1       0.356  -2.680  -0.020  0.00  0.00    -0.019 A 
ATOM      9  C   UNL d   1      -0.351  -3.674  -0.715  0.00  0.00     0.015 A 
ATOM     10  C   UNL d   1       0.127  -4.989  -0.789  0.00  0.00     0.037 A 
ATOM     11  C   UNL d   1       1.349  -5.314  -0.194  0.00  0.00     0.102 A 
ATOM     12  C   UNL d   1       2.074  -4.344   0.502  0.00  0.00     0.037 A 
ATOM     13  C   UNL d   1       1.565  -3.043   0.602  0.00  0.00     0.015 A 
BRANCH  11  14
ATOM     14  N   UNL d   1       1.883  -6.675  -0.320  0.00  0.00    -0.116 N 
ATOM     15  O   UNL d   1       3.021  -6.893   0.125  0.00  0.00    -0.532 OA
ATOM     16  O   UNL d   1       1.167  -7.528  -0.865  0.00  0.00    -0.532 OA
ENDBRANCH  11  14
ENDBRANCH   1   8
BRANCH   4  17
ATOM     17  S   UNL d   1      -3.000  -1.524  -0.023  0.00  0.00    -0.115 SA
ATOM     18  C   UNL d   1      -3.044  -2.454   1.523  0.00  0.00     0.097 C 
ENDBRANCH   4  17
BRANCH   5  19
ATOM     19  N   UNL d   1       1.999   0.024   0.031  0.00  0.00    -0.384 N 
ATOM     20  H   UNL d   1       2.350   0.963  -0.134  0.00  0.00     0.157 HD
ATOM     21  H   UNL d   1       2.532  -0.678  -0.468  0.00  0.00     0.157 HD
ENDBRANCH   5  19
TORSDOF 4
