REMARK  4 active torsions:
REMARK  status: ('A' for Active; 'I' for Inactive)
REMARK    1  A    between atoms: C_6  and  C_1 
REMARK    2  A    between atoms: S_13  and  C_3 
REMARK       I    between atoms: N_8  and  C_6 
REMARK       I    between atoms: C_7  and  N_9 
REMARK    3  A    between atoms: C_11  and  C_7 
REMARK    4  A    between atoms: N_9  and  N_8 
ROOT
ATOM      1  C   UNL d   1      -2.443  -2.171   0.113  0.00  0.00     0.277 C 
ATOM      2  N   UNL d   1      -3.825  -2.128   0.184  0.00  0.00    -0.263 N 
ATOM      3  O   UNL d   1      -1.858  -3.255   0.060  0.00  0.00    -0.265 OA
ATOM      4  H   UNL d   1      -4.342  -1.255   0.281  0.00  0.00     0.190 HD
ENDROOT
BRANCH   1   5
ATOM      5  C   UNL d   1      -1.759  -0.876   0.090  0.00  0.00     0.082 A 
ATOM      6  S   UNL d   1      -2.650   0.593   0.062  0.00  0.00    -0.076 SA
ATOM      7  C   UNL d   1      -1.243   1.561  -0.016  0.00  0.00     0.052 A 
ATOM      8  C   UNL d   1      -0.106   0.781   0.003  0.00  0.00    -0.005 A 
ATOM      9  C   UNL d   1      -0.391  -0.626   0.058  0.00  0.00    -0.023 A 
ATOM     10  C   UNL d   1       1.243   1.250  -0.051  0.00  0.00     0.010 A 
ATOM     11  C   UNL d   1       0.703  -1.662   0.064  0.00  0.00     0.045 A 
ATOM     12  C   UNL d   1       2.137  -1.095  -0.032  0.00  0.00     0.032 A 
ATOM     13  C   UNL d   1       2.283   0.403  -0.058  0.00  0.00    -0.025 A 
BRANCH   7  14
ATOM     14  S   UNL d   1      -1.386   3.311  -0.161  0.00  0.00    -0.126 SA
ATOM     15  C   UNL d   1      -0.787   3.839   1.460  0.00  0.00     0.096 C 
ENDBRANCH   7  14
ENDBRANCH   1   5
BRANCH   2  16
ATOM     16  N   UNL d   1      -4.572  -3.312   0.157  0.00  0.00    -0.263 N 
ATOM     17  C   UNL d   1      -5.873  -3.265   0.615  0.00  0.00     0.270 C 
ATOM     18  O   UNL d   1      -6.399  -2.243   1.044  0.00  0.00    -0.266 OA
ATOM     19  H   UNL d   1      -4.053  -4.176   0.013  0.00  0.00     0.190 HD
BRANCH  17  20
ATOM     20  C   UNL d   1      -6.635  -4.540   0.564  0.00  0.00     0.033 A 
ATOM     21  C   UNL d   1      -7.578  -4.802   1.567  0.00  0.00     0.019 A 
ATOM     22  C   UNL d   1      -8.350  -5.968   1.517  0.00  0.00     0.025 A 
ATOM     23  C   UNL d   1      -8.191  -6.857   0.457  0.00  0.00     0.034 A 
ATOM     24  C   UNL d   1      -7.262  -6.598  -0.552  0.00  0.00     0.025 A 
ATOM     25 CL   UNL d   1      -9.159  -8.277   0.380  0.00  0.00    -0.084 Cl
ATOM     26  C   UNL d   1      -6.480  -5.439  -0.499  0.00  0.00     0.019 A 
ENDBRANCH  17  20
ENDBRANCH   2  16
TORSDOF 4
