REMARK  4 active torsions:
REMARK  status: ('A' for Active; 'I' for Inactive)
REMARK    1  A    between atoms: C_3  and  C_1 
REMARK    2  A    between atoms: C_10  and  C_2 
REMARK    3  A    between atoms: S_4  and  N_12 
REMARK       I    between atoms: N_14  and  C_10 
REMARK    4  A    between atoms: N_12  and  N_14 
ROOT
ATOM      1  C   UNL d   1      -1.343  -0.724   0.268  0.00  0.00     0.145 A 
ATOM      2  C   UNL d   1      -0.096  -1.321   0.116  0.00  0.00     0.095 A 
ATOM      3  O   UNL d   1      -1.206   0.626   0.101  0.00  0.00    -0.234 OA
ATOM      4  N   UNL d   1       0.105   0.960  -0.091  0.00  0.00    -0.264 N 
ATOM      5  HN  UNL d   1       0.488   1.895  -0.230  1.00  0.00     0.194 HD
ATOM      6  C   UNL d   1       0.781  -0.191  -0.061  0.00  0.00     0.047 A 
ATOM      7  C   UNL d   1       2.261  -0.119  -0.173  0.00  0.00     0.071 C 
ENDROOT
BRANCH   2   8
ATOM      8  C   UNL d   1       0.339  -2.711   0.118  0.00  0.00     0.271 C 
ATOM      9  N   UNL d   1      -0.544  -3.712   0.468  0.00  0.00    -0.274 N 
ATOM     10  H   UNL d   1      -1.540  -3.573   0.656  0.00  0.00     0.185 HD
ATOM     11  O   UNL d   1       1.485  -3.024  -0.210  0.00  0.00    -0.266 OA
BRANCH   9  12
ATOM     12  N   UNL d   1      -0.072  -5.102   0.313  0.00  0.00    -0.127 NA
ATOM     13  H   UNL d   1       0.831  -5.150  -0.181  0.00  0.00     0.165 HD
BRANCH  12  14
ATOM     14  S   UNL d   1      -1.223  -6.244  -0.171  0.00  0.00     0.222 S 
ATOM     15  O   UNL d   1      -2.363  -6.128   0.711  0.00  0.00    -0.210 OA
ATOM     16  O   UNL d   1      -1.353  -6.128  -1.607  0.00  0.00    -0.210 OA
ATOM     17  C   UNL d   1      -0.364  -7.757   0.198  0.00  0.00     0.181 C 
ENDBRANCH  12  14
ENDBRANCH   9  12
ENDBRANCH   2   8
BRANCH   1  18
ATOM     18  C   UNL d   1      -2.686  -1.279   0.595  0.00  0.00     0.094 A 
ATOM     19  N   UNL d   1      -2.933  -2.566   0.848  0.00  0.00    -0.258 N 
ATOM     20  O   UNL d   1      -4.266  -2.633   1.216  0.00  0.00    -0.242 OA
ATOM     21  HN  UNL d   1      -2.274  -3.342   0.783  1.00  0.00     0.195 HD
ATOM     22  C   UNL d   1      -4.808  -1.387   1.175  0.00  0.00     0.074 A 
ATOM     23  C   UNL d   1      -3.855  -0.497   0.750  0.00  0.00     0.068 A 
ATOM     24  C   UNL d   1      -6.211  -1.260   1.608  0.00  0.00     0.079 C 
ENDBRANCH   1  18
TORSDOF 4
