REMARK  4 active torsions:
REMARK  status: ('A' for Active; 'I' for Inactive)
REMARK    1  A    between atoms: O_12  and  C_1 
REMARK       I    between atoms: C_3  and  N_4 
REMARK    2  A    between atoms: N_4  and  C_5 
REMARK    3  A    between atoms: C_13  and  C_6 
REMARK    4  A    between atoms: C_9  and  C_13 
ROOT
ATOM      1  C   UNL d   1       1.032   0.027  -0.013  0.00  0.00     0.074 A 
ATOM      2  C   UNL d   1       0.419   1.283  -0.005  0.00  0.00     0.066 A 
ATOM      3  C   UNL d   1      -0.972   1.390   0.024  0.00  0.00     0.037 A 
ATOM      4  C   UNL d   1       0.281  -1.150   0.008  0.00  0.00    -0.021 A 
ATOM      5  C   UNL d   1      -1.117  -1.040   0.048  0.00  0.00     0.012 A 
ATOM      6  C   UNL d   1      -1.736   0.217   0.052  0.00  0.00     0.030 A 
ENDROOT
BRANCH   3   7
ATOM      7  N   UNL d   1      -1.665   2.622   0.025  0.00  0.00    -0.327 N 
ATOM      8  C   UNL d   1      -1.113   3.890   0.003  0.00  0.00     0.218 C 
ATOM      9  O   UNL d   1       0.082   4.172  -0.019  0.00  0.00    -0.274 OA
ATOM     10  C   UNL d   1      -2.143   4.992   0.008  0.00  0.00     0.117 C 
ATOM     11  H   UNL d   1      -2.674   2.557   0.043  0.00  0.00     0.169 HD
ENDBRANCH   3   7
BRANCH   1  12
ATOM     12  O   UNL d   1       2.397  -0.057  -0.048  0.00  0.00    -0.360 OA
ATOM     13  H   UNL d   1       2.763   0.843  -0.026  0.00  0.00     0.217 HD
ENDBRANCH   1  12
BRANCH   4  14
ATOM     14  C   UNL d   1       0.936  -2.511  -0.004  0.00  0.00     0.067 C 
BRANCH  14  15
ATOM     15  C   UNL d   1       1.242  -3.137   1.333  0.00  0.00    -0.032 C 
ATOM     16  C   UNL d   1       1.029  -2.629   2.554  0.00  0.00     0.007 C 
ENDBRANCH  14  15
ENDBRANCH   4  14
TORSDOF 4
