REMARK  6 active torsions:
REMARK  status: ('A' for Active; 'I' for Inactive)
REMARK    1  A    between atoms: N_7  and  S_1 
REMARK    2  A    between atoms: C_8  and  S_1 
REMARK    3  A    between atoms: C_2  and  C_19 
REMARK    4  A    between atoms: C_5  and  O_18 
REMARK    5  A    between atoms: C_19  and  N_7 
REMARK    6  A    between atoms: O_18  and  C_24 
ROOT
ATOM      1  C   UNL d   1      -2.146  -5.863   1.010  0.00  0.00     0.117 A 
ATOM      2  N   UNL d   1      -2.634  -3.261  -1.432  0.00  0.00    -0.191 NA
ATOM      3  N   UNL d   1      -0.794  -8.388   3.115  0.00  0.00    -0.191 NA
ATOM      4  C   UNL d   1      -3.108  -5.234   0.192  0.00  0.00     0.080 A 
ATOM      5  C   UNL d   1      -2.514  -7.028   1.718  0.00  0.00     0.080 A 
ATOM      6  C   UNL d   1      -1.551  -7.768   2.490  0.00  0.00     0.102 C 
ATOM      7  C   UNL d   1      -2.821  -4.152  -0.710  0.00  0.00     0.102 C 
ATOM      8  C   UNL d   1      -3.832  -7.507   1.668  0.00  0.00     0.026 A 
ATOM      9  C   UNL d   1      -4.436  -5.697   0.203  0.00  0.00     0.026 A 
ATOM     10  C   UNL d   1      -4.797  -6.825   0.933  0.00  0.00     0.003 A 
ENDROOT
BRANCH   1  11
ATOM     11  O   UNL d   1      -0.813  -5.515   1.131  0.00  0.00    -0.308 OA
BRANCH  11  12
ATOM     12  C   UNL d   1      -0.390  -4.213   1.037  0.00  0.00     0.076 C 
ATOM     13  C   UNL d   1      -1.107  -3.106   1.499  0.00  0.00     0.039 C 
ATOM     14  C   UNL d   1      -0.662  -1.816   1.195  0.00  0.00     0.027 C 
ATOM     15  C   UNL d   1       0.551  -1.644   0.523  0.00  0.00     0.074 C 
ATOM     16  C   UNL d   1       1.346  -2.748   0.198  0.00  0.00     0.027 C 
ATOM     17  C   UNL d   1       0.865  -4.033   0.447  0.00  0.00     0.039 C 
BRANCH  15  18
ATOM     18  S   UNL d   1       1.138  -0.008   0.141  0.00  0.00     0.241 S 
ATOM     19  O   UNL d   1       0.089   0.935   0.456  0.00  0.00    -0.206 OA
ATOM     20  O   UNL d   1       2.460   0.088   0.724  0.00  0.00    -0.206 OA
BRANCH  18  21
ATOM     21  N   UNL d   1       1.333  -0.043  -1.539  0.00  0.00    -0.211 NA
ATOM     22  H   UNL d   1       1.778  -0.902  -1.858  0.00  0.00     0.140 HD
BRANCH  21  23
ATOM     23  C   UNL d   1       0.144   0.304  -2.330  0.00  0.00     0.144 C 
BRANCH  23  24
ATOM     24  C   UNL d   1       0.528   0.307  -3.788  0.00  0.00    -0.026 A 
ATOM     25  C   UNL d   1      -0.134  -0.457  -4.831  0.00  0.00    -0.009 A 
ATOM     26  C   UNL d   1       0.429  -0.210  -6.090  0.00  0.00     0.015 A 
ATOM     27  C   UNL d   1      -1.224  -1.366  -4.768  0.00  0.00     0.037 A 
ATOM     28  C   UNL d   1      -0.053  -0.835  -7.259  0.00  0.00     0.021 A 
ATOM     29  S   UNL d   1       1.723   0.916  -5.994  0.00  0.00    -0.101 SA
ATOM     30  C   UNL d   1      -1.125  -1.723  -7.161  0.00  0.00     0.025 A 
ATOM     31  C   UNL d   1      -1.702  -1.982  -5.928  0.00  0.00     0.035 A 
ATOM     32 CL   UNL d   1      -3.028  -3.076  -5.821  0.00  0.00    -0.084 Cl
ATOM     33  C   UNL d   1       1.541   1.091  -4.313  0.00  0.00     0.059 A 
ENDBRANCH  23  24
ENDBRANCH  21  23
ENDBRANCH  18  21
ENDBRANCH  15  18
ENDBRANCH  11  12
ENDBRANCH   1  11
TORSDOF 6
