REMARK  2 active torsions:
REMARK  status: ('A' for Active; 'I' for Inactive)
REMARK    1  A    between atoms: S_9  and  C_1 
REMARK    2  A    between atoms: C_11  and  N_4 
ROOT
ATOM      1  C   UNL d   1       2.324  -0.008  -0.033  0.00  0.00     0.144 A 
ATOM      2  N   UNL d   1       1.623  -1.115  -0.037  0.00  0.00    -0.335 N 
ATOM      3  HN  UNL d   1       1.975  -2.072  -0.044  1.00  0.00     0.168 HD
ATOM      4  N   UNL d   1       1.533   1.113  -0.021  0.00  0.00    -0.326 N 
ATOM      5  C   UNL d   1       0.313  -0.708  -0.029  0.00  0.00     0.062 A 
ATOM      6  C   UNL d   1       0.219   0.684  -0.028  0.00  0.00     0.063 A 
ATOM      7  C   UNL d   1      -0.852  -1.487  -0.019  0.00  0.00     0.055 A 
ATOM      8  C   UNL d   1      -1.011   1.354  -0.025  0.00  0.00     0.034 A 
ATOM      9  C   UNL d   1      -2.084  -0.832  -0.010  0.00  0.00     0.036 A 
ATOM     10  C   UNL d   1      -2.166   0.561  -0.015  0.00  0.00     0.026 A 
ATOM     11 CL   UNL d   1      -3.534  -1.764   0.009  0.00  0.00    -0.084 Cl
ENDROOT
BRANCH   1  12
ATOM     12  S   UNL d   1       4.051   0.023  -0.037  0.00  0.00    -0.107 SA
ATOM     13  H   UNL d   1       4.215  -1.308  -0.010  0.00  0.00     0.110 HD
ENDBRANCH   1  12
BRANCH   4  14
ATOM     14  C   UNL d   1       1.967   2.495   0.046  0.00  0.00     0.127 C 
ATOM     15  C   UNL d   1       2.225   3.102  -1.322  0.00  0.00     0.027 C 
ENDBRANCH   4  14
TORSDOF 2
