REMARK  5 active torsions:
REMARK  status: ('A' for Active; 'I' for Inactive)
REMARK    1  A    between atoms: N_5  and  C_1 
REMARK    2  A    between atoms: C_3  and  C_2 
REMARK       I    between atoms: N_6  and  C_3 
REMARK    3  A    between atoms: O_22  and  C_4 
REMARK       I    between atoms: C_9  and  N_6 
REMARK    4  A    between atoms: C_8  and  N_12 
REMARK       I    between atoms: N_12  and  C_9 
REMARK    5  A    between atoms: O_26  and  C_10 
ROOT
ATOM      1  C   UNL d   1       2.383   2.500  -0.615  0.00  0.00     0.265 C 
ATOM      2  N   UNL d   1       3.577   2.056  -1.205  0.00  0.00    -0.275 N 
ATOM      3  C   UNL d   1       4.322   2.598  -2.223  0.00  0.00     0.327 C 
ATOM      4  N   UNL d   1       4.416   3.957  -2.283  0.00  0.00    -0.303 N 
ATOM      5  O   UNL d   1       2.160   3.661  -0.317  0.00  0.00    -0.267 OA
ATOM      6  O   UNL d   1       4.870   1.808  -2.992  0.00  0.00    -0.247 OA
ATOM      7  H   UNL d   1       3.656   1.054  -1.311  0.00  0.00     0.173 HD
ATOM      8  H   UNL d   1       4.331   4.438  -1.392  0.00  0.00     0.171 HD
ENDROOT
BRANCH   1   9
ATOM      9  C   UNL d   1       1.413   1.367  -0.310  0.00  0.00     0.103 C 
ATOM     10  C   UNL d   1       1.938   0.098   0.025  0.00  0.00     0.119 C 
ATOM     11  C   UNL d   1       1.168  -1.042  -0.211  0.00  0.00     0.139 C 
ATOM     12  C   UNL d   1      -0.179  -0.932  -0.547  0.00  0.00     0.065 C 
ATOM     13  C   UNL d   1      -0.758   0.333  -0.678  0.00  0.00     0.070 C 
ATOM     14  C   UNL d   1       0.023   1.504  -0.549  0.00  0.00     0.108 C 
ATOM     15 CL   UNL d   1      -2.418   0.330  -1.169  0.00  0.00    -0.081 Cl
BRANCH  10  16
ATOM     16  O   UNL d   1       3.217   0.041   0.523  0.00  0.00    -0.352 OA
ATOM     17  C   UNL d   1       3.262  -0.518   1.846  0.00  0.00     0.210 C 
ENDBRANCH  10  16
BRANCH  11  18
ATOM     18  N   UNL d   1       1.790  -2.364  -0.295  0.00  0.00    -0.113 N 
ATOM     19  O   UNL d   1       2.950  -2.436  -0.707  0.00  0.00    -0.532 OA
ATOM     20  O   UNL d   1       1.085  -3.334   0.023  0.00  0.00    -0.532 OA
ENDBRANCH  11  18
BRANCH  14  21
ATOM     21  O   UNL d   1      -0.475   2.764  -0.755  0.00  0.00    -0.353 OA
ATOM     22  C   UNL d   1      -1.676   3.084  -0.041  0.00  0.00     0.210 C 
ENDBRANCH  14  21
ENDBRANCH   1   9
BRANCH   4  23
ATOM     23  C   UNL d   1       5.038   4.658  -3.352  0.00  0.00     0.114 A 
ATOM     24  C   UNL d   1       4.991   4.234  -4.690  0.00  0.00     0.149 A 
ATOM     25  C   UNL d   1       5.573   4.986  -5.710  0.00  0.00     0.087 A 
ATOM     26  F   UNL d   1       4.301   3.144  -5.051  0.00  0.00    -0.203 F 
ATOM     27  C   UNL d   1       6.207   6.179  -5.403  0.00  0.00     0.122 A 
ATOM     28  C   UNL d   1       6.283   6.625  -4.091  0.00  0.00     0.087 A 
ATOM     29  F   UNL d   1       6.741   6.917  -6.387  0.00  0.00    -0.206 F 
ATOM     30  C   UNL d   1       5.692   5.865  -3.081  0.00  0.00     0.149 A 
ATOM     31  F   UNL d   1       5.782   6.302  -1.815  0.00  0.00    -0.203 F 
ENDBRANCH   4  23
TORSDOF 5
