REMARK  5 active torsions:
REMARK  status: ('A' for Active; 'I' for Inactive)
REMARK    1  A    between atoms: C_2  and  C_1 
REMARK    2  A    between atoms: C_4  and  C_2 
REMARK    3  A    between atoms: N_7  and  C_3 
REMARK    4  A    between atoms: S_5  and  C_10 
REMARK    5  A    between atoms: C_11  and  S_5 
ROOT
ATOM      1  C   UNL d   1       0.985  -1.151   2.336  0.00  0.00     0.014 A 
ATOM      2  C   UNL d   1       2.086  -0.468   2.869  0.00  0.00     0.017 A 
ATOM      3  C   UNL d   1       0.507  -2.295   2.988  0.00  0.00     0.017 A 
ATOM      4  C   UNL d   1       2.255  -2.099   4.664  0.00  0.00     0.005 A 
ATOM      5  C   UNL d   1       1.143  -2.768   4.143  0.00  0.00     0.020 A 
ATOM      6  C   UNL d   1       2.713  -0.941   4.028  0.00  0.00     0.020 A 
ENDROOT
BRANCH   1   7
ATOM      7  C   UNL d   1       0.269  -0.671   1.119  0.00  0.00     0.183 C 
ATOM      8  O   UNL d   1      -0.930  -0.886   0.982  0.00  0.00    -0.288 OA
BRANCH   7   9
ATOM      9  C   UNL d   1       1.079   0.023   0.081  0.00  0.00     0.072 C 
ATOM     10  C   UNL d   1       0.496   0.730  -0.897  0.00  0.00     0.088 C 
BRANCH  10  11
ATOM     11  N   UNL d   1       1.079   1.429  -1.947  0.00  0.00    -0.398 N 
ATOM     12  C   UNL d   1       2.515   1.478  -2.220  0.00  0.00     0.148 C 
ATOM     13  C   UNL d   1       0.275   2.224  -2.879  0.00  0.00     0.148 C 
ENDBRANCH  10  11
ENDBRANCH   7   9
ENDBRANCH   1   7
BRANCH   4  14
ATOM     14  S   UNL d   1       2.997  -2.636   6.193  0.00  0.00    -0.091 SA
BRANCH  14  15
ATOM     15  C   UNL d   1       4.198  -3.838   5.648  0.00  0.00     0.005 A 
ATOM     16  C   UNL d   1       5.280  -3.475   4.838  0.00  0.00     0.019 A 
ATOM     17  C   UNL d   1       6.254  -4.416   4.495  0.00  0.00     0.001 A 
ATOM     18  C   UNL d   1       6.158  -5.725   4.963  0.00  0.00     0.000 A 
ATOM     19  C   UNL d   1       5.087  -6.095   5.774  0.00  0.00     0.001 A 
ATOM     20  C   UNL d   1       4.112  -5.154   6.117  0.00  0.00     0.019 A 
ENDBRANCH  14  15
ENDBRANCH   4  14
TORSDOF 5
