REMARK  3 active torsions:
REMARK  status: ('A' for Active; 'I' for Inactive)
REMARK    1  A    between atoms: C_4  and  C_1 
REMARK    2  A    between atoms: O_7  and  C_4 
REMARK    3  A    between atoms: C_10  and  O_7 
ROOT
ATOM      1  C   UNL d   1      -0.544  -2.614   0.210  0.00  0.00     0.318 C 
ATOM      2  O   UNL d   1      -1.562  -2.982   0.774  0.00  0.00    -0.257 OA
ENDROOT
BRANCH   1   3
ATOM      3  C   UNL d   1      -0.106  -1.191   0.092  0.00  0.00     0.144 A 
ATOM      4  C   UNL d   1       1.162  -0.759   0.005  0.00  0.00     0.050 A 
ATOM      5  C   UNL d   1       1.064   0.720  -0.031  0.00  0.00     0.313 A 
ATOM      6  C   UNL d   1       2.495  -1.404   0.006  0.00  0.00     0.057 C 
ATOM      7  O   UNL d   1       2.008   1.490  -0.089  0.00  0.00    -0.258 OA
ATOM      8  O   UNL d   1      -0.263   1.067   0.040  0.00  0.00    -0.192 OA
ATOM      9  N   UNL d   1      -0.989  -0.129   0.065  0.00  0.00    -0.247 N 
ATOM     10  C   UNL d   1      -2.297   0.007   0.667  0.00  0.00     0.186 C 
ENDBRANCH   1   3
BRANCH   1  11
ATOM     11  O   UNL d   1       0.367  -3.421  -0.459  0.00  0.00    -0.274 OA
BRANCH  11  12
ATOM     12  C   UNL d   1       0.411  -4.832  -0.408  0.00  0.00     0.079 A 
ATOM     13  C   UNL d   1       1.205  -5.431  -1.391  0.00  0.00     0.039 A 
ATOM     14  C   UNL d   1       1.407  -6.811  -1.372  0.00  0.00     0.026 A 
ATOM     15  C   UNL d   1       0.817  -7.580  -0.370  0.00  0.00     0.034 A 
ATOM     16  C   UNL d   1       0.021  -6.980   0.607  0.00  0.00     0.026 A 
ATOM     17 CL   UNL d   1       1.090  -9.278  -0.327  0.00  0.00    -0.084 Cl
ATOM     18  C   UNL d   1      -0.181  -5.597   0.594  0.00  0.00     0.039 A 
ENDBRANCH  11  12
ENDBRANCH   1  11
TORSDOF 3
