REMARK  7 active torsions:
REMARK  status: ('A' for Active; 'I' for Inactive)
REMARK    1  A    between atoms: N_2  and  C_1 
REMARK       I    between atoms: N_3  and  C_5 
REMARK    2  A    between atoms: C_4  and  N_3 
REMARK    3  A    between atoms: N_9  and  C_4 
REMARK    4  A    between atoms: C_5  and  C_8 
REMARK    5  A    between atoms: O_11  and  C_7 
REMARK    6  A    between atoms: C_18  and  N_9 
REMARK    7  A    between atoms: C_17  and  O_11 
ROOT
ATOM      1  C   UNL d   1       1.833  -0.554   0.375  0.00  0.00     0.137 A 
ATOM      2  C   UNL d   1       0.927  -1.623   0.522  0.00  0.00     0.056 A 
ATOM      3  C   UNL d   1       1.408   0.718  -0.022  0.00  0.00     0.109 A 
ATOM      4  C   UNL d   1      -0.421  -1.431   0.226  0.00  0.00     0.035 A 
ATOM      5  C   UNL d   1       0.057   0.893  -0.334  0.00  0.00     0.041 A 
ATOM      6  C   UNL d   1      -0.852  -0.164  -0.209  0.00  0.00     0.020 A 
ENDROOT
BRANCH   4   7
ATOM      7  C   UNL d   1      -1.461  -2.486   0.398  0.00  0.00     0.257 C 
ATOM      8  N   UNL d   1      -1.037  -3.808   0.314  0.00  0.00    -0.299 N 
ATOM      9  H   UNL d   1      -0.082  -3.986   0.049  0.00  0.00     0.171 HD
ATOM     10  O   UNL d   1      -2.590  -2.124   0.705  0.00  0.00    -0.267 OA
BRANCH   8  11
ATOM     11  C   UNL d   1      -1.819  -4.931   0.198  0.00  0.00     0.179 C 
ATOM     12  S   UNL d   1      -3.354  -5.001  -0.465  0.00  0.00    -0.040 SA
BRANCH  11  13
ATOM     13  N   UNL d   1      -1.292  -6.120   0.634  0.00  0.00    -0.333 N 
ATOM     14  H   UNL d   1      -1.915  -6.893   0.408  0.00  0.00     0.168 HD
BRANCH  13  15
ATOM     15  C   UNL d   1      -0.327  -6.415   1.625  0.00  0.00     0.034 A 
ATOM     16  C   UNL d   1      -0.315  -7.739   2.097  0.00  0.00     0.032 A 
ATOM     17  C   UNL d   1       0.498  -8.112   3.171  0.00  0.00     0.044 A 
ATOM     18  C   UNL d   1       1.331  -7.171   3.757  0.00  0.00     0.116 A 
ATOM     19  C   UNL d   1       1.370  -5.871   3.281  0.00  0.00     0.044 A 
ATOM     20  F   UNL d   1       2.090  -7.514   4.804  0.00  0.00    -0.206 F 
ATOM     21  C   UNL d   1       0.533  -5.492   2.224  0.00  0.00     0.032 A 
ENDBRANCH  13  15
ENDBRANCH  11  13
ENDBRANCH   8  11
ENDBRANCH   4   7
BRANCH   1  22
ATOM     22  N   UNL d   1       3.229  -0.849   0.616  0.00  0.00    -0.113 N 
ATOM     23  O   UNL d   1       3.506  -1.370   1.704  0.00  0.00    -0.532 OA
ATOM     24  O   UNL d   1       4.030  -0.621  -0.303  0.00  0.00    -0.532 OA
ENDBRANCH   1  22
BRANCH   3  25
ATOM     25  O   UNL d   1       2.195   1.816  -0.233  0.00  0.00    -0.308 OA
BRANCH  25  26
ATOM     26  C   UNL d   1       3.070   2.250   0.738  0.00  0.00     0.076 A 
ATOM     27  C   UNL d   1       4.160   2.982   0.264  0.00  0.00     0.039 A 
ATOM     28  C   UNL d   1       5.140   3.443   1.144  0.00  0.00     0.026 A 
ATOM     29  C   UNL d   1       5.022   3.174   2.504  0.00  0.00     0.034 A 
ATOM     30  C   UNL d   1       3.914   2.480   2.992  0.00  0.00     0.026 A 
ATOM     31 CL   UNL d   1       6.249   3.702   3.588  0.00  0.00    -0.084 Cl
ATOM     32  C   UNL d   1       2.922   2.035   2.111  0.00  0.00     0.039 A 
ENDBRANCH  25  26
ENDBRANCH   3  25
TORSDOF 7
