REMARK  2 active torsions:
REMARK  status: ('A' for Active; 'I' for Inactive)
REMARK    1  A    between atoms: N_9  and  N_1 
REMARK       I    between atoms: C_2  and  N_9 
REMARK       I    between atoms: N_10  and  C_2 
REMARK    2  A    between atoms: C_12  and  N_10 
ROOT
ATOM      1  C   UNL d   1      -2.030   2.683   0.249  0.00  0.00     0.339 C 
ATOM      2  N   UNL d   1      -2.418   3.909  -0.253  0.00  0.00    -0.243 N 
ATOM      3  N   UNL d   1      -3.010   1.738   0.021  0.00  0.00    -0.308 N 
ATOM      4  O   UNL d   1      -0.959   2.496   0.812  0.00  0.00    -0.245 OA
ATOM      5  H   UNL d   1      -2.969   3.897  -1.101  0.00  0.00     0.192 HD
ATOM      6  H   UNL d   1      -3.932   2.101  -0.172  0.00  0.00     0.170 HD
ENDROOT
BRANCH   2   7
ATOM      7  N   UNL d   1      -1.538   4.942  -0.215  0.00  0.00    -0.241 N 
ATOM      8  C   UNL d   1      -0.266   4.965  -0.693  0.00  0.00     0.224 A 
ATOM      9  N   UNL d   1       0.155   6.212  -0.713  0.00  0.00    -0.293 N 
ATOM     10  N   UNL d   1      -0.876   7.012  -0.254  0.00  0.00    -0.293 N 
ATOM     11  HN  UNL d   1       1.076   6.531  -1.014  1.00  0.00     0.187 HD
ATOM     12  C   UNL d   1      -1.891   6.227   0.035  0.00  0.00     0.224 A 
ATOM     13  HN  UNL d   1      -0.853   8.028  -0.157  1.00  0.00     0.187 HD
ENDBRANCH   2   7
BRANCH   3  14
ATOM     14  C   UNL d   1      -2.922   0.345   0.213  0.00  0.00     0.036 A 
ATOM     15  C   UNL d   1      -1.732  -0.328   0.500  0.00  0.00     0.029 A 
ATOM     16  C   UNL d   1      -1.722  -1.720   0.641  0.00  0.00     0.002 A 
ATOM     17  C   UNL d   1      -2.900  -2.450   0.494  0.00  0.00     0.000 A 
ATOM     18  C   UNL d   1      -4.090  -1.789   0.207  0.00  0.00     0.002 A 
ATOM     19  C   UNL d   1      -4.101  -0.399   0.065  0.00  0.00     0.029 A 
ENDBRANCH   3  14
TORSDOF 2
