REMARK  10 active torsions:
REMARK  status: ('A' for Active; 'I' for Inactive)
REMARK    1  A    between atoms: C_2  and  S_1 
REMARK    2  A    between atoms: N_7  and  S_1 
REMARK    3  A    between atoms: C_8  and  C_4 
REMARK    4  A    between atoms: C_13  and  N_7 
REMARK    5  A    between atoms: C_14  and  N_7 
REMARK    6  A    between atoms: O_15  and  C_8 
REMARK    7  A    between atoms: C_18  and  C_13 
REMARK    8  A    between atoms: C_19  and  C_14 
REMARK    9  A    between atoms: O_16  and  C_19 
REMARK   10  A    between atoms: O_17  and  C_18 
ROOT
ATOM      1  S   UNL d   1       1.092  -0.145  -0.057  0.00  0.00     0.259 S 
ATOM      2  O   UNL d   1       0.715   0.467  -1.308  0.00  0.00    -0.204 OA
ATOM      3  O   UNL d   1       2.492  -0.324   0.265  0.00  0.00    -0.204 OA
ENDROOT
BRANCH   1   4
ATOM      4  C   UNL d   1       0.449  -1.830  -0.089  0.00  0.00     0.146 A 
ATOM      5  N   UNL d   1      -0.302  -2.438  -1.093  0.00  0.00    -0.336 N 
ATOM      6  C   UNL d   1      -0.519  -3.785  -0.784  0.00  0.00     0.111 A 
ATOM      7  C   UNL d   1      -0.799  -1.855  -2.325  0.00  0.00     0.157 C 
ATOM      8  C   UNL d   1       0.046  -4.005   0.458  0.00  0.00     0.039 A 
ATOM      9  C   UNL d   1       0.666  -2.818   0.866  0.00  0.00     0.046 A 
BRANCH   6  10
ATOM     10  C   UNL d   1      -1.194  -4.764  -1.622  0.00  0.00     0.309 C 
ATOM     11  O   UNL d   1      -1.667  -4.560  -2.735  0.00  0.00    -0.258 OA
BRANCH  10  12
ATOM     12  O   UNL d   1      -1.211  -5.968  -0.986  0.00  0.00    -0.321 OA
ATOM     13  C   UNL d   1      -1.828  -7.025  -1.717  0.00  0.00     0.213 C 
ENDBRANCH  10  12
ENDBRANCH   6  10
ENDBRANCH   1   4
BRANCH   1  14
ATOM     14  N   UNL d   1       0.356   0.699   1.225  0.00  0.00    -0.201 NA
BRANCH  14  15
ATOM     15  C   UNL d   1       0.339   0.053   2.583  0.00  0.00     0.133 C 
BRANCH  15  16
ATOM     16  C   UNL d   1       1.717  -0.207   3.210  0.00  0.00     0.179 C 
BRANCH  16  17
ATOM     17  O   UNL d   1       2.389   1.010   3.521  0.00  0.00    -0.400 OA
ATOM     18  H   UNL d   1       3.336   0.793   3.593  0.00  0.00     0.209 HD
ENDBRANCH  16  17
ENDBRANCH  15  16
ENDBRANCH  14  15
BRANCH  14  19
ATOM     19  C   UNL d   1       0.720   2.157   1.335  0.00  0.00     0.133 C 
BRANCH  19  20
ATOM     20  C   UNL d   1       0.227   3.025   0.175  0.00  0.00     0.179 C 
BRANCH  20  21
ATOM     21  O   UNL d   1      -1.191   2.969   0.053  0.00  0.00    -0.400 OA
ATOM     22  H   UNL d   1      -1.402   3.281  -0.843  0.00  0.00     0.209 HD
ENDBRANCH  20  21
ENDBRANCH  19  20
ENDBRANCH  14  19
ENDBRANCH   1  14
TORSDOF 10
